Measurement: Raman, 514 nm, ccw, Raman Data Processed
Mineral: Sodalite
Rruff sample: R060405
Ideal chemistry: Na_4_Si_3_Al_3_O_12_Cl
Locality: Cerro Sapo, Cochabamba Department, Bolivia
Source: Marcus Origlieri
Description: Blue massive associated with brown burbankite R050646
Measured chemistry: Na_8.00_Al_6.00_Si_6.00_O_24_Cl_2_
Pin_id: L01500
Orientation: Laser parallel to a* (1 0 0). Fiducial mark perpendicular to laser is parallel to c [0 0 1]
Raman shift (cm-1)	intensity
67.115	0
72.065	2204.3
77.012	4360.96
81.956	9177.69
86.899	6775.82
91.838	1588.86
96.775	203.209
101.71	1028.86
106.643	4705.08
111.572	5464.15
116.5	3189.65
121.425	590.482
126.347	873.796
131.267	2015.2
136.185	1614.14
141.1	2196.54
146.012	3102.3
150.922	3332.28
155.83	5300.01
160.735	11257.3
165.638	21797.2
170.538	18182.4
175.436	8749.7
180.331	5906.52
185.224	3937.31
190.115	1840.17
195.002	888.741
199.888	243.391
204.771	236.36
209.651	428.684
214.529	322.893
219.405	47.9033
224.278	984.343
229.148	2000.24
234.016	3369.51
238.882	3670.52
243.745	5285.8
248.606	8808.67
253.464	17362.5
258.319	26930.7
263.173	35147.9
268.023	32917.3
272.871	20778
277.717	13449.4
282.56	11000.4
287.401	13087.8
292.239	17448.3
297.075	15131
301.908	6687.3
306.739	2435.99
311.567	1535.67
316.393	1071.01
321.216	904.837
326.037	843.586
330.855	854.405
335.671	963.292
340.484	773.4
345.295	753.84
350.103	678.66
354.909	758.694
359.712	540.822
364.513	666.011
369.311	970.349
374.107	729.623
378.9	225.627
383.691	285.435
388.479	253.323
393.264	468.469
398.048	783.542
402.828	1462.42
407.606	2666.13
412.382	3148.67
417.155	2382.08
421.926	2767.03
426.694	3670.41
431.459	5002.01
436.222	6715.08
440.983	9262.02
445.741	15562.9
450.496	31307.1
455.249	69247.6
460	142203
464.748	199503
469.493	120800
474.236	49849.6
478.977	24814.3
483.714	14799.6
488.45	10463.9
493.183	8096.47
497.913	7167.37
502.641	4979.73
507.366	3305.06
512.088	2901.15
516.809	2798.85
521.526	2492.45
526.241	2199.01
530.954	1845.14
535.664	1691.47
540.371	1451.2
545.076	1121.15
549.779	811.591
554.479	731.344
559.176	514.282
563.871	221.373
568.563	79.5361
573.253	5.34082
577.94	205.597
582.625	48.9893
587.307	42.4893
591.987	177.289
596.664	136.202
601.338	45.6143
606.01	319.949
610.68	518.004
615.347	94.5039
620.011	16.1963
624.673	10.0469
629.332	12.8721
633.989	0.410156
638.643	14.4199
643.295	195.014
647.944	271.827
652.59	197.209
657.234	450.127
661.876	517.01
666.515	669.61
671.151	726.19
675.785	831.193
680.416	1002.77
685.045	980.092
689.671	1408.12
694.295	1790.91
698.916	2215.22
703.534	1990.16
708.15	1810.33
712.764	1749.93
717.374	1817.89
721.983	1973.35
726.588	2264.61
731.191	3699.53
735.792	4024.55
740.39	2383.08
744.986	1478.54
749.579	981.154
754.169	714.14
758.757	537.519
763.342	498.547
767.925	562.215
772.505	290.422
777.082	290.323
781.657	249.061
786.23	244.902
790.8	306.95
795.367	300.565
799.932	32.0674
804.494	87.2568
809.053	96.1826
813.61	6.125
818.165	8.06543
822.717	61.8623
827.266	56.8369
831.813	64.3115
836.357	1.50098
840.899	7.66211
845.438	32.0273
849.974	131.531
854.508	164.51
859.04	326.272
863.568	192.796
868.095	485.288
872.618	390.068
877.139	382.768
881.658	408.142
886.174	108.046
890.687	6.47363
895.198	112.265
899.706	17.8086
904.212	27.6221
908.715	30.7344
913.215	13.8975
917.713	93.7119
922.208	45.9707
926.701	278.902
931.191	292.969
935.679	440.781
940.164	838.529
944.646	784.398
949.126	1306.24
953.603	2005.93
958.078	4412.48
962.55	9176.9
967.019	13744.8
971.486	13839.7
975.951	13846.6
980.413	25405
984.872	59211
989.328	52095.2
993.782	16359.5
998.234	5878.34
1002.68	3314.68
1007.13	2761.49
1011.57	2911.82
1016.01	1730.67
1020.45	743.045
1024.89	344.817
1029.32	367.762
1033.75	411.276
1038.18	656.687
1042.61	1559.92
1047.03	2936.66
1051.45	4856.91
1055.87	8515.17
1060.28	10278.4
1064.69	8516.52
1069.11	8766.59
1073.51	13268.7
1077.92	9226.67
1082.32	2363.59
1086.72	994.414
1091.12	788.24
1095.51	777.201
1099.9	604.14
1104.29	482.965
1108.68	457.825
1113.06	389.469
1117.44	315.533
1121.82	238.17
1126.2	388.866
1130.57	344.171
1134.94	251.072
1139.31	424.559
1143.68	434.388
1148.04	391.556
1152.4	430.712
1156.76	331.633
1161.12	494.902
1165.47	318.298
1169.82	283.948
1174.17	364.576
1178.51	246.986
1182.86	163.592
1187.19	87.7285
1191.53	111.628
1195.87	74.8477
1200.2	248.79
1204.53	227.767
1208.86	252.897
1213.18	76.2051
1217.5	169.619
1221.82	126.112
1226.14	191.659
1230.45	189.23
1234.76	201.801
1239.07	7.34375
1243.38	83.832
1247.68	82.2481
1251.98	87.5615
1256.28	111.575
1260.58	53.8115
1264.87	54.7139
1269.16	28.5547
1273.45	52.9209
1277.73	20.5371
1282.02	20.1582
1286.3	30.1914
1290.57	107.144
1294.85	30.2832
1299.12	12.1543
1303.39	99.7637
1307.66	51.3535
1311.92	64.8144
1316.18	68.6182
1320.44	115.62
1324.7	23.2383
1328.95	82.4394
1333.2	18.0029
1337.45	217.04
1341.7	186.686
1345.94	362.934
1350.18	300.768
1354.42	299.172
1358.66	324.133
1362.89	438.633
1367.12	457.567
1371.35	488.109
1375.58	566.172
1379.8	773.573
1384.02	827.736
1388.24	827.492
1392.45	785.862
1396.66	845.745
1400.87	888.75
1405.08	887.502
1409.29	999.477
1413.49	987.788
1417.69	977.392
1421.88	1010.5
1426.08	1009.53
1430.27	1005.44
1434.46	922.814
1438.64	963.804
1442.83	873.14
1447.01	1028
1451.19	1106.2
1455.36	1055.84
1459.54	891.64
1463.71	712.805
1467.87	845.625
1472.04	621.854
1476.2	561.719
1480.36	536.797
1484.52	458.062
1488.67	655.523
1492.83	399.193
1496.98	345.365
1501.12	478.702
1505.27	300.904
1509.41	374.661
1513.55	247.715
1517.68	152.906
1521.82	277.485
1525.95	169.197
1530.08	218.376
1534.2	97.4961
1538.33	262.166
1542.45	166.303
1546.57	137.82
1550.68	158.849
1554.8	131.267
1558.91	120.31
1563.01	35.0127
1567.12	74.542
1571.22	0.578125
1575.32	0
