Measurement: Raman, 514 nm, ccw, Raman Data Processed
Mineral: Sodalite
Rruff sample: R060435
Ideal chemistry: Na_4_Si_3_Al_3_O_12_Cl
Locality: Koksha Valley, Badakshan Province, Afghanistan
Source: Herb Obodda
Description: Pale purple fragment
Measured chemistry: (Na_0.99_K_0.01_)_8_Al_6.00_Si_6.00_O_24_Cl_2_
Pin_id: L00857
Orientation: Laser parallel to a* (1 0 0). Fiducial mark perpendicular to laser is parallel to b [0 1 0]
Raman shift (cm-1)	intensity
69.761	0
74.718	1287.19
79.673	1034.22
84.626	1488
89.575	1138.91
94.523	1457.53
99.467	1349.84
104.409	2486.06
109.349	2544.44
114.286	4385.84
119.22	4341.44
124.152	3522
129.081	3181.22
134.008	3605.41
138.932	3829
143.854	4959.59
148.773	4347.75
153.69	5057.31
158.604	8572.38
163.515	12986.2
168.424	11448.5
173.33	7565.06
178.234	5186.47
183.135	4586.06
188.034	3888.19
192.93	3158.09
197.823	2217.97
202.714	3599.03
207.602	3611.72
212.488	2721.03
217.371	3620.31
222.252	1990.56
227.13	3732.28
232.005	4972.31
236.878	3982.25
241.749	4995.81
246.616	6892.44
251.482	8555.72
256.344	13885.1
261.204	19707.9
266.062	17768.2
270.917	12165.1
275.769	8907.59
280.619	6099.34
285.466	6594.81
290.311	7344.56
295.153	9028.59
299.992	4641.34
304.829	1282.88
309.663	202.156
314.495	615.062
319.324	756.75
324.151	568.125
328.975	807.312
333.796	311.375
338.615	505.062
343.432	277.5
348.245	908.188
353.056	707.75
357.865	14.4375
362.671	218.375
367.474	246.312
372.275	31.0625
377.073	68.4375
381.869	289.938
386.662	554.188
391.452	1228.5
396.24	506.875
401.025	1446.44
405.808	878.625
410.588	1841.31
415.366	2480.56
420.141	3269.88
424.913	2657.12
429.683	942.438
434.45	3258.94
439.214	3929.31
443.976	7366.12
448.736	13551.9
453.493	27475.5
458.247	61414.9
462.998	95171.4
467.747	71552.8
472.494	32922.4
477.238	17945.4
481.979	10830.3
486.718	8699.31
491.454	4961.25
496.187	4622.94
500.918	4017.25
505.646	2270.38
510.372	2742.62
515.095	2427.94
519.816	2219.12
524.534	1829.38
529.249	2846
533.962	969.75
538.672	1730.44
543.379	1894
548.084	1666.31
552.786	1498.69
557.486	168.688
562.183	1583.69
566.878	1274.62
571.57	2153.75
576.259	1159
580.946	2323.81
585.63	1933.62
590.311	2596.75
594.99	4065
599.667	2276.31
604.34	2841.5
609.012	2207.69
613.68	2556.81
618.346	2365.81
623.009	2130.25
627.67	2291.62
632.328	2640.12
636.984	3271.62
641.636	2432.38
646.287	3990.31
650.934	4551.12
655.579	5135.88
660.222	4171.62
664.862	2157.88
669.499	4147.69
674.134	3649.94
678.766	3776.19
683.395	2349.94
688.022	2647.56
692.646	3838
697.268	3184.06
701.887	3231.31
706.503	3670
711.117	3103
715.728	1653.38
720.337	719.938
724.943	972.75
729.546	3125.88
734.147	3562
738.745	4411.31
743.341	6164.56
747.933	7815.06
752.524	8375.5
757.111	6718
761.697	5464.5
766.279	7743.06
770.859	5754.12
775.436	3568.12
780.011	805.188
784.583	3927.88
789.152	84.375
793.719	4941.62
798.283	5320.5
802.845	4667.06
807.404	4755.56
811.96	4548.81
816.514	4844.94
821.065	5627.81
825.613	6603.5
830.159	5551.06
834.703	7259.44
839.243	7960.69
843.781	7644.88
848.317	6632.88
852.849	7036.88
857.38	6884.44
861.907	6489.44
866.432	6007.62
870.954	8372.19
875.474	5047.94
879.991	6027.12
884.506	6352.69
889.018	5221.69
893.527	3957
898.034	4967.81
902.538	4773.81
907.039	4494.25
911.538	6063.31
916.034	6025.25
920.528	5645.75
925.018	3924.06
929.507	4186.56
933.992	4993.5
938.476	3043.06
942.956	4002
947.434	4610.56
951.909	3746.81
956.382	2788.81
960.852	4416.25
965.319	6708.44
969.784	7100.19
974.246	7084.75
978.705	10799.9
983.162	21307.9
987.616	30006.3
992.068	15784.1
996.517	7994.31
1000.96	6887.38
1005.41	4746.5
1009.85	4331
1014.29	2077.12
1018.72	1964.94
1023.16	1477.31
1027.59	1080.25
1032.02	1013.88
1036.44	1071.38
1040.86	979.125
1045.28	1274.94
1049.7	883.938
1054.12	1073.75
1058.53	2410.88
1062.94	4728.69
1067.35	4960.69
1071.75	3547.69
1076.15	3443.38
1080.55	1916.25
1084.95	2559.56
1089.34	1952.56
1093.73	3059.19
1098.12	1310.38
1102.51	4236.06
1106.89	2462.06
1111.27	2209.38
1115.65	4072.62
1120.03	3450.94
1124.4	2468.38
1128.77	3330.25
1133.14	1992.19
1137.5	1496.94
1141.86	2067.81
1146.22	1482.94
1150.58	1962.62
1154.93	2431
1159.29	2214.38
1163.64	1397.5
1167.98	2394.56
1172.33	1885.19
1176.67	899.938
1181.01	1238.88
1185.34	398.625
1189.68	119.5
1194.01	841.062
1198.34	1255.12
1202.66	69.6875
1206.99	1311
1211.31	1216.56
1215.62	825.625
1219.94	1176.56
1224.25	626.188
1228.56	2118.38
1232.87	2926.94
1237.17	2185.38
1241.48	2714.44
1245.78	1219.56
1250.07	265
1254.37	675.188
1258.66	509.938
1262.95	929.688
1267.23	2076.25
1271.52	1759.38
1275.8	2075.44
1280.08	1149.5
1284.35	1930.44
1288.63	1739.81
1292.9	1448.25
1297.16	2106.25
1301.43	2187.81
1305.69	768.812
1309.95	1288.19
1314.21	498.25
1318.46	408.938
1322.72	2697.31
1326.97	1626.88
1331.21	817.938
1335.46	157.375
1339.7	313.188
1343.94	1633.56
1348.18	2280.5
1352.41	1390.81
1356.64	1946.38
1360.87	48.8125
1365.1	1181.06
1369.32	2635.94
1373.54	2429.19
1377.76	2117.5
1381.97	3129.12
1386.19	1018.81
1390.4	4512.12
1394.6	1591.44
1398.81	1358.38
1403.01	2274.19
1407.21	2180.88
1411.41	4771.81
1415.6	3565.81
1419.79	2603.81
1423.98	3568.81
1428.17	1759.62
1432.35	2783.94
1436.54	2070.69
1440.71	2565.69
1444.89	2471.94
1449.06	1737.19
1453.23	2796.94
1457.4	3148.19
1461.57	1753.31
1465.73	2981.62
1469.89	879.5
1474.05	2360.62
1478.2	1222.56
1482.36	679.375
1486.51	1551.62
1490.65	103.625
1494.8	945
1498.94	741.938
1503.08	1183.81
1507.22	565.438
1511.35	221.062
1515.48	2857.38
1519.61	1599.88
1523.74	1683.81
1527.86	1476
1531.98	771.812
1536.1	2434.38
1540.22	1526
1544.33	3187.94
1548.44	834.125
1552.55	1998.31
1556.65	2190.56
1560.76	1315.88
1564.86	2975.38
1568.95	1637.88
1573.05	1663.81
1577.14	1148.38
