Measurement: Raman, 514 nm, ccw, Raman Data Processed
Mineral: Sodalite
Rruff sample: R060435
Ideal chemistry: Na_4_Si_3_Al_3_O_12_Cl
Locality: Koksha Valley, Badakshan Province, Afghanistan
Source: Herb Obodda
Description: Pale purple fragment
Measured chemistry: (Na_0.99_K_0.01_)_8_Al_6.00_Si_6.00_O_24_Cl_2_
Pin_id: L00857
Orientation: Laser parallel to a* (1 0 0). Fiducial mark perpendicular to laser is parallel to b [0 1 0]
Raman shift (cm-1)	intensity
69.761	0
74.718	291.469
79.673	1162.11
84.626	1613.69
89.575	716.016
94.523	1659.91
99.467	2030.14
104.409	2314.31
109.349	2551.94
114.286	2928.36
119.22	1361.55
124.152	1055.11
129.081	1544.91
134.008	1491.62
138.932	1735.75
143.854	2867.06
148.773	3194.78
153.69	4202.56
158.604	5737.72
163.515	10724.8
168.424	10091.2
173.33	5581.31
178.234	3543.44
183.135	1698.72
188.034	1689.19
192.93	1696.94
197.823	1451.84
202.714	1962.44
207.602	2316.72
212.488	2132.56
217.371	1755.16
222.252	1550.78
227.13	2064.66
232.005	2785.31
236.878	2362.41
241.749	3869.53
246.616	5178.62
251.482	8220.12
256.344	12415.5
261.204	18468.6
266.062	17180.3
270.917	11617.3
275.769	6790.53
280.619	5348.66
285.466	3389.56
290.311	3699.09
295.153	4956.12
299.992	3291.72
304.829	822.031
309.663	527.188
314.495	563.156
319.324	11.4375
324.151	609.438
328.975	90.6875
333.796	819.656
338.615	2.0625
343.432	9.1875
348.245	745.062
353.056	104.438
357.865	835
362.671	221.688
367.474	272.938
372.275	208.844
377.073	109.75
381.869	394.562
386.662	332.438
391.452	186.562
396.24	230.469
401.025	584.094
405.808	1960.56
410.588	2557.91
415.366	2554.06
420.141	1497.22
424.913	1616.72
429.683	1785.31
434.45	2634.53
439.214	4001.5
443.976	7161.19
448.736	11851.3
453.493	27434.5
458.247	61147.8
462.998	98763.8
467.747	69273.4
472.494	32027
477.238	16783.4
481.979	10478.6
486.718	6929.16
491.454	7454.69
496.187	7287.03
500.918	5825.44
505.646	3995.12
510.372	2917.34
515.095	3509.34
519.816	2422.06
524.534	2889.09
529.249	2596.12
533.962	1691.91
538.672	1921.16
543.379	2469.91
548.084	3221.69
552.786	2781.25
557.486	1592.97
562.183	2476.94
566.878	2466.59
571.57	2477.12
576.259	2284.25
580.946	3164.34
585.63	4437.12
590.311	5138.56
594.99	4592.62
599.667	4191.75
604.34	5365.16
609.012	5961.59
613.68	4428.62
618.346	4761.41
623.009	5147.56
627.67	5479.59
632.328	5042.56
636.984	4725.38
641.636	5771.12
646.287	5781.38
650.934	5812.28
655.579	4373.16
660.222	4890.19
664.862	3835.78
669.499	4925.5
674.134	5179.06
678.766	4060.88
683.395	3333.19
688.022	2492.81
692.646	3207.78
697.268	1748.03
701.887	1471.34
706.503	522.906
711.117	235.125
715.728	259.438
720.337	1839.5
724.943	1564.38
729.546	1689.97
734.147	1732.41
738.745	4015.81
743.341	6079.47
747.933	6299.44
752.524	5889.81
757.111	6003.94
761.697	6007.5
766.279	6384.53
770.859	5449.16
775.436	5337.75
780.011	5825.22
784.583	6041.03
789.152	6198.22
793.719	3989.88
798.283	3361.09
802.845	2625.62
807.404	4031.94
811.96	4923.81
816.514	5511.16
821.065	5456.75
825.613	5781.72
830.159	4358.19
834.703	5103.78
839.243	4093.97
843.781	5088
848.317	4851.38
852.849	4178.06
857.38	4319.16
861.907	3894.09
866.432	3849.41
870.954	4345.91
875.474	3225.97
879.991	3513.84
884.506	3490.41
889.018	3133.12
893.527	1053.06
898.034	1135
902.538	3300
907.039	3024.19
911.538	3864.19
916.034	3686
920.528	3582.94
925.018	1951.5
929.507	2302.62
933.992	3636.56
938.476	2607.69
942.956	1975.88
947.434	3296.25
951.909	2212.94
956.382	2127.69
960.852	2794.5
965.319	3112.62
969.784	4542.56
974.246	4313.19
978.705	8342.38
983.162	20774.4
987.616	29708.4
992.068	13855.6
996.517	6258.12
1000.96	5227.06
1005.41	4618.31
1009.85	3389.94
1014.29	2243.69
1018.72	1345.75
1023.16	681.25
1027.59	1372.25
1032.02	52.125
1036.44	62.8125
1040.86	297
1045.28	233.125
1049.7	831.062
1054.12	3336.75
1058.53	5506.12
1062.94	5543.31
1067.35	4171.25
1071.75	2218.5
1076.15	2197.88
1080.55	1668.38
1084.95	28.9375
1089.34	2024.25
1093.73	2630.25
1098.12	104
1102.51	2518.25
1106.89	1085.19
1111.27	2140.88
1115.65	2904.25
1120.03	2955.25
1124.4	2908.06
1128.77	1248
1133.14	2407.25
1137.5	347.75
1141.86	1474.38
1146.22	1126.31
1150.58	774.938
1154.93	2493.12
1159.29	1987.75
1163.64	56.3125
1167.98	1070.56
1172.33	1161.19
1176.67	635.375
1181.01	911.188
1185.34	96.6875
1189.68	17.9375
1194.01	138.188
1198.34	11
1202.66	218.938
1206.99	1988.88
1211.31	253.438
1215.62	1396.31
1219.94	2113.69
1224.25	977.688
1228.56	2073.19
1232.87	2038.44
1237.17	1999.12
1241.48	1887.5
1245.78	1901.12
1250.07	303
1254.37	1657
1258.66	100.25
1262.95	19.3125
1267.23	1125.12
1271.52	542.938
1275.8	1721.56
1280.08	2595.44
1284.35	889.562
1288.63	1380.06
1292.9	1061.56
1297.16	1323.56
1301.43	2312.44
1305.69	2101.31
1309.95	1737.69
1314.21	1030.75
1318.46	1771.38
1322.72	729.375
1326.97	1545.31
1331.21	608
1335.46	2008.12
1339.7	251.625
1343.94	2366.88
1348.18	1607.38
1352.41	1072.06
1356.64	2616.94
1360.87	1638.12
1365.1	1810.5
1369.32	2345.81
1373.54	2077.94
1377.76	2971.88
1381.97	2937.25
1386.19	1783.94
1390.4	3900.81
1394.6	2102.06
1398.81	2746.38
1403.01	2660.81
1407.21	2619.56
1411.41	3878.25
1415.6	2259
1419.79	3828.31
1423.98	4121.62
1428.17	2725.62
1432.35	3832.75
1436.54	3414.25
1440.71	2682.25
1444.89	3593.5
1449.06	3103.12
1453.23	3750.19
1457.4	2472
1461.57	1439.56
1465.73	2651.38
1469.89	2418.56
1474.05	2609.81
1478.2	1988.88
1482.36	947.125
1486.51	1690.56
1490.65	917
1494.8	2455
1498.94	823.062
1503.08	1798.25
1507.22	1755.69
1511.35	267.625
1515.48	2626.44
1519.61	132.438
1523.74	831.25
1527.86	68.75
1531.98	102.5
1536.1	1826
1540.22	1239.38
1544.33	2271.44
1548.44	1617.44
1552.55	1045.81
1556.65	680.875
1560.76	676.688
1564.86	1253.75
1568.95	538.562
1573.05	593.438
1577.14	2.75
