Measurement: Raman, 514 nm, ccw, Raman Data Processed
Mineral: Sodalite
Rruff sample: R060436
Ideal chemistry: Na_4_Si_3_Al_3_O_12_Cl
Locality: Koksha Valley, Budakshan Province, Afghanistan
Source: Herb Obodda
Description: Pale blue fragment
Measured chemistry: (Na_0.99_K_0.01_)_8_Al_6.00_Si_6.00_O_24_Cl_2.00_
Pin_id: L01849
Orientation: Laser parallel to -a* (-1 0 0). Fiducial mark perpendicular to laser is parallel to c [0 0 1]
Raman shift (cm-1)	intensity
74.718	0
79.673	317.656
84.626	331.141
89.575	410.641
94.523	685.312
99.467	715.219
104.409	514.125
109.349	694.375
114.286	1039.55
119.22	753.156
124.152	585.172
129.081	765.094
134.008	314.391
138.932	764.328
143.854	1882.97
148.773	2684.66
153.69	3735.98
158.604	6872.11
163.515	14090.2
168.424	13842.1
173.33	6649.19
178.234	3275.12
183.135	2486.61
188.034	1476.61
192.93	1256.64
197.823	375.859
202.714	1489.12
207.602	1430.56
212.488	811.469
217.371	1718.19
222.252	1983.39
227.13	2946.09
232.005	3265.92
236.878	3967.61
241.749	4921.55
246.616	7863.31
251.482	12204
256.344	19533.6
261.204	26651.5
266.062	26298.4
270.917	17897.2
275.769	11354.1
280.619	7383.44
285.466	5986.44
290.311	6378.09
295.153	7967.22
299.992	5318.8
304.829	1983.02
309.663	726.938
314.495	587.547
319.324	850.984
324.151	467.25
328.975	246.359
333.796	525.047
338.615	127.641
343.432	197.141
348.245	233.797
353.056	340.016
357.865	454
362.671	438.141
367.474	298.547
372.275	76.0469
377.073	286.203
381.869	763.781
386.662	448.219
391.452	27.4062
396.24	689.203
401.025	977.766
405.808	3080.11
410.588	5226.27
415.366	2931.28
420.141	2612.28
424.913	2709.23
429.683	2805.17
434.45	4934.31
439.214	6379.22
443.976	10336.2
448.736	18812
453.493	40177
458.247	90796.2
462.998	149680
467.747	104955
472.494	47330.2
477.238	24049.7
481.979	15279.8
486.718	11084.8
491.454	9460.2
496.187	9643.62
500.918	7331.12
505.646	4658.98
510.372	4497.88
515.095	2518.5
519.816	3000.98
524.534	2540.08
529.249	2055.58
533.962	2409.92
538.672	1976.33
543.379	2265.27
548.084	1570.09
552.786	1597.62
557.486	986.281
562.183	1136.08
566.878	1874.03
571.57	1236.17
576.259	1223.19
580.946	986.766
585.63	1638.25
590.311	2603.2
594.99	2738.75
599.667	2509.38
604.34	3636.45
609.012	3353
613.68	2536.47
618.346	2021.19
623.009	1845.16
627.67	2828.5
632.328	2444.09
636.984	2325.84
641.636	2622.06
646.287	2345.47
650.934	1955.84
655.579	2128.59
660.222	2455.66
664.862	2391.25
669.499	2602.97
674.134	2535.69
678.766	2450.16
683.395	1571.47
688.022	2188.66
692.646	1968.53
697.268	2135.38
701.887	2248.09
706.503	1903.78
711.117	1030.41
715.728	593.781
720.337	1932.41
724.943	31.1875
729.546	1363.25
734.147	2631.38
738.745	2791.72
743.341	2886.41
747.933	3317.44
752.524	3993.88
757.111	3375.06
761.697	2781.72
766.279	3269
770.859	2477.06
775.436	1774.84
780.011	2227.47
784.583	1584.84
789.152	1406.09
793.719	1127.34
798.283	479.344
802.845	1543.28
807.404	1105.41
811.96	2316.34
816.514	3225
821.065	1574.09
825.613	1307.88
830.159	1896.38
834.703	2075.47
839.243	3068.28
843.781	2870.94
848.317	2214.12
852.849	1884.41
857.38	2000.53
861.907	1120.16
866.432	1852.78
870.954	1624.88
875.474	1328.53
879.991	1275.53
884.506	529.969
889.018	985
893.527	122.812
898.034	490.344
902.538	883.375
907.039	1111.47
911.538	965.25
916.034	968.812
920.528	2089.34
925.018	1026.75
929.507	1153.41
933.992	1419.78
938.476	878.312
942.956	1427.56
947.434	1118.25
951.909	1296.38
956.382	1502.97
960.852	1164.81
965.319	2564.34
969.784	3091.38
974.246	5336.16
978.705	10399.6
983.162	28314.7
987.616	42235.4
992.068	19725.9
996.517	7397.38
1000.96	5334.22
1005.41	3999.28
1009.85	4240.03
1014.29	3808.03
1018.72	2351.81
1023.16	414.781
1027.59	542.969
1032.02	339.969
1036.44	610.75
1040.86	1121.19
1045.28	1162.97
1049.7	3091.72
1054.12	6064.62
1058.53	9069.69
1062.94	7706.25
1067.35	5870.41
1071.75	3509.19
1076.15	2304.53
1080.55	1692.31
1084.95	1030.19
1089.34	859.062
1093.73	853.375
1098.12	15.5625
1102.51	1434.59
1106.89	767.594
1111.27	1153.59
1115.65	1514.53
1120.03	1418.38
1124.4	744.062
1128.77	1508.72
1133.14	810.656
1137.5	2.9375
1141.86	610.719
1146.22	672.969
1150.58	213.469
1154.93	1571.09
1159.29	843.281
1163.64	768.875
1167.98	135.219
1172.33	428.656
1176.67	660.938
1181.01	325.969
1185.34	182.281
1189.68	405.094
1194.01	433
1198.34	233.25
1202.66	185.094
1206.99	1062.44
1211.31	487.438
1215.62	888.719
1219.94	1056.09
1224.25	1223.72
1228.56	1124.09
1232.87	1778.28
1237.17	1283.25
1241.48	879.938
1245.78	558.344
1250.07	807.344
1254.37	864.938
1258.66	173.938
1262.95	715.344
1267.23	1478.91
1271.52	617.469
1275.8	1166.91
1280.08	1413.91
1284.35	93.0938
1288.63	67.1875
1292.9	313.406
1297.16	226.281
1301.43	1124
1305.69	1059.78
1309.95	1036.72
1314.21	1113.09
1318.46	1317.91
1322.72	923.906
1326.97	1574.78
1331.21	143.969
1335.46	1414.56
1339.7	666.562
1343.94	1362.5
1348.18	301.688
1352.41	798.844
1356.64	950.875
1360.87	1018.84
1365.1	757.688
1369.32	1833.41
1373.54	1563.97
1377.76	1068.31
1381.97	1925.41
1386.19	2446.94
1390.4	1127.19
1394.6	1489.47
1398.81	2002.78
1403.01	2455.22
1407.21	1663.66
1411.41	1524.31
1415.6	2277.72
1419.79	1739.56
1423.98	1673.72
1428.17	1412.97
1432.35	2098.75
1436.54	1213.44
1440.71	1005.59
1444.89	1194.59
1449.06	1044.34
1453.23	1592.22
1457.4	811.844
1461.57	2104.88
1465.73	1148.62
1469.89	387.594
1474.05	259.281
1478.2	446.188
1482.36	738.875
1486.51	1640.59
1490.65	937.031
1494.8	917.5
1498.94	874.781
1503.08	1204.66
1507.22	901
1511.35	288.219
1515.48	613.031
1519.61	285.562
1523.74	491.5
1527.86	1098.53
1531.98	685.906
1536.1	1074.28
1540.22	586.188
1544.33	1056.28
1548.44	572.625
1552.55	1420.62
1556.65	613.156
1560.76	973.125
1564.86	2042.5
1568.95	1143.19
1573.05	648.906
1577.14	620.406
