Measurement: Raman, 514 nm, ccw, Raman Data Processed
Mineral: Sodalite
Rruff sample: R060436
Ideal chemistry: Na_4_Si_3_Al_3_O_12_Cl
Locality: Koksha Valley, Budakshan Province, Afghanistan
Source: Herb Obodda
Description: Pale blue fragment
Measured chemistry: (Na_0.99_K_0.01_)_8_Al_6.00_Si_6.00_O_24_Cl_2.00_
Pin_id: L01849
Orientation: Laser parallel to -a* (-1 0 0). Fiducial mark perpendicular to laser is parallel to c [0 0 1]
Raman shift (cm-1)	intensity
74.718	0
79.673	335.438
84.626	2056.42
89.575	1021.19
94.523	14.4844
99.467	827.453
104.409	2150.62
109.349	3628.62
114.286	6390.97
119.22	1491.86
124.152	136.484
129.081	320.125
134.008	498.516
138.932	1259.7
143.854	857.047
148.773	1794.73
153.69	2584.98
158.604	6568.53
163.515	13797.6
168.424	14243.3
173.33	7662.69
178.234	3803.83
183.135	2265.09
188.034	947.906
192.93	401.484
197.823	506.984
202.714	214.344
207.602	480.172
212.488	698.906
217.371	976.844
222.252	1533.19
227.13	2029.83
232.005	2860.25
236.878	4067.19
241.749	4752.64
246.616	7909.19
251.482	11785.5
256.344	19835.7
261.204	27700.1
266.062	27326.2
270.917	18188.3
275.769	11164
280.619	8772.92
285.466	7006.22
290.311	8287.47
295.153	12200.8
299.992	7713.66
304.829	3109.59
309.663	1657.81
314.495	449.406
319.324	131.531
324.151	0.3125
328.975	177.531
333.796	86.5625
338.615	247.375
343.432	216
348.245	750
353.056	345.469
357.865	426.719
362.671	14.2812
367.474	111
372.275	558.281
377.073	375.812
381.869	27.875
386.662	717.844
391.452	118.719
396.24	984.094
401.025	711.5
405.808	2631.69
410.588	2627.78
415.366	2672.97
420.141	2837.91
424.913	3918.5
429.683	4098.41
434.45	5391.97
439.214	7924.06
443.976	13199.8
448.736	23555.1
453.493	44141
458.247	92833.8
462.998	157890
467.747	115338
472.494	51237.9
477.238	26754
481.979	17357.2
486.718	14998.1
491.454	11029.5
496.187	8702.28
500.918	6523.88
505.646	5343.75
510.372	4767.91
515.095	4171.41
519.816	3846.62
524.534	3540.81
529.249	3551.44
533.962	2778.09
538.672	3281.31
543.379	3426.66
548.084	2684.69
552.786	3383.5
557.486	2372.06
562.183	2371.5
566.878	2064.72
571.57	2426.84
576.259	1826
580.946	2285.94
585.63	3044.19
590.311	4125.41
594.99	4103.53
599.667	4025.75
604.34	4220.09
609.012	3888.66
613.68	3524.81
618.346	3526.41
623.009	3630.19
627.67	3427.53
632.328	3429
636.984	4244.88
641.636	4012.78
646.287	3774.34
650.934	3501.38
655.579	2610.91
660.222	3028.97
664.862	3456.81
669.499	3743.16
674.134	2032.12
678.766	3036.75
683.395	2847.91
688.022	1972.72
692.646	2505.16
697.268	3117.25
701.887	2442.94
706.503	2900.25
711.117	3195.28
715.728	893.031
720.337	2417.44
724.943	1914.31
729.546	2169.38
734.147	3648.53
738.745	3761.59
743.341	4951.59
747.933	5163.62
752.524	4724.69
757.111	4452.97
761.697	3992.22
766.279	4656.03
770.859	3852.78
775.436	3350.69
780.011	2135.88
784.583	2247.41
789.152	1436.25
793.719	628.469
798.283	1334.22
802.845	1272.47
807.404	1817.31
811.96	2159.78
816.514	3758.94
821.065	2621.84
825.613	1917.53
830.159	2749.06
834.703	3454.5
839.243	3721.91
843.781	2632.28
848.317	3206.72
852.849	2549.25
857.38	3153.5
861.907	1814.78
866.432	1978.38
870.954	2652.28
875.474	1957.69
879.991	1082.66
884.506	1291.19
889.018	1057.31
893.527	702.875
898.034	657.406
902.538	1122.28
907.039	1261.84
911.538	1148.5
916.034	1602.81
920.528	2394.78
925.018	1133.47
929.507	2221.12
933.992	1439.03
938.476	1691
942.956	616.781
947.434	2330.34
951.909	682.781
956.382	988.156
960.852	1673.34
965.319	2020.41
969.784	3557.34
974.246	5021.22
978.705	11045.9
983.162	29633.6
987.616	45625.1
992.068	21224.3
996.517	8853.56
1000.96	4773.12
1005.41	4391.91
1009.85	3346.5
1014.29	2729.81
1018.72	1596.34
1023.16	771.594
1027.59	141.031
1032.02	662.906
1036.44	1268.75
1040.86	1896.53
1045.28	1254.81
1049.7	2327.5
1054.12	4256.69
1058.53	8512.03
1062.94	12107.5
1067.35	13858.2
1071.75	8338.94
1076.15	4693.88
1080.55	3861.03
1084.95	1957.84
1089.34	1276.09
1093.73	1555.53
1098.12	1134.69
1102.51	1776.47
1106.89	2688.84
1111.27	1379.72
1115.65	1490.09
1120.03	2200.81
1124.4	1477.97
1128.77	1720.25
1133.14	1193.03
1137.5	143.094
1141.86	1576.38
1146.22	526.219
1150.58	602.188
1154.93	2047.12
1159.29	1717.59
1163.64	87.4375
1167.98	214.656
1172.33	229.594
1176.67	427.531
1181.01	1235.5
1185.34	1693.31
1189.68	174.062
1194.01	437.688
1198.34	136.188
1202.66	331.875
1206.99	1433.91
1211.31	885.531
1215.62	20.4062
1219.94	996.906
1224.25	523.469
1228.56	1110.31
1232.87	1782.12
1237.17	1456.12
1241.48	1517.69
1245.78	1061.22
1250.07	172.5
1254.37	507
1258.66	494.938
1262.95	246.562
1267.23	711.344
1271.52	152.344
1275.8	100
1280.08	1623.12
1284.35	1634.34
1288.63	730.719
1292.9	1125
1297.16	1355.09
1301.43	997.062
1305.69	533.719
1309.95	1045.31
1314.21	683.75
1318.46	700.844
1322.72	696.781
1326.97	1282
1331.21	29.4375
1335.46	1805.06
1339.7	1028.5
1343.94	899.562
1348.18	1449.84
1352.41	1500.69
1356.64	545.438
1360.87	701.156
1365.1	865.188
1369.32	2080.72
1373.54	1427.78
1377.76	1162.34
1381.97	2660.97
1386.19	1525.94
1390.4	2467.81
1394.6	1701.91
1398.81	2126.25
1403.01	1919.81
1407.21	1042
1411.41	1901.69
1415.6	2139.62
1419.79	2000.12
1423.98	2920.53
1428.17	926.188
1432.35	1770.66
1436.54	2400.19
1440.71	1407.69
1444.89	480.125
1449.06	640.031
1453.23	1922.16
1457.4	404.375
1461.57	1106.53
1465.73	1285.25
1469.89	344.094
1474.05	1038.28
1478.2	706.625
1482.36	1288.75
1486.51	2071.78
1490.65	296.531
1494.8	1311.44
1498.94	1094.53
1503.08	988
1507.22	1012.69
1511.35	293.438
1515.48	1331.41
1519.61	28.1875
1523.74	1059.12
1527.86	1373.84
1531.98	1106.22
1536.1	1049.66
1540.22	575.281
1544.33	2720.38
1548.44	145.531
1552.55	1232.12
1556.65	1818.91
1560.76	2305.28
1564.86	2522.34
1568.95	4.28125
1573.05	2155.78
1577.14	357.031
