Measurement: Raman, 514 nm, ccw, Raman Data Processed
Mineral: Sodalite
Rruff sample: R060416
Ideal chemistry: Na_4_Si_3_Al_3_O_12_Cl
Locality: Koksha Valley, Badakshan Province, Afghanistan
Source: Herb Obodda
Description: Colorless fragment
Measured chemistry: Na_8.00_Al_6.00_Si_6.00_O_24_Cl_2.00_
Pin_id: L01209
Orientation: Laser parallel to -a* (-1 0 0). Fiducial mark perpendicular to laser is parallel to b [0 1 0]
Raman shift (cm-1)	intensity
71.392	0
76.36	481.541
81.325	385.719
86.287	406.914
91.246	375.094
96.203	598.777
101.156	1948.27
106.107	3261.92
111.055	2681.68
116.001	1848.92
120.944	154.06
125.883	96.3027
130.821	174.764
135.755	231.975
140.686	698.908
145.615	4143.88
150.541	3698.08
155.464	7505.1
160.385	22783.5
165.303	50267.8
170.218	33338.1
175.13	13090.2
180.039	6359.11
184.946	2702.25
189.85	1285.54
194.751	603.027
199.649	649.744
204.545	863.17
209.438	1125.46
214.328	1626.52
219.215	2522.88
224.1	4465.88
228.982	6796.61
233.861	8069.96
238.737	10351.9
243.611	14148.5
248.482	22551.2
253.35	38575.4
258.216	63378.1
263.078	82020.6
267.938	69415.5
272.795	44675.9
277.65	29458.9
282.502	22333.5
287.351	21087.3
292.197	24599.8
297.041	24786.1
301.881	10635
306.72	4869.35
311.555	2702.26
316.388	1648.74
321.218	975.896
326.045	645.834
330.869	67.6328
335.691	29.2305
340.51	23.5312
345.327	117.85
350.14	60.6484
354.951	162.262
359.76	290.688
364.565	129.969
369.368	40.5977
374.168	72.9941
378.966	344.295
383.76	241.072
388.552	804.58
393.342	1340.31
398.128	2248.41
402.912	4571.02
407.693	11544.7
412.472	11577.5
417.248	5852.74
422.021	6144.36
426.792	7749.64
431.559	9985.35
436.324	13307.3
441.087	19392
445.847	32788.8
450.604	63198.8
455.358	140864
460.11	309512
464.859	439720
469.605	240148
474.349	101823
479.09	53387.3
483.828	33737.1
488.564	25505.4
493.297	24790
498.027	27774.3
502.755	16435.6
507.48	10042.6
512.202	8534.97
516.922	7875.64
521.639	7434.53
526.353	6388.66
531.065	6190.66
535.774	5171.81
540.48	4647.37
545.184	4146.91
549.885	3936.76
554.583	3170.26
559.279	2890.57
563.972	2105.11
568.662	2175.24
573.35	1922.5
578.035	1871.73
582.718	2309.07
587.398	2240.79
592.075	2176.91
596.75	2062.69
601.422	3101.1
606.091	4944.14
610.758	4346.78
615.422	2539.04
620.083	2158.75
624.742	2632.68
629.398	2027.53
634.051	1012.21
638.702	721.856
643.351	1019.82
647.996	1155.35
652.639	852.311
657.28	464.225
661.917	15.3359
666.553	22.2988
671.185	311.303
675.815	49.3672
680.442	69.8496
685.067	86.9356
689.689	121.209
694.309	48.9355
698.926	27.0469
703.54	46.3027
708.151	212.662
712.761	194.56
717.367	367.387
721.971	191.945
726.572	525.229
731.171	591.582
735.767	818.232
740.36	832.188
744.951	932.465
749.539	551.084
754.125	9.94336
758.708	171.232
763.288	307.35
767.866	85.5117
772.442	221.254
777.014	408.44
781.584	221.041
786.152	113.072
790.717	201.551
795.279	172.488
799.839	206.721
804.396	236.902
808.951	74.3184
813.503	300.072
818.053	152.322
822.599	228.07
827.144	141.498
831.686	136.777
836.225	372.359
840.761	500.705
845.295	448.336
849.827	725.367
854.356	1119.1
858.882	1527.23
863.406	1555.21
867.927	1362.42
872.446	1311.99
876.962	1132.01
881.476	1118.71
885.987	764.961
890.495	292.322
895.001	285.406
899.505	266.49
904.005	96.75
908.504	210.086
912.999	272.111
917.493	440.861
921.983	249.943
926.471	399.215
930.957	698.934
935.44	712.814
939.92	768.688
944.398	1083.3
948.874	998.826
953.346	1587.5
957.817	1984.69
962.285	2840.42
966.75	4657.47
971.213	7520.31
975.673	15237.2
980.13	42998.5
984.586	118789
989.038	95350.2
993.488	26489.5
997.936	11307.3
1002.38	8195.96
1006.82	8050.53
1011.26	11921.9
1015.7	6470.28
1020.14	2451.64
1024.57	1264.99
1029	1035.91
1033.43	604.981
1037.85	1195.76
1042.27	2676.61
1046.69	5666.05
1051.11	13391.8
1055.53	25313
1059.94	26597.6
1064.35	20741.3
1068.76	14319.1
1073.16	7873.93
1077.56	4474.53
1081.96	2716.47
1086.36	1638.56
1090.75	894.848
1095.15	937.516
1099.54	277.07
1103.92	609.019
1108.31	251.266
1112.69	483.777
1117.07	659.535
1121.45	67.4805
1125.82	100.57
1130.2	147.82
1134.57	130.203
1138.93	31.3008
1143.3	3.03516
1147.66	131.934
1152.02	111.746
1156.38	228.481
1160.73	13.8906
1165.09	77.2969
1169.44	184.176
1173.79	133.117
1178.13	145.922
1182.47	211.688
1186.81	70.8438
1191.15	120.055
1195.49	10.7891
1199.82	66.7383
1204.15	319.996
1208.48	212.293
1212.8	152.473
1217.13	483.371
1221.45	374.094
1225.77	303.637
1230.08	602.988
1234.39	694.148
1238.7	849.117
1243.01	659.473
1247.32	816.93
1251.62	827.418
1255.92	783.91
1260.22	890.195
1264.52	818.281
1268.81	900.059
1273.1	1183.96
1277.39	947.637
1281.68	896.953
1285.96	716.016
1290.24	732.309
1294.52	530.422
1298.8	767.586
1303.07	832.461
1307.35	486.391
1311.62	1090.92
1315.88	961.598
1320.15	886.117
1324.41	696.41
1328.67	626.078
1332.92	299.359
1337.18	255.129
1341.43	279.219
1345.68	561.523
1349.93	476.938
1354.17	582.109
1358.42	269.941
1362.66	218.894
1366.89	217.969
1371.13	425.914
1375.36	205.34
1379.59	388.894
1383.82	509.629
1388.05	462.551
1392.27	449.414
1396.49	470.887
1400.71	672.453
1404.93	352.129
1409.14	463.41
1413.35	409.371
1417.56	348.367
1421.77	489.57
1425.97	339.047
1430.17	369.461
1434.37	634.617
1438.57	1285.13
1442.76	1659.55
1446.96	1729.08
1451.15	1912.48
1455.33	2324.34
1459.52	1981.75
1463.7	1382.72
1467.88	1132.16
1472.06	943.106
1476.23	858.316
1480.41	740.59
1484.58	765.422
1488.75	491.836
1492.91	191.625
1497.08	121.926
1501.24	168.129
1505.4	407.875
1509.55	685.305
1513.71	149.656
1517.86	176.062
1522.01	36.1992
1526.15	221.496
1530.3	99.1875
1534.44	590.023
1538.58	175.523
1542.72	220.527
1546.85	319.969
1550.99	179.269
1555.12	635.062
1559.24	92.832
1563.37	137.824
1567.49	153.012
1571.62	209.379
1575.73	340.379
