Measurement: Raman, 514 nm, ccw, Raman Data Processed
Mineral: Sodalite
Rruff sample: R060354
Ideal chemistry: Na_4_Si_3_Al_3_O_12_Cl
Locality: Koksha Valley, Badakshan Province, Afghanistan
Source: Herb Obodda
Description: Pale purple transparent fragment
Measured chemistry: (Na_0.99_K_0.01_)_8_Al_6.00_Si_6.00_O_24_Cl_2.00_
Pin_id: L01562
Orientation: Laser parallel to a* (1 0 0). Fiducial mark perpendicular to laser is parallel to -c [0 0 -1]
Raman shift (cm-1)	intensity
61.448	0
66.421	637.102
71.392	273.805
76.36	230.215
81.325	631.062
86.287	279.828
91.246	621.168
96.203	226.184
101.156	260.449
106.107	927.543
111.055	750.856
116.001	455.164
120.944	4460.22
125.883	800.887
130.821	100.519
135.755	22.8672
140.686	143.672
145.615	753.859
150.541	551.246
155.464	1017.71
160.385	2640.23
165.303	5845.77
170.218	3238.29
175.13	1765.81
180.039	1057.38
184.946	590.059
189.85	274.043
194.751	107.887
199.649	270.023
204.545	231.871
209.438	37.5859
214.328	627.555
219.215	18.7734
224.1	609.891
228.982	913.992
233.861	1298.44
238.737	1170.52
243.611	1866.84
248.482	2778.3
253.35	4595.24
258.216	7333.09
263.078	9794.22
267.938	8007.65
272.795	5325.38
277.65	3077.74
282.502	2396.44
287.351	2036.14
292.197	2643.09
297.041	2969.32
301.881	1431.86
306.72	884.695
311.555	502.844
316.388	397.324
321.218	122.07
326.045	172.137
330.869	367.43
335.691	28.0547
340.51	228.019
345.327	318.18
350.14	25.6758
354.951	182.945
359.76	297.156
364.565	36.0703
369.368	435.512
374.168	337.648
378.966	377.32
383.76	313.336
388.552	62.5781
393.342	46.4414
398.128	136.922
402.912	650.148
407.693	1192.12
412.472	1199.94
417.248	742.5
422.021	756.836
426.792	1193.02
431.559	1272.06
436.324	1948.09
441.087	2648.02
445.847	3952.77
450.604	7579.59
455.358	16247.3
460.11	39418.2
464.859	52289.8
469.605	26578.5
474.349	12352.1
479.09	6563.61
483.828	4494.59
488.564	3069.2
493.297	2962.23
498.027	2733.07
502.755	2031.98
507.48	886.305
512.202	845.766
516.922	1002.55
521.639	1200.2
526.353	894.227
531.065	404.773
535.774	796.414
540.48	872.789
545.184	585.062
549.885	563.297
554.583	459.453
559.279	105.609
563.972	88.2422
568.662	174.25
573.35	350.773
578.035	600.867
582.718	213.766
587.398	231.602
592.075	359.883
596.75	587.266
601.422	768.625
606.091	547.227
610.758	379.195
615.422	518.797
620.083	663.07
624.742	308.172
629.398	312.008
634.051	475.656
638.702	517.969
643.351	556.906
647.996	115.211
652.639	261.594
657.28	339.312
661.917	149.781
666.553	40.7734
671.185	575.164
675.815	24.8516
680.442	82.9844
685.067	369.375
689.689	68.9297
694.309	419.961
698.926	214.297
703.54	102.758
708.151	67.8281
712.761	317.211
717.367	324.367
721.971	425.648
726.572	57.7578
731.171	317.773
735.767	74.8984
740.36	614.07
744.951	807.859
749.539	313.273
754.125	734.445
758.708	591.969
763.288	515.516
767.866	252.094
772.442	682.672
777.014	337.258
781.584	294.562
786.152	518.781
790.717	163.531
795.279	325.148
799.839	322.164
804.396	714.422
808.951	497.516
813.503	698.672
818.053	583.352
822.599	517.984
827.144	727.68
831.686	761.742
836.225	726.875
840.761	626.594
845.295	323.07
849.827	586.641
854.356	768.633
858.882	318.109
863.406	159.133
867.927	435.68
872.446	706.805
876.962	399.406
881.476	254.281
885.987	666.219
890.495	523.5
895.001	59.6016
899.505	177.07
904.005	371.297
908.504	242.477
912.999	435.477
917.493	433.328
921.983	268.57
926.471	290.68
930.957	843.969
935.44	691.195
939.92	238.617
944.398	215.461
948.874	986.547
953.346	615.883
957.817	927.578
962.285	1283.63
966.75	1929.11
971.213	2146.95
975.673	2209.1
980.13	4786.63
984.586	13247.5
989.038	13008
993.488	5039.72
997.936	2359.85
1002.38	1728.29
1006.82	1551.48
1011.26	1164.49
1015.7	957.297
1020.14	947.398
1024.57	633.719
1029	338.289
1033.43	21.7578
1037.85	21.3359
1042.27	196.891
1046.69	708.32
1051.11	1006.66
1055.53	1673.65
1059.94	2282.62
1064.35	1770.64
1068.76	916.281
1073.16	484.227
1077.56	195.484
1081.96	583.031
1086.36	723.828
1090.75	531.914
1095.15	292.352
1099.54	820.906
1103.92	267.828
1108.31	535.18
1112.69	630.766
1117.07	925.586
1121.45	729.625
1125.82	563.875
1130.2	893.336
1134.57	463.766
1138.93	293.117
1143.3	266.633
1147.66	666.305
1152.02	611.328
1156.38	351.453
1160.73	453.047
1165.09	280.281
1169.44	615.844
1173.79	374.578
1178.13	669.242
1182.47	595.406
1186.81	313.305
1191.15	27.1797
1195.49	375.367
1199.82	70.0391
1204.15	465.93
1208.48	309.789
1212.8	660.727
1217.13	526.719
1221.45	144.766
1225.77	361.82
1230.08	555.688
1234.39	1001.95
1238.7	993.758
1243.01	426.555
1247.32	659.328
1251.62	731.078
1255.92	446.773
1260.22	601.414
1264.52	593.219
1268.81	50.8359
1273.1	405.883
1277.39	320.32
1281.68	196.656
1285.96	1039.87
1290.24	617.938
1294.52	635.078
1298.8	507.266
1303.07	512.344
1307.35	112.008
1311.62	219.664
1315.88	140.984
1320.15	466.836
1324.41	505.117
1328.67	111.273
1332.92	577.102
1337.18	174.469
1341.43	615.438
1345.68	539.922
1349.93	383.781
1354.17	246.141
1358.42	348.547
1362.66	350.047
1366.89	792
1371.13	494.539
1375.36	808.656
1379.59	1055.73
1383.82	501
1388.05	1259.86
1392.27	489.852
1396.49	445.023
1400.71	529.852
1404.93	640.312
1409.14	815.219
1413.35	782.992
1417.56	846.234
1421.77	531.484
1425.97	279.711
1430.17	641.516
1434.37	700.914
1438.57	563.938
1442.76	694.117
1446.96	539.43
1451.15	593.406
1455.33	342.43
1459.52	1064.66
1463.7	660.078
1467.88	349.57
1472.06	237.789
1476.23	336.094
1480.41	214.375
1484.58	503.648
1488.75	78.5547
1492.91	447.258
1497.08	452.828
1501.24	158.219
1505.4	182.445
1509.55	301.617
1513.71	600.57
1517.86	71.5938
1522.01	226.711
1526.15	690.453
1530.3	116.508
1534.44	631.297
1538.58	627.766
1542.72	630.336
1546.85	99.9922
1550.99	319.719
1555.12	463.672
1559.24	137.172
1563.37	725.359
1567.49	569.398
1571.62	578.164
1575.73	539.062
