Measurement: Raman, 514 nm, depolarized, Raman Data Processed
Mineral: Sodalite
Rruff sample: R060355
Ideal chemistry: Na_4_Si_3_Al_3_O_12_Cl
Locality: Mont Saint-Hilaire, Quebec, Canada
Source: Herb Obodda
Description: Clear colorless fragment
Measured chemistry: (Na_0.98_[box]_0.02_)_8_Al_6.00_(Si_0.99_Al_0.01_)_6_O_24_Cl_1.82_
Pin_id: L00616
Orientation: Laser parallel to a* (1 0 0). Fiducial mark perpendicular to laser is parallel to -c [0 0 -1]
Raman shift (cm-1)	intensity
125.385	0
130.313	687.238
135.239	2.08203
140.163	498.898
145.084	469.082
150.002	440.906
154.918	733
159.832	3496.6
164.742	6542.28
169.651	4312.95
174.556	2073.75
179.459	1266.86
184.36	404.914
189.258	179.074
194.153	275.113
199.046	330.316
203.936	277.078
208.824	136.602
213.709	377.231
218.592	59.1289
223.472	427.965
228.349	1128.71
233.224	1852.43
238.096	1973.22
242.966	2808.78
247.833	4106.23
252.698	7439.5
257.56	12505.8
262.419	16054.7
267.276	13304.4
272.13	8327.88
276.982	5127.14
281.831	3719.71
286.677	4013.95
291.521	5700.06
296.363	5172.78
301.202	2000.06
306.038	888.527
310.872	587.25
315.703	273.469
320.531	262.918
325.357	124.617
330.181	45.6602
335.001	393.75
339.82	143.57
344.635	5.41406
349.448	17.418
354.259	6.52344
359.067	126.652
363.872	110.496
368.675	29.8125
373.475	30.4297
378.272	123.289
383.067	275.367
387.86	113.062
392.649	450.09
397.437	440.504
402.221	1198.38
407.003	2295.26
411.783	2158.68
416.56	1575.04
421.334	1329.58
426.106	1679.62
430.875	2606.61
435.641	3101.61
440.405	4109.74
445.167	6666.25
449.925	12202.6
454.681	26455.2
459.435	62899.3
464.186	88008.6
468.934	45003.7
473.68	20038.4
478.423	11441.6
483.164	7205.56
487.902	5345.96
492.637	4621.73
497.37	4148.52
502.1	2764.5
506.828	2283.43
511.553	1866.27
516.276	2139.33
520.995	1492.23
525.713	1583.07
530.427	1495
535.139	1213.13
539.849	1100.93
544.556	755.789
549.26	997.144
553.962	977.508
558.661	948.555
563.357	625.465
568.051	715.879
572.742	933.93
577.431	578.356
582.117	923.164
586.801	725.394
591.481	712.078
596.16	1074.31
600.835	809.168
605.508	1272.69
610.179	1081.97
614.847	1453.22
619.512	1518.46
624.175	1664.81
628.835	1477.59
633.492	1020.33
638.147	780.551
642.799	1204.96
647.449	911.551
652.096	1328.06
656.74	152.996
661.382	127.731
666.021	185.121
670.658	123.246
675.292	94.2617
679.923	91.3984
684.552	227.641
689.178	39.4023
693.802	97.8672
698.423	208.109
703.041	891.898
707.657	1913.92
712.27	3709.56
716.881	3919.82
721.489	2966.95
726.094	2598.51
730.697	2213.07
735.297	2661.71
739.894	1993.07
744.489	1405.84
749.081	1271.25
753.671	1312.28
758.258	1213.07
762.842	971.695
767.424	699.613
772.003	855.656
776.58	1548.93
781.154	2224.37
785.725	1005.48
790.294	903.203
794.86	74.1641
799.424	154.363
803.985	256.801
808.543	273.324
813.099	412.234
817.652	996.461
822.202	293.246
826.75	510.707
831.295	626.375
835.838	793.656
840.378	1547.9
844.915	1395.87
849.45	1139.08
853.982	1496.46
858.512	1655.88
863.039	1724.98
867.563	1164.54
872.085	960.559
876.604	718.176
881.12	423.387
885.634	134.215
890.145	373.469
894.654	24.8203
899.16	59.375
903.663	167.875
908.164	387.07
912.662	272.805
917.158	472.992
921.651	765.68
926.141	780.883
930.628	456.242
935.113	171.586
939.596	302.445
944.076	8.94531
948.553	94.8594
953.027	355.477
957.499	591.43
961.969	2077.05
966.435	4004.98
970.899	4880.88
975.361	4150.16
979.82	7316.97
984.276	20033.1
988.73	22901.2
993.181	10841.3
997.629	10536.1
1002.08	16495.4
1006.52	6016.58
1010.96	2433.14
1015.4	1169.68
1019.83	585.281
1024.26	1348.78
1028.69	1763.77
1033.12	1600.56
1037.55	892.016
1041.97	950.523
1046.39	724.156
1050.81	1105.7
1055.22	2315.65
1059.63	2473.96
1064.04	2459.74
1068.45	1669.12
1072.85	918.547
1077.25	295.281
1081.65	831.648
1086.05	124.711
1090.44	78.8594
1094.83	121.008
1099.22	276.773
1103.6	74.0234
1107.99	300.211
1112.37	44.2266
1116.74	135.867
1121.12	26.6875
1125.49	372.82
1129.86	644.258
1134.23	280.859
1138.59	435.609
1142.95	16.6094
1147.31	12.4453
1151.67	739.672
1156.02	1136.28
1160.38	1044.48
1164.72	597.008
1169.07	802.82
1173.41	745.984
1177.75	1017.46
1182.09	1315.27
1186.43	1617.39
1190.76	1621.84
1195.09	981.602
1199.42	1569.68
1203.74	656.102
1208.07	1075.65
1212.39	884.555
1216.7	899.828
1221.02	855.422
1225.33	1919.3
1229.64	1529.82
1233.95	1594.31
1238.25	1348.3
1242.55	788.352
1246.85	921.102
1251.15	534.359
1255.44	682.875
1259.73	648.359
1264.02	1461.97
1268.31	1826.98
1272.59	2073.7
1276.87	2790.22
1281.15	4112.27
1285.42	6649.87
1289.69	6706.4
1293.96	5393.41
1298.23	4051.64
1302.5	3122.77
1306.76	3195.65
1311.02	2829.05
1315.27	2437.95
1319.53	1899.27
1323.78	954.977
1328.03	1062.02
1332.28	585.453
1336.52	433.688
1340.76	856.797
1345	1095.6
1349.23	860.008
1353.47	239
1357.7	834.055
1361.93	189.125
1366.15	766.688
1370.37	756.008
1374.59	576.711
1378.81	87.5391
1383.03	547.383
1387.24	567.445
1391.45	131.227
1395.65	217.289
1399.86	311.117
1404.06	427.453
1408.26	438.906
1412.46	339.797
1416.65	904.141
1420.84	959.359
1425.03	1324.7
1429.22	2129.55
1433.4	3440.91
1437.58	5338.63
1441.76	5984.14
1445.93	5007.6
1450.11	4383.43
1454.28	4241.1
1458.44	4154.13
1462.61	2785.66
1466.77	2444.07
1470.93	2369.43
1475.09	2925.53
1479.24	2618.95
1483.39	1112.21
1487.54	1216.97
1491.69	692.523
1495.84	328.211
1499.98	1074.92
1504.12	694.602
1508.25	482.789
1512.38	271.898
1516.52	99.5859
1520.64	1150.43
1524.77	308.648
1528.89	534.367
1533.01	298.68
1537.13	334.719
1541.25	650.258
1545.36	495.938
1549.47	670.305
1553.58	653.383
1557.68	233.406
1561.78	188.648
1565.88	495.945
1569.98	268.664
1574.07	5.46875
1578.16	0
