Measurement: Raman, 514 nm, ccw, Raman Data Processed
Mineral: Sodalite
Rruff sample: R060354
Ideal chemistry: Na_4_Si_3_Al_3_O_12_Cl
Locality: Koksha Valley, Badakshan Province, Afghanistan
Source: Herb Obodda
Description: Pale purple transparent fragment
Measured chemistry: (Na_0.99_K_0.01_)_8_Al_6.00_Si_6.00_O_24_Cl_2.00_
Pin_id: L01562
Orientation: Laser parallel to a* (1 0 0). Fiducial mark perpendicular to laser is parallel to -c [0 0 -1]
Raman shift (cm-1)	intensity
61.448	0
66.421	301
71.392	371.551
76.36	337.668
81.325	1429.28
86.287	453.441
91.246	0.820313
96.203	152.281
101.156	539.699
106.107	333.566
111.055	632.691
116.001	320.762
120.944	4033.78
125.883	553.578
130.821	118.547
135.755	71.2383
140.686	258.394
145.615	1099.84
150.541	1139.41
155.464	2661.3
160.385	6058.31
165.303	8461.47
170.218	4901.69
175.13	2327.71
180.039	1360.12
184.946	476.156
189.85	136.914
194.751	171.25
199.649	134.008
204.545	411.07
209.438	636.438
214.328	651.039
219.215	625.789
224.1	1494.41
228.982	1984.9
233.861	2147.1
238.737	2846.05
243.611	3791.45
248.482	6065.04
253.35	9679.47
258.216	14031.4
263.078	16151.8
267.938	12358.7
272.795	7668.66
277.65	5091.23
282.502	4066.09
287.351	3721.26
292.197	4843.59
297.041	4338.48
301.881	2074.16
306.72	918.508
311.555	852.906
316.388	383.398
321.218	455.031
326.045	92.8281
330.869	348.766
335.691	331.953
340.51	298.875
345.327	108.766
350.14	188.695
354.951	141.258
359.76	222.164
364.565	323.102
369.368	93.7734
374.168	213.211
378.966	62.4922
383.76	78.2031
388.552	588.414
393.342	131.164
398.128	382.398
402.912	1520.12
407.693	2422.39
412.472	2394.2
417.248	1330.77
422.021	1731.54
426.792	2080.57
431.559	2464.83
436.324	3511.99
441.087	5337.19
445.847	8420.59
450.604	17615.8
455.358	40451.8
460.11	77698.5
464.859	77174.2
469.605	39595.7
474.349	18833.2
479.09	10349.4
483.828	7202.73
488.564	5595.04
493.297	5684.56
498.027	4912.01
502.755	3406.27
507.48	2494.14
512.202	1920.86
516.922	1995.23
521.639	1876.81
526.353	1417.38
531.065	1655.41
535.774	1318.95
540.48	1313.4
545.184	1032.72
549.885	570.234
554.583	1013.75
559.279	767.812
563.972	539.438
568.662	87.1328
573.35	668.305
578.035	523.875
582.718	775.461
587.398	1210.74
592.075	682.211
596.75	555.891
601.422	1220.18
606.091	1488.9
610.758	1455.26
615.422	1007.98
620.083	1240.02
624.742	1226.68
629.398	706.125
634.051	453.656
638.702	905.422
643.351	397.227
647.996	753.039
652.639	275.922
657.28	232.133
661.917	139.5
666.553	280.82
671.185	36.1094
675.815	450.555
680.442	619.328
685.067	864.445
689.689	379.898
694.309	817.633
698.926	107.234
703.54	305.367
708.151	57.4609
712.761	129.812
717.367	111.258
721.971	105.062
726.572	198.75
731.171	745.93
735.767	688.617
740.36	751.875
744.951	669.688
749.539	1131.59
754.125	810.578
758.708	856.508
763.288	808.773
767.866	645.094
772.442	332.523
777.014	647.703
781.584	247.539
786.152	94.3281
790.717	16.5391
795.279	531.383
799.839	748.32
804.396	557.633
808.951	242.688
813.503	438.656
818.053	1046.17
822.599	1226.93
827.144	772.617
831.686	934.523
836.225	1044.65
840.761	1404.63
845.295	505.117
849.827	495.734
854.356	1165.34
858.882	775.617
863.406	514.125
867.927	975.438
872.446	279.562
876.962	750.109
881.476	739.055
885.987	374.406
890.495	1.85938
895.001	716.344
899.505	228.102
904.005	318.812
908.504	477.469
912.999	498.234
917.493	678.422
921.983	251.742
926.471	993.281
930.957	583.211
935.44	865.32
939.92	345.438
944.398	124.734
948.874	712.906
953.346	659.953
957.817	942.891
962.285	1495.76
966.75	2085.12
971.213	2471.45
975.673	4275.01
980.13	10573.8
984.586	24219
989.038	17432.5
993.488	6950.57
997.936	4190.11
1002.38	3132.94
1006.82	2562.83
1011.26	2444.56
1015.7	1175.34
1020.14	361.719
1024.57	285.609
1029	338.453
1033.43	1079.14
1037.85	937.047
1042.27	1123.64
1046.69	1551.44
1051.11	2777.2
1055.53	4717.94
1059.94	4547.23
1064.35	3622.59
1068.76	2692.19
1073.16	2163.36
1077.56	1036.28
1081.96	612.375
1086.36	577.609
1090.75	262.031
1095.15	768.766
1099.54	271.609
1103.92	227.438
1108.31	759.312
1112.69	681.328
1117.07	836.469
1121.45	697.719
1125.82	332
1130.2	159.922
1134.57	39.2656
1138.93	286.812
1143.3	301.891
1147.66	281.047
1152.02	577.281
1156.38	324.891
1160.73	112.766
1165.09	61.375
1169.44	297.906
1173.79	521.531
1178.13	187.969
1182.47	34.875
1186.81	189.172
1191.15	471.234
1195.49	283.984
1199.82	7.64062
1204.15	357.031
1208.48	396.219
1212.8	660.281
1217.13	470.156
1221.45	15.5312
1225.77	67.0625
1230.08	732.938
1234.39	884.938
1238.7	536.875
1243.01	646.578
1247.32	471.031
1251.62	93.7812
1255.92	39.0312
1260.22	489.359
1264.52	260.438
1268.81	313.031
1273.1	102.875
1277.39	689.375
1281.68	15.4062
1285.96	780.438
1290.24	650.953
1294.52	724.609
1298.8	797.328
1303.07	762.625
1307.35	315.859
1311.62	264.906
1315.88	2.1875
1320.15	3.20312
1324.41	176.922
1328.67	372.828
1332.92	584.875
1337.18	215.297
1341.43	302.812
1345.68	776.406
1349.93	116.938
1354.17	462.797
1358.42	318.719
1362.66	579.859
1366.89	1039.14
1371.13	924.875
1375.36	712.344
1379.59	767.188
1383.82	748.109
1388.05	622.047
1392.27	928.344
1396.49	651.703
1400.71	976.188
1404.93	326.75
1409.14	1131.77
1413.35	792.438
1417.56	1211.8
1421.77	979.281
1425.97	935.812
1430.17	1220.5
1434.37	933.391
1438.57	1035.97
1442.76	1386.25
1446.96	1108.08
1451.15	841.453
1455.33	1007.02
1459.52	1229.52
1463.7	1033.72
1467.88	469.156
1472.06	816.344
1476.23	937.109
1480.41	764.359
1484.58	587.203
1488.75	763.125
1492.91	850.641
1497.08	662.109
1501.24	574.266
1505.4	675.219
1509.55	81.1719
1513.71	298.078
1517.86	101.172
1522.01	560.406
1526.15	677.672
1530.3	26.5
1534.44	592.062
1538.58	21.1562
1542.72	143.281
1546.85	711.562
1550.99	760.531
1555.12	973.781
1559.24	32.4375
1563.37	523.719
1567.49	542.844
1571.62	276.656
1575.73	302.75
