Measurement: Raman, 514 nm, depolarized, Raman Data Processed
Mineral: Sodalite
Rruff sample: R060405
Ideal chemistry: Na_4_Si_3_Al_3_O_12_Cl
Locality: Cerro Sapo, Cochabamba Department, Bolivia
Source: Marcus Origlieri
Description: Blue massive associated with brown burbankite R050646
Measured chemistry: Na_8.00_Al_6.00_Si_6.00_O_24_Cl_2_
Pin_id: L01500
Orientation: Laser parallel to a* (1 0 0). Fiducial mark perpendicular to laser is parallel to c [0 0 1]
Raman shift (cm-1)	intensity
67.115	0
72.065	1602.65
77.012	3654.01
81.956	7808.76
86.899	6051.28
91.838	1740.01
96.775	221.977
101.71	1335
106.643	5379.47
111.572	5044.18
116.5	3925.23
121.425	1205.22
126.347	1479.89
131.267	2150.97
136.185	2013.71
141.1	2751.7
146.012	3566.67
150.922	4246.18
155.83	7124.84
160.735	14934.7
165.638	22766.5
170.538	17361.2
175.436	8813.65
180.331	5554.31
185.224	3254.93
190.115	1479.65
195.002	575.597
199.888	50.1895
204.771	380.712
209.651	251.571
214.529	254.836
219.405	153.91
224.278	1076.92
229.148	2447.4
234.016	3468.23
238.882	4155.09
243.745	6361.23
248.606	10760.7
253.464	19815.5
258.319	31280.8
263.173	37163.8
268.023	32924.7
272.871	20101.6
277.717	13072.6
282.56	11145.8
287.401	13552.7
292.239	16815.1
297.075	13707.6
301.908	6208.22
306.739	2619.07
311.567	1575.14
316.393	1422.3
321.216	1286.07
326.037	1061.31
330.855	1268.98
335.671	1045.09
340.484	1154.74
345.295	1015.14
350.103	725.694
354.909	591.757
359.712	697.08
364.513	764.871
369.311	1004.32
374.107	667.709
378.9	342.31
383.691	250.184
388.479	315.755
393.264	486.042
398.048	734.658
402.828	1932.47
407.606	3164.48
412.382	3538.66
417.155	2471
421.926	2975.48
426.694	4016.16
431.459	5241.98
436.222	6954.84
440.983	10950.4
445.741	19276.9
450.496	38720.6
455.249	86657.2
460	166606
464.748	198886
469.493	116269
474.236	49281.6
478.977	25137.3
483.714	15767.2
488.45	11640.4
493.183	9295.49
497.913	7896.83
502.641	5322.91
507.366	3536.35
512.088	2933.45
516.809	2824.68
521.526	2576.26
526.241	2389.2
530.954	1853.54
535.664	1460.22
540.371	1203.18
545.076	1115.48
549.779	793.894
554.479	469.616
559.176	259.505
563.871	29.6299
568.563	287.111
573.253	181.97
577.94	127.26
582.625	77.0449
587.307	136.436
591.987	6.33984
596.664	142.555
601.338	126.988
606.01	526.86
610.68	495.113
615.347	188.713
620.011	68.5254
624.673	46.4609
629.332	75.9746
633.989	80.6426
638.643	99.9258
643.295	286.136
647.944	368.445
652.59	390.08
657.234	534.12
661.876	661.635
666.515	1027.31
671.151	984.929
675.785	865.061
680.416	1190.65
685.045	1163.3
689.671	1375.92
694.295	1877.95
698.916	2367.23
703.534	1992.95
708.15	2028.84
712.764	2266.38
717.374	2225.23
721.983	2187.04
726.588	2362.77
731.191	3428.85
735.792	3518.5
740.39	2316.94
744.986	1513.98
749.579	975.914
754.169	683.5
758.757	616.213
763.342	576.331
767.925	404.514
772.505	310.962
777.082	235.962
781.657	246.161
786.23	213.656
790.8	202.324
795.367	176.697
799.932	31.5615
804.494	63.0381
809.053	56.1006
813.61	10.2383
818.165	28.9062
822.717	139.178
827.266	183.973
831.813	48.7119
836.357	35.0898
840.899	30.4365
845.438	14.8516
849.974	167.556
854.508	324.415
859.04	373.141
863.568	268.262
868.095	475.763
872.618	482.208
877.139	372.531
881.658	337.405
886.174	94.8535
890.687	122.696
895.198	106.356
899.706	16.6025
904.212	69.042
908.715	31.3965
913.215	39.5469
917.713	194.579
922.208	108.492
926.701	165.706
931.191	272.522
935.679	375.54
940.164	543.235
944.646	837.441
949.126	1056.02
953.603	1693.75
958.078	3773.36
962.55	7736.59
967.019	11202.5
971.486	11846
975.951	13545.4
980.413	29554.8
984.872	64237.1
989.328	48732.2
993.782	14225.7
998.234	5899.79
1002.68	3657.29
1007.13	3211.31
1011.57	3567.01
1016.01	1938.42
1020.45	862.507
1024.89	477.259
1029.32	550.457
1033.75	707.153
1038.18	836.402
1042.61	1738.01
1047.03	3486.37
1051.45	6473.36
1055.87	11234.3
1060.28	13307.2
1064.69	12243
1069.11	11574.9
1073.51	14048.7
1077.92	9552.46
1082.32	3005.14
1086.72	1449.82
1091.12	1150.43
1095.51	937.929
1099.9	748.513
1104.29	604.001
1108.68	584.232
1113.06	371.533
1117.44	428.025
1121.82	505.628
1126.2	413.218
1130.57	531.962
1134.94	397.278
1139.31	436.764
1143.68	778.328
1148.04	309.08
1152.4	397.536
1156.76	438.148
1161.12	353.853
1165.47	367.128
1169.82	328.798
1174.17	218.523
1178.51	150.215
1182.86	130.965
1187.19	108.215
1191.53	63.0918
1195.87	37.3828
1200.2	201.733
1204.53	63.4355
1208.86	129.733
1213.18	205.168
1217.5	154.716
1221.82	247.351
1226.14	181.053
1230.45	365.796
1234.76	23.5527
1239.07	11.3037
1243.38	84.0205
1247.68	75.667
1251.98	36.8047
1256.28	28.5312
1260.58	154.575
1264.87	0.458984
1269.16	53.7891
1273.45	27.8018
1277.73	108.311
1282.02	113.52
1286.3	77.0107
1290.57	105.754
1294.85	71.9414
1299.12	22.6016
1303.39	6.70215
1307.66	81.3281
1311.92	47.7764
1316.18	39.8272
1320.44	30.707
1324.7	81.9453
1328.95	127.666
1333.2	98.8174
1337.45	195.575
1341.7	128.009
1345.94	194.106
1350.18	262.854
1354.42	330.241
1358.66	200.257
1362.89	248.895
1367.12	304.156
1371.35	455.673
1375.58	492.341
1379.8	702.946
1384.02	765.938
1388.24	904.457
1392.45	666.235
1396.66	849.367
1400.87	834.849
1405.08	717.889
1409.29	840.927
1413.49	1039.01
1417.69	901.564
1421.88	1003.91
1426.08	1140.15
1430.27	1059.67
1434.46	1197.47
1438.64	1358.64
1442.83	1310.73
1447.01	1447.7
1451.19	1242.71
1455.36	1130.67
1459.54	1071.78
1463.71	934.874
1467.87	1013.37
1472.04	850.275
1476.2	878.578
1480.36	748.363
1484.52	730.82
1488.67	680.91
1492.83	572.585
1496.98	310.714
1501.12	348.828
1505.27	467.995
1509.41	361.037
1513.55	260.799
1517.68	225.516
1521.82	168.067
1525.95	188.011
1530.08	154.64
1534.2	228.091
1538.33	180.406
1542.45	199.188
1546.57	287.083
1550.68	364.265
1554.8	781.327
1558.91	150.308
1563.01	1117.57
1567.12	229.295
1571.22	290.724
1575.32	158.698
