Measurement: Raman, 514 nm, ccw, Raman Data Processed
Mineral: Sodalite
Rruff sample: R060416
Ideal chemistry: Na_4_Si_3_Al_3_O_12_Cl
Locality: Koksha Valley, Badakshan Province, Afghanistan
Source: Herb Obodda
Description: Colorless fragment
Measured chemistry: Na_8.00_Al_6.00_Si_6.00_O_24_Cl_2.00_
Pin_id: L01209
Orientation: Laser parallel to -a* (-1 0 0). Fiducial mark perpendicular to laser is parallel to b [0 1 0]
Raman shift (cm-1)	intensity
71.392	0
76.36	499.531
81.325	380.734
86.287	205.248
91.246	888.019
96.203	1937.22
101.156	5495.17
106.107	8285.55
111.055	15865.6
116.001	12777.8
120.944	1310.31
125.883	754.959
130.821	3890.83
135.755	283.633
140.686	196.592
145.615	1030.95
150.541	1946.74
155.464	6831.48
160.385	22198.1
165.303	50825.7
170.218	35463.6
175.13	14945.1
180.039	9097.15
184.946	3949.67
189.85	1322.63
194.751	435.527
199.649	133.81
204.545	316.16
209.438	965.885
214.328	1552.56
219.215	2197.18
224.1	4181.15
228.982	7058.84
233.861	10422.1
238.737	11601.9
243.611	14477.3
248.482	22755.3
253.35	38797.2
258.216	63665.1
263.078	84398.6
267.938	73289.5
272.795	48157.1
277.65	32362.4
282.502	26613.9
287.351	27856.6
292.197	36394.1
297.041	38803.1
301.881	17459
306.72	7262.44
311.555	3720.85
316.388	2148.6
321.218	1268.39
326.045	575.977
330.869	555.232
335.691	8.75195
340.51	162.166
345.327	34.623
350.14	289.336
354.951	374.068
359.76	158.486
364.565	84.9356
369.368	959.646
374.168	989.941
378.966	251.994
383.76	7.46289
388.552	593.875
393.342	914.178
398.128	1585.33
402.912	2822.39
407.693	5929.16
412.472	6488.85
417.248	5099.17
422.021	5981.88
426.792	7774.14
431.559	10443.6
436.324	14374.3
441.087	22879.5
445.847	40730
450.604	72536.6
455.358	142590
460.11	310673
464.859	453957
469.605	253344
474.349	106699
479.09	56459.3
483.828	38530.4
488.564	33488.5
493.297	21811.5
498.027	17802.4
502.755	12249.1
507.48	8855.58
512.202	7929.93
516.922	7665.34
521.639	7351.43
526.353	6373.2
531.065	5757.8
535.774	5147.76
540.48	4594.07
545.184	3996.87
549.885	3705.33
554.583	3240.31
559.279	2984.76
563.972	2497.4
568.662	2219.44
573.35	2215.09
578.035	1824.5
582.718	1864.62
587.398	2065.43
592.075	1813.92
596.75	1951.06
601.422	2214.83
606.091	2610.22
610.758	2168.21
615.422	1860.83
620.083	2024.16
624.742	2827.61
629.398	2030.24
634.051	976.074
638.702	876.32
643.351	1094.86
647.996	1406.15
652.639	1222.88
657.28	517.961
661.917	97.3594
666.553	181.908
671.185	54.7812
675.815	141.129
680.442	244.379
685.067	170.662
689.689	193.504
694.309	15.5312
698.926	57.1934
703.54	110.951
708.151	417.418
712.761	995.033
717.367	1021.83
721.971	538.816
726.572	550.004
731.171	1045.4
735.767	1473.03
740.36	3490.9
744.951	3953.02
749.539	1535.41
754.125	762.08
758.708	237.057
763.288	285.35
767.866	204.963
772.442	337.906
777.014	275.043
781.584	407.285
786.152	134.859
790.717	241.691
795.279	362.938
799.839	244.262
804.396	142.184
808.951	61.1875
813.503	314.43
818.053	248.965
822.599	76.3066
827.144	4.16992
831.686	84.2305
836.225	84.8457
840.761	370.426
845.295	522.58
849.827	567.346
854.356	1074.48
858.882	1438.01
863.406	1566.98
867.927	1770.42
872.446	1520.37
876.962	1200.87
881.476	1095.94
885.987	678.643
890.495	280.988
895.001	271.047
899.505	242.871
904.005	67.4707
908.504	178.887
912.999	115.65
917.493	89.7461
921.983	102.418
926.471	483.445
930.957	362.07
935.44	563.475
939.92	749.416
944.398	920.543
948.874	1050.03
953.346	1611.75
957.817	1920.81
962.285	3157.12
966.75	5560.05
971.213	8123.53
975.673	15651.9
980.13	44108.7
984.586	124341
989.038	105006
993.488	28909.4
997.936	11744
1002.38	8259.9
1006.82	5744.96
1011.26	6351.22
1015.7	3611.66
1020.14	1434.51
1024.57	965.328
1029	1208.72
1033.43	445.141
1037.85	1019.79
1042.27	2206.87
1046.69	4769.72
1051.11	9950.96
1055.53	19355
1059.94	28771.2
1064.35	40754.4
1068.76	36238.2
1073.16	19780.1
1077.56	10583.8
1081.96	6285
1086.36	3880.77
1090.75	2605.78
1095.15	1728.87
1099.54	4130.62
1103.92	839.062
1108.31	658.078
1112.69	591.547
1117.07	678.43
1121.45	313.691
1125.82	323.305
1130.2	520.258
1134.57	193.508
1138.93	380.039
1143.3	78.8242
1147.66	151.836
1152.02	319.039
1156.38	160.41
1160.73	61.8633
1165.09	1529.34
1169.44	572.879
1173.79	155.402
1178.13	113.793
1182.47	188.027
1186.81	231.848
1191.15	293.852
1195.49	121.359
1199.82	82.1328
1204.15	165.027
1208.48	102.316
1212.8	372.352
1217.13	365.332
1221.45	246.144
1225.77	372.75
1230.08	872.148
1234.39	838.031
1238.7	1052.96
1243.01	640.781
1247.32	894.418
1251.62	947.82
1255.92	905.023
1260.22	818
1264.52	1164.77
1268.81	944.305
1273.1	1628.58
1277.39	1265.68
1281.68	746.379
1285.96	796.019
1290.24	1596.99
1294.52	736.836
1298.8	879.336
1303.07	970.277
1307.35	1100.42
1311.62	1343.27
1315.88	1111.78
1320.15	1399.2
1324.41	1053.27
1328.67	630.695
1332.92	215.039
1337.18	285.75
1341.43	236.68
1345.68	412.684
1349.93	54.0273
1354.17	539.906
1358.42	170.644
1362.66	50.3203
1366.89	526
1371.13	581.098
1375.36	431.824
1379.59	584.613
1383.82	672.57
1388.05	437.516
1392.27	403
1396.49	484.164
1400.71	461.684
1404.93	211.699
1409.14	522.379
1413.35	513.207
1417.56	494.113
1421.77	509.066
1425.97	556.043
1430.17	598.984
1434.37	666.734
1438.57	1180.78
1442.76	2000.61
1446.96	2337.93
1451.15	2546.73
1455.33	2853.03
1459.52	2461.89
1463.7	2022.25
1467.88	1584.11
1472.06	1021.73
1476.23	1201.59
1480.41	1007.77
1484.58	678.191
1488.75	585.914
1492.91	117.562
1497.08	332.203
1501.24	282.019
1505.4	77.5508
1509.55	308.594
1513.71	57.4805
1517.86	192.059
1522.01	258.258
1526.15	101.371
1530.3	162.59
1534.44	465.66
1538.58	107.648
1542.72	329.894
1546.85	437.594
1550.99	330.176
1555.12	658.512
1559.24	125.231
1563.37	294.387
1567.49	378.371
1571.62	240.344
1575.73	5.55469
