Measurement: Raman, 514 nm, depolarized, Raman Data Processed
Mineral: Sodalite
Rruff sample: R060435
Ideal chemistry: Na_4_Si_3_Al_3_O_12_Cl
Locality: Koksha Valley, Badakshan Province, Afghanistan
Source: Herb Obodda
Description: Pale purple fragment
Measured chemistry: (Na_0.99_K_0.01_)_8_Al_6.00_Si_6.00_O_24_Cl_2_
Pin_id: L00857
Orientation: Laser parallel to a* (1 0 0). Fiducial mark perpendicular to laser is parallel to b [0 1 0]
Raman shift (cm-1)	intensity
69.761	0
74.718	1583.59
79.673	2392.12
84.626	1348.62
89.575	1389.28
94.523	2038.19
99.467	2978.12
104.409	3134.56
109.349	4274.75
114.286	5203.41
119.22	2563.25
124.152	4066.62
129.081	3290.78
134.008	4131.44
138.932	4237.09
143.854	4879.16
148.773	6075.25
153.69	6107.19
158.604	8758.53
163.515	13807.8
168.424	14145.5
173.33	7613.97
178.234	5848.5
183.135	3653.34
188.034	2970.62
192.93	3513.44
197.823	2539.91
202.714	3137.34
207.602	4311.75
212.488	2953.75
217.371	3257.03
222.252	3263.03
227.13	4248.78
232.005	4238.94
236.878	3710.97
241.749	4903.53
246.616	6454.72
251.482	9556.12
256.344	14981.7
261.204	20085.6
266.062	20044.8
270.917	13115.8
275.769	9450
280.619	6519.88
285.466	5333.06
290.311	5710.19
295.153	7551.06
299.992	3721.88
304.829	2121.69
309.663	1388.75
314.495	1138.25
319.324	1041.88
324.151	648.688
328.975	297.812
333.796	157.25
338.615	351.125
343.432	73.4375
348.245	1232.12
353.056	393.25
357.865	286.812
362.671	263.25
367.474	26
372.275	147.125
377.073	280.562
381.869	48.375
386.662	659.375
391.452	798.938
396.24	314.938
401.025	40.25
405.808	1668.88
410.588	3067.56
415.366	4030.44
420.141	1821.69
424.913	2325.19
429.683	1893.12
434.45	2828.62
439.214	4452.31
443.976	7387.62
448.736	12633
453.493	28333.9
458.247	62838.9
462.998	105848
467.747	80623.9
472.494	36359.6
477.238	19640.8
481.979	12558.1
486.718	10421.4
491.454	7492.56
496.187	6474.25
500.918	5514.12
505.646	4190.31
510.372	3740.69
515.095	3026.19
519.816	2442.69
524.534	2117.88
529.249	3485.81
533.962	2994.06
538.672	2902.81
543.379	1477.38
548.084	2277.62
552.786	2907
557.486	2588.19
562.183	1409.62
566.878	2216.62
571.57	2577.5
576.259	1946.62
580.946	1436.25
585.63	3380.06
590.311	3755.44
594.99	6694.69
599.667	4736.44
604.34	4910.81
609.012	5112.12
613.68	4738.31
618.346	4348.44
623.009	4094.81
627.67	5900.25
632.328	5008.75
636.984	3820.38
641.636	5990.12
646.287	5469.12
650.934	5280.25
655.579	3944.25
660.222	3393.12
664.862	2424.38
669.499	3181.69
674.134	4459.38
678.766	5113.31
683.395	2717.81
688.022	1651.81
692.646	4395.81
697.268	3418.44
701.887	3303.06
706.503	1590.06
711.117	2411.25
715.728	2397.44
720.337	3059.38
724.943	1734.19
729.546	985.375
734.147	2457.88
738.745	4325.94
743.341	5763.19
747.933	6359.56
752.524	7035.94
757.111	6622.31
761.697	6259
766.279	6588.75
770.859	5820.25
775.436	4326.5
780.011	3436
784.583	4318.31
789.152	3698.19
793.719	2091.94
798.283	2369.75
802.845	2048.56
807.404	3142.31
811.96	3630.88
816.514	4443.25
821.065	5578.81
825.613	4691.19
830.159	3294.69
834.703	5681.5
839.243	5795.62
843.781	5298.31
848.317	3484.69
852.849	5359.19
857.38	6972.94
861.907	4138.88
866.432	3264.88
870.954	5028.38
875.474	2789.94
879.991	4130.5
884.506	3610.25
889.018	1904.94
893.527	2403.44
898.034	2504.56
902.538	3237
907.039	2791.94
911.538	3682.5
916.034	4294.19
920.528	5297.44
925.018	4461.19
929.507	2935.56
933.992	3431.69
938.476	3667.44
942.956	3501.94
947.434	2860.69
951.909	2021.5
956.382	3780.31
960.852	3295
965.319	5543.88
969.784	5817.31
974.246	5481.81
978.705	10153.3
983.162	21886.9
987.616	32931.1
992.068	16195.4
996.517	7165.56
1000.96	4922.19
1005.41	4679.19
1009.85	4856.81
1014.29	3609.69
1018.72	3727.56
1023.16	881.812
1027.59	686.25
1032.02	645.562
1036.44	166.562
1040.86	389.062
1045.28	1780.38
1049.7	276.688
1054.12	2815.94
1058.53	3136.62
1062.94	6613.44
1067.35	3927.44
1071.75	3030.44
1076.15	1963.31
1080.55	3913
1084.95	22.0625
1089.34	2079.25
1093.73	1558.75
1098.12	1559.56
1102.51	3265.62
1106.89	2756.81
1111.27	2951.12
1115.65	2456.5
1120.03	3858.94
1124.4	2905.56
1128.77	1490.38
1133.14	2443.12
1137.5	787.438
1141.86	2948.06
1146.22	2309.62
1150.58	2580.56
1154.93	3650.88
1159.29	3072.12
1163.64	1432
1167.98	1937.25
1172.33	1345.75
1176.67	1314.69
1181.01	1604.44
1185.34	2173.81
1189.68	596.875
1194.01	1022.75
1198.34	1150.31
1202.66	610.562
1206.99	2342.12
1211.31	271.938
1215.62	126.875
1219.94	3465.19
1224.25	1237.31
1228.56	2417.19
1232.87	2872.56
1237.17	1407.12
1241.48	2531.94
1245.78	1241.81
1250.07	1213.38
1254.37	1622.62
1258.66	1.6875
1262.95	807.562
1267.23	1203
1271.52	1164.75
1275.8	1891.56
1280.08	2629.25
1284.35	1071.38
1288.63	339.688
1292.9	2072.69
1297.16	108.812
1301.43	1382.19
1305.69	1481.94
1309.95	514.562
1314.21	421.062
1318.46	762.312
1322.72	1265.94
1326.97	1099.25
1331.21	580.625
1335.46	1715.81
1339.7	1943.31
1343.94	1309.94
1348.18	2425.75
1352.41	1297.5
1356.64	2683.44
1360.87	1917.38
1365.1	1844.94
1369.32	3459
1373.54	2077.56
1377.76	2544.25
1381.97	3712.69
1386.19	901.688
1390.4	3362.25
1394.6	1948.81
1398.81	1782.19
1403.01	3225.06
1407.21	3041.25
1411.41	2797.81
1415.6	3200.12
1419.79	2891.75
1423.98	3835.69
1428.17	2147.56
1432.35	3815.62
1436.54	2628.88
1440.71	2683.19
1444.89	2875.38
1449.06	1511.62
1453.23	3393.56
1457.4	1909.5
1461.57	1805.69
1465.73	1793.06
1469.89	322.375
1474.05	1298.75
1478.2	1312.94
1482.36	1395.06
1486.51	2206
1490.65	994.125
1494.8	2741.19
1498.94	1170.44
1503.08	2732.88
1507.22	595.312
1511.35	109.938
1515.48	1592.56
1519.61	1075.06
1523.74	1801.56
1527.86	1595
1531.98	1860.56
1536.1	3877
1540.22	2376.19
1544.33	3205.5
1548.44	2688.5
1552.55	3033.19
1556.65	2909.75
1560.76	2804.44
1564.86	4950
1568.95	1922.19
1573.05	1842.19
1577.14	86.6875
