Measurement: Raman, 514 nm, ccw, Raman Data Processed
Mineral: Sodalite
Rruff sample: R060416
Ideal chemistry: Na_4_Si_3_Al_3_O_12_Cl
Locality: Koksha Valley, Badakshan Province, Afghanistan
Source: Herb Obodda
Description: Colorless fragment
Measured chemistry: Na_8.00_Al_6.00_Si_6.00_O_24_Cl_2.00_
Pin_id: L01209
Orientation: Laser parallel to -a* (-1 0 0). Fiducial mark perpendicular to laser is parallel to b [0 1 0]
Raman shift (cm-1)	intensity
71.392	0
76.36	424.35
81.325	170.584
86.287	367.959
91.246	981.842
96.203	374.197
101.156	2172.44
106.107	3537.33
111.055	2890.32
116.001	2022.88
120.944	452.664
125.883	138.832
130.821	158.916
135.755	13.4883
140.686	725.883
145.615	4122.95
150.541	4013.32
155.464	7523.64
160.385	23073
165.303	52443.9
170.218	35438.6
175.13	13353.3
180.039	6601.86
184.946	2706.38
189.85	1301.92
194.751	639.533
199.649	448.232
204.545	653.062
209.438	896.637
214.328	1738.77
219.215	2621.94
224.1	4944.02
228.982	6920.57
233.861	8666.67
238.737	10691.9
243.611	14647.3
248.482	23407.6
253.35	40115.3
258.216	65319.8
263.078	86380
267.938	72944.4
272.795	47366.7
277.65	30870.8
282.502	23704.3
287.351	22444.8
292.197	26028
297.041	26526.3
301.881	11237.9
306.72	5138.89
311.555	2819.25
316.388	1757.04
321.218	886.356
326.045	781.404
330.869	71.8848
335.691	212.469
340.51	1.88281
345.327	64.7324
350.14	65.9512
354.951	229.031
359.76	292.58
364.565	311.228
369.368	61.5996
374.168	47.3652
378.966	161.676
383.76	283.178
388.552	674.248
393.342	1474.35
398.128	2223.93
402.912	4891.04
407.693	11781
412.472	11967.4
417.248	6510.48
422.021	6270.89
426.792	8032.36
431.559	10247.3
436.324	13864.5
441.087	20030.8
445.847	33298.2
450.604	65590.7
455.358	144295
460.11	320591
464.859	463323
469.605	255798
474.349	108360
479.09	56247.2
483.828	35523.6
488.564	27108.2
493.297	25585
498.027	29305.1
502.755	17888.3
507.48	10676.8
512.202	8928.92
516.922	8346.31
521.639	7811.49
526.353	7040.68
531.065	6104.2
535.774	5368.59
540.48	5043.72
545.184	4477.07
549.885	4185.82
554.583	3462.07
559.279	3366.13
563.972	2593.62
568.662	2490.39
573.35	2380.98
578.035	2200.17
582.718	2322.83
587.398	2267.14
592.075	2349.53
596.75	2266.55
601.422	3212.19
606.091	5172.44
610.758	4641.29
615.422	2745.78
620.083	2559.03
624.742	2736.04
629.398	2196.05
634.051	1195.83
638.702	965.953
643.351	1168.82
647.996	1438.91
652.639	1031.29
657.28	513.379
661.917	44.666
666.553	207.932
671.185	116.394
675.815	32.543
680.442	96
685.067	342.414
689.689	38.6953
694.309	88.5703
698.926	143.217
703.54	129.56
708.151	31.3789
712.761	194.908
717.367	32.5527
721.971	220.449
726.572	164.609
731.171	361.066
735.767	669.859
740.36	851.004
744.951	793.516
749.539	419.424
754.125	192.695
758.708	122.394
763.288	7.16016
767.866	40.6387
772.442	264.758
777.014	432.353
781.584	177.209
786.152	715.156
790.717	345.617
795.279	3.62109
799.839	189.629
804.396	25.2188
808.951	200.465
813.503	150.785
818.053	77.1836
822.599	51.9766
827.144	120.586
831.686	170.375
836.225	80.8789
840.761	359.996
845.295	250.934
849.827	409.668
854.356	1012.71
858.882	1605.81
863.406	1520.87
867.927	1617.97
872.446	1424.56
876.962	1397.67
881.476	1085.34
885.987	845.606
890.495	336.606
895.001	36.5078
899.505	362.094
904.005	182.434
908.504	525.785
912.999	493.519
917.493	220.328
921.983	282.797
926.471	444.359
930.957	378.141
935.44	894.504
939.92	1021.11
944.398	1111.97
948.874	1423.57
953.346	1548.37
957.817	2143.87
962.285	2891.22
966.75	4691.18
971.213	7673.78
975.673	16051.4
980.13	43552.5
984.586	123919
989.038	102522
993.488	28058.2
997.936	11748.1
1002.38	9160.1
1006.82	8277.19
1011.26	12230.4
1015.7	6908.63
1020.14	2380.41
1024.57	1224.76
1029	1051.05
1033.43	698.18
1037.85	1341.08
1042.27	2554.34
1046.69	5835.37
1051.11	13994.4
1055.53	26603
1059.94	27776.6
1064.35	21791
1068.76	15226.5
1073.16	8439.75
1077.56	4645.06
1081.96	2811.57
1086.36	1664.79
1090.75	1151.4
1095.15	804.082
1099.54	553.996
1103.92	557.394
1108.31	467.949
1112.69	324.434
1117.07	370.019
1121.45	198.93
1125.82	302.144
1130.2	289.637
1134.57	327.387
1138.93	273.363
1143.3	91.543
1147.66	194.914
1152.02	76.5898
1156.38	361.652
1160.73	34.6836
1165.09	69.8164
1169.44	160.973
1173.79	190.688
1178.13	30.6523
1182.47	55.6016
1186.81	260.406
1191.15	97.7891
1195.49	598.512
1199.82	201.43
1204.15	191.254
1208.48	151.945
1212.8	416.957
1217.13	439.848
1221.45	168.457
1225.77	394.246
1230.08	713.981
1234.39	760.723
1238.7	858.547
1243.01	408
1247.32	668.5
1251.62	763.816
1255.92	526.941
1260.22	1117.87
1264.52	991.594
1268.81	870.164
1273.1	1028.73
1277.39	975.121
1281.68	832.769
1285.96	694.016
1290.24	890.844
1294.52	567.496
1298.8	1057.38
1303.07	394.176
1307.35	746.246
1311.62	1100.65
1315.88	940.234
1320.15	946.617
1324.41	789.269
1328.67	220.973
1332.92	163.668
1337.18	19.8711
1341.43	14.5664
1345.68	260.281
1349.93	13.7617
1354.17	336.703
1358.42	2.52344
1362.66	279.918
1366.89	181.367
1371.13	201.371
1375.36	310.441
1379.59	492.68
1383.82	405.055
1388.05	550.57
1392.27	379.242
1396.49	271.883
1400.71	665.059
1404.93	209.973
1409.14	481.519
1413.35	327.977
1417.56	334.332
1421.77	438.898
1425.97	58.6211
1430.17	561.359
1434.37	612.461
1438.57	1296.9
1442.76	1545.98
1446.96	1844.89
1451.15	1964.17
1455.33	2264.11
1459.52	1981.17
1463.7	1733.48
1467.88	1242.11
1472.06	990.637
1476.23	860.801
1480.41	852.266
1484.58	557.242
1488.75	559.633
1492.91	108
1497.08	264.883
1501.24	405.34
1505.4	306.414
1509.55	185.18
1513.71	59.6445
1517.86	77.6445
1522.01	247.383
1526.15	271.566
1530.3	29.6016
1534.44	164.731
1538.58	25.1758
1542.72	139.203
1546.85	552.551
1550.99	520.004
1555.12	385.234
1559.24	287.945
1563.37	265.465
1567.49	66.8945
1571.62	379.934
1575.73	173.062
