Measurement: Raman, 514 nm, ccw, Raman Data Processed
Mineral: Sodalite
Rruff sample: R060355
Ideal chemistry: Na_4_Si_3_Al_3_O_12_Cl
Locality: Mont Saint-Hilaire, Quebec, Canada
Source: Herb Obodda
Description: Clear colorless fragment
Measured chemistry: (Na_0.98_[box]_0.02_)_8_Al_6.00_(Si_0.99_Al_0.01_)_6_O_24_Cl_1.82_
Pin_id: L00616
Orientation: Laser parallel to a* (1 0 0). Fiducial mark perpendicular to laser is parallel to -c [0 0 -1]
Raman shift (cm-1)	intensity
125.385	0
130.313	959.578
135.239	393.121
140.163	402.578
145.084	648
150.002	479.387
154.918	1426.04
159.832	5404
164.742	12207.1
169.651	8342.03
174.556	3820.13
179.459	1941.88
184.36	524.324
189.258	77.3516
194.153	224.91
199.046	369.613
203.936	34.5586
208.824	374.172
213.709	581.398
218.592	728.137
223.472	1429.41
228.349	2106.65
233.224	3503.48
238.096	3744.36
242.966	4838.06
247.833	7242.85
252.698	13474.9
257.56	22144.8
262.419	29422.7
267.276	24035.1
272.13	15686
276.982	9618.58
281.831	6994.48
286.677	6791.68
291.521	9852.34
296.363	9130.42
301.202	3516.62
306.038	1524.48
310.872	1127.72
315.703	805.164
320.531	745.879
325.357	347.703
330.181	310.281
335.001	91.7188
339.82	19.2188
344.635	122.336
349.448	231.527
354.259	51.0391
359.067	159.371
363.872	156.367
368.675	160.969
373.475	97.7695
378.272	7.87109
383.067	58.3555
387.86	370.516
392.649	611.516
397.437	1066.47
402.221	2139.53
407.003	3973.76
411.783	4303.07
416.56	2492.14
421.334	3000.5
426.106	3255
430.875	4535.71
435.641	5644.67
440.405	7433.54
445.167	11400.8
449.925	21700.5
454.681	46956.1
459.435	111376
464.186	158599
468.934	79894.7
473.68	36097.7
478.423	19874.8
483.164	12441.4
487.902	8726.77
492.637	7717.32
497.37	8276.11
502.1	5048.87
506.828	3827.87
511.553	3312.38
516.276	3378.09
520.995	2735.38
525.713	2395.78
530.427	2214.7
535.139	1869.81
539.849	1754.81
544.556	1595.69
549.26	1300.69
553.962	1537.34
558.661	1272.56
563.357	885.031
568.051	612.047
572.742	963.102
577.431	956.25
582.117	858.492
586.801	1135.91
591.481	1414.62
596.16	1060.74
600.835	1227.33
605.508	1805.51
610.179	1985.44
614.847	2047.28
619.512	2309.13
624.175	2664.41
628.835	1689.35
633.492	1677.09
638.147	1064.91
642.799	1636.27
647.449	1154.42
652.096	536.828
656.74	193.914
661.382	85.4766
666.021	45.7109
670.658	73.7266
675.292	26.5938
679.923	45.0703
684.552	323.016
689.178	154.75
693.802	5.625
698.423	935.898
703.041	1647.01
707.657	4661.21
712.27	7553.54
716.881	8186.81
721.489	6795.52
726.094	5388.12
730.697	5439.13
735.297	5825.97
739.894	3915.55
744.489	3660.04
749.081	2681.26
753.671	2439.83
758.258	2853.53
762.842	1937.91
767.424	1409.69
772.003	2168.98
776.58	3018.51
781.154	4714.93
785.725	2198.31
790.294	818.148
794.86	293.234
799.424	574.711
803.985	328.242
808.543	819.711
813.099	1172.15
817.652	1647.84
822.202	763.031
826.75	1205.44
831.295	1999.34
835.838	2337.88
840.378	3086.02
844.915	2490.84
849.45	2530.59
853.982	2792.73
858.512	3148.26
863.039	2563.18
867.563	2037.84
872.085	1885.13
876.604	1286.23
881.12	1003.16
885.634	603.805
890.145	1019.98
894.654	468.641
899.16	220.68
903.663	271.633
908.164	752.641
912.662	938.992
917.158	1516.02
921.651	1956.8
926.141	1870.12
930.628	1078.72
935.113	993.562
939.596	393.133
944.076	269.617
948.553	519.148
953.027	698.148
957.499	1857.9
961.969	4448.87
966.435	7356.27
970.899	7882.53
975.361	7659.11
979.82	13546.9
984.276	36102.5
988.73	41314.4
993.181	20437.5
997.629	20499.4
1002.08	29020.3
1006.52	11029.5
1010.96	4901.48
1015.4	2711.38
1019.83	2149.81
1024.26	2680.2
1028.69	2994.26
1033.12	3507.84
1037.55	2498.7
1041.97	2633.26
1046.39	2016.06
1050.81	2046.17
1055.22	3847.06
1059.63	4731.47
1064.04	3088.39
1068.45	1891.41
1072.85	549.359
1077.25	29.1953
1081.65	50.1172
1086.05	134.953
1090.44	421.125
1094.83	386.594
1099.22	17.7656
1103.6	202.281
1107.99	65.7344
1112.37	305.562
1116.74	461.922
1121.12	279.953
1125.49	165.781
1129.86	962.625
1134.23	722.578
1138.59	230.859
1142.95	128.766
1147.31	445.891
1151.67	1785.05
1156.02	1802.27
1160.38	1165.34
1164.72	1134.33
1169.07	1013.17
1173.41	1373.81
1177.75	2365.33
1182.09	2359.64
1186.43	3186.72
1190.76	3642.59
1195.09	2373.77
1199.42	2298.75
1203.74	1602.97
1208.07	1409.11
1212.39	1372.66
1216.7	1189.7
1221.02	2009.91
1225.33	2402.52
1229.64	3594.39
1233.95	2346.41
1238.25	2120.66
1242.55	1313.62
1246.85	992.672
1251.15	755.531
1255.44	1273.72
1259.73	1644.25
1264.02	2300.91
1268.31	3418.47
1272.59	4031.77
1276.87	5462.78
1281.15	7846.89
1285.42	11156.9
1289.69	11397.4
1293.96	9951.14
1298.23	7804.5
1302.5	6007.33
1306.76	5107.25
1311.02	5344.44
1315.27	4091.92
1319.53	2501.58
1323.78	1848.34
1328.03	1621.16
1332.28	1566.98
1336.52	874.484
1340.76	1641.02
1345	1371.48
1349.23	1244.67
1353.47	1035.94
1357.7	299.703
1361.93	33.4062
1366.15	250.859
1370.37	89.5938
1374.59	489.391
1378.81	129.062
1383.03	1139.42
1387.24	943.234
1391.45	446.109
1395.65	297.844
1399.86	349.203
1404.06	12.9531
1408.26	681.828
1412.46	790.656
1416.65	730.281
1420.84	1437.25
1425.03	2637.89
1429.22	4290.94
1433.4	5537.09
1437.58	9249.78
1441.76	9928.09
1445.93	8370.94
1450.11	7828.45
1454.28	6638.56
1458.44	6184.12
1462.61	4508.62
1466.77	4100.2
1470.93	3550.02
1475.09	3106.97
1479.24	2745.52
1483.39	1886.33
1487.54	1317.84
1491.69	1570.88
1495.84	830.812
1499.98	1198.91
1504.12	1258.02
1508.25	657.703
1512.38	247.516
1516.52	198.75
1520.64	1134.3
1524.77	376.047
1528.89	826.141
1533.01	944.281
1537.13	727.297
1541.25	1208.44
1545.36	479.734
1549.47	1235
1553.58	452.938
1557.68	1295.39
1561.78	1091.2
1565.88	634.141
1569.98	621.266
1574.07	226.297
1578.16	0
