Measurement: Raman, 514 nm, depolarized, Raman Data Processed
Mineral: Sodalite
Rruff sample: R060436
Ideal chemistry: Na_4_Si_3_Al_3_O_12_Cl
Locality: Koksha Valley, Budakshan Province, Afghanistan
Source: Herb Obodda
Description: Pale blue fragment
Measured chemistry: (Na_0.99_K_0.01_)_8_Al_6.00_Si_6.00_O_24_Cl_2.00_
Pin_id: L01849
Orientation: Laser parallel to -a* (-1 0 0). Fiducial mark perpendicular to laser is parallel to c [0 0 1]
Raman shift (cm-1)	intensity
74.718	0
79.673	0.421875
84.626	676.219
89.575	32.4062
94.523	607.906
99.467	763.016
104.409	1595.98
109.349	2236.36
114.286	4041.09
119.22	848.188
124.152	53.0469
129.081	818.266
134.008	1259.23
138.932	1103.77
143.854	1600.97
148.773	2481.8
153.69	3640.42
158.604	6968.91
163.515	14545.8
168.424	14636
173.33	7381.27
178.234	3757.97
183.135	2856.5
188.034	1424.2
192.93	1482.2
197.823	1443.67
202.714	1028.47
207.602	765.25
212.488	1014.06
217.371	1711.73
222.252	1487.64
227.13	2039.98
232.005	3390.97
236.878	4151.83
241.749	5517.11
246.616	7028.67
251.482	12831.2
256.344	20103.7
261.204	27257.8
266.062	26996.8
270.917	19135.5
275.769	11608.8
280.619	7787.78
285.466	5761.22
290.311	7667.12
295.153	9519.25
299.992	6406.72
304.829	2862.69
309.663	833.312
314.495	64.3125
319.324	555.781
324.151	116.312
328.975	82.5625
333.796	202.062
338.615	194.312
343.432	399.156
348.245	468.156
353.056	12
357.865	81.125
362.671	440.531
367.474	345.719
372.275	418.938
377.073	200.812
381.869	558.969
386.662	197.312
391.452	115.719
396.24	1202.81
401.025	924.094
405.808	2323.81
410.588	3409.12
415.366	3072.09
420.141	2578.75
424.913	3326.19
429.683	3602.41
434.45	4777.53
439.214	7361.81
443.976	11408.9
448.736	20127.2
453.493	40398.1
458.247	88941
462.998	150996
467.747	110667
472.494	49946.7
477.238	25605.9
481.979	16553.7
486.718	12579.5
491.454	9924.34
496.187	9157.62
500.918	6743.72
505.646	5288.25
510.372	4366
515.095	3129.91
519.816	3208.28
524.534	2409.88
529.249	3602.06
533.962	2401.34
538.672	2499.38
543.379	2917.59
548.084	2325.59
552.786	2767.81
557.486	1496.38
562.183	2093.19
566.878	1902.31
571.57	1457.81
576.259	2326.62
580.946	1922.53
585.63	1852.88
590.311	4099.62
594.99	3467.09
599.667	3085.91
604.34	4118.22
609.012	3289.06
613.68	2899.5
618.346	2460.62
623.009	3565.28
627.67	3197.31
632.328	2644.06
636.984	3203.19
641.636	2785.69
646.287	3249.09
650.934	2967.31
655.579	2849.44
660.222	2925.91
664.862	3623.34
669.499	2521.31
674.134	2989.41
678.766	3436.62
683.395	1432.78
688.022	1622.75
692.646	2194.41
697.268	2432.53
701.887	3165.09
706.503	2990.09
711.117	2388.91
715.728	45.4688
720.337	2488.84
724.943	1146.66
729.546	670.812
734.147	2321.94
738.745	2922.12
743.341	4491.34
747.933	5016.72
752.524	5406.28
757.111	3698.12
761.697	3891.47
766.279	4128.12
770.859	3188.97
775.436	2707.31
780.011	2235.22
784.583	1408.66
789.152	900.625
793.719	610.312
798.283	746.188
802.845	1679.69
807.404	1719.5
811.96	1923.03
816.514	3318.09
821.065	2763.16
825.613	3542.31
830.159	1906.56
834.703	3328.03
839.243	3889.75
843.781	2599.81
848.317	2536.28
852.849	3207.19
857.38	2431.81
861.907	2151.22
866.432	2623.47
870.954	2485.19
875.474	1348.75
879.991	1332.28
884.506	1188
889.018	995.75
893.527	537.438
898.034	449.844
902.538	604.844
907.039	1315.72
911.538	1013.75
916.034	1168.91
920.528	2548.25
925.018	2261.91
929.507	1331.41
933.992	1570.81
938.476	1558.31
942.956	1703
947.434	1749.47
951.909	1274.53
956.382	1269.19
960.852	2268.56
965.319	2297.56
969.784	3573.28
974.246	4628.78
978.705	11272.1
983.162	27568.2
987.616	43716.3
992.068	20836.3
996.517	8103.97
1000.96	4618.03
1005.41	3150.53
1009.85	3985.69
1014.29	3517.41
1018.72	1422.94
1023.16	245.625
1027.59	612.188
1032.02	282.188
1036.44	1227.84
1040.86	938.375
1045.28	179.562
1049.7	3027.78
1054.12	5581.91
1058.53	8272.75
1062.94	9852.47
1067.35	9018.72
1071.75	5368.62
1076.15	3588.84
1080.55	1929.03
1084.95	678.375
1089.34	762.156
1093.73	807.344
1098.12	1591.91
1102.51	1266.81
1106.89	486.031
1111.27	2521.56
1115.65	2688.22
1120.03	2061.09
1124.4	1530.62
1128.77	809.438
1133.14	893
1137.5	253.656
1141.86	717.594
1146.22	754.25
1150.58	407.938
1154.93	2268.91
1159.29	926.625
1163.64	137.188
1167.98	948.469
1172.33	18.7812
1176.67	268.188
1181.01	945.844
1185.34	1153.59
1189.68	561.594
1194.01	358.219
1198.34	849.062
1202.66	608.5
1206.99	486.562
1211.31	469.031
1215.62	383.969
1219.94	1750.44
1224.25	1621.5
1228.56	1474.72
1232.87	2077.22
1237.17	664.938
1241.48	650.719
1245.78	1487.53
1250.07	466.281
1254.37	1062.06
1258.66	340.812
1262.95	98.2188
1267.23	557.844
1271.52	643.25
1275.8	989.469
1280.08	1035.66
1284.35	413.25
1288.63	623.531
1292.9	1188.66
1297.16	1432.59
1301.43	892.812
1305.69	41.6875
1309.95	787.469
1314.21	411.875
1318.46	0.75
1322.72	850.281
1326.97	1057.34
1331.21	224.031
1335.46	944.219
1339.7	1270.5
1343.94	1051.75
1348.18	2369.94
1352.41	1838
1356.64	1105.72
1360.87	1325.19
1365.1	1139.12
1369.32	3124.47
1373.54	1408.09
1377.76	2145
1381.97	2770.44
1386.19	1367.69
1390.4	2634.03
1394.6	1587.72
1398.81	2163.84
1403.01	2055.25
1407.21	2244.66
1411.41	2019.5
1415.6	2959.12
1419.79	1711.66
1423.98	2738.75
1428.17	1813.06
1432.35	2142.5
1436.54	2000.53
1440.71	1901.59
1444.89	1666.94
1449.06	93.0312
1453.23	1348.88
1457.4	1006.28
1461.57	708.906
1465.73	1997.28
1469.89	983.375
1474.05	1487.72
1478.2	126.719
1482.36	1213.22
1486.51	2270.56
1490.65	1064.69
1494.8	1168.31
1498.94	961.875
1503.08	1162.31
1507.22	812.125
1511.35	477.656
1515.48	1298.06
1519.61	469.75
1523.74	239.125
1527.86	303.469
1531.98	762.25
1536.1	1581.59
1540.22	415.312
1544.33	1821.16
1548.44	1049.12
1552.55	373.656
1556.65	1134
1560.76	672.906
1564.86	939.281
1568.95	786.75
1573.05	1544.09
1577.14	1100.94
