Measurement: Raman, 514 nm, ccw, Raman Data Processed
Mineral: Sodalite
Rruff sample: R060436
Ideal chemistry: Na_4_Si_3_Al_3_O_12_Cl
Locality: Koksha Valley, Budakshan Province, Afghanistan
Source: Herb Obodda
Description: Pale blue fragment
Measured chemistry: (Na_0.99_K_0.01_)_8_Al_6.00_Si_6.00_O_24_Cl_2.00_
Pin_id: L01849
Orientation: Laser parallel to -a* (-1 0 0). Fiducial mark perpendicular to laser is parallel to c [0 0 1]
Raman shift (cm-1)	intensity
74.718	0
79.673	355.141
84.626	480.883
89.575	335.156
94.523	430.969
99.467	499.172
104.409	832.953
109.349	901.656
114.286	1596.41
119.22	634.719
124.152	220.312
129.081	244.641
134.008	36.6562
138.932	749.312
143.854	2141.12
148.773	2173.53
153.69	2685.5
158.604	6468.11
163.515	14243.7
168.424	13757.8
173.33	6536.47
178.234	3273.36
183.135	2070.64
188.034	967.906
192.93	712.312
197.823	3.8125
202.714	326.578
207.602	720.75
212.488	1147.73
217.371	1088.73
222.252	1454.69
227.13	2068.02
232.005	2504.89
236.878	3974.55
241.749	4438.78
246.616	7315.8
251.482	11981.8
256.344	19290.1
261.204	27062.1
266.062	26206.5
270.917	17561.9
275.769	11034.9
280.619	6495.5
285.466	5745.17
290.311	5816.08
295.153	8185.25
299.992	5126.56
304.829	2358.12
309.663	573.234
314.495	637.312
319.324	29.0625
324.151	506.281
328.975	56.125
333.796	252.406
338.615	74.9062
343.432	185.109
348.245	25.8281
353.056	378.969
357.865	138.703
362.671	157
367.474	156.891
372.275	276.141
377.073	331.453
381.869	150.453
386.662	146.516
391.452	437.516
396.24	1003.8
401.025	570.531
405.808	2808.78
410.588	5367.62
415.366	3246.39
420.141	2185.38
424.913	3171.12
429.683	3479.75
434.45	4557.19
439.214	6157.61
443.976	10241.1
448.736	18972.6
453.493	40167.2
458.247	90166.3
462.998	153155
467.747	109970
472.494	48831.3
477.238	24995.4
481.979	15044.2
486.718	11265
491.454	9730.03
496.187	10678.8
500.918	8164.81
505.646	5336.98
510.372	3987.45
515.095	3101.69
519.816	3429.23
524.534	2935.17
529.249	3183.59
533.962	2068.95
538.672	2365.33
543.379	2351.47
548.084	2500.03
552.786	1560.55
557.486	987.141
562.183	1998.91
566.878	1519.86
571.57	1905.06
576.259	1284.5
580.946	2163.69
585.63	2071.58
590.311	2851
594.99	2797.11
599.667	2003.53
604.34	3552.53
609.012	3506.19
613.68	3093.52
618.346	2699.83
623.009	2438.41
627.67	2192.36
632.328	1889.58
636.984	2378.95
641.636	2725.67
646.287	2308.88
650.934	1983.75
655.579	2146.97
660.222	2386.84
664.862	2271.5
669.499	2058.27
674.134	2369.11
678.766	2273.92
683.395	1308.67
688.022	757.406
692.646	2418.03
697.268	1804.67
701.887	2235.34
706.503	1661.06
711.117	1599.91
715.728	107.156
720.337	1823.66
724.943	480.578
729.546	1000.2
734.147	1867.38
738.745	1834.89
743.341	2392.83
747.933	2891.28
752.524	2756.25
757.111	2612.95
761.697	2928.11
766.279	2732.69
770.859	1934.19
775.436	1786.28
780.011	1682.31
784.583	1065.28
789.152	1474.22
793.719	1447.19
798.283	626.25
802.845	738.391
807.404	1324.73
811.96	2115.34
816.514	2681.31
821.065	1548.7
825.613	2370.17
830.159	1013.66
834.703	2117.86
839.243	2416.78
843.781	1739.5
848.317	2339.14
852.849	1611.06
857.38	2084.56
861.907	1563.59
866.432	1930.97
870.954	1474.28
875.474	1601.84
879.991	1220.72
884.506	1171.31
889.018	736.281
893.527	217.406
898.034	129.844
902.538	914.5
907.039	936.469
911.538	1186.31
916.034	417.094
920.528	1397.72
925.018	200.469
929.507	1562.53
933.992	1364.19
938.476	1046.91
942.956	430.719
947.434	1555.25
951.909	1527.28
956.382	1139.69
960.852	2030.16
965.319	1627.16
969.784	3031.91
974.246	4731.22
978.705	10348.1
983.162	28716.8
987.616	43270.1
992.068	20368
996.517	8340.44
1000.96	4279.22
1005.41	3536.06
1009.85	4187.81
1014.29	3690.94
1018.72	1633.47
1023.16	537.875
1027.59	353.25
1032.02	447.312
1036.44	1655.38
1040.86	1032.19
1045.28	902.469
1049.7	3240.12
1054.12	5956.84
1058.53	9007.09
1062.94	8546.44
1067.35	5914.38
1071.75	3405.28
1076.15	1367.59
1080.55	1531.34
1084.95	859.469
1089.34	898.438
1093.73	214.938
1098.12	1280.75
1102.51	943.062
1106.89	606.125
1111.27	934
1115.65	1262.56
1120.03	169.719
1124.4	747.969
1128.77	928.344
1133.14	1361.16
1137.5	106.094
1141.86	442.188
1146.22	979.312
1150.58	864.094
1154.93	1266.44
1159.29	598.469
1163.64	439.188
1167.98	732.562
1172.33	775.281
1176.67	77.7812
1181.01	454.531
1185.34	715.031
1189.68	66.125
1194.01	369.188
1198.34	398.25
1202.66	236.875
1206.99	644.375
1211.31	637.438
1215.62	354.125
1219.94	757.594
1224.25	404.844
1228.56	875.375
1232.87	1100.97
1237.17	972.25
1241.48	967.031
1245.78	841.375
1250.07	712.219
1254.37	1059.5
1258.66	160.188
1262.95	127.75
1267.23	384.375
1271.52	747.906
1275.8	377.312
1280.08	1061.38
1284.35	636.562
1288.63	360.281
1292.9	228.156
1297.16	470.438
1301.43	973.531
1305.69	744.125
1309.95	815.438
1314.21	99.8438
1318.46	558.844
1322.72	509.156
1326.97	804.844
1331.21	384.156
1335.46	1494.19
1339.7	486.719
1343.94	877.844
1348.18	1933.06
1352.41	929.375
1356.64	1639.81
1360.87	522.344
1365.1	696.969
1369.32	1959.62
1373.54	1401.38
1377.76	1394.22
1381.97	2088.62
1386.19	836.375
1390.4	2330.47
1394.6	1409.06
1398.81	1019.5
1403.01	1325.62
1407.21	671.719
1411.41	1380.62
1415.6	1534.59
1419.79	1851.81
1423.98	2074.94
1428.17	1176.22
1432.35	1079.34
1436.54	1188.34
1440.71	1401.59
1444.89	807.875
1449.06	883.656
1453.23	1310.88
1457.4	1302.78
1461.57	284.469
1465.73	1488.84
1469.89	830.562
1474.05	536.562
1478.2	44
1482.36	865.938
1486.51	1357.31
1490.65	92.25
1494.8	1492.72
1498.94	936.688
1503.08	739.906
1507.22	1099.12
1511.35	1209.5
1515.48	1487.72
1519.61	460.031
1523.74	554.969
1527.86	695.031
1531.98	956.344
1536.1	1471.16
1540.22	1095.06
1544.33	1011
1548.44	1443.06
1552.55	878.031
1556.65	1888.84
1560.76	439.938
1564.86	1248.28
1568.95	1235.53
1573.05	1305.44
1577.14	352.5
