Measurement: Raman, 514 nm, ccw, Raman Data Processed
Mineral: Sodalite
Rruff sample: R060355
Ideal chemistry: Na_4_Si_3_Al_3_O_12_Cl
Locality: Mont Saint-Hilaire, Quebec, Canada
Source: Herb Obodda
Description: Clear colorless fragment
Measured chemistry: (Na_0.98_[box]_0.02_)_8_Al_6.00_(Si_0.99_Al_0.01_)_6_O_24_Cl_1.82_
Pin_id: L00616
Orientation: Laser parallel to a* (1 0 0). Fiducial mark perpendicular to laser is parallel to -c [0 0 -1]
Raman shift (cm-1)	intensity
125.385	0
130.313	356.117
135.239	33.0977
140.163	866.863
145.084	854.111
150.002	617.656
154.918	558.447
159.832	3195.47
164.742	7080.53
169.651	4520.11
174.556	1741.6
179.459	707.922
184.36	103.019
189.258	51.6719
194.153	9.10938
199.046	265.357
203.936	440.256
208.824	240.926
213.709	488.334
218.592	508.652
223.472	775.252
228.349	1303.45
233.224	1744.82
238.096	2018.56
242.966	2706
247.833	4099.61
252.698	7906.13
257.56	12974.8
262.419	17034.4
267.276	14456.4
272.13	8865.75
276.982	5372.19
281.831	3764.22
286.677	2827.76
291.521	3499.58
296.363	4650.5
301.202	2116.92
306.038	1167.05
310.872	758.275
315.703	288.377
320.531	517.623
325.357	348.438
330.181	308.092
335.001	183.207
339.82	3.92383
344.635	722.213
349.448	76.7539
354.259	20.5078
359.067	42.293
363.872	154.299
368.675	173.84
373.475	116.891
378.272	102.023
383.067	414.539
387.86	548.879
392.649	690.402
397.437	998.434
402.221	1624.75
407.003	3295.45
411.783	3644.36
416.56	1613.04
421.334	1492.39
426.106	2030.93
430.875	2598.43
435.641	3118.76
440.405	4321.23
445.167	6582.26
449.925	11838.3
454.681	25682.7
459.435	62730.6
464.186	91590.4
468.934	48167.8
473.68	21633.4
478.423	12006.8
483.164	7700.24
487.902	5707.24
492.637	5559.53
497.37	5935.81
502.1	4213.75
506.828	2590.34
511.553	2177.51
516.276	2193.48
520.995	1963.54
525.713	1791.53
530.427	1563.34
535.139	1469.54
539.849	1089.11
544.556	1394.18
549.26	1137.77
553.962	1122.5
558.661	1039.67
563.357	910.012
568.051	706.906
572.742	693.258
577.431	1028.46
582.117	808.641
586.801	966.766
591.481	890.918
596.16	921.219
600.835	1384.81
605.508	1449.81
610.179	1676.24
614.847	1846.25
619.512	1868.9
624.175	2274.3
628.835	1411.46
633.492	1571.66
638.147	1245.6
642.799	1545.5
647.449	1156.19
652.096	920.277
656.74	568.68
661.382	49.4961
666.021	62.2383
670.658	160.957
675.292	66.9336
679.923	279.731
684.552	103.418
689.178	1.10547
693.802	55.1602
698.423	156.762
703.041	1035.47
707.657	2208.74
712.27	3666.04
716.881	4424.14
721.489	3748.03
726.094	2977.24
730.697	1985.75
735.297	2435.54
739.894	1838.95
744.489	1451.93
749.081	1531.88
753.671	1069.67
758.258	1093.51
762.842	849.625
767.424	819.008
772.003	913.723
776.58	1308.28
781.154	2663.51
785.725	1408.93
790.294	631.207
794.86	683.301
799.424	482.262
803.985	308.551
808.543	218.055
813.099	472.398
817.652	948.727
822.202	323.769
826.75	337.539
831.295	535.43
835.838	1056.21
840.378	1977.61
844.915	1685.09
849.45	1367.09
853.982	1449.76
858.512	1967.63
863.039	1515.33
867.563	1483.53
872.085	1295.49
876.604	668.227
881.12	643.184
885.634	61.3906
890.145	158.25
894.654	293.137
899.16	124.144
903.663	314.496
908.164	24.1406
912.662	223.008
917.158	603.227
921.651	755.18
926.141	518.695
930.628	288.113
935.113	151.758
939.596	262.199
944.076	735.32
948.553	67.7148
953.027	293.488
957.499	138.973
961.969	599.793
966.435	1689.96
970.899	1982.97
975.361	2724.26
979.82	6894.72
984.276	19363.3
988.73	23254.2
993.181	11091.8
997.629	11296.8
1002.08	19805.6
1006.52	7929.69
1010.96	3972.97
1015.4	2153.16
1019.83	1438.92
1024.26	1400.94
1028.69	2001.23
1033.12	2217.87
1037.55	1648.62
1041.97	1286.13
1046.39	1466.31
1050.81	2520.46
1055.22	4705.74
1059.63	5119.17
1064.04	3278.54
1068.45	1989.16
1072.85	1112.97
1077.25	643.039
1081.65	695.891
1086.05	598.422
1090.44	96.6328
1094.83	306.398
1099.22	154.039
1103.6	183.539
1107.99	36.1875
1112.37	110.969
1116.74	50.5781
1121.12	118.797
1125.49	360.359
1129.86	344.016
1134.23	599.453
1138.59	69.8594
1142.95	36.8906
1147.31	110.344
1151.67	1034.89
1156.02	1275.09
1160.38	763.758
1164.72	577.578
1169.07	137.508
1173.41	920.406
1177.75	1280.51
1182.09	1203.77
1186.43	1748.14
1190.76	2039.61
1195.09	1749.19
1199.42	1173.9
1203.74	1259.77
1208.07	816.828
1212.39	1016.31
1216.7	1128.27
1221.02	1286.89
1225.33	1690.12
1229.64	2139.97
1233.95	2178.17
1238.25	1508.27
1242.55	1144.87
1246.85	867.742
1251.15	585.242
1255.44	481.516
1259.73	1137.13
1264.02	1725.96
1268.31	2312.06
1272.59	2594.46
1276.87	3215.85
1281.15	5380.47
1285.42	7798.44
1289.69	7684.85
1293.96	7347.15
1298.23	5773.01
1302.5	4159.12
1306.76	3834.84
1311.02	3651.99
1315.27	3151.53
1319.53	2259.4
1323.78	934.547
1328.03	1347.92
1332.28	1107.47
1336.52	765.352
1340.76	982.047
1345	1067.93
1349.23	1005.55
1353.47	672.461
1357.7	6.52344
1361.93	974.008
1366.15	471.055
1370.37	149.133
1374.59	315.344
1378.81	382
1383.03	473.375
1387.24	1117.68
1391.45	600.32
1395.65	454.305
1399.86	453.109
1404.06	175.586
1408.26	102.234
1412.46	186.234
1416.65	1009.3
1420.84	1377.48
1425.03	1714.69
1429.22	2679.19
1433.4	4305.73
1437.58	6473.75
1441.76	7879.76
1445.93	6400.25
1450.11	6081.24
1454.28	5605.19
1458.44	5323.46
1462.61	4404.73
1466.77	3262.05
1470.93	2557.37
1475.09	2095.44
1479.24	1906.91
1483.39	1776.74
1487.54	1400.93
1491.69	737.781
1495.84	787.023
1499.98	706.719
1504.12	720.891
1508.25	475.914
1512.38	168.516
1516.52	207.656
1520.64	1238.27
1524.77	522.68
1528.89	480.258
1533.01	290.586
1537.13	288.664
1541.25	499.281
1545.36	547.18
1549.47	836.93
1553.58	588.359
1557.68	263.633
1561.78	319.102
1565.88	69.3984
1569.98	613.883
1574.07	126.32
1578.16	0
