Measurement: Raman, 514 nm, ccw, Raman Data Processed
Mineral: Sodalite
Rruff sample: R060405
Ideal chemistry: Na_4_Si_3_Al_3_O_12_Cl
Locality: Cerro Sapo, Cochabamba Department, Bolivia
Source: Marcus Origlieri
Description: Blue massive associated with brown burbankite R050646
Measured chemistry: Na_8.00_Al_6.00_Si_6.00_O_24_Cl_2_
Pin_id: L01500
Orientation: Laser parallel to a* (1 0 0). Fiducial mark perpendicular to laser is parallel to c [0 0 1]
Raman shift (cm-1)	intensity
68.353	0
73.302	1435.05
78.248	5521.42
83.192	6164.82
88.134	3835.62
93.073	573.881
98.009	474.067
102.944	3025.44
107.875	4609.15
112.804	5774.51
117.731	3508.12
122.655	1699.75
127.577	1854.25
132.497	2235.13
137.414	1543
142.328	1714.81
147.24	2687.33
152.15	3156.13
157.057	6900.72
161.961	15898.1
166.863	24587.6
171.763	15462
176.66	6732.13
181.555	3669.75
186.447	1557
191.337	398.815
196.224	129.679
201.109	220.915
205.991	266.746
210.871	149.853
215.748	46.1768
220.623	500.296
225.496	1619.98
230.366	2604.32
235.233	3790.18
240.098	4592.39
244.96	7048.05
249.82	12527.7
254.678	22211.5
259.533	33778.6
264.385	39915.9
269.236	31404.6
274.083	19392.6
278.928	12556.9
283.771	10348.8
288.611	12204.4
293.448	16257
298.283	13370.7
303.116	5586.33
307.946	2838.89
312.774	2015.43
317.599	1958.63
322.422	1785.07
327.242	1779.67
332.059	1642.39
336.874	1659.26
341.687	1618.86
346.497	1280.33
351.305	1137.29
356.11	935.48
360.912	843.455
365.712	850.469
370.51	962.082
375.305	566.448
380.098	345.848
384.888	285.289
389.675	146.537
394.46	482.953
399.243	961.25
404.023	2109.39
408.8	4270.35
413.575	3632.08
418.348	2282.56
423.118	2849.64
427.885	4004.07
432.65	5472.06
437.413	7708.94
442.173	12274.5
446.93	22371.9
451.685	44364
456.437	95445.1
461.187	184952
465.934	207828
470.679	104600
475.421	44615.3
480.161	23981.6
484.898	16390.8
489.633	12616.2
494.365	10319.1
499.095	8885.72
503.822	5504.36
508.547	3764.61
513.269	3129.43
517.988	2997.76
522.705	2765.58
527.42	2191.92
532.132	1822.78
536.841	1453.03
541.548	1185.76
546.252	905.133
550.954	747.934
555.653	410.082
560.35	289.591
565.044	41.2148
569.736	249.732
574.425	280.239
579.112	124.853
583.796	8.24902
588.477	123.138
593.156	103.679
597.833	10.9815
602.507	286.628
607.178	779.724
611.847	547.235
616.513	32.123
621.177	141.28
625.838	30.7344
630.497	52.0605
635.153	166.415
639.806	253.234
644.457	358.151
649.106	429.51
653.752	687.596
658.395	754.457
663.036	734.169
667.674	1024.84
672.31	938.377
676.943	1186.2
681.574	1221.84
686.202	1201.43
690.827	1330.08
695.45	1538.15
700.071	1569.84
704.688	1836.58
709.304	1850.66
713.916	2073.81
718.527	1863.24
723.134	1811.35
727.739	2143.23
732.342	2564.48
736.942	2580.87
741.539	2079
746.134	1717.17
750.726	983.216
755.316	861.915
759.903	643.233
764.488	672.555
769.07	588.418
773.649	350.462
778.226	292.672
782.801	338.188
787.372	348.284
791.942	278.302
796.508	219.255
801.072	118.071
805.634	80.5059
810.193	174.581
814.749	1.42676
819.303	37.4219
823.854	47.1592
828.403	4.46094
832.949	35.3447
837.493	52.165
842.034	71.5342
846.572	147.312
851.108	160.891
855.641	265.594
860.172	282.288
864.7	919.952
869.226	546.604
873.749	564.306
878.269	521.587
882.787	476.35
887.302	259.624
891.815	64.5381
896.325	6.52832
900.833	42.9541
905.338	59.1904
909.84	50.0488
914.34	109.811
918.837	298.522
923.332	56.1816
927.824	264.676
932.313	334.198
936.8	228.785
941.285	466.942
945.766	656.911
950.246	862.691
954.722	1447.39
959.196	2977.97
963.668	5732.78
968.136	7562.56
972.603	8942.12
977.066	13621.4
981.528	34859
985.986	72459.1
990.442	39841.5
994.895	11395.4
999.346	5231.69
1003.79	3367.58
1008.24	3755.74
1012.68	4310.56
1017.12	2169.93
1021.56	819.013
1026	581.175
1030.43	625.568
1034.86	1051.81
1039.29	1306.77
1043.71	2756.46
1048.13	4998.15
1052.55	9442.66
1056.97	15657.3
1061.38	17314.2
1065.8	16063
1070.21	11123.7
1074.61	6626.4
1079.02	3913.04
1083.42	2384.59
1087.82	1689.28
1092.21	1308.16
1096.61	990.043
1101	947.049
1105.39	874.106
1109.78	589.152
1114.16	1164.83
1118.54	721.381
1122.92	693.627
1127.29	532.826
1131.67	435.406
1136.04	632.68
1140.4	526.113
1144.77	445.631
1149.13	468.44
1153.49	415.418
1157.85	507.451
1162.2	355.998
1166.56	253.16
1170.91	206.889
1175.25	107.834
1179.6	82.1035
1183.94	65.1035
1188.28	150.402
1192.62	111.176
1196.95	140.531
1201.28	210.746
1205.61	249.875
1209.94	247.961
1214.26	766.25
1218.58	57.7148
1222.9	116.332
1227.22	157.07
1231.53	159.906
1235.84	108.811
1240.15	167.758
1244.45	23.7227
1248.76	15.6875
1253.06	125.369
1257.36	177.295
1261.65	75.8652
1265.94	51.3594
1270.23	17.3984
1274.52	136.621
1278.8	73.2344
1283.09	119.439
1287.37	18.1992
1291.64	11.5254
1295.92	114.711
1300.19	6.29102
1304.46	110.889
1308.72	68
1312.99	45.7578
1317.25	40.5137
1321.51	0.539063
1325.76	165.664
1330.02	119.494
1334.27	237.844
1338.52	368.777
1342.76	326.393
1347.01	483.674
1351.24	380.603
1355.48	525.168
1359.72	381.356
1363.95	577.158
1368.18	624.471
1372.41	635.482
1376.63	721.102
1380.85	879.621
1385.07	1123.94
1389.29	1059.46
1393.51	1043.65
1397.72	1005.02
1401.93	1133.69
1406.13	1098.42
1410.34	1068.33
1414.54	1173.74
1418.74	993.871
1422.93	932.449
1427.12	885.287
1431.32	1141.87
1435.5	1161.85
1439.69	1138.15
1443.87	1206.06
1448.05	1051.59
1452.23	1196.66
1456.41	977.852
1460.58	792.938
1464.75	1023.73
1468.91	784.861
1473.08	704.332
1477.24	548.129
1481.4	621.303
1485.56	661.059
1489.71	501.307
1493.86	672.385
1498.01	510.582
1502.16	413.062
1506.3	692.1
1510.44	548.004
1514.58	357.971
1518.72	223.408
1522.85	400.404
1526.98	197.707
1531.11	313.639
1535.24	235.602
1539.36	154.033
1543.48	243.34
1547.6	353.826
1551.71	287.482
1555.82	368.981
1559.93	283.353
1564.04	218.815
1568.14	190.41
1572.25	111.387
1576.35	26.9609
