Measurement: Raman, 514 nm, depolarized, Raman Data Processed
Mineral: Sodalite
Rruff sample: R060416
Ideal chemistry: Na_4_Si_3_Al_3_O_12_Cl
Locality: Koksha Valley, Badakshan Province, Afghanistan
Source: Herb Obodda
Description: Colorless fragment
Measured chemistry: Na_8.00_Al_6.00_Si_6.00_O_24_Cl_2.00_
Pin_id: L01209
Orientation: Laser parallel to -a* (-1 0 0). Fiducial mark perpendicular to laser is parallel to b [0 1 0]
Raman shift (cm-1)	intensity
71.392	0
76.36	630.047
81.325	840.387
86.287	753.293
91.246	934.273
96.203	1247.43
101.156	3811.05
106.107	5739.59
111.055	9329.47
116.001	6871.98
120.944	653.148
125.883	41.6484
130.821	1502.5
135.755	159.262
140.686	251.531
145.615	2239.3
150.541	2513.93
155.464	6949.54
160.385	21868.3
165.303	49437.2
170.218	33178.1
175.13	13054.9
180.039	7096.97
184.946	2879.34
189.85	742.203
194.751	110.644
199.649	152.66
204.545	303.465
209.438	670.695
214.328	1501.86
219.215	2135.37
224.1	3927.35
228.982	7324.89
233.861	9152.38
238.737	10768.4
243.611	14117.1
248.482	22387.8
253.35	38371.8
258.216	62624.5
263.078	81125.4
267.938	69337.9
272.795	44677.4
277.65	29934.9
282.502	24408
287.351	24281.3
292.197	30658.7
297.041	31497.8
301.881	14047.6
306.72	5835.34
311.555	2854.88
316.388	1985.66
321.218	1060.75
326.045	417.234
330.869	20.207
335.691	59.8281
340.51	23.2031
345.327	210.031
350.14	330.394
354.951	171.473
359.76	282.863
364.565	105.508
369.368	658.676
374.168	153.594
378.966	156.336
383.76	212.953
388.552	665.75
393.342	1300.46
398.128	1886.04
402.912	3703.41
407.693	8737.7
412.472	8991.23
417.248	5316.07
422.021	6085.49
426.792	7450.84
431.559	10430.2
436.324	14174.5
441.087	20976.6
445.847	36672.5
450.604	67402
455.358	141234
460.11	307237
464.859	434188
469.605	237842
474.349	101359
479.09	53705.1
483.828	35409.4
488.564	29003.4
493.297	23108.2
498.027	22515.7
502.755	13949.5
507.48	9011.45
512.202	8090.93
516.922	7756.43
521.639	7113.53
526.353	6436.28
531.065	5756.44
535.774	5290.57
540.48	4515.78
545.184	4103.07
549.885	3590.8
554.583	3349.82
559.279	3132.98
563.972	2480.86
568.662	2055.52
573.35	1771.86
578.035	2151.45
582.718	2145.02
587.398	2463.9
592.075	2100.11
596.75	2634.53
601.422	2976.34
606.091	3987.51
610.758	3329.02
615.422	2730.98
620.083	2287.34
624.742	3189.8
629.398	2659.02
634.051	1787.45
638.702	1427.71
643.351	1811.53
647.996	2013.84
652.639	1714.73
657.28	1010.82
661.917	308.168
666.553	268.727
671.185	68.0742
675.815	217.348
680.442	234.16
685.067	224.887
689.689	224.066
694.309	6.46484
698.926	15.4375
703.54	63.5742
708.151	21.3047
712.761	45.0625
717.367	446.445
721.971	614.523
726.572	172.859
731.171	254.062
735.767	616.352
740.36	2199.79
744.951	2526.38
749.539	1003.16
754.125	502.148
758.708	431.383
763.288	324.203
767.866	503.055
772.442	294.234
777.014	253.281
781.584	711.242
786.152	565.219
790.717	664.539
795.279	767.242
799.839	828.281
804.396	327.219
808.951	412.453
813.503	228.539
818.053	744
822.599	552.594
827.144	556.086
831.686	540.945
836.225	462.234
840.761	819.297
845.295	909.867
849.827	779.289
854.356	1665.46
858.882	1828.44
863.406	1891.66
867.927	1593.81
872.446	1463.81
876.962	1310.85
881.476	1000.72
885.987	657.531
890.495	145.25
895.001	569.977
899.505	114.32
904.005	235.219
908.504	149.727
912.999	378.367
917.493	359.336
921.983	333.758
926.471	435.016
930.957	311.57
935.44	372.766
939.92	1104.62
944.398	1183.81
948.874	844.344
953.346	1424.38
957.817	1837.81
962.285	3022.03
966.75	4870.09
971.213	7388.78
975.673	15494.5
980.13	43128.1
984.586	120358
989.038	96931.7
993.488	26714.2
997.936	11188.8
1002.38	8299.73
1006.82	6308.07
1011.26	8683.23
1015.7	4550.84
1020.14	1756.49
1024.57	936.688
1029	202.727
1033.43	338.898
1037.85	571.641
1042.27	1728.26
1046.69	4765.17
1051.11	11856.7
1055.53	21914.3
1059.94	26822.8
1064.35	29799.6
1068.76	23612.8
1073.16	13300.8
1077.56	6848.84
1081.96	4065.3
1086.36	2760.63
1090.75	1589.82
1095.15	1052.8
1099.54	872.406
1103.92	787.969
1108.31	712.289
1112.69	1679.29
1117.07	419.953
1121.45	268.234
1125.82	907.062
1130.2	597.398
1134.57	260.82
1138.93	339.758
1143.3	36.6875
1147.66	139.906
1152.02	41.8984
1156.38	303.922
1160.73	79.9453
1165.09	66.8047
1169.44	246.602
1173.79	124.047
1178.13	20.6719
1182.47	328.477
1186.81	36.4062
1191.15	119.062
1195.49	229.883
1199.82	41.7344
1204.15	276.539
1208.48	145.43
1212.8	510.695
1217.13	494
1221.45	64.3281
1225.77	808.672
1230.08	1038.8
1234.39	924.883
1238.7	1283.97
1243.01	872.07
1247.32	962.195
1251.62	1055.42
1255.92	1272.76
1260.22	1202.09
1264.52	1308.23
1268.81	907.023
1273.1	1803.02
1277.39	1117.49
1281.68	880.969
1285.96	773.453
1290.24	998.5
1294.52	1121.7
1298.8	1102.48
1303.07	954.953
1307.35	773.57
1311.62	1322.07
1315.88	1384.26
1320.15	1286.9
1324.41	1187.02
1328.67	279.742
1332.92	543.805
1337.18	352.555
1341.43	13.0703
1345.68	623.859
1349.93	2.01562
1354.17	663.383
1358.42	265.32
1362.66	307.398
1366.89	604.703
1371.13	258.242
1375.36	369.93
1379.59	801.547
1383.82	828.641
1388.05	947.258
1392.27	781.922
1396.49	653.742
1400.71	937.031
1404.93	452.836
1409.14	605.617
1413.35	902.789
1417.56	531.781
1421.77	614.953
1425.97	271.953
1430.17	947.344
1434.37	948.5
1438.57	1229.12
1442.76	1635.33
1446.96	1972.63
1451.15	2232.8
1455.33	2731.94
1459.52	2853.74
1463.7	1816.42
1467.88	1338.93
1472.06	1379.69
1476.23	1012.36
1480.41	1023.73
1484.58	658.742
1488.75	185.703
1492.91	949.625
1497.08	353.398
1501.24	57.8984
1505.4	264.93
1509.55	295.852
1513.71	418.836
1517.86	53.3125
1522.01	259.211
1526.15	235.43
1530.3	323.398
1534.44	862.297
1538.58	288.625
1542.72	560.32
1546.85	576.742
1550.99	396.727
1555.12	893.984
1559.24	91.5938
1563.37	441.406
1567.49	257.281
1571.62	514.219
1575.73	8.32812
