Measurement: Raman, 514 nm, depolarized, Raman Data Processed
Mineral: Sodalite
Rruff sample: R060354
Ideal chemistry: Na_4_Si_3_Al_3_O_12_Cl
Locality: Koksha Valley, Badakshan Province, Afghanistan
Source: Herb Obodda
Description: Pale purple transparent fragment
Measured chemistry: (Na_0.99_K_0.01_)_8_Al_6.00_Si_6.00_O_24_Cl_2.00_
Pin_id: L01562
Orientation: Laser parallel to a* (1 0 0). Fiducial mark perpendicular to laser is parallel to -c [0 0 -1]
Raman shift (cm-1)	intensity
61.448	0
66.421	563.445
71.392	561.828
76.36	269.227
81.325	822.094
86.287	158.164
91.246	28.1641
96.203	207.156
101.156	541.961
106.107	1089.31
111.055	1523.36
116.001	890.297
120.944	4188.21
125.883	310.438
130.821	325.039
135.755	80.3672
140.686	40.0234
145.615	511.398
150.541	789.352
155.464	1508.3
160.385	4107.17
165.303	7637.28
170.218	4291.35
175.13	2359.85
180.039	1409.91
184.946	587.203
189.85	60.7891
194.751	77.5078
199.649	136.906
204.545	179.102
209.438	162.391
214.328	532.172
219.215	264.609
224.1	648.578
228.982	1337.27
233.861	1353.69
238.737	2151.72
243.611	2354
248.482	3525.25
253.35	6639.16
258.216	9975.54
263.078	12809.3
267.938	10018.2
272.795	6199.44
277.65	4286.71
282.502	3494.5
287.351	3279.8
292.197	4242.55
297.041	3672.44
301.881	2303.45
306.72	765.547
311.555	172.773
316.388	334.117
321.218	383.586
326.045	269.211
330.869	66.0078
335.691	147.008
340.51	137.938
345.327	518.852
350.14	129.672
354.951	261.344
359.76	417.641
364.565	26.25
369.368	492.008
374.168	107.008
378.966	231.641
383.76	159.703
388.552	166.414
393.342	388.609
398.128	1.89062
402.912	739.891
407.693	1736.65
412.472	1471.34
417.248	758.688
422.021	1240.02
426.792	1540.92
431.559	1987.28
436.324	2339.52
441.087	4258.5
445.847	6263.27
450.604	11914.9
455.358	24947.3
460.11	54875.6
464.859	67251
469.605	34691.1
474.349	15709.8
479.09	8539.73
483.828	6197.99
488.564	4756.69
493.297	4014.61
498.027	3829.31
502.755	2232.14
507.48	1786.38
512.202	1706.92
516.922	1160.27
521.639	1444.18
526.353	1210.55
531.065	1506.56
535.774	928.359
540.48	787.117
545.184	1002.53
549.885	1163.31
554.583	738.562
559.279	631.664
563.972	604.852
568.662	765.047
573.35	678.047
578.035	889.711
582.718	799.859
587.398	330.297
592.075	881.156
596.75	1058.47
601.422	551.766
606.091	560.047
610.758	736.828
615.422	1061.12
620.083	629
624.742	738.969
629.398	965.25
634.051	603.297
638.702	1132.55
643.351	591.656
647.996	645.516
652.639	200.297
657.28	162.031
661.917	53.9219
666.553	18.7656
671.185	237.609
675.815	18.6094
680.442	565.047
685.067	218.406
689.689	405.375
694.309	152.75
698.926	477.781
703.54	190.094
708.151	124.797
712.761	684.531
717.367	180.375
721.971	474.469
726.572	751.625
731.171	352.562
735.767	875.719
740.36	801.953
744.951	1086.52
749.539	1039.91
754.125	647.156
758.708	1202.45
763.288	376.203
767.866	618.344
772.442	784.672
777.014	738.406
781.584	580.969
786.152	221.359
790.717	162.125
795.279	158.078
799.839	217.594
804.396	336.438
808.951	486.312
813.503	793.344
818.053	1033.78
822.599	627.625
827.144	607.797
831.686	1251.98
836.225	869.938
840.761	867.25
845.295	1018.56
849.827	557.391
854.356	660.688
858.882	927.062
863.406	453.797
867.927	949.703
872.446	730.844
876.962	881.781
881.476	407.812
885.987	661.156
890.495	45.2031
895.001	562.328
899.505	91.7969
904.005	23.2031
908.504	107.875
912.999	335.672
917.493	95.5312
921.983	582.797
926.471	220.281
930.957	859.172
935.44	765.359
939.92	1300.67
944.398	219.391
948.874	720.297
953.346	620.766
957.817	964.797
962.285	1783.56
966.75	2280.02
971.213	3176.12
975.673	3793.84
980.13	7570.19
984.586	18002.6
989.038	16383.6
993.488	6211.28
997.936	2966.47
1002.38	1961.27
1006.82	1174.44
1011.26	1159.8
1015.7	786.203
1020.14	1063.59
1024.57	0.671875
1029	187.844
1033.43	640.969
1037.85	511.656
1042.27	805.281
1046.69	505.547
1051.11	1400.36
1055.53	2687.84
1059.94	2974.23
1064.35	3568.97
1068.76	2466.03
1073.16	1589.22
1077.56	741.672
1081.96	519.922
1086.36	713.688
1090.75	534.906
1095.15	419.578
1099.54	497.422
1103.92	429.5
1108.31	724
1112.69	1124.56
1117.07	927.812
1121.45	0.546875
1125.82	1251.59
1130.2	508.531
1134.57	314.312
1138.93	79.0781
1143.3	376.766
1147.66	464.922
1152.02	235.109
1156.38	656.156
1160.73	468.156
1165.09	823.281
1169.44	491.938
1173.79	255.031
1178.13	297.484
1182.47	733.156
1186.81	619.594
1191.15	27.5156
1195.49	335.375
1199.82	254.328
1204.15	11.2656
1208.48	370.25
1212.8	501.281
1217.13	347.344
1221.45	390.391
1225.77	359.141
1230.08	479.656
1234.39	254
1238.7	282.266
1243.01	527.344
1247.32	314.828
1251.62	601.906
1255.92	744.891
1260.22	190.422
1264.52	299.656
1268.81	104.375
1273.1	182.641
1277.39	587.25
1281.68	222.516
1285.96	49.5312
1290.24	421.5
1294.52	363.203
1298.8	179.656
1303.07	242.859
1307.35	68.7344
1311.62	551.25
1315.88	412.344
1320.15	495.125
1324.41	644.328
1328.67	765.234
1332.92	388.797
1337.18	468.859
1341.43	614.562
1345.68	1197.5
1349.93	451.938
1354.17	797.312
1358.42	895.797
1362.66	635.859
1366.89	542.141
1371.13	785.031
1375.36	780.859
1379.59	829.844
1383.82	863.109
1388.05	1027.03
1392.27	814.672
1396.49	455.859
1400.71	666.172
1404.93	1222.62
1409.14	850
1413.35	843.766
1417.56	285.516
1421.77	872.656
1425.97	584.5
1430.17	1095.69
1434.37	1013.67
1438.57	793.656
1442.76	1022.73
1446.96	399.234
1451.15	1109.25
1455.33	929.078
1459.52	368.453
1463.7	1369.73
1467.88	154.328
1472.06	410.328
1476.23	303.141
1480.41	498.328
1484.58	912.578
1488.75	305.422
1492.91	561.656
1497.08	382.5
1501.24	593.438
1505.4	501.609
1509.55	167.953
1513.71	739.625
1517.86	447.344
1522.01	660.484
1526.15	949.25
1530.3	806.312
1534.44	971.828
1538.58	804.734
1542.72	564.906
1546.85	429.766
1550.99	49.9531
1555.12	567.797
1559.24	998.625
1563.37	881
1567.49	832.406
1571.62	997.922
1575.73	11.2812
