Measurement: Raman, 514 nm, ccw, Raman Data Processed
Mineral: Sodalite
Rruff sample: R060405
Ideal chemistry: Na_4_Si_3_Al_3_O_12_Cl
Locality: Cerro Sapo, Cochabamba Department, Bolivia
Source: Marcus Origlieri
Description: Blue massive associated with brown burbankite R050646
Measured chemistry: Na_8.00_Al_6.00_Si_6.00_O_24_Cl_2_
Pin_id: L01500
Orientation: Laser parallel to a* (1 0 0). Fiducial mark perpendicular to laser is parallel to c [0 0 1]
Raman shift (cm-1)	intensity
68.353	0
73.302	2904.95
78.248	8611.62
83.192	10682.4
88.134	6335.81
93.073	818.709
98.009	412.505
102.944	3171.23
107.875	5118.47
112.804	5578.13
117.731	3265.95
122.655	1018.37
127.577	1489.08
132.497	1617.64
137.414	1546.2
142.328	2868.42
147.24	3595.85
152.15	3931.95
157.057	7792.61
161.961	17411.4
166.863	21896.2
171.763	11850.2
176.66	6627.95
181.555	4165.62
186.447	2314.04
191.337	1242.01
196.224	363.074
201.109	124.138
205.991	387.719
210.871	306.644
215.748	311.563
220.623	354.915
225.496	1538.72
230.366	2689.19
235.233	3538.37
240.098	4363.17
244.96	6846.39
249.82	12057.8
254.678	21965.6
259.533	32445.4
264.385	34673.8
269.236	25380.2
274.083	16070.2
278.928	11146.6
283.771	10146.3
288.611	13076.6
293.448	15964.7
298.283	10850.6
303.116	4408.55
307.946	2284.82
312.774	1736.56
317.599	1373.55
322.422	1122.01
327.242	1201.84
332.059	1155.01
336.874	1014.25
341.687	1095.9
346.497	967.348
351.305	778.629
356.11	568.268
360.912	599.996
365.712	697.459
370.51	782.863
375.305	375.33
380.098	283.098
384.888	174.258
389.675	283.606
394.46	471.824
399.243	859.672
404.023	2009.9
408.8	3424.63
413.575	2600.93
418.348	2195.85
423.118	2849.35
427.885	3923.57
432.65	5317.43
437.413	7157.9
442.173	12068.9
446.93	21921.3
451.685	44868.8
456.437	97959.6
461.187	177655
465.934	165014
470.679	76107.3
475.421	34261.9
480.161	19334
484.898	13332.9
489.633	10217
494.365	8376.94
499.095	6611.79
503.822	4120.76
508.547	3107.25
513.269	2976.3
517.988	2433.41
522.705	2371.39
527.42	1981.76
532.132	1683.4
536.841	1345.32
541.548	1280.66
546.252	870.462
550.954	770.764
555.653	471.558
560.35	341.765
565.044	147.044
569.736	199.713
574.425	14.9404
579.112	49.4844
583.796	4.28613
588.477	161.822
593.156	203.533
597.833	124.938
602.507	180.387
607.178	426.19
611.847	349.546
616.513	27.6055
621.177	12.4658
625.838	9.63867
630.497	41.5147
635.153	53.4551
639.806	6.28223
644.457	237.436
649.106	257.465
653.752	299.296
658.395	490.739
663.036	559.547
667.674	655.743
672.31	839.635
676.943	749.956
681.574	909.13
686.202	991.269
690.827	1165.59
695.45	1691
700.071	2089.23
704.688	1945.47
709.304	1746.27
713.916	1619.6
718.527	1630.26
723.134	1635.55
727.739	1956.27
732.342	2716.16
736.942	2549.84
741.539	1986.59
746.134	1380.8
750.726	939.852
755.316	565.19
759.903	700.887
764.488	734.676
769.07	386.744
773.649	243.188
778.226	295.478
782.801	344.133
787.372	204.622
791.942	214.985
796.508	172.554
801.072	112.128
805.634	57.3994
810.193	197.429
814.749	72.8379
819.303	50.1299
823.854	36.5898
828.403	9.78516
832.949	44.6982
837.493	73.1572
842.034	36.9941
846.572	36.8066
851.108	90.9062
855.641	230.392
860.172	235.405
864.7	447.185
869.226	567.062
873.749	409.978
878.269	497.701
882.787	274.934
887.302	75.6904
891.815	69.96
896.325	36.5889
900.833	122.353
905.338	11.0352
909.84	57.5195
914.34	41.7949
918.837	85.541
923.332	76.4385
927.824	130.201
932.313	260.143
936.8	458.068
941.285	602.059
945.766	776.518
950.246	912.182
954.722	1837.18
959.196	3597.43
963.668	6916.34
968.136	8581.01
972.603	9482.99
977.066	13809.4
981.528	35192.1
985.986	64603.4
990.442	29500.7
994.895	9008.57
999.346	4137.93
1003.79	2787.85
1008.24	3038.43
1012.68	2850.52
1017.12	1476.2
1021.56	693.205
1026	371.325
1030.43	479.675
1034.86	693.216
1039.29	1192.62
1043.71	2384.98
1048.13	4004.28
1052.55	7915.47
1056.97	12432.6
1061.38	14035
1065.8	13687.2
1070.21	12532.3
1074.61	13065.2
1079.02	9142.03
1083.42	2461.77
1087.82	1454.61
1092.21	1161.55
1096.61	1043.67
1101	842.58
1105.39	369.269
1109.78	595.449
1114.16	612.004
1118.54	420.281
1122.92	341.512
1127.29	344.364
1131.67	526.847
1136.04	411.94
1140.4	410.288
1144.77	445.481
1149.13	346.992
1153.49	439.632
1157.85	346.262
1162.2	339.09
1166.56	311.211
1170.91	337.497
1175.25	296.896
1179.6	258.781
1183.94	194.819
1188.28	120.538
1192.62	8.39941
1196.95	69.4951
1201.28	242.234
1205.61	130.076
1209.94	166.925
1214.26	119.151
1218.58	137.352
1222.9	13.5273
1227.22	234.743
1231.53	99.9678
1235.84	289.176
1240.15	144.33
1244.45	148.409
1248.76	95.0918
1253.06	117.283
1257.36	1.03711
1261.65	89.3603
1265.94	20.1543
1270.23	53.626
1274.52	52.794
1278.8	32.4072
1283.09	8.73633
1287.37	13.544
1291.64	90.9248
1295.92	53.0117
1300.19	91.6543
1304.46	44.4707
1308.72	73.0772
1312.99	45.5352
1317.25	47.8613
1321.51	41.1855
1325.76	129.727
1330.02	121.175
1334.27	64.2266
1338.52	151.858
1342.76	121.086
1347.01	264.911
1351.24	224.319
1355.48	186.299
1359.72	419.835
1363.95	480.915
1368.18	449.132
1372.41	534.285
1376.63	481.978
1380.85	756.222
1385.07	791.089
1389.29	814.918
1393.51	878.737
1397.72	960.438
1401.93	807.703
1406.13	859.038
1410.34	860.29
1414.54	838.205
1418.74	843.624
1422.93	751.519
1427.12	764.78
1431.32	821.631
1435.5	849.557
1439.69	924.245
1443.87	890.115
1448.05	931.692
1452.23	889.665
1456.41	818.2
1460.58	665.713
1464.75	680.619
1468.91	687.88
1473.08	677.392
1477.24	675.16
1481.4	644.154
1485.56	485.411
1489.71	311.391
1493.86	389.821
1498.01	313.261
1502.16	330.887
1506.3	305.664
1510.44	442.677
1514.58	312.134
1518.72	189.539
1522.85	263.033
1526.98	277.639
1531.11	68.6328
1535.24	183.415
1539.36	187.407
1543.48	240.958
1547.6	432.08
1551.71	467.777
1555.82	566.654
1559.93	211.558
1564.04	42.6152
1568.14	49.792
1572.25	90.3281
1576.35	0.023438
