Measurement: Raman, 514 nm, ccw, Raman Data Processed
Mineral: Spessartine
Rruff sample: R060451
Ideal chemistry: Mn^2+^_3_Al_2_(SiO_4_)_3_
Locality: unknown
Source: Gemological Institute of America
Description: Reddish orange fragment
Measured chemistry: (Mn_1.26_Mg_0.98_Fe^2+^_0.39_Ca_0.37_)_Î£=3_Al_2.00_(Si_1.00_O_4_)_3_; trace amounts of Ti
Pin_id: L01336
Orientation: Laser parallel to c* (0 0 1). Fiducial mark perpendicular to laser is parallel to a [1 0 0]
Raman shift (cm-1)	intensity
62.899	0
67.89	40.3589
72.879	87.2821
77.864	81.7707
82.846	8.64665
87.824	32.8024
92.8	68.8273
97.773	289.419
102.742	619.299
107.708	1126.51
112.672	1297.12
117.632	1573.75
122.589	1542.2
127.543	1545.47
132.494	1597.58
137.441	1584.34
142.386	1537.68
147.328	1478.82
152.266	1362.41
157.202	1381.09
162.134	1371.1
167.063	1566.5
171.99	1873.3
176.913	2170.66
181.833	1675.82
186.75	1356.13
191.664	1330.72
196.575	1284.77
201.483	1346.02
206.388	1208.45
211.29	1297.13
216.189	1342.94
221.085	1312.64
225.977	1185.96
230.867	1232.13
235.754	1121.96
240.638	1163.17
245.518	1126.95
250.396	1035.01
255.271	1042.28
260.143	1057.7
265.011	1005.23
269.877	922.817
274.74	933.433
279.6	912.036
284.457	901.853
289.31	955.157
294.161	846.519
299.009	969.187
303.854	971.532
308.696	1025.78
313.535	1053.51
318.371	1297.95
323.204	1607.5
328.034	2119.82
332.861	2729.89
337.686	3365.68
342.507	4134.15
347.325	5598.29
352.141	8483.08
356.953	11662.5
361.763	10714.7
366.569	7251.73
371.373	5283.56
376.174	4300.23
380.972	3515.8
385.767	2502.27
390.559	1692.56
395.348	954.316
400.134	696.342
404.918	342.023
409.698	189.486
414.476	63.8171
419.25	94.0986
424.022	6.13525
428.791	54.116
433.557	10.8433
438.32	81.1106
443.081	57.0869
447.838	51.7593
452.593	69.2549
457.344	33.5984
462.093	63.168
466.839	15.3684
471.582	65.0344
476.323	104.906
481.06	207.637
485.795	229.527
490.526	100.759
495.255	235.313
499.981	309.225
504.705	579.431
509.425	723.915
514.143	509.64
518.857	578.583
523.569	652.249
528.278	743.35
532.985	777.822
537.688	898.472
542.389	1381.46
547.087	2259.55
551.782	3731.46
556.474	5478.51
561.164	5007.98
565.851	2700.32
570.535	1326.67
575.216	777.576
579.894	593.865
584.57	354.123
589.243	283.637
593.913	300.428
598.58	352.773
603.245	316.144
607.907	315.789
612.566	252.905
617.222	175.333
621.875	137.295
626.526	265.613
631.174	361.385
635.82	548.516
640.462	639.028
645.102	389.978
649.739	365.762
654.373	286.281
659.005	152.52
663.634	22.4639
668.26	51.9512
672.884	46.0242
677.504	66.7595
682.122	44.9685
686.738	16.5132
691.35	52.5415
695.96	45.4595
700.567	45.6982
705.172	28.2676
709.774	20.2612
714.373	55.8818
718.969	19.7388
723.563	17.6431
728.154	83.9561
732.743	28.5903
737.328	35.5435
741.912	34.5068
746.492	90.1133
751.07	20.5947
755.645	46.355
760.217	19.9624
764.787	84.4463
769.354	52.6606
773.918	45.3384
778.48	8.36768
783.039	42.8989
787.596	13.252
792.15	73.4619
796.701	97.5405
801.25	189.116
805.796	339.656
810.339	505.286
814.88	631.3
819.418	765.801
823.953	800.847
828.486	780.475
833.016	803.611
837.544	941.336
842.069	1199.51
846.591	1485.83
851.111	2120.11
855.628	2188.53
860.143	2050.85
864.655	1796.44
869.164	1659.05
873.671	1759.42
878.176	2207.59
882.677	2681.85
887.176	3539.98
891.673	4919.92
896.167	7317.64
900.658	12908.4
905.147	23359.5
909.633	37339
914.117	40478.5
918.598	27618.6
923.077	15052.5
927.553	8591.1
932.026	5001.8
936.497	3116.8
940.966	2097.21
945.431	1616.96
949.895	1394.04
954.355	1064.2
958.814	770.16
963.269	822.983
967.723	631.164
972.173	702.081
976.621	485.382
981.067	584.164
985.51	490.843
989.951	385.885
994.389	378.135
998.824	337.613
1003.26	482.864
1007.69	464.163
1012.12	690.936
1016.54	783.379
1020.96	825.308
1025.38	973.42
1029.8	986.198
1034.22	998.82
1038.63	1307.66
1043.04	1208.76
1047.45	1014.1
1051.86	639.659
1056.26	353.529
1060.66	260.669
1065.06	87.0063
1069.45	87.5478
1073.85	81.3364
1078.24	5.37793
1082.63	65.5518
1087.01	65.7822
1091.4	6.99805
1095.78	41.2339
1100.16	9.43213
1104.53	61.9902
1108.91	15.7773
1113.28	32.4307
1117.65	14.3657
1122.01	10.3086
1126.38	21.3491
1130.74	50.7202
1135.1	20.6191
1139.45	74.7681
1143.81	37.1792
1148.16	136.726
1152.51	34.6128
1156.86	31.4849
1161.2	49.3296
1165.54	185.142
1169.88	144.926
1174.22	70.6748
1178.56	210.382
1182.89	237.806
1187.22	152.314
1191.55	274.914
1195.87	163.627
1200.19	208.382
1204.52	210.216
1208.83	212.175
1213.15	170.347
1217.46	117.886
1221.78	288.654
1226.08	182.107
1230.39	186.978
1234.69	75.4497
1239	155.698
1243.3	164.397
1247.59	117.166
1251.89	173.801
1256.18	133.727
1260.47	144.628
1264.76	212.342
1269.04	196.897
1273.33	230.257
1277.61	238.11
1281.88	189.744
1286.16	116.44
1290.43	111.675
1294.7	215.266
1298.97	216.808
1303.24	181.718
1307.51	113.806
1311.77	54.1768
1316.03	130.194
1320.28	61.1748
1324.54	73.1011
1328.79	39.9605
1333.04	30.6025
1337.29	73.0576
1341.54	98.4907
1345.78	4.04199
1350.02	62.415
1354.26	34.5523
1358.5	80.3599
1362.73	5.50488
1366.96	32.0039
1371.19	85.5327
1375.42	128.071
1379.65	44.7617
1383.87	104.485
1388.09	64.3603
1392.31	90.335
1396.52	77.4136
1400.74	76.561
1404.95	25.79
1409.16	55.0542
1413.37	83.3589
1417.57	102.718
1421.77	135.138
1425.97	37.6362
1430.17	150.233
1434.37	148.953
1438.56	30.9561
1442.75	59.2812
1446.94	112.645
1451.13	181.002
1455.31	142.911
1459.5	131.171
1463.68	52.8242
1467.85	55.2119
1472.03	150.277
1476.2	75.7949
1480.37	234.414
1484.54	216.113
1488.71	199.852
1492.88	120.622
1497.04	150.411
1501.2	157.213
1505.36	47.0147
1509.51	216.848
1513.66	204.465
1517.82	46.5981
1521.97	181.347
1526.11	139.384
1530.26	214.869
1534.4	66.6958
1538.54	32.8672
1542.68	150.487
1546.82	34.8818
1550.95	88.4277
1555.08	92.0469
1559.21	66.0459
1563.34	131.032
1567.46	15.187
1571.59	156.941
1575.71	176.375
