Measurement: Raman, 514 nm, depolarized, Raman Data Processed
Mineral: Spessartine
Rruff sample: R060177
Ideal chemistry: Mn^2+^_3_Al_2_(SiO_4_)_3_
Locality: Fujian Province, China
Source: Rock Currier
Description: Orange trapezohedral crystals
Measured chemistry: (Mn_2.86_Fe^2+^_0.10_Ca_0.04_)_Î£=3_Al_2.00_(Si_1.00_O_4_)_3_
Pin_id: M01716
Orientation: Laser parallel to b* (0 1 0). Fiducial mark perpendicular to laser is parallel to a [1 0 0]
Raman shift (cm-1)	intensity
144.768	0
149.715	32.4451
154.659	484.903
159.6	1111.01
164.537	865.468
169.472	716.396
174.403	907.298
179.331	749.733
184.257	689.785
189.179	588.401
194.098	427.838
199.014	341.4
203.927	243.275
208.837	57.051
213.744	156.291
218.647	337.536
223.548	420.125
228.446	370.088
233.34	235.297
238.232	80.9539
243.121	51.0264
248.006	25.5088
252.889	58.7131
257.768	31.6035
262.645	48.1821
267.518	27.5535
272.389	49.5449
277.256	139.529
282.121	261.713
286.982	458.258
291.841	682.61
296.697	1061.58
301.549	1264.02
306.399	1425.97
311.245	1606.43
316.089	1848.25
320.929	2230.61
325.767	2608.16
330.602	2946.97
335.434	3247.03
340.262	3213.32
345.088	2993.71
349.911	2841.9
354.731	2512.11
359.548	2633.48
364.362	2573.06
369.173	2736.85
373.981	2789.84
378.787	2592.02
383.589	2187.46
388.388	1793.23
393.185	1345.12
397.979	1155.74
402.769	985.399
407.557	842.524
412.342	669.81
417.124	658.793
421.903	400.444
426.679	275.935
431.453	130.576
436.223	12.2654
440.991	66.0584
445.755	31.0823
450.517	34.5303
455.276	78.3613
460.032	20.5393
464.785	173.376
469.536	256.17
474.283	351.946
479.028	329.605
483.77	237.228
488.509	266.781
493.245	308.259
497.978	468.662
502.709	499.959
507.436	560.254
512.161	549.394
516.883	557.175
521.602	651.405
526.319	942.311
531.032	1303.94
535.743	2049.23
540.451	3112.32
545.156	3527.01
549.858	2601.06
554.558	1731.83
559.255	1203.38
563.949	865.169
568.64	771.393
573.328	675.787
578.014	620.881
582.697	598.921
587.377	484.378
592.054	450.566
596.729	451.285
601.4	453.684
606.069	441.584
610.736	434.388
615.399	453.999
620.06	526.432
624.718	697.309
629.373	625.45
634.026	531.994
638.676	320.812
643.323	251.185
647.967	136.103
652.609	126.538
657.248	102.458
661.884	10.8217
666.518	4.56445
671.148	13.8666
675.777	25.9979
680.402	45.0012
685.025	92.0075
689.645	60.2744
694.262	64.7222
698.877	53.1893
703.489	38.5012
708.098	53.6088
712.704	106.142
717.308	159.257
721.909	190.988
726.508	251.365
731.104	192.626
735.697	172.689
740.288	122.531
744.876	89.0584
749.461	60.2688
754.044	76.1626
758.624	55.7471
763.201	1.9762
767.776	29.9872
772.348	25.3458
776.917	72.0612
781.484	53.1615
786.048	106.69
790.61	170.26
795.168	156.789
799.725	187.026
804.278	237.074
808.83	394.435
813.378	354.448
817.924	424.565
822.467	388.897
827.008	456.672
831.546	658.313
836.081	858.994
840.614	1355.71
845.145	1808.64
849.672	2025.25
854.197	2045.88
858.72	1948.07
863.24	2000.41
867.757	2048.94
872.272	2179.64
876.785	2744.5
881.294	3342.46
885.802	4371.23
890.306	5941.11
894.808	9003.76
899.308	14455.5
903.805	22822.2
908.299	28052.4
912.791	22845.5
917.281	14291
921.768	8665.7
926.252	5590.65
930.734	3808.86
935.213	2779.15
939.69	2135.84
944.164	1775.96
948.636	1437.12
953.105	1168.75
957.572	979.434
962.036	865.084
966.498	696.635
970.957	518.376
975.414	433.947
979.868	346.016
984.32	296.262
988.769	414.102
993.216	429.865
997.66	524.451
1002.1	629.472
1006.54	796.734
1010.98	973.361
1015.41	1233.9
1019.84	1519.86
1024.27	1616.68
1028.7	1468.63
1033.12	1048.72
1037.55	526.044
1041.97	263.425
1046.38	202.929
1050.8	122.556
1055.21	76.304
1059.62	63.137
1064.03	30.0447
1068.43	11.0012
1072.84	11.0654
1077.24	44.1619
1081.63	37.3545
1086.03	13.5723
1090.42	28.9424
1094.81	41.573
1099.2	21.8855
1103.59	31.0474
1107.97	2.24585
1112.35	44.7197
1116.73	21.4275
1121.11	28.6631
1125.48	8.32593
1129.85	50.5122
1134.22	30.2288
1138.59	8.802
1142.95	62.2261
1147.31	33.5452
1151.67	123.715
1156.03	99.7583
1160.38	70.897
1164.74	81.8425
1169.09	119.529
1173.43	93.3064
1177.78	106.974
1182.12	114.443
1186.46	171.197
1190.8	104.405
1195.14	137.565
1199.47	106.317
1203.8	111.947
1208.13	123.01
1212.46	64.0598
1216.78	130.245
1221.1	126.11
1225.42	114.279
1229.74	90.7119
1234.05	98.9683
1238.37	152.27
1242.68	110.945
1246.98	108.24
1251.29	148.409
1255.59	158.434
1259.89	171.068
1264.19	146.335
1268.49	105.441
1272.78	98.8596
1277.08	75.0896
1281.36	111.733
1285.65	155.103
1289.94	90.1585
1294.22	24.9973
1298.5	46.5254
1302.78	74.2566
1307.05	13.6553
1311.33	87.2022
1315.6	58.9763
1319.87	74.5171
1324.13	61.8345
1328.4	53.0076
1332.66	23.0361
1336.92	3.06763
1341.18	40.7324
1345.43	16.3076
1349.69	39.261
1353.94	4.96362
1358.19	31.2602
1362.43	23.3801
1366.68	47.4724
1370.92	45.481
1375.16	49.4175
1379.4	38.5671
1383.63	157.266
1387.87	82.8967
1392.1	8.96265
1396.33	24.7214
1400.55	72.9675
1404.78	23.072
1409	5.09619
1413.22	9.06714
1417.43	13.6633
1421.65	74.9888
1425.86	14.7776
1430.08	115.15
1434.28	55.5679
1438.49	21.6819
1442.69	83.8567
1446.9	53.9353
1451.1	65.5671
1455.3	122.244
1459.49	63.398
1463.68	93.3496
1467.88	170.232
1472.07	57.3369
1476.25	111.518
1480.44	56.9744
1484.62	73.0938
1488.8	85.4126
1492.98	73.7351
1497.16	66.0271
1501.33	49.8254
1505.5	129.733
1509.67	98.3564
1513.84	41.9983
1518.01	39.5793
1522.17	88.771
1526.33	80.5962
1530.49	70.4624
1534.65	65.5198
1538.8	56.8838
1542.95	94.3704
1547.1	39.8831
1551.25	33.8042
1555.4	93.1211
1559.54	8.54785
1563.69	80.3872
1567.83	30.6482
1571.96	73.6069
1576.1	0.003174
