Measurement: Raman, 514 nm, depolarized, Raman Data Processed
Mineral: Spessartine
Rruff sample: R060447
Ideal chemistry: Mn^2+^_3_Al_2_(SiO_4_)_3_
Locality: unknown
Source: Gemological Institute of America
Description: Orange fragment
Measured chemistry: (Mn^2+^_2.85_Fe^2+^_0.07_Mg_0.05_Ca_0.03_)_Î£=3_Al_2.00_(Si_1.00_O_4_)_3_
Pin_id: M01768
Orientation: Laser parallel to a* (1 0 0). Fiducial mark perpendicular to laser is parallel to c [0 0 1]
Raman shift (cm-1)	intensity
155.894	0
160.834	332.451
165.771	1898.66
170.705	799.676
175.635	1018.7
180.563	380.694
185.487	21.3423
190.409	20.7571
195.327	417.285
200.242	289.087
205.155	79.759
210.064	131.758
214.97	658.351
219.873	2211.72
224.773	2245.78
229.67	837.947
234.564	412.589
239.455	319.154
244.342	158.639
249.227	85.9875
254.109	114.416
258.988	35.2126
263.864	15.2336
268.736	27.301
273.606	2.82056
278.473	1.67114
283.337	88.1162
288.197	219.205
293.055	408.993
297.91	706.133
302.762	824.8
307.611	662.705
312.456	969.238
317.299	1900.2
322.139	2942.09
326.976	1949.3
331.81	1317.17
336.641	1767.48
341.469	3402.15
346.294	8491.89
351.116	15766.7
355.936	10268.4
360.752	3884.13
365.565	2573.76
370.376	3509.41
375.183	4570.04
379.988	2432.64
384.789	1078.19
389.588	510.757
394.384	269.303
399.177	127.867
403.967	106.924
408.754	79.5913
413.538	19.9517
418.319	9.35889
423.097	100.952
427.873	33.9353
432.646	77.2498
437.415	58.8315
442.182	30.0962
446.946	22.6326
451.707	4.07397
456.465	103.408
461.221	218.672
465.973	333.858
470.723	548.954
475.47	1086.02
480.214	655.025
484.955	231.963
489.693	298.785
494.429	520.594
499.161	1450.27
503.891	2018.82
508.618	848.225
513.342	508.482
518.063	524.587
522.782	575.563
527.497	662.241
532.21	691.762
536.92	750.179
541.627	1218.55
546.332	2442.14
551.034	4851.38
555.732	5532.36
560.428	3017.96
565.122	1469.9
569.812	887.089
574.5	624.725
579.185	556.161
583.867	401.149
588.546	359.527
593.223	438.626
597.897	309.54
602.568	135.252
607.236	199.24
611.902	198.847
616.565	252.237
621.225	413.15
625.882	581.197
630.537	876.753
635.189	652.789
639.838	371.297
644.484	255.872
649.128	142.219
653.769	196.366
658.407	177.263
663.043	76.9397
667.676	13.6201
672.306	21.4936
676.933	2.64844
681.558	116.844
686.18	59.9844
690.799	19.2407
695.416	63.9497
700.03	3.63672
704.641	51.6724
709.25	1.5332
713.856	49.062
718.459	46.273
723.059	17.166
727.657	26.376
732.253	49.9097
736.845	28.0654
741.435	11.9165
746.022	11.9634
750.607	37.29
755.189	40.228
759.768	16.6362
764.345	25.8848
768.919	41.979
773.49	4.16309
778.059	51.6182
782.625	44.3491
787.189	140.045
791.749	94.7129
796.308	58.3691
800.863	85.8828
805.416	258.178
809.967	208.558
814.515	378.627
819.06	388.128
823.603	347.34
828.143	475.671
832.68	614.706
837.215	861.784
841.747	1368.73
846.277	2536.65
850.804	3482.4
855.328	2566.39
859.85	1791.23
864.37	1521.53
868.886	1675.31
873.401	2228.19
877.912	3208.64
882.421	3934.03
886.928	4583.33
891.432	6625.01
895.933	11487
900.432	23803.1
904.929	45303.2
909.423	45987.7
913.914	25009.8
918.403	12493.7
922.889	6656.9
927.373	4168.26
931.854	2515.57
936.332	1724.94
940.809	1156
945.282	888.724
949.753	752.368
954.222	574.659
958.688	512.82
963.152	420.701
967.613	456.613
972.071	477.435
976.527	352.404
980.981	352.347
985.432	206.926
989.881	327.798
994.327	284.503
998.771	416.027
1003.21	481.585
1007.65	548.961
1012.09	439.452
1016.52	696.878
1020.95	1105.47
1025.38	1637.23
1029.81	2127.14
1034.23	1609.19
1038.65	838.43
1043.07	477.832
1047.49	297.36
1051.9	201.984
1056.31	42.6982
1060.72	99.4976
1065.13	17.647
1069.54	95.2495
1073.94	21.2827
1078.34	43.6392
1082.73	126.406
1087.13	84.5586
1091.52	5.7085
1095.91	21.1201
1100.3	39.0488
1104.68	40.1694
1109.07	13.4365
1113.45	0.097656
1117.82	2.8042
1122.2	42.6333
1126.57	25.3389
1130.94	68.1929
1135.31	35.2778
1139.68	35.9795
1144.04	64.1865
1148.4	127.729
1152.76	153.465
1157.12	170.143
1161.47	210.578
1165.82	144.603
1170.17	329.589
1174.52	336.137
1178.87	276.022
1183.21	240.837
1187.55	273.579
1191.88	214.243
1196.22	129.631
1200.55	76.0757
1204.88	183.252
1209.21	185.118
1213.54	174.876
1217.86	77.0518
1222.18	87.1187
1226.5	106.439
1230.82	223.664
1235.13	126.763
1239.44	204.941
1243.75	172.218
1248.06	296.808
1252.37	294.315
1256.67	241.871
1260.97	262.497
1265.27	283.252
1269.56	268.301
1273.86	320.296
1278.15	204.453
1282.44	223.565
1286.72	170.741
1291.01	85.7974
1295.29	136.897
1299.57	108.714
1303.85	26.2236
1308.12	53.0562
1312.39	70.8516
1316.67	141.637
1320.93	225.397
1325.2	147.148
1329.46	38.1284
1333.73	34.3608
1337.98	3.27441
1342.24	33.9844
1346.5	105.222
1350.75	24.4224
1355	118.594
1359.25	82.8198
1363.49	79.1323
1367.74	73.5669
1371.98	94.0869
1376.22	105.539
1380.46	28.9546
1384.69	72.4263
1388.92	62.0142
1393.15	35.6875
1397.38	119.422
1401.61	103.25
1405.83	131.043
1410.05	25.8008
1414.27	1.55811
1418.49	33.6352
1422.7	12.8848
1426.92	25.0981
1431.13	165.19
1435.34	146.203
1439.54	246.413
1443.75	305.7
1447.95	280.882
1452.15	335.188
1456.35	321.368
1460.54	200.962
1464.73	262.452
1468.92	131.953
1473.11	258.081
1477.3	159.262
1481.48	162.501
1485.67	195.652
1489.85	144.849
1494.02	39.0972
1498.2	66.0576
1502.37	82.2856
1506.55	99.3394
1510.71	119.951
1514.88	111.383
1519.05	175.862
1523.21	183.092
1527.37	16.478
1531.53	116.987
1535.68	150.543
1539.84	32.2651
1543.99	181.177
1548.14	66.4233
1552.29	132.306
1556.44	106.188
1560.58	98.3223
1564.72	64.5234
1568.86	109.464
1573	66.9756
1577.13	0.287598
