Measurement: Raman, 514 nm, ccw, Raman Data Processed
Mineral: Spessartine
Rruff sample: R080053
Ideal chemistry: Mn^2+^_3_Al_2_(SiO_4_)_3_
Locality: East Africa
Source: www.multicolour.com
Description: Transparent orange fragments
Measured chemistry: (Mn^2+^_1.32_Mg_0.96_Fe^2+^_0.38_Fe^3+^_0.04_Ca_0.30_)Al_2.00_((Si_0.99_Al_0.01_)O_4_)_3_; Fe^2+^ and Fe^3+^ estimated by charge balance
Pin_id: L01780
Orientation: Laser parallel to a* (1 0 0). Fiducial mark perpendicular to laser is parallel to c [0 0 1]
Raman shift (cm-1)	intensity
62.865	0
67.825	53.6369
72.783	117.593
77.739	168.821
82.692	35.3752
87.642	17.6712
92.589	26.0921
97.535	231.893
102.477	631.633
107.417	1302.68
112.354	1574.45
117.289	2101.26
122.222	2019.87
127.151	1979.48
132.078	2113.9
137.003	2074.72
141.925	2138.17
146.844	1979.96
151.761	1984.49
156.675	1964.7
161.586	2149.07
166.495	2348.72
171.402	2777.72
176.306	2868.98
181.207	2381.26
186.106	2287.55
191.002	2555.4
195.895	3079.15
200.786	3687.78
205.674	4089.77
210.56	4356.48
215.443	4255.89
220.324	3711.75
225.202	3296.48
230.077	2889.2
234.95	2635.31
239.82	2542.92
244.688	2272.7
249.553	2012.58
254.415	1868.8
259.275	1771.16
264.132	1632.69
268.987	1510.95
273.839	1391.88
278.688	1320.37
283.535	1298.56
288.38	1223.57
293.221	1301.48
298.06	1424.12
302.897	1466.83
307.731	1851.6
312.562	2220.32
317.391	2530.5
322.217	2925.59
327.041	3461.88
331.862	4545.3
336.68	6017.81
341.496	8466.36
346.309	14093.9
351.119	23934.5
355.927	31821.1
360.733	26227.8
365.536	15755.7
370.336	9904.97
375.133	7297.48
379.928	5196.35
384.721	3505.54
389.51	2247.87
394.298	1446.35
399.082	964.007
403.864	629.981
408.644	328.517
413.42	258.629
418.195	7.76123
422.966	19.7105
427.735	98.8867
432.502	125.832
437.265	143.722
442.027	141.558
446.785	99.3311
451.541	13.8447
456.295	10.3652
461.045	219.233
465.794	558.775
470.539	794.957
475.282	1473.73
480.022	2494.08
484.76	2165.84
489.495	1387.99
494.228	1630.52
498.958	3154.38
503.685	5366.55
508.41	4941.97
513.132	2671.61
517.852	1864.42
522.569	1753.37
527.283	1859.75
531.995	2059.93
536.704	2630.7
541.41	3709.38
546.114	6321.28
550.816	10673.9
555.514	15490.4
560.21	13977.1
564.904	7392.17
569.595	3764.66
574.283	2037.11
578.969	1445.08
583.652	1133.24
588.332	881.94
593.01	763.48
597.685	668.988
602.358	694.033
607.028	549.73
611.695	438.809
616.36	506.425
621.022	675.331
625.682	1151.1
630.339	1937.68
634.993	3189.8
639.645	2940.95
644.294	1835.04
648.941	1196.23
653.585	766.767
658.226	545.64
662.865	308.845
667.501	133.376
672.134	91.1797
676.765	51.1103
681.394	11.9277
686.019	96.4678
690.642	53.9399
695.263	81.3369
699.881	89.6318
704.496	34.7256
709.108	107.288
713.718	57.9282
718.326	31.249
722.931	8.95068
727.533	11.187
732.132	37.5215
736.729	11.7651
741.324	14.5967
745.915	78.3169
750.505	47.562
755.091	42.1133
759.675	26.1245
764.256	56.772
768.835	12.0513
773.411	17.0015
777.984	21.3818
782.555	73.9463
787.123	216.049
791.689	222.953
796.252	383.685
800.812	561.275
805.37	781.858
809.925	1158.37
814.478	1603.84
819.028	1820.37
823.575	1750.79
828.12	1869.58
832.662	2372.14
837.201	3068.55
841.738	4576.69
846.272	7201.28
850.804	10437.5
855.333	11815.6
859.86	9803.83
864.383	7664.23
868.904	6512.05
873.423	6536.71
877.939	7686.82
882.452	9796.8
886.963	12376.1
891.471	15690
895.977	22299.6
900.48	37982.4
904.98	70087.4
909.478	111273
913.973	119507
918.465	80601.4
922.955	43393.1
927.442	24405.5
931.927	14674.7
936.409	9266.68
940.888	6198.41
945.365	4486.94
949.839	3344.95
954.31	2567.81
958.779	2137.16
963.246	1826.43
967.709	1633.6
972.17	1628.53
976.629	1495.69
981.085	1275.41
985.538	1217.49
989.988	1106.42
994.436	956.082
998.882	962.793
1003.33	1342.59
1007.76	1445.37
1012.2	1726.81
1016.64	2043.7
1021.07	2524.3
1025.5	2921.64
1029.93	3951.45
1034.35	5125.95
1038.77	5966.88
1043.19	5905.28
1047.61	4646.17
1052.02	2737.51
1056.43	1578.26
1060.84	959.416
1065.25	549.967
1069.65	527.925
1074.05	224.412
1078.45	129.875
1082.85	67.8799
1087.24	11.6577
1091.63	105.729
1096.02	65.0688
1100.4	18.854
1104.79	45.6514
1109.17	38.6421
1113.54	2.04736
1117.92	13.0229
1122.29	75.4878
1126.66	86.7432
1131.03	0.244141
1135.39	111.227
1139.75	44.6885
1144.11	34.6812
1148.47	78.4243
1152.82	89.2236
1157.17	210.978
1161.52	265.394
1165.87	328.718
1170.21	454.851
1174.55	518.776
1178.89	470.481
1183.23	474.456
1187.56	509.309
1191.89	521.27
1196.22	476.779
1200.54	408.015
1204.87	424.478
1209.19	402.345
1213.5	397.298
1217.82	379.335
1222.13	261.894
1226.44	421.28
1230.75	333.582
1235.05	395.623
1239.35	267.136
1243.65	342.012
1247.95	392.546
1252.24	347.213
1256.53	441.084
1260.82	474.336
1265.11	376.209
1269.39	485.284
1273.67	512.495
1277.95	447.079
1282.23	474.137
1286.5	404.898
1290.77	468.272
1295.04	303.656
1299.3	345.665
1303.57	246.435
1307.83	211.966
1312.08	74.2642
1316.34	182.331
1320.59	17.1802
1324.84	81.7676
1329.09	69.9727
1333.33	84.5454
1337.57	101.435
1341.81	24.8452
1346.05	31.0845
1350.28	42.686
1354.51	33.2817
1358.74	28.6997
1362.97	51.4609
1367.19	134.371
1371.41	106.805
1375.63	81.4033
1379.85	161.111
1384.06	209.087
1388.27	223.219
1392.48	148.428
1396.68	224.73
1400.88	426.06
1405.08	270.534
1409.28	277.982
1413.48	292.504
1417.67	250.77
1421.86	290.221
1426.05	198.277
1430.23	254.727
1434.41	184.268
1438.59	151.803
1442.77	129.593
1446.94	132.244
1451.11	278.322
1455.28	197.972
1459.45	167.775
1463.61	176.698
1467.77	294.515
1471.93	139.626
1476.09	299.66
1480.24	316.392
1484.39	293.217
1488.54	340.958
1492.68	341.588
1496.82	363.079
1500.96	353.408
1505.1	513.518
1509.24	329.098
1513.37	408.964
1517.5	215.429
1521.62	216.535
1525.75	218.007
1529.87	157.908
1533.99	203.376
1538.11	276.3
1542.22	8.10107
1546.33	90.5444
1550.44	148.751
1554.55	141.573
1558.65	34.3442
1562.75	41.3105
1566.85	142.329
1570.95	2.50147
1575.04	230.274
