Measurement: Raman, 514 nm, depolarized, Raman Data Processed
Mineral: Spessartine
Rruff sample: R050063
Ideal chemistry: Mn^2+^_3_Al_2_(SiO_4_)_3_
Locality: Fujian Province, China
Source: Rock Currier
Description: Reddish brown crystals
Measured chemistry: (Mn_2.72_Fe_0.24_Ca_0.04_)_Σ=3_(Al_1.95_Fe^3+^_0.05_)_Σ=2_(Si_1.00_O_4_)_2.75_(F_0.58_(OH)_0.42_)_Σ=1_; trace amounts of Mg; OH estimated by charge balance
Pin_id: L00458
Orientation: Laser parallel to c* (0 0 1). Fiducial mark perpendicular to laser is parallel to a [1 0 0]
Raman shift (cm-1)	intensity
49.365	0
53.566	303.703
57.765	1037.19
61.962	1950.55
66.157	2462.01
70.349	1591.6
74.54	1425.31
78.729	1173.43
82.916	636.917
87.101	332.997
91.284	11.864
95.465	3.259
99.644	59.272
103.82	26.565
107.995	30.024
112.168	83.741
116.339	430.328
120.508	268.96
124.675	265.976
128.84	314.667
133.003	303.753
137.164	286.764
141.323	263.448
145.48	184.44
149.635	178.752
153.788	371.596
157.939	979.239
162.088	2066.91
166.235	1625.04
170.38	899.511
174.523	1053.39
178.664	976.86
182.803	728.854
186.94	534.455
191.076	353.023
195.209	264.992
199.34	157.178
203.47	101.73
207.597	95.123
211.722	177.283
215.846	363.507
219.967	637.657
224.087	791.27
228.204	733.337
232.32	621.562
236.434	465.799
240.545	388.425
244.655	290.882
248.763	277.562
252.869	233.018
256.973	193.174
261.075	108.903
265.175	128.053
269.273	137.273
273.369	81.635
277.463	174.503
281.556	272.41
285.646	459.283
289.734	674.396
293.821	956.414
297.905	1313.45
301.988	1613.83
306.069	1803.84
310.147	2103.57
314.224	2305.06
318.299	2354.1
322.372	2501.99
326.443	2841.94
330.512	3604.77
334.579	4444.57
338.645	5326.37
342.708	5880.18
346.769	5844.04
350.829	5245.98
354.887	4594.14
358.942	4300.24
362.996	4262.42
367.048	4524.86
371.098	4990.44
375.146	5069.52
379.192	4475.68
383.236	3489.35
387.279	2644.67
391.319	2007.47
395.358	1552.82
399.394	1185.14
403.429	979.491
407.462	776.442
411.493	666.754
415.522	456.764
419.549	321.517
423.575	230.316
427.598	69.522
431.619	34.788
435.639	22.939
439.657	95.01
443.673	26.048
447.687	55.112
451.699	29.079
455.709	29.829
459.717	73.68
463.724	127.508
467.728	207.318
471.731	390.124
475.732	465.94
479.731	419.746
483.728	244.488
487.723	279.125
491.716	324.919
495.708	569.447
499.697	695.559
503.685	698.979
507.671	668.873
511.655	728.796
515.637	661.846
519.617	714.293
523.596	686.579
527.572	912.957
531.547	1142.29
535.52	1613.78
539.491	2369.19
543.46	3611.6
547.427	4472.23
551.393	3987.07
555.356	2679.17
559.318	1757.52
563.278	1272.21
567.236	981.373
571.192	871.189
575.147	720.949
579.099	642.44
583.05	601.13
586.999	524.058
590.946	477.64
594.891	496.076
598.834	408.949
602.776	409.454
606.715	403.182
610.653	387.345
614.589	416.299
618.523	478.575
622.456	652.834
626.386	764.319
630.315	781.594
634.242	656.619
638.167	483.394
642.09	384.917
646.012	247.19
649.931	173.21
653.849	91.959
657.765	53.42
661.679	44.57
665.592	5.629
669.502	30.282
673.411	56.51
677.318	51.413
681.223	55.994
685.126	53.289
689.028	71.329
692.927	65.062
696.825	47.494
700.721	0.575
704.616	20.108
708.508	39.963
712.399	74.746
716.288	93.273
720.175	140.564
724.06	136.63
727.944	121.479
731.825	148.116
735.705	106.068
739.584	92.765
743.46	123.777
747.334	101.609
751.207	109.303
755.078	137.916
758.947	152.45
762.815	129.923
766.68	95.324
770.544	68.611
774.406	111.758
778.267	152.764
782.125	227.632
785.982	277.361
789.837	258.963
793.69	332.477
797.542	339.922
801.391	484.298
805.239	591.097
809.085	691.936
812.93	770.261
816.772	803.288
820.613	880.691
824.452	880.391
828.29	934.695
832.125	1055.43
835.959	1344.6
839.791	1844.05
843.621	2272.14
847.45	2658.48
851.277	2785.46
855.102	2736.13
858.925	2706.91
862.746	2569.63
866.566	2665.19
870.384	2716.28
874.2	2930.01
878.015	3306.93
881.828	3963.03
885.639	4908.27
889.448	6300.38
893.256	8353.32
897.061	11820.6
900.865	18668.2
904.668	29015.9
908.468	36843.9
912.267	31982.1
916.064	21100.3
919.86	13138.4
923.653	8596.76
927.445	5804.32
931.236	4223.28
935.024	3278.19
938.811	2694.07
942.596	2232.65
946.379	1992.5
950.161	1753.49
953.94	1618.86
957.719	1416.82
961.495	1313.93
965.27	1163.21
969.043	972.456
972.814	933.253
976.583	741.532
980.351	650.736
984.117	634.853
987.882	602.32
991.644	615.996
995.405	687.944
999.165	827.219
1002.92	948.845
1006.68	1014.76
1010.43	1130.87
1014.18	1244.17
1017.93	1434.6
1021.68	1667.18
1025.43	2035.88
1029.18	2037.72
1032.92	1588.67
1036.66	982.762
1040.4	630
1044.14	392.356
1047.88	312.823
1051.62	202.396
1055.35	172.073
1059.08	123.847
1062.81	75.733
1066.54	59.712
1070.27	35.789
1073.99	27.967
1077.72	28.222
1081.44	5.456
1085.16	14.921
1088.88	12.625
1092.59	16.148
1096.31	42.1
1100.02	32.325
1103.73	7.017
1107.44	44.778
1111.15	49.656
1114.86	64.714
1118.57	45.964
1122.27	40.688
1125.97	112.367
1129.67	27.061
1133.37	7.247
1137.07	33.402
1140.76	63.015
1144.45	37.611
1148.15	80.054
1151.84	91.921
1155.53	78.788
1159.21	109.713
1162.9	147.553
1166.58	110.042
1170.26	123.738
1173.94	135.975
1177.62	131.258
1181.3	109.951
1184.97	133.602
1188.65	108.936
1192.32	167.594
1195.99	127.953
1199.66	140.851
1203.33	132.307
1206.99	99.119
1210.65	115.409
1214.32	105.006
1217.98	115.231
1221.64	117.03
1225.29	131.397
1228.95	143.684
1232.6	160.99
1236.26	122.499
1239.91	149.486
1243.56	153.803
1247.2	210.594
1250.85	190.909
1254.49	177.094
1258.13	166.299
1261.78	235.541
1265.41	158.964
1269.05	193.675
1272.69	136.971
1276.32	139.529
1279.95	171.76
1283.59	142.086
1287.21	117.627
1290.84	59.162
1294.47	41.497
1298.09	45.671
1301.72	27.768
1305.34	35.659
1308.96	25.116
1312.58	26.597
1316.19	30.907
1319.81	17.056
1323.42	32.995
1327.03	6.172
1330.64	3.411
1334.25	1.186
1337.86	11.05
1341.46	34.129
1345.07	24.055
1348.67	20.707
1352.27	1.555
1355.87	14.927
1359.46	20.246
1363.06	7.576
1366.65	2.469
1370.25	15.412
1373.84	12.31
1377.43	3.816
1381.02	31.29
1384.6	34.251
1388.18	54.259
1391.77	50.435
1395.35	16.889
1398.93	48.271
1402.51	42.569
1406.08	26.828
1409.66	20.777
1413.23	76.848
1416.8	74.473
1420.37	59.688
1423.94	93.607
1427.51	94.2
1431.08	57.842
1434.64	55.103
1438.2	47.083
1441.76	61.3
1445.32	51.507
1448.88	52.238
1452.43	76.373
1455.99	49.424
1459.54	80.805
1463.09	86.288
1466.64	82.221
1470.19	80.165
1473.74	50.624
1477.28	46.709
1480.83	49.872
1484.37	25.369
1487.91	37.018
1491.45	14.706
1494.98	39.558
1498.52	41.783
1502.05	51.389
1505.59	50.427
1509.12	76.824
1512.65	42.344
1516.17	24.098
1519.7	0
