Measurement: Raman, 514 nm, ccw, Raman Data Processed
Mineral: Spessartine
Rruff sample: R060451
Ideal chemistry: Mn^2+^_3_Al_2_(SiO_4_)_3_
Locality: unknown
Source: Gemological Institute of America
Description: Reddish orange fragment
Measured chemistry: (Mn_1.26_Mg_0.98_Fe^2+^_0.39_Ca_0.37_)_Î£=3_Al_2.00_(Si_1.00_O_4_)_3_; trace amounts of Ti
Pin_id: L01336
Orientation: Laser parallel to c* (0 0 1). Fiducial mark perpendicular to laser is parallel to a [1 0 0]
Raman shift (cm-1)	intensity
62.899	0
67.89	48.7427
72.879	126.848
77.864	140.252
82.846	2.85817
87.824	42.5938
92.8	94.7827
97.773	333.473
102.742	768.573
107.708	1266.88
112.672	1661.75
117.632	2002.96
122.589	1993.12
127.543	2023.25
132.494	2096.43
137.441	2084.35
142.386	2056.56
147.328	1984.9
152.266	1891.88
157.202	1844.35
162.134	1873.68
167.063	2088.96
171.99	2820.22
176.913	3200.5
181.833	2436.26
186.75	1940.47
191.664	1717.86
196.575	1630.39
201.483	1838.6
206.388	1691.44
211.29	1648.31
216.189	1800.77
221.085	1741.04
225.977	1620.28
230.867	1646.63
235.754	1596.26
240.638	1515.4
245.518	1597.34
250.396	1519.09
255.271	1464.52
260.143	1466.57
265.011	1441.16
269.877	1353.25
274.74	1454.77
279.6	1442.67
284.457	1316.95
289.31	1321.41
294.161	1391.11
299.009	1353.58
303.854	1555
308.696	1567.84
313.535	1724.04
318.371	1968.53
323.204	2548.49
328.034	3442.59
332.861	4343.73
337.686	5510.86
342.507	6338.94
347.325	9090.95
352.141	13621.9
356.953	18840.6
361.763	17017.5
366.569	11606.4
371.373	8634.51
376.174	7108.76
380.972	5560.23
385.767	3987.87
390.559	2684.54
395.348	1775.24
400.134	1074.96
404.918	696.851
409.698	404.896
414.476	204.127
419.25	167.699
424.022	43.6768
428.791	10.7842
433.557	36.1435
438.32	87.7705
443.081	33.062
447.838	151.072
452.593	125.896
457.344	15.5967
462.093	24.1001
466.839	114.83
471.582	141.34
476.323	96.6782
481.06	254.259
485.795	226.508
490.526	157.219
495.255	307.343
499.981	440.863
504.705	820.753
509.425	817.982
514.143	716.513
518.857	896.315
523.569	986.358
528.278	1227.61
532.985	1386.68
537.688	1460.86
542.389	2217.74
547.087	3579.22
551.782	5843.83
556.474	8928.08
561.164	7907.33
565.851	4154.34
570.535	2144.34
575.216	1222.79
579.894	907.535
584.57	570.594
589.243	585.108
593.913	540.327
598.58	474.676
603.245	445.715
607.907	514.165
612.566	368.16
617.222	245.574
621.875	312.001
626.526	354.5
631.174	634.61
635.82	648.024
640.462	816.402
645.102	641.127
649.739	643.685
654.373	437.816
659.005	283.512
663.634	272.765
668.26	140.566
672.884	179.899
677.504	31.667
682.122	46.2368
686.738	13.1416
691.35	62.0161
695.96	80.1773
700.567	57.6909
705.172	27.3677
709.774	32.9541
714.373	25.7373
718.969	27.8428
723.563	101.489
728.154	39.498
732.743	34.9546
737.328	51.1123
741.912	104.995
746.492	12.4438
751.07	16.5127
755.645	49.3438
760.217	14.4058
764.787	66.7769
769.354	51.7998
773.918	102.508
778.48	1.9165
783.039	186.025
787.596	157.87
792.15	93.4717
796.701	251.849
801.25	417.875
805.796	549.988
810.339	758.139
814.88	1083.42
819.418	1236.44
823.953	1266.14
828.486	1219.72
833.016	1197.78
837.544	1323.49
842.069	1543.13
846.591	2238.06
851.111	2863.81
855.628	3158.94
860.143	2829.14
864.655	2559.22
869.164	2387.32
873.671	2757.51
878.176	3226.9
882.677	4009.64
887.176	5393.02
891.673	7441.02
896.167	11466.8
900.658	20326.7
905.147	37126.5
909.633	58060.1
914.117	58033.4
918.598	43539.6
923.077	23798.8
927.553	13349.2
932.026	7865.1
936.497	5129.31
940.966	3533.89
945.431	2634.86
949.895	1963.29
954.355	1611.24
958.814	1240.85
963.269	1133.6
967.723	1053.07
972.173	1086.38
976.621	889.82
981.067	948.089
985.51	688.255
989.951	593.038
994.389	559.279
998.824	752.011
1003.26	751.429
1007.69	813.084
1012.12	1045.58
1016.54	1166.32
1020.96	1376.93
1025.38	1350.24
1029.8	1444.21
1034.22	1689.46
1038.63	1630.95
1043.04	1641.68
1047.45	1161.39
1051.86	860.801
1056.26	553.187
1060.66	359.837
1065.06	140.712
1069.45	127.772
1073.85	155.007
1078.24	27.4097
1082.63	23.9663
1087.01	84.6763
1091.4	2.60938
1095.78	46.4092
1100.16	67.7461
1104.53	10.7422
1108.91	51.9424
1113.28	28.2524
1117.65	79.7871
1122.01	6.53516
1126.38	15.4141
1130.74	42.6069
1135.1	11.8584
1139.45	70.9346
1143.81	15.4849
1148.16	36.7871
1152.51	224.976
1156.86	93.0547
1161.2	120.048
1165.54	324.882
1169.88	300.579
1174.22	338.135
1178.56	360.539
1182.89	295.909
1187.22	384.407
1191.55	329.459
1195.87	202.881
1200.19	323.535
1204.52	283.931
1208.83	354.032
1213.15	258.185
1217.46	284.591
1221.78	211.394
1226.08	261.332
1230.39	179.603
1234.69	188.52
1239	193.576
1243.3	293.386
1247.59	240.968
1251.89	277.317
1256.18	233.901
1260.47	287.143
1264.76	201.314
1269.04	245.57
1273.33	359.227
1277.61	218.894
1281.88	296.738
1286.16	249.513
1290.43	163.079
1294.7	114.511
1298.97	249.814
1303.24	113.99
1307.51	184.048
1311.77	192.978
1316.03	118.777
1320.28	39.5938
1324.54	33.8154
1328.79	118.11
1333.04	12.748
1337.29	14.2158
1341.54	13.1318
1345.78	49.3408
1350.02	55.4609
1354.26	130.426
1358.5	21.4785
1362.73	139.542
1366.96	198.589
1371.19	152.594
1375.42	163.693
1379.65	48.9961
1383.87	73.375
1388.09	163.799
1392.31	56.29
1396.52	81.9453
1400.74	250.783
1404.95	199.66
1409.16	78.5566
1413.37	150.489
1417.57	145.499
1421.77	140.553
1425.97	40.7041
1430.17	174.99
1434.37	31.4551
1438.56	123.031
1442.75	107.744
1446.94	159.483
1451.13	131.916
1455.31	114.487
1459.5	270.075
1463.68	147.111
1467.85	129.627
1472.03	238.058
1476.2	287.476
1480.37	196.625
1484.54	123.802
1488.71	208.999
1492.88	267.217
1497.04	172.154
1501.2	257.551
1505.36	192.745
1509.51	212.882
1513.66	242.917
1517.82	167.068
1521.97	77.4785
1526.11	244.013
1530.26	211.833
1534.4	195.381
1538.54	258.553
1542.68	145.556
1546.82	295.711
1550.95	208.519
1555.08	281.428
1559.21	97.8428
1563.34	149.359
1567.46	79.5117
1571.59	224.304
1575.71	207.764
