Measurement: Raman, 514 nm, depolarized, Raman Data Processed
Mineral: Spessartine
Rruff sample: R060451
Ideal chemistry: Mn^2+^_3_Al_2_(SiO_4_)_3_
Locality: unknown
Source: Gemological Institute of America
Description: Reddish orange fragment
Measured chemistry: (Mn_1.26_Mg_0.98_Fe^2+^_0.39_Ca_0.37_)_Î£=3_Al_2.00_(Si_1.00_O_4_)_3_; trace amounts of Ti
Pin_id: L01336
Orientation: Laser parallel to c* (0 0 1). Fiducial mark perpendicular to laser is parallel to a [1 0 0]
Raman shift (cm-1)	intensity
62.899	0
67.89	51.1926
72.879	5.42932
77.864	89.0569
82.846	219.64
87.824	17.3362
92.8	5.0929
97.773	126.399
102.742	663.926
107.708	1458.6
112.672	1852.98
117.632	2377.58
122.589	2401.38
127.543	2500.4
132.494	2486.57
137.441	2412.54
142.386	2442.34
147.328	2268.18
152.266	2247.37
157.202	2253.04
162.134	2289.63
167.063	2337.21
171.99	2716.83
176.913	2914.86
181.833	2470.68
186.75	2221.95
191.664	2138.7
196.575	2169.51
201.483	2456.01
206.388	2391.16
211.29	2468.7
216.189	2467.62
221.085	2225.34
225.977	2019.15
230.867	1902.05
235.754	1843.63
240.638	1776.35
245.518	1676.27
250.396	1655.48
255.271	1571.4
260.143	1442.96
265.011	1427.09
269.877	1297.5
274.74	1228.79
279.6	1202.3
284.457	1194.73
289.31	1297.87
294.161	1206.42
299.009	1206.54
303.854	1286.22
308.696	1405.9
313.535	1464.2
318.371	1801.79
323.204	1846.58
328.034	2290.2
332.861	2926.84
337.686	3546.47
342.507	4458.06
347.325	6500.58
352.141	10398
356.953	14817.3
361.763	13723.8
366.569	9112.48
371.373	6269.34
376.174	4769.34
380.972	3614.44
385.767	2549.66
390.559	1718.96
395.348	1214.37
400.134	672.964
404.918	393.714
409.698	272.521
414.476	155.432
419.25	67.4546
424.022	48.4507
428.791	0.501465
433.557	25.6733
438.32	235.028
443.081	38.3545
447.838	33.5303
452.593	25.729
457.344	117.356
462.093	12.9712
466.839	87.8442
471.582	233.774
476.323	498.556
481.06	691.28
485.795	699.566
490.526	506.313
495.255	550.497
499.981	910.096
504.705	1627.08
509.425	1542.42
514.143	983.087
518.857	954.049
523.569	826.964
528.278	1031.75
532.985	1032.58
537.688	1330.47
542.389	1757.23
547.087	2700.95
551.782	4673.56
556.474	7404.7
561.164	7161.71
565.851	3942
570.535	1914.45
575.216	1162.02
579.894	788.87
584.57	555.191
589.243	441.586
593.913	392.052
598.58	240.741
603.245	464.995
607.907	246.182
612.566	225.806
617.222	203.633
621.875	338.025
626.526	472.581
631.174	706.019
635.82	1057.9
640.462	1159.71
645.102	797.868
649.739	743.727
654.373	453.138
659.005	275.125
663.634	213.707
668.26	174.873
672.884	158.55
677.504	55.4316
682.122	5.37402
686.738	37.7617
691.35	31.6553
695.96	1.06543
700.567	24.5234
705.172	14.0928
709.774	52.8623
714.373	84.1572
718.969	18.9619
723.563	21.0176
728.154	15.9844
732.743	60.5185
737.328	107.788
741.912	96.4834
746.492	44.748
751.07	86.4258
755.645	81.5762
760.217	114.326
764.787	25.6611
769.354	110.701
773.918	2.46582
778.48	114.961
783.039	81.2109
787.596	54.2266
792.15	117.027
796.701	158.624
801.25	298.039
805.796	492.877
810.339	610.224
814.88	716.616
819.418	1042.88
823.953	973.166
828.486	1063.06
833.016	1077.62
837.544	1391.77
842.069	1949.39
846.591	2783.18
851.111	3901.39
855.628	4492.58
860.143	3859.83
864.655	3132.18
869.164	2712.13
873.671	2853.35
878.176	3267.9
882.677	3936.91
887.176	4980.19
891.673	6494.14
896.167	9478.55
900.658	16297.6
905.147	29734.2
909.633	48269.8
914.117	54153.1
918.598	37667.7
923.077	20586.6
927.553	11385
932.026	7008.75
936.497	4297.93
940.966	2879.55
945.431	2137.78
949.895	1575.91
954.355	1223.19
958.814	973.137
963.269	904.342
967.723	863.568
972.173	691.662
976.621	899.257
981.067	759.177
985.51	610.852
989.951	752.803
994.389	325.688
998.824	329.595
1003.26	500.34
1007.69	517.509
1012.12	874.977
1016.54	970.413
1020.96	1155.82
1025.38	1322.72
1029.8	1602.86
1034.22	1929.36
1038.63	2196.16
1043.04	2329.26
1047.45	1729.65
1051.86	1164.33
1056.26	626.285
1060.66	437.508
1065.06	291.154
1069.45	129.165
1073.85	49.4434
1078.24	82.6289
1082.63	35.3672
1087.01	39.544
1091.4	49.6143
1095.78	92.9209
1100.16	64.8125
1104.53	17.4688
1108.91	87.2324
1113.28	40.7988
1117.65	72.3721
1122.01	23.0391
1126.38	129.23
1130.74	148.652
1135.1	55.8105
1139.45	12.7275
1143.81	34.124
1148.16	33.3115
1152.51	131.384
1156.86	191.221
1161.2	133.016
1165.54	237.773
1169.88	234.493
1174.22	348.164
1178.56	334.779
1182.89	108.411
1187.22	350.9
1191.55	233.378
1195.87	193.106
1200.19	118.184
1204.52	274.412
1208.83	200.498
1213.15	299.123
1217.46	229.542
1221.78	92.2041
1226.08	339.438
1230.39	152.851
1234.69	106.141
1239	206.852
1243.3	231.848
1247.59	263.298
1251.89	368.55
1256.18	194.222
1260.47	133.231
1264.76	309.72
1269.04	233.666
1273.33	254.129
1277.61	323.067
1281.88	297.177
1286.16	209.176
1290.43	220.226
1294.7	314.221
1298.97	172.164
1303.24	225.059
1307.51	110.919
1311.77	100.759
1316.03	132.589
1320.28	267.315
1324.54	140.694
1328.79	81.8379
1333.04	70.9287
1337.29	123.946
1341.54	91.8789
1345.78	51.7432
1350.02	45.4922
1354.26	32.294
1358.5	13.0273
1362.73	62.7207
1366.96	121.498
1371.19	67.209
1375.42	6.53906
1379.65	65.8887
1383.87	81.293
1388.09	13.2949
1392.31	228.325
1396.52	194.12
1400.74	267.032
1404.95	146.06
1409.16	142.226
1413.37	211.557
1417.57	70.9785
1421.77	167.509
1425.97	122.171
1430.17	119.469
1434.37	179.489
1438.56	163.231
1442.75	249.811
1446.94	105.176
1451.13	304.523
1455.31	110.519
1459.5	242.227
1463.68	190.178
1467.85	116.801
1472.03	257.808
1476.2	158.086
1480.37	191.241
1484.54	175.041
1488.71	259.125
1492.88	349.288
1497.04	148.511
1501.2	196.776
1505.36	255.06
1509.51	329.248
1513.66	213.376
1517.82	228.318
1521.97	154.623
1526.11	242.372
1530.26	86.5752
1534.4	140.959
1538.54	190.073
1542.68	184.95
1546.82	65.8916
1550.95	1.23535
1555.08	434.344
1559.21	18.2637
1563.34	260.098
1567.46	79.0205
1571.59	208.394
1575.71	76.6797
