Measurement: Raman, 514 nm, ccw, Raman Data Processed
Mineral: Spessartine
Rruff sample: R060447
Ideal chemistry: Mn^2+^_3_Al_2_(SiO_4_)_3_
Locality: unknown
Source: Gemological Institute of America
Description: Orange fragment
Measured chemistry: (Mn^2+^_2.85_Fe^2+^_0.07_Mg_0.05_Ca_0.03_)_Î£=3_Al_2.00_(Si_1.00_O_4_)_3_
Pin_id: M01768
Orientation: Laser parallel to a* (1 0 0). Fiducial mark perpendicular to laser is parallel to c [0 0 1]
Raman shift (cm-1)	intensity
148.479	0
153.423	4.65356
158.365	103.859
163.303	1766.62
168.238	1598.42
173.17	848.798
178.1	749.389
183.026	125.567
187.948	26.1516
192.868	217.948
197.785	485.358
202.699	136.744
207.609	41.8997
212.517	303.685
217.422	1254.05
222.323	2394.75
227.222	1174.57
232.117	562.642
237.01	365.66
241.899	238.678
246.785	164.687
251.669	54.7837
256.549	116.976
261.426	60.2651
266.3	51.6443
271.172	44.4431
276.04	36.6445
280.905	90.2581
285.767	206.319
290.627	366.785
295.483	760.911
300.336	981.374
305.186	879.525
310.034	897.901
314.878	1738.54
319.72	3521.38
324.558	3186.51
329.393	1745.89
334.226	1646.17
339.055	2632.72
343.882	6237.59
348.706	14374.6
353.526	15441.7
358.344	6380.82
363.159	3163.05
367.971	3545.32
372.78	5584.62
377.586	4380.92
382.389	1860.22
387.189	836.555
391.986	462.895
396.78	235.119
401.572	151.63
406.36	98.1829
411.146	70.5618
415.929	5.93066
420.709	34.2712
425.486	25.5657
430.26	31.8645
435.031	23.1943
439.799	33.7273
444.564	1.50855
449.327	13.468
454.087	89.314
458.843	133.137
463.597	257.913
468.348	422.645
473.097	841.346
477.842	897.019
482.585	317.72
487.324	298.374
492.061	329.962
496.795	793.464
501.526	1870.86
506.255	1083.13
510.98	541.294
515.703	518.327
520.423	524.369
525.14	609.05
529.854	636.252
534.566	738.846
539.274	1054.7
543.98	1899.36
548.683	3992.56
553.383	6209.83
558.081	4288.07
562.775	2056.47
567.467	1114.54
572.156	718.418
576.843	520.474
581.526	396.642
586.207	461.599
590.885	410.782
595.56	370.695
600.233	247.638
604.902	204.627
609.569	168.598
614.234	222.439
618.895	251.636
623.554	378.347
628.21	770.007
632.863	853.49
637.514	496.572
642.161	300.426
646.806	256.054
651.449	210.457
656.088	129.638
660.725	92.5947
665.36	56.3191
669.991	38.7903
674.62	79.0183
679.246	16.002
683.869	23.3105
688.49	21.9924
693.108	16.0188
697.723	34.3181
702.336	12.7966
706.946	18.4619
711.553	3.17212
716.158	3.34839
720.759	60.2856
725.359	98.7808
729.955	22.252
734.549	6.60522
739.14	73.813
743.729	62.9004
748.315	20.145
752.898	30.6118
757.479	63.7766
762.057	23.5286
766.632	10.2812
771.205	41.7803
775.775	32.7661
780.342	38.7046
784.907	119.604
789.469	46.4727
794.029	89.3198
798.586	77.0161
803.14	151.796
807.692	282.929
812.241	272.019
816.788	401.722
821.332	392.036
825.873	481.373
830.412	550.952
834.948	693.091
839.481	1196.13
844.012	1999.56
848.541	3228.21
853.066	3115.28
857.59	2017.05
862.11	1746.76
866.628	1668.65
871.144	2051.94
875.657	2895.29
880.167	3865.46
884.675	4518.59
889.18	5908.87
893.683	9758.25
898.183	18924.1
902.681	38769.2
907.176	53889.9
911.669	36190.8
916.159	17859.9
920.646	9297.25
925.131	5286.8
929.613	3188.57
934.093	2113.07
938.571	1395.31
943.046	1020.9
947.518	853.622
951.988	651.593
956.455	574.848
960.92	512.415
965.382	580.325
969.842	509.817
974.3	462.081
978.754	389.007
983.207	296.331
987.657	342.37
992.104	334.046
996.549	435.276
1000.99	463.899
1005.43	521.376
1009.87	613.012
1014.3	655.176
1018.74	875.125
1023.17	1336.27
1027.59	2023.58
1032.02	1856.12
1036.44	1109.8
1040.86	546.637
1045.28	341.592
1049.7	245.651
1054.11	136.811
1058.52	7.06372
1062.93	14.4141
1067.33	88.8433
1071.74	93.3313
1076.14	33.8335
1080.54	93.3767
1084.93	67.0405
1089.33	46.8018
1093.72	9.35669
1098.11	72.5332
1102.49	73.8953
1106.88	45.3787
1111.26	41.5906
1115.64	7.75757
1120.01	9.03003
1124.39	21.4831
1128.76	43.1543
1133.13	38.9065
1137.49	42.8704
1141.86	51.7949
1146.22	97.667
1150.58	194.482
1154.94	178.244
1159.3	287.949
1163.65	289.591
1168	278.965
1172.35	329.473
1176.69	245.906
1181.04	189.266
1185.38	193.564
1189.72	158.775
1194.05	139.537
1198.39	224.059
1202.72	147.044
1207.05	164.137
1211.38	152.573
1215.7	135.621
1220.02	138.525
1224.34	146.485
1228.66	206.058
1232.97	122.852
1237.29	222.952
1241.6	150.595
1245.91	248.769
1250.21	209.801
1254.52	185.924
1258.82	157.137
1263.12	380.753
1267.41	219.209
1271.71	275.589
1276	279.517
1280.29	253.786
1284.58	116.939
1288.87	178.118
1293.15	170.125
1297.43	52.0459
1301.71	246.425
1305.98	164.198
1310.26	55.27
1314.53	93.2061
1318.8	2.79102
1323.07	127.297
1327.33	70.7612
1331.6	26.1768
1335.86	115.508
1340.11	55.6592
1344.37	40.669
1348.62	49.5444
1352.88	48.1865
1357.12	8.19434
1361.37	124.443
1365.62	95.2393
1369.86	2.93457
1374.1	75.8818
1378.34	51.6904
1382.57	77.541
1386.81	123.353
1391.04	44.4595
1395.27	43.3408
1399.49	73.1577
1403.72	132.947
1407.94	85.7671
1412.16	14.5229
1416.38	115.268
1420.6	78.0122
1424.81	5.70459
1429.02	93.0523
1433.23	149.849
1437.44	152.749
1441.64	197.795
1445.85	233.254
1450.05	221.627
1454.25	336.68
1458.44	282.894
1462.64	188.982
1466.83	170.666
1471.02	167.452
1475.21	203.952
1479.39	261.34
1483.58	144.647
1487.76	73.2739
1491.93	210.851
1496.11	79.1665
1500.29	83.6265
1504.46	59.1509
1508.63	102.508
1512.8	97.4961
1516.96	48.3076
1521.13	70.0898
1525.29	66.293
1529.45	27.0542
1533.61	99.3364
1537.76	54.7202
1541.92	75.353
1546.07	69.6187
1550.22	115.604
1554.36	50.2866
1558.51	82.5933
1562.65	51.4419
1566.79	47.9282
1570.93	59.4712
1575.07	55.6807
