Measurement: Raman, 514 nm, ccw, Raman Data Processed
Mineral: Spessartine
Rruff sample: R060447
Ideal chemistry: Mn^2+^_3_Al_2_(SiO_4_)_3_
Locality: unknown
Source: Gemological Institute of America
Description: Orange fragment
Measured chemistry: (Mn^2+^_2.85_Fe^2+^_0.07_Mg_0.05_Ca_0.03_)_Î£=3_Al_2.00_(Si_1.00_O_4_)_3_
Pin_id: M01768
Orientation: Laser parallel to a* (1 0 0). Fiducial mark perpendicular to laser is parallel to c [0 0 1]
Raman shift (cm-1)	intensity
150.951	0
155.894	65.9514
160.834	155.44
165.771	847.015
170.705	761.229
175.635	1551.59
180.563	1108.38
185.487	92.6113
190.409	236.052
195.327	710.804
200.242	745.813
205.155	304.054
210.064	375.831
214.97	1194.1
219.873	3405.28
224.773	3506.89
229.67	1313.99
234.564	601.06
239.455	342.202
244.342	206.452
249.227	121.809
254.109	86.2637
258.988	74.787
263.864	24.6296
268.736	19.9279
273.606	56.4633
278.473	20.175
283.337	1.15478
288.197	46.5647
293.055	137.856
297.91	251.913
302.762	287.87
307.611	314.426
312.456	563.618
317.299	974.234
322.139	1329.12
326.976	1030.2
331.81	969.388
336.641	1634.61
341.469	3400.87
346.294	8871.15
351.116	15848.5
355.936	10277.7
360.752	3669.74
365.565	1910.55
370.376	1936.36
375.183	2076.15
379.988	1153.93
384.789	562.703
389.588	368.48
394.384	207.272
399.177	129.158
403.967	50.1919
408.754	40.297
413.538	58.8921
418.319	24.2457
423.097	72.8679
427.873	16.0481
432.646	12.8419
437.415	40.5492
442.182	50.7398
446.946	64.9611
451.707	140.199
456.465	140.403
461.221	200.536
465.973	393.587
470.723	946.543
475.47	1633.43
480.214	884.209
484.955	444.883
489.693	391.478
494.429	728.96
499.161	2135.32
503.891	2741.58
508.618	1156.72
513.342	589.74
518.063	458.624
522.782	498.415
527.497	474.258
532.21	603.118
536.92	802.295
541.627	1320.94
546.332	2636.42
551.034	5024.27
555.732	5508.23
560.428	2942.34
565.122	1521.23
569.812	834.739
574.5	570.898
579.185	494.415
583.867	413.163
588.546	328.572
593.223	341.229
597.897	280.879
602.568	224.909
607.236	253.508
611.902	195.271
616.565	238.998
621.225	400.958
625.882	764.969
630.537	1269.6
635.189	872.964
639.838	421.453
644.484	279.887
649.128	182.577
653.769	201.059
658.407	174.335
663.043	102.407
667.676	77.2578
672.306	51.8352
676.933	19.8804
681.558	29.0994
686.18	10.1311
690.799	34.9819
695.416	40.4697
700.03	3.32275
704.641	17.6328
709.25	5.30542
713.856	35.7322
718.459	58.0483
723.059	7.77515
727.657	23.166
732.253	8.11328
736.845	2.45142
741.435	56.9133
746.022	47.2832
750.607	33.4338
755.189	20.7109
759.768	14.7925
764.345	22.9539
768.919	26.6841
773.49	9.47607
778.059	11.6807
782.625	83.0398
787.189	23.7341
791.749	81.4228
796.308	54.3789
800.863	147.773
805.416	222.224
809.967	282.486
814.515	311.829
819.06	407.691
823.603	335.601
828.143	534.949
832.68	724.571
837.215	1029
841.747	1840.23
846.277	3513.22
850.804	4463.96
855.328	3363.63
859.85	2188.77
864.37	1860.79
868.886	1956.08
873.401	2611.43
877.912	3853.99
882.421	4604.92
886.928	4965.1
891.432	6972.42
895.933	12226
900.432	25242.8
904.929	46754.3
909.423	45735.3
913.914	24686.2
918.403	12296.5
922.889	6712.36
927.373	3943.45
931.854	2466.76
936.332	1663.31
940.809	1115.11
945.282	786.192
949.753	696.575
954.222	588.372
958.688	504.697
963.152	496.151
967.613	568.308
972.071	484.517
976.527	347.409
980.981	286.465
985.432	258.34
989.881	344.518
994.327	344.666
998.771	436.737
1003.21	555.225
1007.65	555.619
1012.09	724.381
1016.52	833.829
1020.95	1282.42
1025.38	2233.18
1029.81	2741.05
1034.23	1951.06
1038.65	1085.21
1043.07	594.479
1047.49	367.855
1051.9	246.36
1056.31	88.9551
1060.72	75.6318
1065.13	21.3845
1069.54	41.2105
1073.94	35.113
1078.34	62.0837
1082.73	66.1821
1087.13	25.6299
1091.52	35.5554
1095.91	33.7812
1100.3	29.8318
1104.68	7.29199
1109.07	46.5015
1113.45	31.0064
1117.82	49.1633
1122.2	32.0298
1126.57	1.48022
1130.94	21.7473
1135.31	15.9414
1139.68	8.9729
1144.04	109.984
1148.4	124.88
1152.76	199.708
1157.12	212.467
1161.47	233.155
1165.82	207.821
1170.17	242.353
1174.52	229.796
1178.87	252.488
1183.21	157.813
1187.55	202.966
1191.88	218.017
1196.22	117.961
1200.55	160.842
1204.88	142.629
1209.21	129.364
1213.54	159.843
1217.86	100.358
1222.18	115.994
1226.5	110.196
1230.82	199.899
1235.13	201.327
1239.44	146.717
1243.75	134.129
1248.06	236.599
1252.37	210.334
1256.67	236.432
1260.97	193.87
1265.27	245.385
1269.56	222.821
1273.86	163.058
1278.15	161.899
1282.44	191.75
1286.72	119.737
1291.01	90.948
1295.29	180.464
1299.57	86.9023
1303.85	33.2647
1308.12	99.595
1312.39	64.7974
1316.67	116.862
1320.93	43.0037
1325.2	54.0139
1329.46	129.949
1333.73	26.773
1337.98	45.5894
1342.24	36.8428
1346.5	80.1965
1350.75	58.4099
1355	75.5122
1359.25	45.6404
1363.49	5.21826
1367.74	42.9351
1371.98	18.8547
1376.22	63.4441
1380.46	34.1628
1384.69	48.3023
1388.92	76.7761
1393.15	66.2097
1397.38	90.6365
1401.61	91.0486
1405.83	66.4849
1410.05	59.9853
1414.27	17.3359
1418.49	88.7393
1422.7	100.221
1426.92	53.6572
1431.13	73.0686
1435.34	94.1716
1439.54	149.734
1443.75	247.552
1447.95	163.221
1452.15	189.867
1456.35	268.603
1460.54	207.513
1464.73	246.963
1468.92	177.599
1473.11	124.808
1477.3	77.2041
1481.48	87.5872
1485.67	97.8589
1489.85	65.6113
1494.02	133.678
1498.2	125.014
1502.37	122.3
1506.55	12.1074
1510.71	47.9202
1514.88	107.579
1519.05	87.1157
1523.21	151.511
1527.37	100.389
1531.53	54.1753
1535.68	65.0854
1539.84	134.385
1543.99	23.8726
1548.14	92.9741
1552.29	15.7788
1556.44	61.1006
1560.58	26.3447
1564.72	46.5701
1568.86	39.5791
1573	92.3486
1577.13	0.286133
