Measurement: Raman, 514 nm, ccw, Raman Data Processed
Mineral: Spessartine
Rruff sample: R060177
Ideal chemistry: Mn^2+^_3_Al_2_(SiO_4_)_3_
Locality: Fujian Province, China
Source: Rock Currier
Description: Orange trapezohedral crystals
Measured chemistry: (Mn_2.86_Fe^2+^_0.10_Ca_0.04_)_Î£=3_Al_2.00_(Si_1.00_O_4_)_3_
Pin_id: M01716
Orientation: Laser parallel to b* (0 1 0). Fiducial mark perpendicular to laser is parallel to a [1 0 0]
Raman shift (cm-1)	intensity
144.768	0
149.715	218.754
154.659	1238.99
159.6	2842.14
164.537	1784.58
169.472	798.738
174.403	693.252
179.331	843.936
184.257	775.796
189.179	790.563
194.098	587.829
199.014	504.498
203.927	313.421
208.837	203.665
213.744	89.3799
218.647	57.4485
223.548	84.3245
228.446	136.496
233.34	25.4724
238.232	15.9607
243.121	107.636
248.006	87.387
252.889	32.5466
257.768	78.8782
262.645	50.8711
267.518	216.968
272.389	358.625
277.256	579.738
282.121	927.635
286.982	1500.35
291.841	2016.92
296.697	2738.76
301.549	3372.62
306.399	3744.16
311.245	3913.22
316.089	4008.34
320.929	4498.48
325.767	5002.05
330.602	5508.41
335.434	5877.29
340.262	5910.35
345.088	5595.45
349.911	5114.93
354.731	5032.85
359.548	5108.19
364.362	5432.93
369.173	6018.05
373.981	6165.56
378.787	5748.85
383.589	4802.85
388.388	3946.28
393.185	3145.38
397.979	2652.86
402.769	2407.28
407.557	1995.54
412.342	1747.88
417.124	1374.89
421.903	1076.45
426.679	813.46
431.453	486.741
436.223	352.213
440.991	234.919
445.755	261.784
450.517	9.75171
455.276	33.7761
460.032	48.217
464.785	10.2935
469.536	39.6189
474.283	66.5305
479.028	45.5684
483.77	18.7634
488.509	57.9685
493.245	155.678
497.978	232.342
502.709	382.934
507.436	452.582
512.161	609.672
516.883	677.652
521.602	855.066
526.319	1176.68
531.032	1960.07
535.743	3173.82
540.451	4815.4
545.156	5444.48
549.858	4112.36
554.558	2554.76
559.255	1782.96
563.949	1331.12
568.64	1089.55
573.328	978.763
578.014	893.321
582.697	796.645
587.377	783.243
592.054	725.15
596.729	713.288
601.4	654.923
606.069	688.533
610.736	646.592
615.399	611.184
620.06	640.264
624.718	683.822
629.373	667.974
634.026	553.038
638.676	424.633
643.323	297.571
647.967	240.839
652.609	146.409
657.248	79.2056
661.884	21.2159
666.518	5.18237
671.148	9.03699
675.777	64.3301
680.402	74.2799
685.025	82.9093
689.645	19.4224
694.262	82.5688
698.877	25.2562
703.489	3.77136
708.098	88.7096
712.704	96.8743
717.308	167.366
721.909	198.247
726.508	208.558
731.104	217.32
735.697	227.561
740.288	194.327
744.876	100.623
749.461	106.422
754.044	81.7263
758.624	113.557
763.201	37.9587
767.776	39.9336
772.348	123.467
776.917	89.6072
781.484	192.379
786.048	243.543
790.61	262.534
795.168	346.031
799.725	377.865
804.278	501.874
808.83	636.918
813.378	635.819
817.924	612.667
822.467	667.853
827.008	667.58
831.546	865.623
836.081	1200.15
840.614	1617.63
845.145	2112.82
849.672	2353.14
854.197	2470.36
858.72	2456.35
863.24	2645.79
867.757	2860.49
872.272	3263.48
876.785	3946.36
881.294	5002.15
885.802	6527
890.306	9105.97
894.808	13926.3
899.308	22695.7
903.805	36748.9
908.299	45486.3
912.791	36863.5
917.281	22913
921.768	13809.7
926.252	8745.87
930.734	5897.36
935.213	4457.27
939.69	3410.39
944.164	2837.67
948.636	2337.94
953.105	1895.59
957.572	1680.02
962.036	1361.97
966.498	1081.73
970.957	893.007
975.414	698.621
979.868	561.422
984.32	540.084
988.769	603.559
993.216	631.878
997.66	748.144
1002.1	858.922
1006.54	923.439
1010.98	1072.1
1015.41	1243.95
1019.84	1421.96
1024.27	1486.19
1028.7	1321.61
1033.12	846.233
1037.55	477.054
1041.97	302.052
1046.38	104.208
1050.8	114.519
1055.21	64.9692
1059.62	8.55127
1064.03	45.2695
1068.43	12.8918
1072.84	7.92651
1077.24	62.376
1081.63	28.7412
1086.03	22.2106
1090.42	67.918
1094.81	11.9841
1099.2	9.36572
1103.59	1.03186
1107.97	16.9429
1112.35	44.7863
1116.73	30.7682
1121.11	24.3368
1125.48	60.1859
1129.85	21.8645
1134.22	57.3745
1138.59	39.7185
1142.95	85.9347
1147.31	82.0295
1151.67	96.9625
1156.03	145.739
1160.38	181.852
1164.74	205.009
1169.09	227.471
1173.43	185.886
1177.78	206.412
1182.12	175.488
1186.46	273.612
1190.8	170.979
1195.14	175.187
1199.47	138.376
1203.8	176.934
1208.13	199.15
1212.46	163.55
1216.78	163.338
1221.1	184.369
1225.42	239.217
1229.74	174.899
1234.05	188.383
1238.37	163.466
1242.68	188.952
1246.98	185.696
1251.29	208.788
1255.59	189.079
1259.89	215.251
1264.19	185.475
1268.49	175.964
1272.78	151.871
1277.08	162.487
1281.36	159.185
1285.65	76.4009
1289.94	90.1567
1294.22	110.684
1298.5	42.7712
1302.78	26.937
1307.05	10.6709
1311.33	77.0132
1315.6	7.04394
1319.87	18.7759
1324.13	13.2344
1328.4	39.5986
1332.66	3.59253
1336.92	20.4084
1341.18	11.012
1345.43	52.4294
1349.69	17.1135
1353.94	4.12988
1358.19	98.4775
1362.43	10.6372
1366.68	13.2236
1370.92	64.0388
1375.16	25.688
1379.4	35.3452
1383.63	44.7602
1387.87	31.0171
1392.1	29.1404
1396.33	13.9558
1400.55	48.7468
1404.78	51.2554
1409	31.5972
1413.22	64.7312
1417.43	35.2869
1421.65	43.4351
1425.86	42.7734
1430.08	40.8789
1434.28	101.394
1438.49	83.0046
1442.69	111.559
1446.9	64.6365
1451.1	49.273
1455.3	55.7363
1459.49	54.8357
1463.68	175.137
1467.88	72.2302
1472.07	86.3381
1476.25	66.949
1480.44	60.4692
1484.62	75.905
1488.8	45.5681
1492.98	101.559
1497.16	76.1335
1501.33	18.9441
1505.5	87.5051
1509.67	65.3267
1513.84	54.0125
1518.01	63.1069
1522.17	92.9604
1526.33	45.0874
1530.49	61.9058
1534.65	46.1016
1538.8	39.6668
1542.95	34.3023
1547.1	79.4353
1551.25	72.7498
1555.4	81.6357
1559.54	60.8943
1563.69	27.54
1567.83	68.1419
1571.96	42.4419
1576.1	0.002197
