Measurement: Raman, 514 nm, depolarized, Raman Data Processed
Mineral: Spessartine
Rruff sample: R080053
Ideal chemistry: Mn^2+^_3_Al_2_(SiO_4_)_3_
Locality: East Africa
Source: www.multicolour.com
Description: Transparent orange fragments
Measured chemistry: (Mn^2+^_1.32_Mg_0.96_Fe^2+^_0.38_Fe^3+^_0.04_Ca_0.30_)Al_2.00_((Si_0.99_Al_0.01_)O_4_)_3_; Fe^2+^ and Fe^3+^ estimated by charge balance
Pin_id: L01780
Orientation: Laser parallel to a* (1 0 0). Fiducial mark perpendicular to laser is parallel to c [0 0 1]
Raman shift (cm-1)	intensity
62.865	0
67.825	62.6067
72.783	133.284
77.739	161.235
82.692	32.1653
87.642	44.5452
92.589	59.3017
97.535	273.753
102.477	715.636
107.417	1404.25
112.354	1674.92
117.289	2122.92
122.222	2153.92
127.151	2236.04
132.078	2249.26
137.003	2210.15
141.925	2233.89
146.844	2136.07
151.761	1995.04
156.675	2062.77
161.586	2090.82
166.495	2641.26
171.402	3472.2
176.306	3847.85
181.207	2817.26
186.106	2343.91
191.002	2220.25
195.895	2511.84
200.786	2736.44
205.674	2918.01
210.56	3068.39
215.443	2949.48
220.324	2747.89
225.202	2654.83
230.077	2338.11
234.95	2352.1
239.82	2238.19
244.688	2045.59
249.553	2013.62
254.415	1857.54
259.275	1765.45
264.132	1697.26
268.987	1543.91
273.839	1610.32
278.688	1610.04
283.535	1650.66
288.38	1633.19
293.221	1712.68
298.06	1803.56
302.897	1970.46
307.731	2117.78
312.562	2392.36
317.391	2937.48
322.217	3394.02
327.041	4716.43
331.862	6209.92
336.68	7671.15
341.496	9698.5
346.309	14569.9
351.119	23389.5
355.927	31270
360.733	26636.8
365.536	17152.9
370.336	12186.4
375.133	9844.23
379.928	7634.51
384.721	5359.24
389.51	3428.17
394.298	2033.33
399.082	1289.74
403.864	805.538
408.644	473.821
413.42	336.518
418.195	154.759
422.966	19.5
427.735	71.5908
432.502	82.8696
437.265	141.658
442.027	120.273
446.785	117.71
451.541	157.984
456.295	33.0034
461.045	101.476
465.794	144.571
470.539	348.328
475.282	704.731
480.022	1174.69
484.76	968.159
489.495	780.095
494.228	871.536
498.958	1791.38
503.685	2814.61
508.41	2780.15
513.132	1825.96
517.852	1513
522.569	1728.24
527.283	1814.02
531.995	1974.33
536.704	2483.37
541.41	3610.62
546.114	5783.13
550.816	9968.8
555.514	14446.9
560.21	13185.4
564.904	7154.8
569.595	3497.98
574.283	1956.41
578.969	1299.15
583.652	1082.74
588.332	841.736
593.01	776.356
597.685	782.105
602.358	746.062
607.028	698.712
611.695	444.426
616.36	403.043
621.022	463.562
625.682	769.395
630.339	1246.8
634.993	1826.35
639.645	1889.56
644.294	1362.7
648.941	792.395
653.585	570.464
658.226	346.897
662.865	317.688
667.501	207.824
672.134	105.289
676.765	113.922
681.394	45.5518
686.019	13.1895
690.642	82.4189
695.263	114.22
699.881	143.906
704.496	39.8833
709.108	4.21045
713.718	33.124
718.326	43.1621
722.931	47.1206
727.533	96.9878
732.132	21.8545
736.729	13.061
741.324	52.6426
745.915	12.6216
750.505	73.9702
755.091	121.705
759.675	100.924
764.256	149.711
768.835	54.9556
773.411	117.866
777.984	46.6787
782.555	81.4268
787.123	195.262
791.689	275.852
796.252	245.221
800.812	429.396
805.37	768.134
809.925	1155.23
814.478	1439.73
819.028	1561.07
823.575	1617.81
828.12	1637.25
832.662	1799.85
837.201	2346.89
841.738	3132.16
846.272	4662.95
850.804	6719.38
855.333	7660.72
859.86	6498.81
864.383	5335.57
868.904	4763.14
873.423	5123.56
877.939	6163
882.452	7886.92
886.963	10177.1
891.471	13416.9
895.977	20044.8
900.48	34944.5
904.98	64055.8
909.478	104048
913.973	113685
918.465	77238
922.955	41702.8
927.442	23289.2
931.927	13909.3
936.409	9005.01
940.888	5925.41
945.365	4385.52
949.839	3196.42
954.31	2447.47
958.779	1932.47
963.246	1801.28
967.709	1583.35
972.17	1422
976.629	1347.34
981.085	1215.15
985.538	1049.81
989.988	982.328
994.436	990.895
998.882	1059.04
1003.33	1314.82
1007.76	1495.45
1012.2	1688.46
1016.64	1869.69
1021.07	2058.97
1025.5	2277.14
1029.93	2820.79
1034.35	3281.65
1038.77	3632.29
1043.19	3805.91
1047.61	2895.55
1052.02	1811.62
1056.43	1068.09
1060.84	816.936
1065.25	453.141
1069.65	179.758
1074.05	233.756
1078.45	164.267
1082.85	77.1191
1087.24	100.245
1091.63	34.6826
1096.02	110.794
1100.4	0.408203
1104.79	119.147
1109.17	113.874
1113.54	19.2217
1117.92	76.4785
1122.29	136.117
1126.66	147.783
1131.03	18.6631
1135.39	22.8398
1139.75	29.5332
1144.11	81.9199
1148.47	9.14551
1152.82	89.2129
1157.17	303.188
1161.52	340.056
1165.87	353.805
1170.21	346.421
1174.55	451.893
1178.89	554.205
1183.23	492.82
1187.56	369.783
1191.89	550.555
1196.22	378.272
1200.54	337.455
1204.87	439.885
1209.19	421.249
1213.5	397.377
1217.82	362.984
1222.13	264.845
1226.44	362.66
1230.75	229.293
1235.05	296.481
1239.35	349.107
1243.65	371.414
1247.95	348.088
1252.24	346.51
1256.53	308.515
1260.82	375.553
1265.11	350.197
1269.39	395.69
1273.67	435.562
1277.95	320.58
1282.23	323.331
1286.5	380.908
1290.77	332.313
1295.04	305.55
1299.3	309.624
1303.57	170.542
1307.83	264.304
1312.08	295.912
1316.34	90.3623
1320.59	64.6768
1324.84	20.835
1329.09	38.7393
1333.33	16.2852
1337.57	20.3506
1341.81	106.134
1346.05	64.5947
1350.28	1.86133
1354.51	66.9062
1358.74	90.2061
1362.97	78.4111
1367.19	45.6533
1371.41	95.5244
1375.63	1.75
1379.85	228.741
1384.06	96.7197
1388.27	214.97
1392.48	191.254
1396.68	327.744
1400.88	311.268
1405.08	212.823
1409.28	348.398
1413.48	184.984
1417.67	175.59
1421.86	220.236
1426.05	200.504
1430.23	223.311
1434.41	236.248
1438.59	203.888
1442.77	142.168
1446.94	83.7197
1451.11	123.618
1455.28	154.258
1459.45	182.336
1463.61	209.527
1467.77	279.761
1471.93	280.08
1476.09	385.716
1480.24	291.81
1484.39	383.438
1488.54	294.048
1492.68	475.614
1496.82	383.122
1500.96	316.56
1505.1	293.881
1509.24	422.067
1513.37	350.077
1517.5	317.992
1521.62	204.906
1525.75	273.016
1529.87	118.754
1533.99	145.123
1538.11	75.2031
1542.22	245.435
1546.33	36.873
1550.44	102.733
1554.55	211.191
1558.65	184.537
1562.75	186.562
1566.85	21.6562
1570.95	10.5693
1575.04	80.3926
