Measurement: Raman, 514 nm, ccw, Raman Data Processed
Mineral: Spessartine
Rruff sample: R060177
Ideal chemistry: Mn^2+^_3_Al_2_(SiO_4_)_3_
Locality: Fujian Province, China
Source: Rock Currier
Description: Orange trapezohedral crystals
Measured chemistry: (Mn_2.86_Fe^2+^_0.10_Ca_0.04_)_Î£=3_Al_2.00_(Si_1.00_O_4_)_3_
Pin_id: M01716
Orientation: Laser parallel to b* (0 1 0). Fiducial mark perpendicular to laser is parallel to a [1 0 0]
Raman shift (cm-1)	intensity
143.531	0
148.479	0.06958
153.423	233.247
158.365	894.883
163.303	1014.19
168.238	1039.56
173.17	1281.34
178.1	1349.47
183.026	1065.54
187.948	828.518
192.868	504.984
197.785	320.403
202.699	324.881
207.609	210.311
212.517	305.354
217.422	580.284
222.323	745.993
227.222	820.937
232.117	635.937
237.01	503.208
241.899	325.802
246.785	165.744
251.669	99.0303
256.549	48.6438
261.426	24.4248
266.3	9.81079
271.172	47.6533
276.04	24.801
280.905	41.3467
285.767	213.746
290.627	365.187
295.483	564.775
300.336	733.964
305.186	959.486
310.034	1179.88
314.878	1438.95
319.72	1732.33
324.558	2255.24
329.393	2638.6
334.226	2964.34
339.055	3089.4
343.882	2879.01
348.706	2698.36
353.526	2389.12
358.344	2283.97
363.159	2139.01
367.971	2210.21
372.78	2051.57
377.586	1985.05
382.389	1663.41
387.189	1410.42
391.986	1121.4
396.78	948.316
401.572	765.485
406.36	663.035
411.146	542.234
415.929	426.252
420.709	290.953
425.486	133.19
430.26	135.463
435.031	39.7068
439.799	3.07959
444.564	59.1602
449.327	58.8787
454.087	55.7156
458.843	58.1065
463.597	202.426
468.348	474.664
473.097	716.812
477.842	743.851
482.585	621.784
487.324	498.629
492.061	585.383
496.795	654.016
501.526	816.525
506.255	880.852
510.98	813.375
515.703	804.401
520.423	786.734
525.14	937.803
529.854	1338.5
534.566	1962.4
539.274	2855.96
543.98	3556.39
548.683	2984.26
553.383	1987.13
558.081	1284.33
562.775	967.392
567.467	901.299
572.156	725.216
576.843	674.272
581.526	615.377
586.207	501.614
590.885	466.908
595.56	417.635
600.233	431.551
604.902	444.369
609.569	483.921
614.234	459.297
618.895	581.568
623.554	857.997
628.21	886.413
632.863	739.648
637.514	504.127
642.161	355.853
646.806	249.824
651.449	204.974
656.088	145.615
660.725	91.722
665.36	38.2794
669.991	9.1676
674.62	22.7932
679.246	26.8794
683.869	69.0918
688.49	70.5625
693.108	22.2892
697.723	10.1625
702.336	7.32593
706.946	100.193
711.553	127.477
716.158	196.351
720.759	276.909
725.359	311.324
729.955	322.731
734.549	292.179
739.14	210.12
743.729	142.847
748.315	41.2578
752.898	112.35
757.479	11.1373
762.057	31.4059
766.632	1.64417
771.205	28.6555
775.775	4.31763
780.342	15.7186
784.907	102.524
789.469	74.6727
794.029	112.729
798.586	257.016
803.14	291.631
807.692	392.03
812.241	412.029
816.788	424.761
821.332	431.959
825.873	577.004
830.412	710.929
834.948	1088.21
839.481	1671.25
844.012	2343.93
848.541	2617.4
853.066	2774.61
857.59	2651.69
862.11	2516
866.628	2514.48
871.144	2656.13
875.657	2986.94
880.167	3609.9
884.675	4608.57
889.18	5983.68
893.683	8578.99
898.183	12936.3
902.681	20879.2
907.176	28016.4
911.669	25017.4
916.159	16324.4
920.646	9915.84
925.131	6149.75
929.613	4034.91
934.093	2956.6
938.571	2317.31
943.046	1821.31
947.518	1537.1
951.988	1259.21
956.455	1085.28
960.92	938.592
965.382	758.235
969.842	669.411
974.3	504.619
978.754	442.331
983.207	366.805
987.657	395.053
992.104	465.254
996.549	585.167
1000.99	730.468
1005.43	919.264
1009.87	1230.56
1014.3	1549.8
1018.74	2021.59
1023.17	2459.53
1027.59	2314.61
1032.02	1646.88
1036.44	890.336
1040.86	502.96
1045.28	262.804
1049.7	137.83
1054.11	94.9441
1058.52	80.144
1062.93	83.4277
1067.33	31.7778
1071.74	5.8125
1076.14	44.6672
1080.54	14.1714
1084.93	20.4141
1089.33	19.105
1093.72	59.7288
1098.11	16.8543
1102.49	29.1074
1106.88	40.5007
1111.26	26.1816
1115.64	35.2378
1120.01	14.419
1124.39	25.2517
1128.76	14.8188
1133.13	26.7092
1137.49	69.4121
1141.86	81.9665
1146.22	134.386
1150.58	85.6775
1154.94	90.9988
1159.3	100.431
1163.65	127.366
1168	120.982
1172.35	140.133
1176.69	96.3945
1181.04	164.398
1185.38	105.633
1189.72	150.322
1194.05	106.297
1198.39	112.511
1202.72	98.2456
1207.05	141.255
1211.38	121.85
1215.7	140.406
1220.02	162.914
1224.34	123.018
1228.66	92.3015
1232.97	92.8
1237.29	128.131
1241.6	170.102
1245.91	208.836
1250.21	163.827
1254.52	72.6252
1258.82	161.173
1263.12	190.619
1267.41	126.45
1271.71	138.085
1276	117.638
1280.29	56.6726
1284.58	100.528
1288.87	71.3599
1293.15	76.4045
1297.43	16.0559
1301.71	45.5102
1305.98	78.9692
1310.26	53.3227
1314.53	113.233
1318.8	83.5974
1323.07	7.29248
1327.33	33.6497
1331.6	10.1145
1335.86	56.8347
1340.11	22.8123
1344.37	34.615
1348.62	42.9597
1352.88	34.323
1357.12	86.6045
1361.37	2.76685
1365.62	19.8069
1369.86	101.857
1374.1	37.1765
1378.34	4.67456
1382.57	66.4756
1386.81	91.2075
1391.04	97.3958
1395.27	61.6763
1399.49	74.7075
1403.72	47.9526
1407.94	34.9827
1412.16	96.9099
1416.38	7.35693
1420.6	20.1089
1424.81	47.1677
1429.02	29.9387
1433.23	9.77051
1437.44	97.9805
1441.64	67.5388
1445.85	99.2227
1450.05	105.607
1454.25	101.017
1458.44	137.125
1462.64	73.7922
1466.83	79.8906
1471.02	109.683
1475.21	91.9394
1479.39	79.7126
1483.58	67.3144
1487.76	77.1921
1491.93	99.4285
1496.11	47.8774
1500.29	90.0369
1504.46	67.5847
1508.63	139.275
1512.8	60.0669
1516.96	56.5481
1521.13	91.0784
1525.29	70.915
1529.45	63.5054
1533.61	54.4617
1537.76	92.3176
1541.92	72.6125
1546.07	33.2168
1550.22	55.1787
1554.36	84.6604
1558.51	151.756
1562.65	22.6848
1566.79	22.5373
1570.93	55.3538
1575.07	55.8799
