Measurement: Raman, 514 nm, ccw, Raman Data Processed
Mineral: Spessartine
Rruff sample: R080053
Ideal chemistry: Mn^2+^_3_Al_2_(SiO_4_)_3_
Locality: East Africa
Source: www.multicolour.com
Description: Transparent orange fragments
Measured chemistry: (Mn^2+^_1.32_Mg_0.96_Fe^2+^_0.38_Fe^3+^_0.04_Ca_0.30_)Al_2.00_((Si_0.99_Al_0.01_)O_4_)_3_; Fe^2+^ and Fe^3+^ estimated by charge balance
Pin_id: L01780
Orientation: Laser parallel to a* (1 0 0). Fiducial mark perpendicular to laser is parallel to c [0 0 1]
Raman shift (cm-1)	intensity
62.865	0
67.825	72.7067
72.783	139.384
77.739	149.831
82.692	33.7432
87.642	38.4904
92.589	21.3118
97.535	255.135
102.477	678.261
107.417	1361.51
112.354	1586.58
117.289	1934.25
122.222	2060.14
127.151	1959.29
132.078	2040.78
137.003	2014.24
141.925	1953.69
146.844	1878.66
151.761	1824.52
156.675	1843.27
161.586	2037.46
166.495	2772.2
171.402	4289.53
176.306	4954.6
181.207	3143.03
186.106	2153.81
191.002	1837.72
195.895	1823.69
200.786	1837.81
205.674	1836.02
210.56	1946.78
215.443	1901.59
220.324	1923.65
225.202	1955.26
230.077	1931.92
234.95	2106.33
239.82	2126.56
244.688	2050.46
249.553	2063.7
254.415	2094.15
259.275	2087.69
264.132	2067.24
268.987	1984.73
273.839	2037.08
278.688	2120.22
283.535	2138.08
288.38	2352.08
293.221	2496.37
298.06	2616.78
302.897	2674.36
307.731	2775.91
312.562	3080.55
317.391	3824.47
322.217	5014.37
327.041	7051.14
331.862	9552.22
336.68	11474.5
341.496	13528.1
346.309	18717.7
351.119	29264.5
355.927	38830.4
360.733	33114.6
365.536	22364.2
370.336	17473.2
375.133	15004.6
379.928	12114.5
384.721	8481.99
389.51	5380.7
394.298	3281.65
399.082	2120.93
403.864	1263.6
408.644	807.798
413.42	530.593
418.195	253.018
422.966	149.892
427.735	89.9487
432.502	2.11816
437.265	50.0337
442.027	73.6929
446.785	108.204
451.541	101.613
456.295	109.689
461.045	8.42041
465.794	71.9653
470.539	160.185
475.282	164.065
480.022	333.477
484.76	315.362
489.495	291.689
494.228	411.427
498.958	718.566
503.685	1055.04
508.41	1325.81
513.132	1157.84
517.852	1617.09
522.569	2119.52
527.283	2415.08
531.995	2516.3
536.704	3012.78
541.41	4268.4
546.114	6681.08
550.816	12044.9
555.514	17128.3
560.21	15511.5
564.904	8334.96
569.595	4184.36
574.283	2360.38
578.969	1640.02
583.652	1281.68
588.332	1114.08
593.01	1061.29
597.685	1047.1
602.358	1114.88
607.028	1004.76
611.695	596.713
616.36	426.793
621.022	470.335
625.682	634.152
630.339	848.655
634.993	1031.44
639.645	961.367
644.294	928.633
648.941	833.232
653.585	599.152
658.226	444.388
662.865	407.931
667.501	243.777
672.134	140.907
676.765	52.2095
681.394	2.55859
686.019	8.66309
690.642	61.4082
695.263	61.0278
699.881	68.4937
704.496	37.6025
709.108	18.9556
713.718	4.29248
718.326	39.4497
722.931	59.605
727.533	15.9038
732.132	77.9507
736.729	17.2817
741.324	10.1685
745.915	71.6924
750.505	17.9619
755.091	39.0278
759.675	86.6274
764.256	37.8208
768.835	47.623
773.411	16.0454
777.984	32.0928
782.555	39.8325
787.123	172.291
791.689	202.493
796.252	379.467
800.812	562.236
805.37	789.831
809.925	1412.38
814.478	1706
819.028	1875.75
823.575	1990.89
828.12	1713.04
832.662	1805.85
837.201	2095.61
841.738	2426.62
846.272	3227.86
850.804	4104.89
855.333	4704.89
859.86	4754.37
864.383	4231.53
868.904	4406.21
873.423	5008.18
877.939	5984.66
882.452	7831.73
886.963	10284
891.471	14471.8
895.977	22811
900.48	40520.8
904.98	75038.8
909.478	120391
913.973	123231
918.465	89462.5
922.955	48484.4
927.442	27038
931.927	16148.4
936.409	10475.2
940.888	7136.81
945.365	5067.18
949.839	3774.91
954.31	2985.76
958.779	2499.14
963.246	2227.04
967.709	1791.51
972.17	1903.39
976.629	1752.79
981.085	1463.07
985.538	1335.43
989.988	1124.88
994.436	1166.52
998.882	1170.4
1003.33	1339.56
1007.76	1540.04
1012.2	1632.13
1016.64	1918.85
1021.07	2087.49
1025.5	2194.67
1029.93	2199.35
1034.35	2656.5
1038.77	2772.65
1043.19	2577.16
1047.61	1894.65
1052.02	1165.56
1056.43	894.843
1060.84	376.502
1065.25	346.583
1069.65	278.221
1074.05	178.272
1078.45	118.613
1082.85	65.6318
1087.24	60.269
1091.63	46.6919
1096.02	22.4648
1100.4	35.3013
1104.79	37.6572
1109.17	16.3677
1113.54	53.4751
1117.92	34.9888
1122.29	72.8769
1126.66	57.2124
1131.03	21.8467
1135.39	114.688
1139.75	16.8711
1144.11	81.9844
1148.47	147.662
1152.82	173.157
1157.17	291.52
1161.52	323.737
1165.87	441.841
1170.21	485.681
1174.55	470.381
1178.89	600.688
1183.23	493.176
1187.56	490.443
1191.89	502.088
1196.22	493.942
1200.54	457.53
1204.87	516.34
1209.19	495.851
1213.5	325.647
1217.82	404.086
1222.13	272.832
1226.44	323.687
1230.75	392.744
1235.05	305.733
1239.35	417.103
1243.65	331.073
1247.95	406.137
1252.24	407.539
1256.53	551.511
1260.82	488.318
1265.11	497.103
1269.39	594.13
1273.67	543.561
1277.95	513.734
1282.23	467.449
1286.5	425.942
1290.77	545.217
1295.04	351.279
1299.3	395.128
1303.57	315.772
1307.83	205.212
1312.08	243.458
1316.34	183.517
1320.59	42.4639
1324.84	15.9072
1329.09	31.1475
1333.33	41.3965
1337.57	35.6631
1341.81	66.5898
1346.05	44.2568
1350.28	7.37988
1354.51	64.7637
1358.74	174.842
1362.97	30.9658
1367.19	126.906
1371.41	129.853
1375.63	96.8652
1379.85	288.988
1384.06	183.21
1388.27	284.62
1392.48	150.268
1396.68	396.136
1400.88	233.137
1405.08	323.225
1409.28	288.289
1413.48	255.334
1417.67	365.481
1421.86	370.527
1426.05	252.608
1430.23	281.756
1434.41	211.001
1438.59	123.373
1442.77	324.396
1446.94	79.6562
1451.11	185.731
1455.28	144.246
1459.45	140.795
1463.61	466.315
1467.77	241.094
1471.93	287.949
1476.09	383.401
1480.24	366.044
1484.39	459.676
1488.54	255.261
1492.68	440.75
1496.82	537.115
1500.96	473.334
1505.1	546.381
1509.24	631.211
1513.37	449.602
1517.5	290.726
1521.62	346.477
1525.75	387.284
1529.87	134.19
1533.99	157.443
1538.11	238.117
1542.22	210.408
1546.33	174.657
1550.44	116.269
1554.55	117.709
1558.65	153.158
1562.75	22.4609
1566.85	12.9131
1570.95	172.064
1575.04	0.882813
