Measurement: Raman, 514 nm, ccw, Raman Data Processed
Mineral: Spessartine
Rruff sample: R060451
Ideal chemistry: Mn^2+^_3_Al_2_(SiO_4_)_3_
Locality: unknown
Source: Gemological Institute of America
Description: Reddish orange fragment
Measured chemistry: (Mn_1.26_Mg_0.98_Fe^2+^_0.39_Ca_0.37_)_Î£=3_Al_2.00_(Si_1.00_O_4_)_3_; trace amounts of Ti
Pin_id: L01336
Orientation: Laser parallel to c* (0 0 1). Fiducial mark perpendicular to laser is parallel to a [1 0 0]
Raman shift (cm-1)	intensity
62.899	0
67.89	53.5126
72.879	113.35
77.864	102.388
82.846	0.437393
87.824	39.3602
92.8	91.7993
97.773	388.235
102.742	764.821
107.708	1410.81
112.672	1644.68
117.632	1948.21
122.589	2044.55
127.543	2025.4
132.494	2076.47
137.441	2032.55
142.386	1969.46
147.328	2022.24
152.266	1876.51
157.202	1878.05
162.134	1853.09
167.063	1898.71
171.99	1983.99
176.913	2077.18
181.833	1796.66
186.75	1758.69
191.664	1897.86
196.575	2038.58
201.483	2134.68
206.388	2212.12
211.29	2263.83
216.189	2180.01
221.085	2056.72
225.977	1911.83
230.867	1744.72
235.754	1665.11
240.638	1509.01
245.518	1442.49
250.396	1270.44
255.271	1246.77
260.143	1106.42
265.011	1112.33
269.877	965.456
274.74	922.284
279.6	1017.66
284.457	807.319
289.31	831.269
294.161	847.277
299.009	839.086
303.854	847.024
308.696	919.58
313.535	1082.43
318.371	1195.33
323.204	1312.87
328.034	1480.29
332.861	1693.56
337.686	2250.66
342.507	3046.55
347.325	4772.22
352.141	7748.64
356.953	10686.8
361.763	9668.86
366.569	6069.84
371.373	3876.78
376.174	2737.7
380.972	1902.66
385.767	1421.58
390.559	960.364
395.348	588.075
400.134	363.713
404.918	207.265
409.698	156.875
414.476	108.531
419.25	25.1362
424.022	92.3071
428.791	1.09961
433.557	6.17627
438.32	109.354
443.081	16.6914
447.838	53.707
452.593	13.5527
457.344	21.8999
462.093	13.7979
466.839	176.667
471.582	225.157
476.323	485.841
481.06	674.878
485.795	725.373
490.526	410.272
495.255	518.553
499.981	939.197
504.705	1702.26
509.425	1638.63
514.143	894.307
518.857	658.247
523.569	669.431
528.278	686.833
532.985	708.668
537.688	924.235
542.389	1279.89
547.087	2114.94
551.782	3673.47
556.474	5449.36
561.164	5014.2
565.851	2726.52
570.535	1450.47
575.216	789.827
579.894	514.855
584.57	518.347
589.243	353.028
593.913	185.319
598.58	165.673
603.245	205.739
607.907	231.726
612.566	196.596
617.222	120.507
621.875	266.309
626.526	326.968
631.174	606.906
635.82	967.767
640.462	1117.1
645.102	797.524
649.739	587.172
654.373	417.902
659.005	158.005
663.634	106.858
668.26	38.3784
672.884	42.5039
677.504	13.0552
682.122	19.9561
686.738	49.6528
691.35	30.352
695.96	9.98145
700.567	45.436
705.172	50.8662
709.774	3.1543
714.373	86.085
718.969	24.0762
723.563	38.147
728.154	31.6831
732.743	28.376
737.328	22.7656
741.912	68.6846
746.492	122.694
751.07	89.3311
755.645	15.6875
760.217	21
764.787	89.3852
769.354	100.513
773.918	57.3931
778.48	86.0044
783.039	95.2788
787.596	59.3394
792.15	180.202
796.701	90.8794
801.25	139.382
805.796	278.828
810.339	485.909
814.88	703.133
819.418	1386.48
823.953	2444.49
828.486	780.171
833.016	771.666
837.544	1291.27
842.069	1644.6
846.591	2591.06
851.111	3961.72
855.628	4225.94
860.143	3527.07
864.655	2643.57
869.164	2327.76
873.671	2368.97
878.176	2642.99
882.677	3286.07
887.176	4122.24
891.673	5400.11
896.167	7703.39
900.658	13033.9
905.147	23369
909.633	37523
914.117	40637.6
918.598	27578
923.077	14912
927.553	8474.33
932.026	5020.89
936.497	3096.74
940.966	2156.87
945.431	1650.33
949.895	1116.24
954.355	952.658
958.814	697.463
963.269	686.324
967.723	627.363
972.173	443.155
976.621	449.994
981.067	531.846
985.51	439.851
989.951	226.387
994.389	236.545
998.824	422.406
1003.26	351.14
1007.69	501.867
1012.12	606.052
1016.54	753.688
1020.96	956.044
1025.38	1198.2
1029.8	1421.66
1034.22	1845.34
1038.63	1955.23
1043.04	2086.32
1047.45	1665.63
1051.86	1044.17
1056.26	615.202
1060.66	356.111
1065.06	205.181
1069.45	105.405
1073.85	95.7778
1078.24	61.3101
1082.63	95.4858
1087.01	12.294
1091.4	24.3213
1095.78	9.69824
1100.16	4.854
1104.53	33.105
1108.91	106.859
1113.28	95.2022
1117.65	78.3164
1122.01	28.5659
1126.38	14.9775
1130.74	42.2022
1135.1	33.1904
1139.45	4.69336
1143.81	21.7441
1148.16	111.089
1152.51	40.8613
1156.86	168.533
1161.2	194.147
1165.54	62.6934
1169.88	140.185
1174.22	227.612
1178.56	154.955
1182.89	6.20606
1187.22	295.555
1191.55	122.557
1195.87	163.451
1200.19	185.233
1204.52	169.403
1208.83	44.5166
1213.15	144.929
1217.46	151.456
1221.78	84.1543
1226.08	168.83
1230.39	18.585
1234.69	162.658
1239	119.015
1243.3	139.817
1247.59	115.68
1251.89	130.846
1256.18	117.329
1260.47	126.837
1264.76	203.893
1269.04	148.322
1273.33	116.766
1277.61	106.182
1281.88	205.042
1286.16	164.279
1290.43	99.6231
1294.7	269.763
1298.97	64.6084
1303.24	161.504
1307.51	113.315
1311.77	114.742
1316.03	48.3643
1320.28	38.916
1324.54	136.403
1328.79	40.8272
1333.04	56.1611
1337.29	33.169
1341.54	13.0459
1345.78	114.741
1350.02	88.6572
1354.26	50.4424
1358.5	35.3984
1362.73	89.4014
1366.96	94.8994
1371.19	120.423
1375.42	7.15332
1379.65	82.8838
1383.87	53.7334
1388.09	75.4814
1392.31	62.5469
1396.52	210.715
1400.74	203.908
1404.95	20.127
1409.16	156.362
1413.37	16.6914
1417.57	114.964
1421.77	1.11816
1425.97	101.217
1430.17	154.331
1434.37	203.476
1438.56	154.661
1442.75	174.974
1446.94	163.227
1451.13	196.594
1455.31	179.602
1459.5	135.355
1463.68	104.756
1467.85	153.718
1472.03	267.639
1476.2	116.096
1480.37	136.449
1484.54	281.909
1488.71	160.248
1492.88	244.63
1497.04	215.941
1501.2	212.739
1505.36	354.304
1509.51	184.489
1513.66	280.663
1517.82	187.711
1521.97	81.8291
1526.11	170.851
1530.26	321.359
1534.4	73.0439
1538.54	105.917
1542.68	134.019
1546.82	57.2695
1550.95	184.237
1555.08	155.494
1559.21	157.361
1563.34	54.7861
1567.46	8.38574
1571.59	159.301
1575.71	0.296875
