Measurement: Raman, 514 nm, ccw, Raman Data Processed
Mineral: Spessartine
Rruff sample: R060447
Ideal chemistry: Mn^2+^_3_Al_2_(SiO_4_)_3_
Locality: unknown
Source: Gemological Institute of America
Description: Orange fragment
Measured chemistry: (Mn^2+^_2.85_Fe^2+^_0.07_Mg_0.05_Ca_0.03_)_Î£=3_Al_2.00_(Si_1.00_O_4_)_3_
Pin_id: M01768
Orientation: Laser parallel to a* (1 0 0). Fiducial mark perpendicular to laser is parallel to c [0 0 1]
Raman shift (cm-1)	intensity
150.951	0
155.894	100.888
160.834	811.484
165.771	3743.65
170.705	939.39
175.635	402.626
180.563	137.614
185.487	24.7659
190.409	19.2537
195.327	83.9243
200.242	136.331
205.155	3.40076
210.064	39.5532
214.97	172.295
219.873	460.205
224.773	480.366
229.67	246.477
234.564	278.171
239.455	270.926
244.342	181.542
249.227	165.909
254.109	222.351
258.988	205.874
263.864	162.555
268.736	229.388
273.606	172.361
278.473	291.47
283.337	352.716
288.197	524.02
293.055	891.776
297.91	1358.78
302.762	1553.63
307.611	1305.82
312.456	1698.18
317.299	3606.74
322.139	5706.76
326.976	3412.91
331.81	1946.96
336.641	2085.91
341.469	3755.7
346.294	8764.51
351.116	15478.3
355.936	9468.81
360.752	4087.98
365.565	3634.24
370.376	6432.59
375.183	8481.99
379.988	4245.44
384.789	1759.92
389.588	858.443
394.384	530.024
399.177	267.704
403.967	147.466
408.754	131.361
413.538	106.437
418.319	39.3003
423.097	3.92896
427.873	47.5195
432.646	12.9915
437.415	16.5974
442.182	2.39111
446.946	51.1321
451.707	6.90845
456.465	53.8389
461.221	25.7349
465.973	56.6421
470.723	195.38
475.47	235.413
480.214	138.399
484.955	117.445
489.693	139.508
494.429	113.522
499.161	366.533
503.891	414.485
508.618	329.368
513.342	342.176
518.063	439.905
522.782	684.549
527.497	683.328
532.21	590.129
536.92	740.756
541.627	1211.08
546.332	2337.55
551.034	4705.44
555.732	5095.39
560.428	2623.07
565.122	1262.43
569.812	766.104
574.5	471.715
579.185	459.767
583.867	397.365
588.546	478.507
593.223	563.868
597.897	407.33
602.568	223.869
607.236	187.082
611.902	175.061
616.565	248.322
621.225	325.662
625.882	395.757
630.537	496.067
635.189	376.279
639.838	218.016
644.484	200.492
649.128	256.767
653.769	252.841
658.407	146.715
663.043	158.39
667.676	62.8655
672.306	36.1323
676.933	40.1536
681.558	24.8435
686.18	29.2378
690.799	34.7607
695.416	13.6814
700.03	1.64258
704.641	31.761
709.25	11.5435
713.856	65.356
718.459	19.0964
723.059	6.36182
727.657	6.06592
732.253	17.0877
736.845	65.1387
741.435	28.0518
746.022	1.80811
750.607	2.448
755.189	37.9678
759.768	97.2996
764.345	12.4629
768.919	53.4534
773.49	23.3596
778.059	7.18506
782.625	52.9477
787.189	30.6562
791.749	131.317
796.308	146.594
800.863	143.58
805.416	196.86
809.967	259.948
814.515	343.332
819.06	363.046
823.603	355.07
828.143	421.713
832.68	479.32
837.215	614.401
841.747	829.219
846.277	1256.89
850.804	1677.94
855.328	1468.88
859.85	1200.9
864.37	1207.65
868.886	1310.35
873.401	1702.49
877.912	2321.51
882.421	3009.81
886.928	4028.43
891.432	6422.78
895.933	11518.9
900.432	24187
904.929	45059.4
909.423	43432.6
913.914	23132.2
918.403	11582
922.889	6403.06
927.373	3832.26
931.854	2378.57
936.332	1572.96
940.809	1146.98
945.282	872.872
949.753	566.03
954.222	641.606
958.688	520.756
963.152	528.559
967.613	544.721
972.071	389.449
976.527	334.863
980.981	274.012
985.432	295.836
989.881	297.063
994.327	309.979
998.771	354.715
1003.21	511.598
1007.65	413.113
1012.09	531.285
1016.52	467.413
1020.95	661.329
1025.38	919.374
1029.81	983.576
1034.23	694.934
1038.65	439.419
1043.07	210.008
1047.49	197.68
1051.9	105.469
1056.31	96.3259
1060.72	36.2615
1065.13	55.2178
1069.54	12.22
1073.94	37.2852
1078.34	18.3931
1082.73	73.553
1087.13	105.11
1091.52	65.2998
1095.91	68.6335
1100.3	7.92065
1104.68	63.8086
1109.07	24.7202
1113.45	32.8611
1117.82	79.1597
1122.2	55.2322
1126.57	27.4717
1130.94	2.68164
1135.31	17.7307
1139.68	14.7378
1144.04	9.33911
1148.4	133.418
1152.76	200.132
1157.12	121.8
1161.47	237.418
1165.82	156.982
1170.17	255.047
1174.52	242.938
1178.87	272.322
1183.21	171.64
1187.55	230.89
1191.88	95.0688
1196.22	108.252
1200.55	169.221
1204.88	55.5535
1209.21	69.999
1213.54	155.518
1217.86	88.1616
1222.18	84.8347
1226.5	159.577
1230.82	161.739
1235.13	183.802
1239.44	175.042
1243.75	163.695
1248.06	191.324
1252.37	210.117
1256.67	231.876
1260.97	186.945
1265.27	240.57
1269.56	256.403
1273.86	269.243
1278.15	260.828
1282.44	170.362
1286.72	194.846
1291.01	73.2815
1295.29	210.698
1299.57	105.139
1303.85	101.434
1308.12	49.0093
1312.39	177.902
1316.67	109.081
1320.93	158.227
1325.2	24.3826
1329.46	50.4976
1333.73	2.56397
1337.98	8.59082
1342.24	51.4292
1346.5	59.8501
1350.75	93.5867
1355	96.1702
1359.25	7.24561
1363.49	15.3208
1367.74	84.9421
1371.98	12.3254
1376.22	104.318
1380.46	36.4106
1384.69	61.3584
1388.92	95.3106
1393.15	17.4114
1397.38	132.621
1401.61	136.617
1405.83	107.655
1410.05	115.704
1414.27	84.8062
1418.49	39.8445
1422.7	2.87622
1426.92	107.911
1431.13	130.97
1435.34	193.253
1439.54	260.784
1443.75	328.981
1447.95	317.014
1452.15	415.027
1456.35	403.724
1460.54	444.201
1464.73	274.029
1468.92	244.229
1473.11	242.345
1477.3	155.555
1481.48	202.719
1485.67	154.976
1489.85	131.56
1494.02	66.7219
1498.2	89.8674
1502.37	139.785
1506.55	54.8757
1510.71	85.9075
1514.88	7.15771
1519.05	135.715
1523.21	184.832
1527.37	41.5842
1531.53	131.568
1535.68	107.768
1539.84	80.1736
1543.99	111.049
1548.14	83.2488
1552.29	97.5471
1556.44	1.42358
1560.58	76.3313
1564.72	109.678
1568.86	52.9778
1573	122.729
1577.13	1.89331
