Measurement: Raman, 514 nm, ccw, Raman Data Processed
Mineral: Spessartine
Rruff sample: R080053
Ideal chemistry: Mn^2+^_3_Al_2_(SiO_4_)_3_
Locality: East Africa
Source: www.multicolour.com
Description: Transparent orange fragments
Measured chemistry: (Mn^2+^_1.32_Mg_0.96_Fe^2+^_0.38_Fe^3+^_0.04_Ca_0.30_)Al_2.00_((Si_0.99_Al_0.01_)O_4_)_3_; Fe^2+^ and Fe^3+^ estimated by charge balance
Pin_id: L01780
Orientation: Laser parallel to a* (1 0 0). Fiducial mark perpendicular to laser is parallel to c [0 0 1]
Raman shift (cm-1)	intensity
62.865	0
67.825	55.194
72.783	135.694
77.739	155.455
82.692	22.7393
87.642	24.826
92.589	37.2417
97.535	269.139
102.477	644.786
107.417	1335.62
112.354	1580.09
117.289	1884.54
122.222	1933.64
127.151	1857.4
132.078	2022.9
137.003	1952.77
141.925	1863.32
146.844	1793.21
151.761	1701.83
156.675	1766.15
161.586	2010.64
166.495	2465.41
171.402	3735.48
176.306	4217.01
181.207	2814.39
186.106	1896.63
191.002	1770.69
195.895	1736.14
200.786	1727.53
205.674	1761.8
210.56	1812.94
215.443	1819.51
220.324	1768.31
225.202	1801.08
230.077	1838.57
234.95	1836.05
239.82	1859.1
244.688	1843.02
249.553	1780.79
254.415	1760.53
259.275	1711.12
264.132	1804.51
268.987	1808.6
273.839	1763.36
278.688	1804.7
283.535	1937.04
288.38	1869.67
293.221	2012.93
298.06	2085.59
302.897	2301.51
307.731	2285.45
312.562	2668.81
317.391	3206.71
322.217	4091.4
327.041	5686.69
331.862	7589.11
336.68	9193.63
341.496	11134.9
346.309	15410.8
351.119	23927.5
355.927	31030.1
360.733	26484.9
365.536	17922.9
370.336	14007.2
375.133	12066.8
379.928	9710.76
384.721	6612.05
389.51	4200.52
394.298	2644.14
399.082	1607.92
403.864	947.864
408.644	708.12
413.42	372.877
418.195	240.059
422.966	32.4634
427.735	40.979
432.502	7.55078
437.265	37.4268
442.027	150.813
446.785	177.903
451.541	109.986
456.295	50.874
461.045	2.52344
465.794	69.5127
470.539	105.079
475.282	188.2
480.022	258.875
484.76	198.014
489.495	336.575
494.228	454.569
498.958	523.932
503.685	986.623
508.41	1083.61
513.132	1003.85
517.852	1226.32
522.569	1702.97
527.283	2019.82
531.995	2011.74
536.704	2466.28
541.41	3545.12
546.114	5600.32
550.816	9538.92
555.514	13757.2
560.21	12375.3
564.904	6515.3
569.595	3324.7
574.283	1891.01
578.969	1281.82
583.652	1050.89
588.332	818.157
593.01	854.111
597.685	903.271
602.358	939.059
607.028	735.714
611.695	485.014
616.36	366.67
621.022	357.425
625.682	498.364
630.339	694.921
634.993	970.204
639.645	935.227
644.294	722.698
648.941	600.607
653.585	482.944
658.226	473.701
662.865	315.872
667.501	121.439
672.134	76.3232
676.765	14.4712
681.394	77.7524
686.019	45.0708
690.642	104.941
695.263	1.79736
699.881	9.1001
704.496	4.30713
709.108	3.49268
713.718	83.896
718.326	30.7085
722.931	25.6987
727.533	42.8745
732.132	30.1685
736.729	34.1148
741.324	86.3106
745.915	36.1133
750.505	61.3355
755.091	42.0449
759.675	13.9438
764.256	94.0723
768.835	3.52197
773.411	99.5674
777.984	39.3008
782.555	59.7539
787.123	143.948
791.689	205.903
796.252	284.644
800.812	497.191
805.37	829.243
809.925	1191.62
814.478	1408.88
819.028	1470.61
823.575	1533.68
828.12	1457.48
832.662	1426.96
837.201	1586.8
841.738	2101.18
846.272	2726.49
850.804	3754.02
855.333	4138.46
859.86	3970.37
864.383	3450.7
868.904	3616.29
873.423	4021.07
877.939	4971.76
882.452	6404.27
886.963	8623.66
891.471	12143.5
895.977	18830.2
900.48	33836.1
904.98	62697.8
909.478	99579
913.973	106292
918.465	71192.4
922.955	38578.9
927.442	21572.9
931.927	12871.5
936.409	8131.66
940.888	5573.12
945.365	4056.85
949.839	3060.31
954.31	2347.53
958.779	2044.2
963.246	1640.12
967.709	1598.26
972.17	1522.62
976.629	1425.39
981.085	1238.71
985.538	1050.97
989.988	909.598
994.436	865.953
998.882	1079
1003.33	1243.93
1007.76	1270.09
1012.2	1356.79
1016.64	1525.47
1021.07	1725.17
1025.5	1733.99
1029.93	1916.11
1034.35	2236.11
1038.77	2267.59
1043.19	2051.91
1047.61	1462.79
1052.02	1068.99
1056.43	569.496
1060.84	335.343
1065.25	383.515
1069.65	227.998
1074.05	111.804
1078.45	77.022
1082.85	95.603
1087.24	33.416
1091.63	61.4463
1096.02	14.7158
1100.4	26.895
1104.79	37.3989
1109.17	36.5596
1113.54	23.1069
1117.92	72.3159
1122.29	39.0278
1126.66	71.9448
1131.03	16.5513
1135.39	129.509
1139.75	79.9321
1144.11	56.8882
1148.47	7.00732
1152.82	80.7651
1157.17	108.427
1161.52	240.009
1165.87	370.503
1170.21	434.897
1174.55	385.181
1178.89	356.343
1183.23	425.375
1187.56	337.269
1191.89	444.014
1196.22	463.602
1200.54	392.04
1204.87	300.497
1209.19	427.776
1213.5	215.416
1217.82	363.41
1222.13	257.493
1226.44	245.481
1230.75	269.445
1235.05	269.88
1239.35	369.662
1243.65	354.677
1247.95	376.44
1252.24	274.509
1256.53	369.631
1260.82	443.808
1265.11	316.771
1269.39	344.178
1273.67	391.447
1277.95	301.727
1282.23	454.315
1286.5	300.654
1290.77	351.015
1295.04	291.237
1299.3	214.323
1303.57	230.277
1307.83	280.103
1312.08	175.82
1316.34	80.4258
1320.59	157.919
1324.84	121.317
1329.09	89.6113
1333.33	10.374
1337.57	12.7852
1341.81	6.55859
1346.05	80.335
1350.28	48.958
1354.51	27.4463
1358.74	33.9512
1362.97	41.4043
1367.19	95.96
1371.41	23.3066
1375.63	124.4
1379.85	142.217
1384.06	54.1553
1388.27	254.061
1392.48	144.62
1396.68	157.127
1400.88	293.703
1405.08	279.038
1409.28	311.044
1413.48	301.746
1417.67	311.462
1421.86	361.203
1426.05	292.989
1430.23	142.845
1434.41	302.898
1438.59	113.076
1442.77	147.323
1446.94	117.671
1451.11	172.018
1455.28	153.512
1459.45	109.366
1463.61	214.67
1467.77	196.095
1471.93	261.626
1476.09	366.696
1480.24	247.167
1484.39	299.774
1488.54	291.359
1492.68	291.889
1496.82	413.339
1500.96	308.698
1505.1	437.94
1509.24	453.982
1513.37	329.754
1517.5	361.165
1521.62	114.356
1525.75	315.098
1529.87	22.5244
1533.99	288.273
1538.11	117.341
1542.22	222.268
1546.33	81.1103
1550.44	45.498
1554.55	200.115
1558.65	13.6133
1562.75	117.767
1566.85	126.022
1570.95	5.29492
1575.04	27.9814
