Measurement: Raman, 514 nm, ccw, Raman Data Processed
Mineral: Spessartine
Rruff sample: R060177
Ideal chemistry: Mn^2+^_3_Al_2_(SiO_4_)_3_
Locality: Fujian Province, China
Source: Rock Currier
Description: Orange trapezohedral crystals
Measured chemistry: (Mn_2.86_Fe^2+^_0.10_Ca_0.04_)_Î£=3_Al_2.00_(Si_1.00_O_4_)_3_
Pin_id: M01716
Orientation: Laser parallel to b* (0 1 0). Fiducial mark perpendicular to laser is parallel to a [1 0 0]
Raman shift (cm-1)	intensity
143.531	0
148.479	49.9956
153.423	505.522
158.365	1594.67
163.303	1524.43
168.238	853.483
173.17	944.902
178.1	1026.04
183.026	870.004
187.948	792.8
192.868	605.743
197.785	536.072
202.699	367.693
207.609	250.255
212.517	207.599
217.422	219.213
222.323	384.339
227.222	270.601
232.117	189.735
237.01	48.688
241.899	61.2905
246.785	53.4873
251.669	73.7261
256.549	15.4507
261.426	45.666
266.3	47.3711
271.172	32.3457
276.04	198.214
280.905	336.397
285.767	597.179
290.627	1010.27
295.483	1519.59
300.336	1985.92
305.186	2230.31
310.034	2417.22
314.878	2670.99
319.72	3094.13
324.558	3648.19
329.393	4219.66
334.226	4625.53
339.055	4790.77
343.882	4527.2
348.706	4276.51
353.526	3957.84
358.344	3813.46
363.159	3904.43
367.971	4155.71
372.78	4191.32
377.586	3870
382.389	3355.61
387.189	2626.44
391.986	2200.59
396.78	1781.84
401.572	1542.78
406.36	1303.15
411.146	1100.83
415.929	943.813
420.709	648.56
425.486	437.641
430.26	232.939
435.031	158.371
439.799	60.0076
444.564	29.2063
449.327	30.4136
454.087	44.9582
458.843	24.125
463.597	100.084
468.348	162.016
473.097	253.932
477.842	365.825
482.585	210.672
487.324	181.482
492.061	380.237
496.795	413.908
501.526	561.471
506.255	628.962
510.98	749.905
515.703	683.235
520.423	846.944
525.14	1166.06
529.854	1733.83
534.566	2701.23
539.274	4215.65
543.98	5086.77
548.683	4284.8
553.383	2725.12
558.081	1826.33
562.775	1364.53
567.467	1150.9
572.156	956.513
576.843	937.28
581.526	772.808
586.207	753.836
590.885	762.489
595.56	773.461
600.233	700.238
604.902	682.237
609.569	658.519
614.234	634.87
618.895	709.359
623.554	771.683
628.21	805.783
632.863	737.519
637.514	631.092
642.161	295.724
646.806	246.838
651.449	160.027
656.088	96.6731
660.725	125.789
665.36	34.9785
669.991	13.3879
674.62	54.5864
679.246	79.4285
683.869	90.8618
688.49	44.0359
693.108	43.5078
697.723	71.4138
702.336	1.53857
706.946	35.3899
711.553	42.5693
716.158	185.121
720.759	208.118
725.359	165.606
729.955	234.646
734.549	187.458
739.14	243.951
743.729	122.046
748.315	87.6873
752.898	85.875
757.479	32.6157
762.057	41.0754
766.632	54.759
771.205	28.1875
775.775	77.2454
780.342	97.9692
784.907	189.268
789.469	182.362
794.029	233.554
798.586	321.637
803.14	426.402
807.692	507.957
812.241	606.448
816.788	582.68
821.332	538.816
825.873	589.389
830.412	778.607
834.948	1039.94
839.481	1649.17
844.012	2060.47
848.541	2465.41
853.066	2513.54
857.59	2514.9
862.11	2602.52
866.628	2615.5
871.144	3071.69
875.657	3557.13
880.167	4327.56
884.675	5777.86
889.18	7782.88
893.683	11426.2
898.183	18091.4
902.681	29629.8
907.176	40108
911.669	35934.2
916.159	23527.9
920.646	14285.8
925.131	8877.09
929.613	5917.72
934.093	4146.8
938.571	3190.62
943.046	2575.84
947.518	2121.9
951.988	1874.71
956.455	1541.11
960.92	1267.77
965.382	1028.41
969.842	827.132
974.3	679.388
978.754	555.124
983.207	464.886
987.657	446.031
992.104	639.26
996.549	655.004
1000.99	776.097
1005.43	957.191
1009.87	1145.85
1014.3	1460.5
1018.74	1845.39
1023.17	1992.47
1027.59	1821.76
1032.02	1224.24
1036.44	745.988
1040.86	404.901
1045.28	243.985
1049.7	126.231
1054.11	49.6208
1058.52	36.1509
1062.93	36.8276
1067.33	9.61987
1071.74	135.41
1076.14	47.781
1080.54	20.0007
1084.93	0.788086
1089.33	2.59912
1093.72	66.594
1098.11	5.03784
1102.49	27.8105
1106.88	37.8884
1111.26	10.3774
1115.64	12.5789
1120.01	11.7991
1124.39	17.6025
1128.76	68.9087
1133.13	27.9773
1137.49	117.873
1141.86	58.3545
1146.22	155.1
1150.58	69.5266
1154.94	85.7835
1159.3	239.83
1163.65	152.483
1168	195.44
1172.35	147.939
1176.69	259.557
1181.04	208.512
1185.38	146.389
1189.72	205.063
1194.05	203.078
1198.39	124.832
1202.72	193.31
1207.05	228.202
1211.38	141.013
1215.7	149.104
1220.02	174.327
1224.34	154.823
1228.66	220.767
1232.97	164.007
1237.29	161.286
1241.6	173.174
1245.91	217.176
1250.21	258.584
1254.52	160.706
1258.82	260.34
1263.12	217.832
1267.41	232.908
1271.71	112.312
1276	116.418
1280.29	180.44
1284.58	146.068
1288.87	104.409
1293.15	41.6621
1297.43	1.37598
1301.71	112.006
1305.98	30.7136
1310.26	58.7263
1314.53	120.559
1318.8	13.7212
1323.07	87.6216
1327.33	63.7146
1331.6	39.6475
1335.86	41.3293
1340.11	18.6003
1344.37	51.8389
1348.62	54.7871
1352.88	7.43506
1357.12	125.882
1361.37	95.2835
1365.62	57.658
1369.86	35.9922
1374.1	34.3643
1378.34	34.6599
1382.57	116.892
1386.81	104.842
1391.04	80.6763
1395.27	99.3765
1399.49	67.9575
1403.72	94.3469
1407.94	96.593
1412.16	143.732
1416.38	62.8049
1420.6	171.724
1424.81	184.369
1429.02	59.9209
1433.23	94.4946
1437.44	132.751
1441.64	136.722
1445.85	128.416
1450.05	109.625
1454.25	202.856
1458.44	177.941
1462.64	123.382
1466.83	94.217
1471.02	156.972
1475.21	84.1665
1479.39	156.223
1483.58	85.3745
1487.76	52.9622
1491.93	148.457
1496.11	132.896
1500.29	166.352
1504.46	72.8403
1508.63	102.993
1512.8	63.1567
1516.96	114.177
1521.13	125.737
1525.29	112.585
1529.45	68.417
1533.61	73.9163
1537.76	64.7356
1541.92	103.819
1546.07	63.8997
1550.22	66.9089
1554.36	166.639
1558.51	121.221
1562.65	1.03906
1566.79	143.043
1570.93	67.4429
1575.07	19.5913
