Measurement: Raman, 514 nm, ccw, Raman Data Processed
Mineral: Sphalerite
Rruff sample: R060005
Ideal chemistry: Zn^2+^S^2-^
Locality: Trinacria mine, Lake Poopo, Oruro, Bolivia
Source: University of Arizona Mineral Museum
Description: Steel gray crystal associated with franckeite R050431
Measured chemistry: Zn_0.82_Fe_0.18_S
Pin_id: M01404
Orientation: Laser parallel to c* (0 0 1). Fiducial mark perpendicular to laser is parallel to a [1 0 0]
Raman shift (cm-1)	intensity
96.897	0
101.848	1409.96
106.795	4251.97
111.74	1106.12
116.682	2400.8
121.622	710.129
126.558	85.1699
131.492	319.367
136.423	536.037
141.352	888.486
146.277	1031.44
151.2	1303.4
156.121	1774.12
161.038	1948.04
165.953	2035.45
170.865	2034.27
175.774	1753.55
180.681	1531.26
185.585	1291.79
190.486	1073.79
195.384	612.826
200.28	472.365
205.173	104.199
210.063	152.016
214.95	23.5605
219.835	55.7207
224.717	59.0781
229.597	55.2012
234.473	145.81
239.347	164.688
244.218	301.164
249.087	861.301
253.953	2405.28
258.816	2283.8
263.676	1917.52
268.534	2529.66
273.389	3351.3
278.241	4585.48
283.091	6789.74
287.938	10104.6
292.782	14756.8
297.623	17885.7
302.462	18101.4
307.298	17381.5
312.131	17856.5
316.962	20336.6
321.79	21962.9
326.615	20097.2
331.438	15830.5
336.258	12311
341.075	9658.31
345.889	8611.27
350.701	8233.04
355.51	7042.84
360.317	5060.26
365.12	3705.22
369.921	2744.08
374.72	2005.23
379.515	1603.62
384.309	1222.32
389.099	1084.12
393.886	742.586
398.671	508.143
403.454	609.096
408.233	343.465
413.01	452.504
417.785	430.672
422.556	405.816
427.325	380.537
432.091	209.829
436.855	107.704
441.616	94.1475
446.374	130.203
451.13	45.9629
455.883	22.2705
460.633	0.193359
465.38	30.499
470.125	68.749
474.868	21.5723
479.607	197.722
484.344	67.8447
489.078	10.1445
493.81	305.785
498.539	239.286
503.265	355.929
507.989	272.627
512.71	489.175
517.428	396.821
522.144	432.759
526.857	571.086
531.567	495.079
536.275	387.572
540.98	468.534
545.683	524.114
550.383	760.575
555.08	849.123
559.774	838.234
564.466	891.586
569.155	999.371
573.842	788.019
578.526	850.197
583.207	648.767
587.886	655.144
592.562	515.399
597.235	575.922
601.906	661.003
606.574	703.6
611.24	928.049
615.903	778.555
620.563	873.379
625.221	839.183
629.876	1042.36
634.528	997.202
639.178	819.514
643.825	740.777
648.47	884.82
653.112	691.946
657.751	778.159
662.388	774.96
667.022	699.031
671.653	524.864
676.282	597.902
680.908	570.918
685.532	560.995
690.153	373.312
694.771	477.885
699.387	270.273
704	235.62
708.61	71.5703
713.218	125.239
717.824	31.3691
722.426	139.869
727.026	163.092
731.624	290.168
736.219	102.395
740.811	53.9082
745.401	59.4004
749.988	45.6494
754.572	15.6465
759.154	83.3613
763.734	69.5088
768.31	55.918
772.884	84.1426
777.456	144.795
782.025	123.053
786.591	76.5234
791.155	85.8496
795.716	70.4414
800.275	126.895
804.831	85.875
809.384	136.2
813.935	27.0166
818.483	4.58984
823.029	50.1992
827.572	53.4746
832.112	78.7373
836.65	209.505
841.186	48.376
845.718	106.63
850.249	135.345
854.776	123.867
859.301	234.048
863.824	52.4893
868.344	58.667
872.861	278.239
877.376	91.4111
881.888	129.97
886.397	170.561
890.904	30.7686
895.409	295.598
899.911	123.355
904.41	245.364
908.907	179.026
913.401	153.846
917.893	335.862
922.382	314.579
926.869	287.453
931.353	302.716
935.834	221.492
940.313	246.893
944.789	148.015
949.263	213.247
953.734	359.357
958.203	227.202
962.669	272.627
967.133	261.721
971.594	392.024
976.052	353.498
980.508	284.606
984.961	364.617
989.412	206.452
993.861	229.172
998.306	373.993
1002.75	383.58
1007.19	427.935
1011.63	270.349
1016.06	272.538
1020.5	421.971
1024.93	421.522
1029.36	297.057
1033.78	208.451
1038.2	308.231
1042.62	270.815
1047.04	256.57
1051.46	497.499
1055.87	287.978
1060.28	342.336
1064.69	554.709
1069.09	376.28
1073.5	479.389
1077.9	546.292
1082.29	427.44
1086.69	423.041
1091.08	495.553
1095.47	476.606
1099.86	300.834
1104.24	384.536
1108.63	439.909
1113.01	335.214
1117.38	256.183
1121.76	261.272
1126.13	393.319
1130.5	352.233
1134.87	263.597
1139.23	284.088
1143.6	175.824
1147.96	206.525
1152.32	103.309
1156.67	233.165
1161.02	166.092
1165.37	255.082
1169.72	179.289
1174.07	112.797
1178.41	133.93
1182.75	197.973
1187.08	54.1982
1191.42	97.459
1195.75	67.7998
1200.08	69.0283
1204.41	6.89062
1208.73	146.147
1213.06	72.6143
1217.38	107.881
1221.69	128.322
1226.01	46.5986
1230.32	168.804
1234.63	1.50488
1238.94	89.3906
1243.24	30.0986
1247.55	152.947
1251.85	96.0781
1256.14	125.325
1260.44	89.4482
1264.73	159.523
1269.02	29.4404
1273.31	45.5801
1277.6	132.317
1281.88	145.961
1286.16	92.5098
1290.44	230.448
1294.71	285.902
1298.98	101.821
1303.26	71.9336
1307.52	212.938
1311.79	169.364
1316.05	106.046
1320.31	44.7422
1324.57	80.0449
1328.83	246.237
1333.08	199.419
1337.33	244.405
1341.58	151.885
1345.82	291.302
1350.07	167.489
1354.31	145.828
1358.55	122.045
1362.78	0.055664
1367.02	46.3076
1371.25	150.245
1375.48	149.701
1379.7	225.269
1383.92	148.556
1388.15	182.617
1392.37	58.1572
1396.58	11.1328
1400.8	228.446
1405.01	215.008
1409.22	168.483
1413.42	180.768
1417.63	206.973
1421.83	6.88867
1426.03	157.046
1430.22	191.685
1434.42	6.27051
1438.61	163.928
1442.8	137.066
1446.99	132.289
1451.17	49.8789
1455.35	255.107
1459.53	229.623
1463.71	69.7598
1467.89	148.52
1472.06	446.225
1476.23	38.835
1480.4	265.745
1484.56	131.77
1488.72	59.9473
1492.88	129.671
1497.04	55.5273
1501.2	16.7041
1505.35	72.208
1509.5	25.248
1513.65	121.35
1517.8	64.5234
1521.94	167.846
1526.08	23.1982
1530.22	168.961
1534.36	6.69238
1538.49	116.926
1542.62	152.252
1546.75	129.762
1550.88	15.3965
1555	151.9
1559.12	190.846
1563.24	66.2676
1567.36	187.87
1571.47	180.088
1575.58	292.433
