Measurement: Raman, 514 nm, depolarized, Raman Data Processed
Mineral: Sphalerite
Rruff sample: R050140
Ideal chemistry: Zn^2+^S^2-^
Locality: Big Four mine, Summit County, Colorado, USA
Source: Dave Bunk Minerals
Description: Group of dark green tetrahedra
Measured chemistry: Zn_1.00_S_1.00_
Pin_id: L00183
Orientation: Laser parallel to -a* (-1 0 0). Fiducial mark perpendicular to laser is parallel to b [0 1 0]
Raman shift (cm-1)	intensity
49.365	0
53.566	131.907
57.765	445.824
61.962	680.079
66.157	830.766
70.349	503.95
74.54	686.373
78.729	698.463
82.916	445.848
87.101	308.709
91.284	59.6
95.465	18.071
99.644	21.678
103.82	29.634
107.995	50.303
112.168	160.181
116.339	484.318
120.508	488.732
124.675	692.563
128.84	904.901
133.003	1214.16
137.164	1766.33
141.323	2528.18
145.48	3055.57
149.635	3224.76
153.788	3293.43
157.939	3518.68
162.088	3760.44
166.235	4024.05
170.38	4388.97
174.523	5133.09
178.664	5789.02
182.803	5407.25
186.94	4458.23
191.076	3973.83
195.209	3741.47
199.34	3503.1
203.47	3534.68
207.597	3746.19
211.722	4709.62
215.846	6521.14
219.967	7729.44
224.087	6053.54
228.204	4447.84
232.32	3870.18
236.434	3786.72
240.545	3031.56
244.655	1560.67
248.763	839.104
252.869	490.87
256.973	323.928
261.075	200.185
265.175	145.036
269.273	23.317
273.369	40.059
277.463	24.653
281.556	46.801
285.646	28.229
289.734	67.857
293.821	307.166
297.905	823.386
301.988	1159.63
306.069	843.158
310.147	666.908
314.224	461.203
318.299	320.427
322.372	273.213
326.443	621.377
330.512	1311.07
334.579	2133.1
338.645	2818.85
342.708	5222.35
346.769	19824.5
350.829	58198.2
354.887	30151.3
358.942	10214.4
362.996	5904.35
367.048	4774.28
371.098	4287.41
375.146	4212.66
379.192	4139.56
383.236	3943.07
387.279	4102.26
391.319	4221.39
395.358	4525.47
399.394	4446.73
403.429	3865.63
407.462	3316.01
411.493	3032.79
415.522	2928.26
419.549	3334.94
423.575	3634.12
427.598	3516.67
431.619	3134.47
435.639	2509.61
439.657	2138.04
443.673	2202
447.687	2334.16
451.699	2359.5
455.709	1651.48
459.717	469.033
463.724	118.496
467.728	0.834
471.731	40.025
475.732	4.831
479.731	26.535
483.728	11.602
487.723	1.947
491.716	47.163
495.708	44.253
499.697	56.228
503.685	84.087
507.671	107.336
511.655	175.483
515.637	281.03
519.617	332.476
523.596	254.819
527.572	169.06
531.547	57.198
535.52	18.796
539.491	65.035
543.46	25.62
547.427	23.492
551.393	17.371
555.356	13.047
559.318	36.58
563.278	81.996
567.236	93.305
571.192	194.603
575.147	188.822
579.099	262.98
583.05	341.366
586.999	403.766
590.946	500.006
594.891	619.286
598.834	803.034
602.776	1138.88
606.715	1563.1
610.653	1828.29
614.589	2016.1
618.523	2097.77
622.456	1190.66
626.386	617.734
630.315	530.93
634.242	767.046
638.167	1334.38
642.09	1345.58
646.012	882.414
649.931	401.089
653.849	574.542
657.765	974.01
661.679	1698.08
665.592	3008.15
669.502	4596.55
673.411	4322.72
677.318	3082.08
681.223	2497.49
685.126	2156.08
689.028	1914.57
692.927	1702.96
696.825	1424.19
700.721	854.131
704.616	453.341
708.508	292.048
712.399	191.508
716.288	159.696
720.175	134.351
724.06	89.329
727.944	84.216
731.825	77.311
735.705	39.114
739.584	23.584
743.46	35.054
747.334	37.314
751.207	24.463
755.078	24.495
758.947	37.363
762.815	22.177
766.68	6.234
770.544	34.188
774.406	16.504
778.267	6.673
782.125	16.736
785.982	2.805
789.837	2.791
793.69	2.726
797.542	19.532
801.391	1.751
805.239	19.883
809.085	10.456
812.93	0.085
816.772	25.492
820.613	14.322
824.452	6.653
828.29	50.301
832.125	13.233
835.959	7.498
839.791	6.205
843.621	8.847
847.45	1.844
851.277	9.747
855.102	2.357
858.925	1.081
862.746	29.536
866.566	15.049
870.384	20.415
874.2	0.641
878.015	31.869
881.828	6.898
885.639	29.841
889.448	37.718
893.256	19.978
897.061	27.231
900.865	50.464
904.668	33.487
908.468	38.103
912.267	33.527
916.064	58.45
919.86	67.711
923.653	53.44
927.445	41.308
931.236	71.715
935.024	60.065
938.811	64.252
942.596	47.154
946.379	52.739
950.161	60.9
953.94	37.207
957.719	39.747
961.495	5.096
965.27	18.989
969.043	0.428
972.814	50.056
976.583	36.263
980.351	3.097
984.117	16.687
987.882	30.255
991.644	10.517
995.405	14.026
999.165	29.642
1002.92	21.316
1006.68	8.769
1010.43	17.455
1014.18	3.436
1017.93	36.98
1021.68	37.451
1025.43	20.358
1029.18	27.578
1032.92	22.919
1036.66	17.169
1040.4	32.536
1044.14	24.927
1047.88	20.213
1051.62	27.732
1055.35	38.024
1059.08	32.356
1062.81	35.857
1066.54	18.18
1070.27	41.436
1073.99	23.698
1077.72	23.818
1081.44	30.028
1085.16	26.175
1088.88	3.212
1092.59	2.526
1096.31	37.501
1100.02	27.569
1103.73	2.841
1107.44	32.837
1111.15	22.374
1114.86	11.166
1118.57	21.725
1122.27	49.139
1125.97	45.095
1129.67	58.721
1133.37	47.351
1137.07	29.598
1140.76	21.024
1144.45	10.674
1148.15	5.776
1151.84	25.847
1155.53	41.275
1159.21	5.176
1162.9	9.492
1166.58	11.784
1170.26	17.899
1173.94	21.785
1177.62	4.842
1181.3	23.476
1184.97	2.538
1188.65	39.437
1192.32	28.477
1195.99	29.947
1199.66	21.463
1203.33	16.477
1206.99	1.879
1210.65	9.254
1214.32	17.855
1217.98	31.451
1221.64	37.854
1225.29	29.556
1228.95	25.683
1232.6	31.826
1236.26	10.742
1239.91	51.689
1243.56	35.573
1247.2	30.354
1250.85	34.829
1254.49	28.392
1258.13	45.061
1261.78	40.41
1265.41	10.774
1269.05	2.812
1272.69	50.249
1276.32	52.419
1279.95	42.513
1283.59	10.571
1287.21	25.52
1290.84	41.269
1294.47	23.724
1298.09	21.282
1301.72	26.728
1305.34	17.021
1308.96	47.852
1312.58	53.943
1316.19	41.992
1319.81	14.664
1323.42	14.512
1327.03	64.271
1330.64	7.777
1334.25	10.525
1337.86	39.724
1341.46	11.987
1345.07	5.987
1348.67	50.944
1352.27	75.769
1355.87	2.419
1359.46	49.061
1363.06	17.702
1366.65	0.792
1370.25	26.263
1373.84	22.035
1377.43	30.44
1381.02	29.454
1384.6	26.304
1388.18	64.656
1391.77	50.366
1395.35	38.793
1398.93	7.945
1402.51	28.124
1406.08	8.038
1409.66	3.839
1413.23	47.669
1416.8	66.641
1420.37	69.007
1423.94	41.625
1427.51	57.357
1431.08	83.634
1434.64	10.871
1438.2	25.134
1441.76	74.2
1445.32	33.69
1448.88	58.096
1452.43	85
1455.99	71.289
1459.54	62.302
1463.09	93.605
1466.64	73.623
1470.19	70.7
1473.74	44.801
1477.28	36.138
1480.83	38.945
1484.37	34.702
1487.91	40.548
1491.45	44.699
1494.98	6.942
1498.52	38.977
1502.05	36.763
1505.59	61.568
1509.12	3.145
1512.65	6.944
1516.17	59.592
1519.7	0
