Measurement: Raman, 514 nm, depolarized, Raman Data Processed
Mineral: Sphalerite
Rruff sample: R060005
Ideal chemistry: Zn^2+^S^2-^
Locality: Trinacria mine, Lake Poopo, Oruro, Bolivia
Source: University of Arizona Mineral Museum
Description: Steel gray crystal associated with franckeite R050431
Measured chemistry: Zn_0.82_Fe_0.18_S
Pin_id: M01404
Orientation: Laser parallel to c* (0 0 1). Fiducial mark perpendicular to laser is parallel to a [1 0 0]
Raman shift (cm-1)	intensity
98.135	0
103.085	2807.76
108.032	2845.39
112.976	943.135
117.917	2404.27
122.856	327.762
127.792	85.0352
132.725	418.865
137.656	673.658
142.583	825.727
147.508	988.926
152.431	1133.79
157.35	1684.76
162.267	2037.83
167.181	2262.32
172.092	2296.51
177.001	1711.53
181.907	1409.3
186.81	1144.81
191.711	830.512
196.608	739.402
201.503	439.82
206.395	117.07
211.285	25.4355
216.172	77.1562
221.056	123.289
225.937	172.973
230.816	27.8223
235.692	214.727
240.565	334.928
245.436	753.652
250.304	1284.22
255.169	2979.95
260.031	2244.65
264.891	2490.61
269.748	3158.73
274.602	3961.71
279.454	5362.62
284.303	7565.95
289.149	11322.4
293.992	15441
298.833	17842.4
303.671	17437
308.507	17579.2
313.339	19127.2
318.169	21996.1
322.996	22721.5
327.821	19269
332.643	15079.1
337.462	11956.4
342.279	9363.63
347.092	8272.69
351.904	7558.43
356.712	6378.21
361.518	4747.35
366.321	3453.68
371.121	2788.03
375.919	2251.18
380.714	1628.62
385.506	1290.2
390.296	892.37
395.083	720.995
399.867	705.235
404.649	594.902
409.428	585.023
414.204	312.594
418.978	411.735
423.749	379.665
428.517	245.603
433.282	242.9
438.045	271.582
442.806	47.8008
447.563	147.682
452.318	42.876
457.07	96.9131
461.82	96.3496
466.567	10.501
471.311	33.8662
476.053	53.0459
480.792	2.58789
485.528	138.976
490.262	200.069
494.992	268.615
499.721	193.998
504.446	211.727
509.169	345.863
513.89	275.059
518.607	259.866
523.322	501.529
528.035	417.841
532.745	487.64
537.452	503.887
542.156	578.077
546.858	510.312
551.557	605.175
556.254	666.551
560.947	771.702
565.639	975.557
570.327	921.065
575.013	1021.12
579.697	763.95
584.377	615.979
589.055	665.174
593.731	552.479
598.403	566.918
603.074	558.223
607.741	797.808
612.406	832.55
617.068	782.491
621.728	734.364
626.385	858.575
631.039	952.491
635.691	840.823
640.34	849.952
644.987	813.979
649.63	691.223
654.272	809.019
658.91	961.725
663.546	768.764
668.18	711.356
672.81	671.317
677.439	535.358
682.064	532.975
686.687	618.801
691.307	399.634
695.925	311.404
700.54	312.522
705.153	78.8438
709.763	96.0732
714.37	14.7334
718.974	150.955
723.577	41.1162
728.176	215.141
732.773	9.23633
737.367	115.793
741.959	15.498
746.548	5.80859
751.134	105.474
755.718	32.4522
760.299	15.1182
764.878	43.3672
769.454	164.869
774.028	80.9482
778.598	1.77344
783.167	89.9346
787.732	118.199
792.295	31.9307
796.856	116.433
801.414	28.3135
805.969	54.6943
810.522	82.3193
815.072	77.0469
819.62	192.936
824.165	7.5166
828.707	93.6025
833.247	64.3047
837.784	39.1094
842.319	85.8037
846.851	24.376
851.381	1.22363
855.908	37.2471
860.432	50.5859
864.954	121.989
869.473	178.529
873.99	161.885
878.504	121.954
883.015	186.815
887.524	174.372
892.031	193.815
896.535	266.519
901.036	283.881
905.535	182.925
910.031	214.099
914.524	213.299
919.015	312.866
923.504	123.795
927.99	284.679
932.473	171.897
936.954	307.925
941.432	252.116
945.908	263.575
950.381	261.317
954.852	452.279
959.32	306.713
963.785	247.817
968.248	335.079
972.708	396.751
977.166	332.409
981.622	302.949
986.074	166.606
990.525	348.219
994.972	411.078
999.417	98.3506
1003.86	408.891
1008.3	233.904
1012.74	191.222
1017.17	256.51
1021.61	194.483
1026.04	171.498
1030.46	199.049
1034.89	348.128
1039.31	367.588
1043.73	422.733
1048.15	343.69
1052.56	615.07
1056.97	511.361
1061.38	438.787
1065.79	287.989
1070.19	404.786
1074.6	458.734
1079	312.833
1083.39	482.168
1087.79	418.028
1092.18	354.746
1096.57	447.373
1100.96	472.348
1105.34	280.303
1109.72	327.1
1114.1	245.579
1118.48	334.072
1122.85	432.835
1127.22	266.754
1131.6	267.139
1135.96	386.346
1140.33	168.635
1144.69	187.935
1149.05	227.69
1153.4	175.781
1157.76	158.402
1162.11	50.0732
1166.46	104.478
1170.81	1.22949
1175.15	65.8203
1179.49	157.409
1183.83	5.58594
1188.17	83.21
1192.5	50.8477
1196.84	203.542
1201.16	33.8662
1205.49	48.1904
1209.82	89.5127
1214.14	53.8359
1218.46	63.1377
1222.77	11.3955
1227.09	114.731
1231.4	39.1289
1235.71	93.8799
1240.02	162.222
1244.32	24.8047
1248.62	94.6377
1252.92	153.766
1257.22	68.46
1261.51	15.2617
1265.81	57.2588
1270.1	161.424
1274.38	8.46484
1278.67	28.4199
1282.95	105.086
1287.23	143.702
1291.51	175.236
1295.78	132.993
1300.05	103.029
1304.32	141.938
1308.59	63.2275
1312.86	143.292
1317.12	122.892
1321.38	10.5635
1325.63	138.906
1329.89	177.453
1334.14	226.466
1338.39	30.4121
1342.64	240.705
1346.88	96.8721
1351.13	152.933
1355.37	158.571
1359.61	10.6475
1363.84	12.6748
1368.07	189.804
1372.3	237.297
1376.53	183.508
1380.76	31.8496
1384.98	134.874
1389.2	19.2627
1393.42	46.3887
1397.64	27.1943
1401.85	162.73
1406.06	206.115
1410.27	46.0088
1414.47	168.814
1418.68	19.3525
1422.88	119.553
1427.08	46.5264
1431.27	185.682
1435.47	218.742
1439.66	169.255
1443.85	205.31
1448.03	38.1094
1452.22	198.345
1456.4	27.1523
1460.58	241.617
1464.76	60.0576
1468.93	238.307
1473.1	94.8633
1477.27	57.4209
1481.44	204.027
1485.6	19.5537
1489.77	134.576
1493.92	222.884
1498.08	30.5186
1502.24	57.2041
1506.39	227.113
1510.54	86.2334
1514.69	4.31641
1518.83	232.047
1522.97	97.7822
1527.12	49.8603
1531.25	14.6924
1535.39	136.52
1539.52	92.2031
1543.65	112.856
1547.78	221.263
1551.91	234.042
1556.03	264.91
1560.15	149.655
1564.27	156.298
1568.39	218.459
1572.5	265.925
1576.61	195.474
