Measurement: Raman, 514 nm, depolarized, Raman Data Processed
Mineral: Sphalerite
Rruff sample: R050005
Ideal chemistry: Zn^2+^S^2-^
Locality: Taolin mine, Yueyang, Linxing, Hunan Province, China
Source: Eugene Schlepp
Description: Reddish brown crystals
Measured chemistry: (Zn_.997_Fe_.003_)S
Pin_id: L00184
Orientation: Laser parallel to -a* (-1 0 0). Fiducial mark perpendicular to laser is parallel to -b [0 -1 0]
Raman shift (cm-1)	intensity
86.461	0
90.65	57.787
94.838	186.283
99.023	28.188
103.206	32.489
107.387	170.431
111.566	341.617
115.744	395.022
119.919	350.458
124.092	472.14
128.263	689.725
132.432	1317.13
136.599	2066.66
140.764	2895.45
144.927	3270.59
149.088	3593.08
153.247	3787.37
157.404	3867.66
161.559	4567.06
165.711	4985.74
169.862	5423.38
174.011	6762.59
178.158	7619.82
182.303	6216.36
186.446	5073.51
190.587	4441.21
194.726	4364.49
198.862	3812.3
202.997	3943.08
207.13	4964.04
211.261	6827.59
215.39	9081.19
219.517	8564.61
223.642	6467.69
227.765	4900.4
231.886	4681.88
236.005	4275.42
240.122	2144.12
244.237	681.684
248.35	59.929
252.461	0.953
256.57	192.369
260.677	289.081
264.782	172.271
268.885	1273.58
272.986	1970.65
277.085	1307.95
281.182	952.307
285.278	1061.65
289.371	1463.91
293.462	2813.07
297.552	5366.49
301.639	5418.76
305.724	3744.4
309.808	2623.94
313.889	1886.65
317.969	962.484
322.046	1082.08
326.122	3126.85
330.196	7164.04
334.267	9520.14
338.337	8322.99
342.405	9834.35
346.471	33713.8
350.535	44752.1
354.597	12858.8
358.657	6905.09
362.715	6871.16
366.771	6538.32
370.825	5524.17
374.877	5463.35
378.928	5543.46
382.976	5765.96
387.023	5438.7
391.067	5496.76
395.11	6156.26
399.15	5853.28
403.189	4850.73
407.226	4001.61
411.261	4031.19
415.294	4653.98
419.325	5199.37
423.354	4774.76
427.381	4572.08
431.406	3996.01
435.43	3047.55
439.451	2834.68
443.471	3042.4
447.488	3435.7
451.504	2879.57
455.518	934.017
459.53	126.038
463.54	11.534
467.548	65.797
471.554	136.191
475.558	112.66
479.561	15.882
483.561	39.582
487.559	37.46
491.556	34.82
495.551	137.543
499.544	162.762
503.535	203.488
507.524	211.741
511.511	380.592
515.496	558.05
519.48	538.12
523.461	311.797
527.441	136.061
531.418	64.884
535.394	42.22
539.368	15.008
543.34	62.896
547.311	0.541
551.279	101.408
555.245	122.734
559.21	100.619
563.173	179.067
567.133	316.096
571.092	424.732
575.049	484.12
579.005	521.655
582.958	660.573
586.909	830.53
590.859	1042.21
594.807	1302.63
598.753	1590.97
602.697	2168.05
606.639	2851.87
610.579	3210.88
614.518	3274
618.454	2848.56
622.389	1698.73
626.322	1701.82
630.253	2033.87
634.182	2547.55
638.109	2909.08
642.035	2514.68
645.958	1737.49
649.88	1552.68
653.8	1851.58
657.718	2767.45
661.634	4667.95
665.549	7184.55
669.461	7474.89
673.372	5497.12
677.281	4459.59
681.188	4086.61
685.093	3719.93
688.997	3294.59
692.898	2700.64
696.798	2047.66
700.696	1406.83
704.592	1023
708.486	747.787
712.378	504.052
716.269	413.262
720.158	416.983
724.045	387.528
727.93	320.419
731.813	193.525
735.694	168.422
739.574	187.309
743.452	193.009
747.328	132.548
751.202	69.768
755.075	45.818
758.945	33.841
762.814	138.553
766.681	75.11
770.546	41.508
774.409	47.276
778.271	45.823
782.131	64.02
785.989	103.398
789.845	19.932
793.699	12.559
797.552	8.739
801.402	43.052
805.251	56.543
809.098	57.044
812.944	24.427
816.787	2.269
820.629	62.061
824.469	48.952
828.307	67.845
832.144	34.624
835.978	8.709
839.811	45.109
843.642	8.372
847.472	12.793
851.299	45.21
855.125	1.697
858.949	16.79
862.771	5.709
866.591	29.165
870.41	46.543
874.227	46.835
878.042	22.047
881.855	33.804
885.667	0.773
889.476	115.196
893.284	143.062
897.09	140.801
900.895	92.412
904.698	80.656
908.499	87.73
912.298	149.685
916.095	213.931
919.891	169
923.685	209.611
927.477	167.322
931.267	186.156
935.056	229.54
938.843	295.851
942.628	243.082
946.411	255.366
950.193	233.436
953.973	263.215
957.751	300.46
961.527	364.726
965.302	331.499
969.075	275.629
972.846	300.002
976.615	315.247
980.383	392.078
984.149	469.399
987.913	378.372
991.675	393.655
995.436	342.592
999.195	322.585
1002.95	352.827
1006.71	455.779
1010.46	452.566
1014.21	403.142
1017.96	352.261
1021.71	334.441
1025.46	327.247
1029.2	316.215
1032.95	407.539
1036.69	366.454
1040.43	294.399
1044.17	492.749
1047.9	189.214
1051.64	203.139
1055.37	200.347
1059.1	240.483
1062.83	225.431
1066.56	199.364
1070.29	149.619
1074.01	101.801
1077.73	86.74
1081.46	157.448
1085.17	177.397
1088.89	98.922
1092.61	160.344
1096.32	73.93
1100.04	39.345
1103.75	91.942
1107.46	51.169
1111.16	127.329
1114.87	113.31
1118.57	95.394
1122.28	206.53
1125.98	29.494
1129.67	14.427
1133.37	53.188
1137.07	42.045
1140.76	98.853
1144.45	98.418
1148.14	58.917
1151.83	41.319
1155.52	16.281
1159.21	3.042
1162.89	49.209
1166.57	59.449
1170.25	101.455
1173.93	47.407
1177.61	20.281
1181.28	72.071
1184.96	27.197
1188.63	53.402
1192.3	42.903
1195.97	64.259
1199.64	95.461
1203.3	100.522
1206.97	43.491
1210.63	4.572
1214.29	5.189
1217.95	22.847
1221.6	108.407
1225.26	70.868
1228.91	126.229
1232.57	111.621
1236.21	84.758
1239.86	38.898
1243.51	31.977
1247.16	32.907
1250.8	88.963
1254.44	118.566
1258.08	118.542
1261.72	129.872
1265.36	119.544
1268.99	96.026
1272.63	73.574
1276.26	109.709
1279.89	71.033
1283.52	133.064
1287.15	180.976
1290.77	230.256
1294.4	196.79
1298.02	212.696
1301.64	145.895
1305.26	75.711
1308.88	61.781
1312.49	106.298
1316.11	218.531
1319.72	229.708
1323.33	245.689
1326.94	268.725
1330.55	194.092
1334.15	167.876
1337.76	144.059
1341.36	115.022
1344.96	109.254
1348.56	122.155
1352.16	170.67
1355.75	178.451
1359.35	222.899
1362.94	195.229
1366.53	213.46
1370.12	121.359
1373.71	42.644
1377.3	82.277
1380.88	51.635
1384.46	83.061
1388.05	119.545
1391.63	93.126
1395.2	182.45
1398.78	169.834
1402.36	100.168
1405.93	102.27
1409.5	89.572
1413.07	16.706
1416.64	57.552
1420.21	43.703
1423.78	29.202
1427.34	104.864
1430.9	123.978
1434.46	209.279
1438.02	154.669
1441.58	177.032
1445.13	128.608
1448.69	98.043
1452.24	94.748
1455.79	56.485
1459.34	47.302
1462.89	114.524
1466.44	78.46
1469.98	114.422
1473.53	147.356
1477.07	118.414
1480.61	169.705
1484.14	138.631
1487.68	88.076
1491.22	47.67
1494.75	3.439
1498.28	4.762
1501.81	20.763
1505.34	94.877
1508.87	85.3
1512.4	137.564
1515.92	151.144
1519.44	196.644
