Measurement: Raman, 514 nm, ccw, Raman Data Processed
Mineral: Sphalerite
Rruff sample: R060636
Ideal chemistry: Zn^2+^S^2-^
Locality: unknown
Source: Gemological Institute of America
Description: Light yellow-green cleavage fragment
Measured chemistry: Zn_1.00_S_1.00_
Pin_id: L01425
Orientation: Laser parallel to a* (1 0 0). Fiducial mark perpendicular to laser is parallel to -c [0 0 -1]
Raman shift (cm-1)	intensity
61.448	0
65.178	984.106
68.907	716.076
72.634	41.563
76.36	26.4658
80.084	88.7808
83.806	457.398
87.527	615.457
91.246	848.315
94.964	976.065
98.68	1330.62
102.394	1921.1
106.107	2205.89
109.819	2050.06
113.529	2393
117.237	2661.95
120.944	2582.03
124.649	2616.25
128.352	3343.38
132.054	3985.41
135.755	4948.07
139.454	5762.83
143.151	6250.64
146.847	6645.95
150.541	6893.1
154.234	7005.18
157.925	7266.24
161.615	7678.31
165.303	8100.39
168.989	8927.89
172.674	9703.94
176.357	10153.4
180.039	10033.4
183.719	8570.2
187.398	7432.95
191.075	7039.37
194.751	6903.02
198.425	6909.84
202.097	7012.57
205.768	7938.71
209.438	9393.93
213.106	11531.9
216.772	12752.3
220.437	11207
224.1	8774.61
227.762	7315.48
231.422	6417.96
235.08	5658.76
238.737	4504.69
242.393	2296.59
246.047	1186.35
249.699	494.92
253.35	298.324
256.999	148.411
260.647	276.288
264.293	26.7002
267.938	210.436
271.581	217.38
275.223	42.4434
278.863	94.1582
282.502	111.998
286.139	331.167
289.774	79.7363
293.408	345.481
297.041	509.494
300.671	636.263
304.301	422.745
307.929	484.867
311.555	109.553
315.18	71.585
318.803	60.5039
322.425	400.236
326.045	970.352
329.664	2404.06
333.281	5310.26
336.896	12133.4
340.51	31250.2
344.123	72348.2
347.734	136380
351.343	120316
354.951	46290.9
358.558	19791.8
362.163	12574.5
365.766	10391.2
369.368	9227.09
372.968	8347.92
376.567	7938.97
380.164	7768.57
383.76	7627.12
387.355	8016.32
390.947	8096.95
394.539	8445.99
398.128	8042.18
401.716	7086.51
405.303	6241.58
408.888	5714.43
412.472	5866.77
416.054	6821.6
419.635	7108.27
423.214	6857.98
426.792	6189.96
430.368	5428.11
433.942	4495.14
437.515	3919.82
441.087	3896.67
444.657	4204.35
448.225	3980.47
451.792	3406.67
455.358	1832.35
458.922	584.938
462.485	267.6
466.046	80.8721
469.605	73.0264
473.163	27.1133
476.72	97.0147
480.275	8.6543
483.828	163.047
487.38	91.4102
490.931	174.316
494.48	238.397
498.027	240.344
501.573	278.631
505.117	258.986
508.66	491.324
512.202	528.883
515.742	813.525
519.28	811.894
522.817	547.65
526.353	328.299
529.887	166.789
533.419	112.947
536.95	3.40234
540.48	17.0684
544.008	10.2363
547.534	59.6289
551.06	164.992
554.583	100.58
558.105	11.248
561.626	33.9082
565.145	240.627
568.662	323.664
572.178	558.621
575.693	775.75
579.206	672.627
582.718	865.426
586.228	872.019
589.737	1031.88
593.244	1309.99
596.75	1867.13
600.254	2289.14
603.757	2764.16
607.258	3168.98
610.758	3713.39
614.256	3739.11
617.753	3050.52
621.248	1908.08
624.742	1328.13
628.234	1230.43
631.725	1908.35
635.214	2517.41
638.702	2749.69
642.189	2495.1
645.674	1287.02
649.157	1291.61
652.639	1606.7
656.12	2259.04
659.599	3281.9
663.077	5387.56
666.553	7490.59
670.027	8012.67
673.5	6007.38
676.972	4646.81
680.442	4036.9
683.911	3642.33
687.379	3272.43
690.844	2813.18
694.309	2186.32
697.772	1500.51
701.233	1052.07
704.693	614.062
708.151	401.723
711.609	79.4141
715.064	105.656
718.518	53.0781
721.971	38.2891
725.422	147.156
728.872	5.58594
732.32	4.60938
735.767	60.5469
739.212	147.578
742.656	88.5625
746.098	307.106
749.539	231.191
752.979	78.2812
756.417	321.375
759.853	382.481
763.288	365.668
766.722	163.269
770.154	101.664
773.585	26.5898
777.014	376.688
780.442	56.2305
783.869	42.4062
787.294	416.555
790.717	3.67188
794.139	9.70312
797.56	167.801
800.979	445.863
804.396	522.856
807.813	22.3125
811.227	320.188
814.641	333.164
818.053	425.75
821.463	544.215
824.872	825.211
828.279	570.723
831.686	452.356
835.09	378.598
838.493	877.988
841.895	296.812
845.295	729.656
848.694	680.012
852.092	777.578
855.488	448.711
858.882	676.406
862.275	745.711
865.667	775.797
869.057	828.602
872.446	757.188
875.833	570.281
879.219	700.164
882.604	320.344
885.987	897.594
889.368	812.062
892.749	475.727
896.127	514.383
899.505	348.953
902.88	552.828
906.255	626.984
909.628	866.75
912.999	990.656
916.369	537.477
919.738	623.383
923.105	923.297
926.471	542.484
929.836	702.195
933.199	777.172
936.56	405.789
939.92	445.078
943.279	601.602
946.636	506.094
949.992	450.43
953.346	746.094
956.699	752.555
960.051	704.789
963.401	565.453
966.75	629.141
970.097	580.164
973.443	188.539
976.787	538.406
980.13	790.125
983.472	778.031
986.812	908.172
990.151	512.172
993.488	269.086
996.824	463.148
1000.16	790.484
1003.49	768.742
1006.82	1067.23
1010.15	325.68
1013.48	542.07
1016.81	498.922
1020.14	514.078
1023.46	278.078
1026.78	206.375
1030.11	617.922
1033.43	182.844
1036.74	324.625
1040.06	119.391
1043.38	120.219
1046.69	47.5156
1050.01	207.344
1053.32	122.656
1056.63	133.453
1059.94	284.422
1063.24	207.938
1066.55	10.6562
1069.86	568.641
1073.16	1251.02
1076.46	664.156
1079.76	846.859
1083.06	1182.66
1086.36	970.141
1089.66	816.578
1092.95	982.141
1096.24	1084.98
1099.54	1379.12
1102.83	1474.2
1106.12	1149.8
1109.4	1260.84
1112.69	522.062
1115.98	836.266
1119.26	916.109
1122.54	1133.44
1125.82	480.266
1129.1	290.891
1132.38	681.016
1135.66	1132.75
1138.93	1066
1142.21	1024.69
1145.48	258.438
1148.75	838.516
1152.02	1166.31
1155.29	827.688
1158.56	1192.66
1161.82	851.844
1165.09	780.734
1168.35	988.625
1171.61	490.125
1174.87	591.594
1178.13	888.203
1181.39	546.453
1184.64	757.266
1187.9	939.734
1191.15	126.453
1194.4	382.609
1197.65	399.719
1200.9	685.891
1204.15	464.828
1207.4	185.703
1210.64	309.641
1213.88	596.125
1217.13	338.938
1220.37	264.078
1223.61	782.875
1226.85	967.438
1230.08	1529.25
1233.32	1002.47
1236.55	52.7812
1239.78	214.594
1243.01	256.781
1246.24	241.156
1249.47	304.156
1252.7	1711.38
1255.92	1182.53
1259.15	1011.44
1262.37	1438.81
1265.59	959.562
1268.81	979.188
1272.03	1185.5
1275.25	1344.5
1278.46	750.625
1281.68	1775
1284.89	1900.12
1288.1	1632.94
1291.31	1317.91
1294.52	1293.69
1297.73	1306.91
1300.94	812.438
1304.14	1488.69
1307.35	625.906
1310.55	283.281
1313.75	353.062
1316.95	1276.22
1320.15	668.875
1323.34	282
1326.54	333.844
1329.73	859.156
1332.92	1086.5
1336.12	299.781
1339.31	431.125
1342.49	699.281
1345.68	675.219
1348.87	435.125
1352.05	457.031
1355.23	487.156
1358.42	365.438
1361.6	84.0938
1364.78	948.844
1367.95	224.312
1371.13	807.344
1374.31	747
1377.48	303
1380.65	27.0312
1383.82	123.5
1386.99	681.438
1390.16	45.9062
1393.33	1431
1396.49	614.625
1399.66	525.781
