Measurement: Raman, 514 nm, ccw, Raman Data Processed
Mineral: Sphalerite
Rruff sample: R060636
Ideal chemistry: Zn^2+^S^2-^
Locality: unknown
Source: Gemological Institute of America
Description: Light yellow-green cleavage fragment
Measured chemistry: Zn_1.00_S_1.00_
Pin_id: L01425
Orientation: Laser parallel to a* (1 0 0). Fiducial mark perpendicular to laser is parallel to -c [0 0 -1]
Raman shift (cm-1)	intensity
61.448	0
65.178	1753.07
68.907	3307.2
72.634	1084.85
76.36	1840.08
80.084	46.6465
83.806	21.5127
87.527	90.2886
91.246	124.732
94.964	262.601
98.68	932.632
102.394	2205.55
106.107	2778.82
109.819	4282.98
113.529	7051.07
117.237	6750.15
120.944	3057.06
124.649	2592.82
128.352	3160.65
132.054	3948.82
135.755	5178
139.454	6273.27
143.151	7047.41
146.847	7379.12
150.541	7795.74
154.234	8059.45
157.925	8525.32
161.615	9036.41
165.303	9676.26
168.989	10631.6
172.674	11361.2
176.357	12339.8
180.039	11818.6
183.719	10034.2
187.398	8914.17
191.075	8537.87
194.751	8328.98
198.425	8153.63
202.097	8663.13
205.768	9734.84
209.438	11562.3
213.106	14351
216.772	15351.5
220.437	13368
224.1	10327.3
227.762	8700.14
231.422	7827.9
235.08	6969.69
238.737	5344.36
242.393	2860.66
246.047	1466.42
249.699	990.589
253.35	540.245
256.999	330.159
260.647	377.29
264.293	215.546
267.938	293.696
271.581	324.528
275.223	193.911
278.863	2.28613
282.502	49.2812
286.139	147.23
289.774	112.832
293.408	408.05
297.041	547.509
300.671	401.177
304.301	68
307.929	80.8613
311.555	255.428
315.18	375.769
318.803	188.688
322.425	94.0859
326.045	646.971
329.664	1260.7
333.281	1984.23
336.896	3625.41
340.51	8011.47
344.123	14812.2
347.734	24039.5
351.343	20316.4
354.951	9596.95
358.558	6271.47
362.163	5731.51
365.766	5866.77
369.368	6124.24
372.968	6306.66
376.567	6359.23
380.164	6591.7
383.76	6743.81
387.355	7138.36
390.947	7434.65
394.539	8056.11
398.128	7854.19
401.716	6839.78
405.303	5839.47
408.888	5376.5
412.472	5352.5
416.054	5716.92
419.635	6201.12
423.214	6464.23
426.792	6292.15
430.368	5595.23
433.942	4929.58
437.515	4486.87
441.087	4540.93
444.657	4701.97
448.225	4780.59
451.792	3908.12
455.358	2210.24
458.922	745.154
462.485	316.018
466.046	194.909
469.605	19.2227
473.163	101.012
476.72	289.754
480.275	224.248
483.828	263.881
487.38	255.18
490.931	151.969
494.48	66.4648
498.027	163.881
501.573	380.232
505.117	423.51
508.66	618.301
512.202	476.26
515.742	1010.83
519.28	867.578
522.817	684.008
526.353	461.406
529.887	368.613
533.419	82.4766
536.95	57.7279
540.48	41.7129
544.008	22.9531
547.534	26.8203
551.06	183.373
554.583	155.875
558.105	167.637
561.626	317.062
565.145	129.414
568.662	408.816
572.178	664.469
575.693	641.328
579.206	677.984
582.718	1051.82
586.228	902.332
589.737	1350.06
593.244	1519.66
596.75	2207.88
600.254	2643.79
603.757	3341.82
607.258	3929.83
610.758	4121.6
614.256	4336.41
617.753	3729.6
621.248	2226.1
624.742	1605.88
628.234	1224.34
631.725	1915
635.214	2259.68
638.702	2504.49
642.189	1957.92
645.674	1326.68
649.157	1128
652.639	1470.44
656.12	2435.74
659.599	4178.1
663.077	6391.24
666.553	8664.4
670.027	9094.69
673.5	7055.6
676.972	5372.41
680.442	4670.04
683.911	3953.92
687.379	3793.78
690.844	3382.77
694.309	2384.39
697.772	1876.28
701.233	896.762
704.693	567.481
708.151	440.613
711.609	159.285
715.064	119.941
718.518	72.4258
721.971	127.289
725.422	229.488
728.872	224.793
732.32	123.285
735.767	178.926
739.212	231.109
742.656	204.5
746.098	80.4062
749.539	512.633
752.979	419.496
756.417	119.719
759.853	242.371
763.288	149.211
766.722	7.05859
770.154	241.555
773.585	163.168
777.014	222.277
780.442	296.32
783.869	393.09
787.294	63.8906
790.717	305.555
794.139	336.879
797.56	518.398
800.979	70.2461
804.396	269.094
807.813	256.125
811.227	386.051
814.641	533.328
818.053	457.062
821.463	411.125
824.872	373.227
828.279	431.977
831.686	467.832
835.09	651.496
838.493	620.016
841.895	709.203
845.295	866.766
848.694	498.852
852.092	657.219
855.488	680.781
858.882	380.734
862.275	112.078
865.667	550.484
869.057	613.148
872.446	781.617
875.833	545.828
879.219	634.992
882.604	696.93
885.987	452.82
889.368	595.961
892.749	678.859
896.127	392.273
899.505	595.586
902.88	386.438
906.255	493
909.628	658.117
912.999	761.273
916.369	469.164
919.738	836.453
923.105	119.414
926.471	708.867
929.836	456.031
933.199	219.438
936.56	610.414
939.92	606.422
943.279	484.836
946.636	413.258
949.992	537.07
953.346	532.781
956.699	830.711
960.051	610.664
963.401	349.883
966.75	165.688
970.097	872.867
973.443	377.938
976.787	221.75
980.13	506.648
983.472	177.461
986.812	344.133
990.151	604.57
993.488	650.594
996.824	449.258
1000.16	802.022
1003.49	489.589
1006.82	647.952
1010.15	503.062
1013.48	428.798
1016.81	576.259
1020.14	323.359
1023.46	673.871
1026.78	620.611
1030.11	662.125
1033.43	314.977
1036.74	431.177
1040.06	-51.4327
1043.38	110.516
1046.69	68.8281
1050.01	335.391
1053.32	319.531
1056.63	76.9062
1059.94	314.609
1063.24	414.438
1066.55	303.297
1069.86	288.016
1073.16	182.047
1076.46	70.0625
1079.76	803.734
1083.06	887.031
1086.36	1182.38
1089.66	890.875
1092.95	503.219
1096.24	992.219
1099.54	1455.22
1102.83	838.406
1106.12	780.453
1109.4	783.391
1112.69	581.875
1115.98	1453.77
1119.26	1168.05
1122.54	1651.59
1125.82	1404.48
1129.1	1088.48
1132.38	692.297
1135.66	840.469
1138.93	866.188
1142.21	1144.45
1145.48	1257.94
1148.75	648.5
1152.02	567.828
1155.29	402.781
1158.56	1303.72
1161.82	1653.88
1165.09	885.266
1168.35	933.547
1171.61	907.078
1174.87	1584.61
1178.13	1020.02
1181.39	1092.2
1184.64	187.969
1187.9	860.391
1191.15	482.594
1194.4	372.109
1197.65	716.781
1200.9	815.25
1204.15	838.766
1207.4	348.125
1210.64	805.297
1213.88	1351.12
1217.13	745.906
1220.37	114.5
1223.61	319.188
1226.85	1288.47
1230.08	1054.5
1233.32	637.406
1236.55	682.312
1239.78	724.812
1243.01	644.625
1246.24	1234.34
1249.47	625.969
1252.7	817.094
1255.92	811.875
1259.15	852.281
1262.37	823.781
1265.59	580.25
1268.81	975.406
1272.03	1425.81
1275.25	1414.06
1278.46	669.969
1281.68	1463.72
1284.89	1992.66
1288.1	1115.22
1291.31	387.906
1294.52	550.594
1297.73	770.406
1300.94	2132.25
1304.14	1619.47
1307.35	904.656
1310.55	559.5
1313.75	1.46875
1316.95	949.438
1320.15	355.688
1323.34	8.75
1326.54	151.406
1329.73	376.406
1332.92	555.469
1336.12	869.938
1339.31	920.125
1342.49	1804.72
1345.68	759.812
1348.87	1327.16
1352.05	460.875
1355.23	14.375
1358.42	1053.41
1361.6	484.031
1364.78	577.75
1367.95	167.188
1371.13	1712.62
1374.31	202.625
1377.48	450
1380.65	744.969
1383.82	978
1386.99	1153.62
1390.16	1013.25
1393.33	619.062
1396.49	736.562
1399.66	249.844
