Measurement: Raman, 514 nm, ccw, Raman Data Processed
Mineral: Sphalerite
Rruff sample: R060005
Ideal chemistry: Zn^2+^S^2-^
Locality: Trinacria mine, Lake Poopo, Oruro, Bolivia
Source: University of Arizona Mineral Museum
Description: Steel gray crystal associated with franckeite R050431
Measured chemistry: Zn_0.82_Fe_0.18_S
Pin_id: M01404
Orientation: Laser parallel to c* (0 0 1). Fiducial mark perpendicular to laser is parallel to a [1 0 0]
Raman shift (cm-1)	intensity
97.441	0
102.394	3017.91
107.345	2431.87
112.292	922.4
117.237	1514.61
122.179	456.082
127.118	130.9
132.054	250.022
136.988	739.777
141.919	731.924
146.847	1323.05
151.772	1342.51
156.695	2085.1
161.615	2298.86
166.532	2333.31
171.446	2275.85
176.357	2060.1
181.266	1432.92
186.172	1128.46
191.075	887.621
195.976	676.473
200.873	356.984
205.768	35.6895
210.661	121.596
215.55	50.7285
220.437	76.7969
225.321	78.9648
230.202	89.9961
235.08	83.8262
239.956	182.002
244.829	497.422
249.699	1125.9
254.567	2838.14
259.431	1970.86
264.293	2042.14
269.153	2864.45
274.009	3760.17
278.863	5110.01
283.714	7890.25
288.563	11778.2
293.408	16632.2
298.251	19055
303.091	18681.7
307.929	18002.1
312.763	18755.5
317.595	21913.3
322.425	23240.5
327.251	19731.6
332.075	15483.2
336.896	11913.8
341.715	9456.16
346.53	8321.55
351.343	7718.92
356.154	6329.64
360.961	4703.7
365.766	3235.3
370.568	2466.88
375.368	1831.04
380.164	1323.4
384.959	1316.72
389.75	1009.37
394.539	723.782
399.325	578.236
404.108	463.574
408.888	543.461
413.666	420.906
418.441	447.067
423.214	250.982
427.984	265.479
432.751	282.579
437.515	253.277
442.277	113.66
447.036	119.746
451.792	97.6221
456.546	56.3545
461.297	35.8467
466.046	15.0185
470.791	103.088
475.534	34.8643
480.275	53.8926
485.012	28.7949
489.747	189.347
494.48	74.1807
499.209	228.044
503.936	316.315
508.66	345.68
513.382	344.685
518.101	392.37
522.817	512.08
527.531	628.85
532.242	456.181
536.95	454.915
541.656	433.053
546.359	639.864
551.06	676.664
555.757	822.785
560.452	728.77
565.145	761.105
569.835	884.688
574.522	905.96
579.206	953.104
583.888	777.696
588.567	664.102
593.244	588.08
597.918	853.212
602.589	793.929
607.258	860.325
611.924	951.236
616.587	894.023
621.248	1070.75
625.906	970.362
630.562	989.52
635.214	1024.42
639.865	1055.09
644.512	906.495
649.157	996.798
653.8	970.319
658.439	874.116
663.077	884.885
667.711	923.08
672.343	846.338
676.972	716.473
681.599	449.38
686.223	557.486
690.844	517.59
695.463	477.254
700.079	274.172
704.693	235.341
709.304	281.641
713.912	50.3926
718.518	243.93
723.121	22.4287
727.722	171.756
732.32	56.7715
736.915	214.968
741.508	195.177
746.098	164.892
750.686	151.417
755.271	13.96
759.853	162.099
764.433	271.034
769.01	21.3984
773.585	103.71
778.157	49.5869
782.727	136.509
787.294	116.064
791.858	55.2246
796.42	111.963
800.979	86.7393
805.535	30.1377
810.089	69.8672
814.641	76.4209
819.19	50.583
823.736	17.3633
828.279	134.749
832.821	24.4404
837.359	70.6758
841.895	3.54981
846.429	94.2773
850.959	104.455
855.488	22.2998
860.013	43.8086
864.537	269.33
869.057	15.0479
873.575	107.123
878.091	159.899
882.604	131.198
887.114	147.37
891.622	216.27
896.127	24.9922
900.63	161.815
905.13	228.032
909.628	217.565
914.123	266.379
918.615	149.901
923.105	165.585
927.593	312.56
932.078	263.072
936.56	374.938
941.04	282.333
945.517	340.91
949.992	232.975
954.464	281.731
958.934	179.94
963.401	74.4228
967.866	265.958
972.328	285.457
976.787	143.725
981.244	230.639
985.699	318.199
990.151	317.61
994.6	277.519
999.047	353.736
1003.49	262.586
1007.93	184.701
1012.37	256.279
1016.81	154.101
1021.24	397.985
1025.68	234.872
1030.11	360.046
1034.53	215.096
1038.96	212.61
1043.38	278.326
1047.8	294.222
1052.21	284.913
1056.63	356.788
1061.04	373.308
1065.45	460.898
1069.86	412.449
1074.26	554.658
1078.66	409.534
1083.06	471.592
1087.46	527.191
1091.85	280.252
1096.24	435.583
1100.63	363.768
1105.02	351.242
1109.4	305.83
1113.79	462.326
1118.17	310.67
1122.54	289.192
1126.92	182.933
1131.29	195.386
1135.66	161.688
1140.03	200.892
1144.39	227.281
1148.75	187.675
1153.11	296.138
1157.47	24.668
1161.82	27.7393
1166.17	63.8838
1170.52	179.558
1174.87	49.3008
1179.22	53.0859
1183.56	234.904
1187.9	16.3496
1192.23	128.78
1196.57	95.8184
1200.9	28.4355
1205.23	20.4355
1209.56	138.97
1213.88	78.6152
1218.21	43.8867
1222.53	104.517
1226.85	163.5
1231.16	54.6992
1235.47	201.09
1239.78	81.7295
1244.09	137.865
1248.4	117.625
1252.7	130.836
1257	107.227
1261.3	56.5342
1265.59	157.246
1269.88	149.927
1274.18	171.847
1278.46	263.33
1282.75	174.805
1287.03	244.727
1291.31	219.798
1295.59	126.645
1299.87	222.516
1304.14	242.389
1308.41	157.978
1312.68	31.8027
1316.95	233.273
1321.21	217.286
1325.47	52.9512
1329.73	13.5928
1333.99	51.6328
1338.24	24.8916
1342.49	263.84
1346.74	56.0391
1350.99	141.88
1355.23	29.6416
1359.48	194.237
1363.72	146.158
1367.95	96.5498
1372.19	203.785
1376.42	218.899
1380.65	228.612
1384.88	305.424
1389.1	57.6816
1393.33	226.067
1397.55	149.667
1401.77	186.108
1405.98	32.5293
1410.19	223.496
1414.4	18.7256
1418.61	210.855
1422.82	132.895
1427.02	123.888
1431.22	17.9551
1435.42	144.826
1439.62	226.084
1443.81	184.967
1448	291.638
1452.19	251.852
1456.38	141.305
1460.57	212.629
1464.75	212.118
1468.93	283.942
1473.1	139.785
1477.28	110.472
1481.45	30.7041
1485.62	222.825
1489.79	230.841
1493.95	298.776
1498.12	301.074
1502.28	31.6611
1506.44	157.551
1510.59	285.734
1514.74	52.2949
1518.9	178.734
1523.05	65.7998
1527.19	153.284
1531.34	207.742
1535.48	9.56055
1539.62	67.5137
1543.75	9.27734
1547.89	47.7529
1552.02	286.502
1556.15	308.794
1560.28	380.964
1564.4	0.539063
1568.52	117.421
1572.64	102.088
1576.76	207.403
