Measurement: Raman, 514 nm, ccw, Raman Data Processed
Mineral: Sphalerite
Rruff sample: R060636
Ideal chemistry: Zn^2+^S^2-^
Locality: unknown
Source: Gemological Institute of America
Description: Light yellow-green cleavage fragment
Measured chemistry: Zn_1.00_S_1.00_
Pin_id: L01425
Orientation: Laser parallel to a* (1 0 0). Fiducial mark perpendicular to laser is parallel to -c [0 0 -1]
Raman shift (cm-1)	intensity
61.448	0
65.178	145.104
68.907	361.523
72.634	17.1223
76.36	131.192
80.084	388.099
83.806	771.48
87.527	1009.6
91.246	1312.45
94.964	1416.46
98.68	1672.11
102.394	2178.47
106.107	2485.22
109.819	2501.99
113.529	2644.94
117.237	3006.08
120.944	3344.41
124.649	3594.9
128.352	4381.21
132.054	5093.75
135.755	6428.39
139.454	7540.89
143.151	8510.62
146.847	8844.28
150.541	9207.23
154.234	9639.72
157.925	9918.61
161.615	10323.2
165.303	11178.5
168.989	12117.4
172.674	13199.8
176.357	13957.6
180.039	13576.6
183.719	11743.6
187.398	10518.3
191.075	9801.56
194.751	9487.39
198.425	9368.44
202.097	9591.36
205.768	10653
209.438	12837.3
213.106	15597.1
216.772	17371.4
220.437	15053.2
224.1	11982
227.762	9888.13
231.422	8682.98
235.08	7942.16
238.737	6368.42
242.393	3478.57
246.047	2064.47
249.699	1226.19
253.35	896.764
256.999	555.035
260.647	493.972
264.293	394.221
267.938	324.654
271.581	460.271
275.223	316.789
278.863	2.97168
282.502	160.189
286.139	183.978
289.774	31.3438
293.408	254.751
297.041	647.34
300.671	429.394
304.301	149.858
307.929	46.3721
311.555	234.699
315.18	341.258
318.803	181.612
322.425	44.6523
326.045	333.484
329.664	928.393
333.281	1594.86
336.896	3128.91
340.51	6892.61
344.123	13707.7
347.734	22480
351.343	20030.8
354.951	9989.22
358.558	6435.35
362.163	5804.18
365.766	5781.41
369.368	6237.74
372.968	6512.66
376.567	6515.56
380.164	6803.35
383.76	7094.84
387.355	7489.02
390.947	7777.01
394.539	8153.78
398.128	8235.22
401.716	7044.71
405.303	6178.02
408.888	5595.63
412.472	5357.89
416.054	5795.72
419.635	6481.4
423.214	6708.65
426.792	6493.86
430.368	5922.97
433.942	5239.2
437.515	4675.19
441.087	4696.05
444.657	4894.03
448.225	5211.49
451.792	4314.32
455.358	2452.81
458.922	905.634
462.485	393.565
466.046	54.3574
469.605	101.279
473.163	80.7695
476.72	106.775
480.275	156.779
483.828	182.135
487.38	315.107
490.931	280.922
494.48	387.769
498.027	345.943
501.573	570
505.117	379.94
508.66	621.391
512.202	700.746
515.742	754.389
519.28	910.484
522.817	558.732
526.353	389.584
529.887	138.848
533.419	178.232
536.95	158.754
540.48	103.461
544.008	145.033
547.534	80.9863
551.06	325.543
554.583	19.6133
558.105	239.465
561.626	260.562
565.145	306.422
568.662	145.383
572.178	413.065
575.693	505.725
579.206	619.715
582.718	880.275
586.228	946.896
589.737	1496
593.244	1641.32
596.75	2116.17
600.254	2876.23
603.757	3690.65
607.258	4321.28
610.758	4582.92
614.256	4697.75
617.753	3928.41
621.248	2485.19
624.742	1138.32
628.234	1562.7
631.725	1912.96
635.214	2504.55
638.702	2498.85
642.189	2109.84
645.674	1594.87
649.157	867.266
652.639	1336.37
656.12	2493.28
659.599	4407.23
663.077	6678.37
666.553	9180.21
670.027	10196
673.5	7534.43
676.972	6160.57
680.442	5090.82
683.911	4681.2
687.379	4104.47
690.844	3376.41
694.309	2917.21
697.772	2058.77
701.233	1302.47
704.693	742.273
708.151	370.266
711.609	283.957
715.064	51.7734
718.518	71.0586
721.971	189.793
725.422	23.7109
728.872	132.484
732.32	230.496
735.767	247.295
739.212	266.523
742.656	89.2773
746.098	118.231
749.539	294.207
752.979	305.836
756.417	427.731
759.853	344.715
763.288	469.801
766.722	364.125
770.154	217.664
773.585	405.144
777.014	293.199
780.442	129.543
783.869	188.945
787.294	141.125
790.717	57.6445
794.139	340.273
797.56	259.449
800.979	29.6289
804.396	74.6016
807.813	331.941
811.227	78.7305
814.641	437.125
818.053	377.992
821.463	185.84
824.872	747.039
828.279	800.289
831.686	618.508
835.09	426.008
838.493	519.094
841.895	472.094
845.295	299.102
848.694	594.477
852.092	908.117
855.488	801.703
858.882	607.18
862.275	683.742
865.667	503.711
869.057	701.227
872.446	499.305
875.833	752.203
879.219	677.875
882.604	746.156
885.987	530.859
889.368	834.492
892.749	227.008
896.127	518.422
899.505	432.352
902.88	344.258
906.255	940.992
909.628	776.227
912.999	430.992
916.369	561.734
919.738	538.055
923.105	845.109
926.471	619.445
929.836	736.328
933.199	723.203
936.56	714.43
939.92	371.898
943.279	535.672
946.636	714.445
949.992	248.273
953.346	553.086
956.699	737.195
960.051	815.281
963.401	283.102
966.75	426.938
970.097	493.172
973.443	275.266
976.787	494.922
980.13	427.898
983.472	381.609
986.812	440.18
990.151	616.188
993.488	372.578
996.824	938.367
1000.16	681.203
1003.49	767.016
1006.82	1073.56
1010.15	977.438
1013.48	208.328
1016.81	761.312
1020.14	188
1023.46	32.0625
1026.78	20.1562
1030.11	34.4844
1033.43	20.2344
1036.74	132.188
1040.06	198.203
1043.38	407.047
1046.69	378.625
1050.01	28.4219
1053.32	348.047
1056.63	435.812
1059.94	333.797
1063.24	107.766
1066.55	232.625
1069.86	460.203
1073.16	244.375
1076.46	6.92188
1079.76	168.109
1083.06	1002.62
1086.36	1178.91
1089.66	686.219
1092.95	985.906
1096.24	628.797
1099.54	908.016
1102.83	1181.42
1106.12	970.828
1109.4	1498.8
1112.69	358.562
1115.98	484
1119.26	425.188
1122.54	826.859
1125.82	1030.12
1129.1	1293.61
1132.38	666.906
1135.66	731.344
1138.93	940.766
1142.21	135.578
1145.48	867.516
1148.75	1837.77
1152.02	785.797
1155.29	1582.03
1158.56	832.797
1161.82	1321.81
1165.09	940.891
1168.35	609.906
1171.61	1073.22
1174.87	850.25
1178.13	1009.22
1181.39	1364.73
1184.64	739.516
1187.9	1222.44
1191.15	395.531
1194.4	978.594
1197.65	370.469
1200.9	556.5
1204.15	838.75
1207.4	1286.34
1210.64	1502.72
1213.88	1346.09
1217.13	1573.72
1220.37	605.531
1223.61	823.469
1226.85	721.031
1230.08	1070.78
1233.32	1045
1236.55	1444.56
1239.78	1089.5
1243.01	999.281
1246.24	1211.38
1249.47	1028.88
1252.7	991.25
1255.92	417.844
1259.15	944.25
1262.37	1084.94
1265.59	664.438
1268.81	846.875
1272.03	1191.34
1275.25	2316.53
1278.46	293.719
1281.68	1759.25
1284.89	265.625
1288.1	438.531
1291.31	1665.06
1294.52	1418.84
1297.73	332.375
1300.94	1300.69
1304.14	898.25
1307.35	291.375
1310.55	381.188
1313.75	697.656
1316.95	30.9688
1320.15	264.719
1323.34	15.6562
1326.54	82.7812
1329.73	460.875
1332.92	109.281
1336.12	93.4375
1339.31	177.188
1342.49	991.469
1345.68	1179.66
1348.87	739.25
1352.05	572
1355.23	52.0625
1358.42	583.188
1361.6	147.656
1364.78	784.125
1367.95	325.719
1371.13	199.75
