Measurement: Raman, 514 nm, depolarized, Raman Data Processed
Mineral: Sphalerite
Rruff sample: R050237
Ideal chemistry: Zn^2+^S^2-^
Locality: Picos de Europa, Spain
Source: Marcus Origlieri
Description: Green single crystal
Measured chemistry: Zn_1.00_S_1.00_
Pin_id: L00430
Orientation: Laser parallel to a* (1 0 0). Fiducial mark perpendicular to laser is parallel to b [0 1 0]
Raman shift (cm-1)	intensity
96.161	0
100.34	310.326
104.516	836.801
108.691	1.502
112.864	18.018
117.034	1648.86
121.203	1682.32
125.369	1573.2
129.534	2509.49
133.696	4756.04
137.857	8422.28
142.016	10960.6
146.172	11670.8
150.327	12480.6
154.48	13406.7
158.63	14200.6
162.779	15419.6
166.926	17158.8
171.07	19718.9
175.213	23872.6
179.354	24587.4
183.493	18980.4
187.63	16212.8
191.765	15301.3
195.898	14240.5
200.029	13835.7
204.158	14449.2
208.285	18081.1
212.41	25659.2
216.533	33340.8
220.654	28300.5
224.773	19967.7
228.891	15696.1
233.006	15191.7
237.119	13559.7
241.231	6086.69
245.34	1933.13
249.448	417.14
253.553	376.769
257.657	437.965
261.758	254.489
265.858	1934.63
269.956	6422.39
274.052	9130.11
278.146	5662.76
282.237	3045.58
286.327	1996.96
290.416	2455.44
294.502	4614.68
298.586	7303.42
302.668	5357.83
306.749	3237.25
310.827	1957.21
314.903	874.858
318.978	51.258
323.051	1519.58
327.121	4415.44
331.19	7271.65
335.257	8311.76
339.322	10963.2
343.385	20128.3
347.446	43410.6
351.505	36733.8
355.563	14713.1
359.618	11688.4
363.672	12377.8
367.723	13663
371.773	15214.8
375.821	16239.9
379.866	15289.9
383.91	15315.6
387.952	16169.9
391.992	17517
396.031	18855.2
400.067	18240.4
404.101	14743.1
408.134	12211.9
412.165	11752.1
416.193	13876.6
420.22	16387.6
424.245	15616
428.268	15078
432.289	12439.8
436.309	9794.18
440.326	9423.33
444.342	10321
448.355	10980.2
452.367	9824.9
456.377	3422.99
460.385	447.465
464.391	326.869
468.395	387.523
472.398	469.208
476.398	215.075
480.397	207.736
484.394	38.239
488.389	21.438
492.382	120.306
496.373	240.895
500.362	389.476
504.349	474.093
508.335	868.797
512.319	1361.69
516.3	1866.77
520.28	1949.99
524.259	1356.33
528.235	776.775
532.209	407.271
536.182	143.744
540.152	89.88
544.121	11.562
548.088	95.624
552.053	302.261
556.017	349.689
559.978	597.962
563.938	793.167
567.895	917.355
571.851	1181.57
575.805	1472.93
579.758	1728.32
583.708	2129.51
587.657	2535.48
591.603	3106.69
595.548	3816.65
599.491	5034.03
603.432	6848.83
607.372	9008.02
611.309	10028.8
615.245	11305.2
619.179	9062.03
623.111	4707.52
627.041	3616.63
630.97	4362.53
634.896	8075.55
638.821	9220.51
642.744	7880.5
646.665	3826.3
650.584	2671.73
654.502	4027.47
658.418	6592.82
662.331	11209.7
666.244	19394.1
670.154	25379.3
674.062	17915.2
677.969	13858.9
681.874	12168.7
685.777	11135.4
689.678	10478.6
693.577	8719.99
697.475	6580.42
701.371	3579.68
705.265	2170.31
709.157	1566.86
713.047	1350.22
716.936	1040.99
720.823	794.328
724.708	676.991
728.591	598.919
732.472	359.668
736.352	367.64
740.23	293.397
744.106	265.98
747.98	169.512
751.853	149.913
755.723	184.714
759.592	33.612
763.459	66.812
767.325	1.613
771.188	123.319
775.05	66.585
778.91	52.577
782.768	40.891
786.625	20.281
790.479	6.088
794.332	27.589
798.183	0.937
802.033	18.405
805.88	66.998
809.726	18.915
813.57	87.333
817.413	20.696
821.253	34.256
825.092	50.409
828.929	27.115
832.764	23.312
836.598	11.977
840.429	85.91
844.259	28.619
848.088	30.444
851.914	29.313
855.739	8.989
859.562	6.415
863.383	55.022
867.203	73.333
871.02	15.392
874.836	131.156
878.65	8.623
882.463	74.805
886.274	55.464
890.083	186.632
893.89	65.789
897.695	112.12
901.499	185.68
905.301	121.571
909.102	334.022
912.9	305.017
916.697	315.146
920.492	235.951
924.285	354.787
928.077	244.408
931.867	278.929
935.655	397.985
939.442	318.235
943.226	317.883
947.009	387.087
950.791	243.838
954.57	234.111
958.348	269.898
962.124	277.667
965.899	228.977
969.671	230.437
973.442	220.278
977.211	340.486
980.979	262.923
984.745	241.622
988.509	368.183
992.271	348.515
996.032	484.256
999.791	480.647
1003.55	512.828
1007.3	506.039
1011.06	544.856
1014.81	575.106
1018.56	513.948
1022.31	525.11
1026.06	533.125
1029.8	461.405
1033.55	620.348
1037.29	646.137
1041.03	656.821
1044.77	529.122
1048.5	537.396
1052.24	615.298
1055.97	413.033
1059.7	450.903
1063.43	475.84
1067.16	471.136
1070.89	446.284
1074.61	488.709
1078.34	488.56
1082.06	373.603
1085.78	262.175
1089.5	381.138
1093.21	217.168
1096.93	120.332
1100.64	271.933
1104.35	224.348
1108.06	234.272
1111.77	231.078
1115.48	227.048
1119.18	107.917
1122.89	220.033
1126.59	145.29
1130.29	157.243
1133.99	119.384
1137.68	60.334
1141.38	30.862
1145.07	26.224
1148.76	57.994
1152.45	44.466
1156.14	13.849
1159.83	59.136
1163.51	65.364
1167.19	8.223
1170.88	41.86
1174.56	39.447
1178.23	75.485
1181.91	5.629
1185.59	93.927
1189.26	90.645
1192.93	203.071
1196.6	36.986
1200.27	119.835
1203.94	18.678
1207.6	150.644
1211.27	188.881
1214.93	145.672
1218.59	235.581
1222.25	193.896
1225.9	194.742
1229.56	192.787
1233.21	102.484
1236.86	137.284
1240.51	106.152
1244.16	217.637
1247.81	224.202
1251.45	52.032
1255.1	179.828
1258.74	14.661
1262.38	136.449
1266.02	10.775
1269.66	155.241
1273.29	126.9
1276.93	88.803
1280.56	145.128
1284.19	170.56
1287.82	42.315
1291.45	48.623
1295.07	87.739
1298.7	153.235
1302.32	120.471
1305.94	62.022
1309.56	6.61
1313.18	3.602
1316.8	50.498
1320.41	42.181
1324.02	172.661
1327.63	121.517
1331.24	11.044
1334.85	10.247
1338.46	198.768
1342.06	139.395
1345.67	199.647
1349.27	223.605
1352.87	175.315
1356.47	38.732
1360.07	93.981
1363.66	289.048
1367.25	139.811
1370.85	123.296
1374.44	216.264
1378.03	180.845
1381.61	162.284
1385.2	520.973
1388.78	359.616
1392.37	267.572
1395.95	206.164
1399.53	218.797
1403.1	203.686
1406.68	146.791
1410.26	316.215
1413.83	176.248
1417.4	360.24
1420.97	94.529
1424.54	275.646
1428.1	217.596
1431.67	39.08
1435.23	93.309
1438.8	275.473
1442.36	219.641
1445.91	207.607
1449.47	278.748
1453.03	285.455
1456.58	326.787
1460.13	289.834
1463.68	272.67
1467.23	717.348
1470.78	160.965
1474.33	299.877
1477.87	149.018
1481.42	321.674
1484.96	178.117
1488.5	278.631
1492.04	145.057
1495.57	143.754
1499.11	253.49
1502.64	22.336
1506.17	89.473
1509.71	49.119
1513.23	11.387
