Measurement: Raman, 514 nm, depolarized, Raman Data Processed
Mineral: Sphalerite
Rruff sample: R040136
Ideal chemistry: Zn^2+^S^2-^
Locality: Hilltop mine, Paradise, Cochise County, Arizona, USA
Source: University of Arizona Mineral Museum
Description: Olive green fragments
Measured chemistry: Zn_0.98_S
Pin_id: L00334
Orientation: Laser parallel to -a* (-1 0 0). Fiducial mark perpendicular to laser is parallel to -b [0 -1 0]
Raman shift (cm-1)	intensity
128.84	0
133.003	314.934
137.164	458.281
141.323	757.295
145.48	1138.38
149.635	1575.96
153.788	1068.78
157.939	1083.72
162.088	1803.18
166.235	2128.11
170.38	1903.23
174.523	2717.57
178.664	4413.58
182.803	3326.46
186.94	2146.59
191.076	2478
195.209	2880.06
199.34	2418.29
203.47	2439.51
207.597	3338.88
211.722	4151.06
215.846	5240.81
219.967	6544.15
224.087	5376.78
228.204	3431.39
232.32	2552.56
236.434	3172.54
240.545	2430.88
244.655	655.169
248.763	98.764
252.869	202.491
256.973	60.551
261.075	364.239
265.175	284.552
269.273	222.347
273.369	653.684
277.463	530.217
281.556	328.756
285.646	327.293
289.734	276.019
293.821	497.744
297.905	1852.85
301.988	2738.8
306.069	1358.2
310.147	841.285
314.224	830.376
318.299	397.521
322.372	214.52
326.443	500
330.512	1687.22
334.579	2688.28
338.645	2826.68
342.708	3856.51
346.769	13607.1
350.829	49744.8
354.887	13489.4
358.942	5268.17
362.996	4539.53
367.048	4184.37
371.098	3512.9
375.146	3423.12
379.192	3982.66
383.236	4047.58
387.279	3634.18
391.319	3602.07
395.358	4471.8
399.394	4902.83
403.429	3675.53
407.462	2928.4
411.493	3059.04
415.522	3344.55
419.549	3517.37
423.575	3259.79
427.598	3336.89
431.619	3240.92
435.639	2246.15
439.657	1720.44
443.673	2060.71
447.687	2535.25
451.699	2399.47
455.709	1196.49
459.717	264.898
463.724	205.556
467.728	94.414
471.731	9.902
475.732	9.491
479.731	172.021
483.728	135.961
487.723	39.201
491.716	4.63
495.708	122.835
499.697	193.644
503.685	205.82
507.671	136.421
511.655	226.468
515.637	475.015
519.617	493.121
523.596	300.844
527.572	159.215
531.547	122.228
535.52	111.858
539.491	12.097
543.46	76.039
547.427	27.607
551.393	79.399
555.356	127.946
559.318	8.142
563.278	28.467
567.236	139.41
571.192	316.919
575.147	297.673
579.099	156.229
583.05	228.16
586.999	456.198
590.946	573.117
594.891	601.667
598.834	720.199
602.776	1114.5
606.715	1761.25
610.653	1925.62
614.589	1760.62
618.523	1747.51
622.456	1030.62
626.386	771.632
630.315	791.619
634.242	910.353
638.167	1408.74
642.09	1537.11
646.012	1050.95
649.931	534.487
653.849	501.519
657.765	926.971
661.679	1934.46
665.592	3549.8
669.502	4875.16
673.411	3382.34
677.318	2538.48
681.223	2532.16
685.126	2361.17
689.028	1971.78
692.927	1438.56
696.825	1238.04
700.721	865.122
704.616	609.477
708.508	292.544
712.399	135.907
716.288	75.451
720.175	173.886
724.06	240.029
727.944	156.399
731.825	4.571
735.705	7.737
739.584	86.002
743.46	198.753
747.334	83.687
751.207	59.191
755.078	65.85
758.947	91.454
762.815	164.417
766.68	96.181
770.544	11.872
774.406	11.337
778.267	13.248
782.125	106.824
785.982	127.68
789.837	40.407
793.69	49.962
797.542	46.393
801.391	109.208
805.239	160.778
809.085	119.949
812.93	1.904
816.772	46.864
820.613	19.794
824.452	100.562
828.29	188.19
832.125	116.452
835.959	22.558
839.791	1.297
843.621	125.728
847.45	203.578
851.277	161.292
855.102	46.024
858.925	21.578
862.746	45.102
866.566	104.041
870.384	193.226
874.2	136.343
878.015	59.165
881.828	50.137
885.639	88.293
889.448	195.479
893.256	219.177
897.061	178.394
900.865	121.826
904.668	4.275
908.468	142.777
912.267	183.391
916.064	314.122
919.86	189.338
923.653	57.509
927.445	39.996
931.236	157.705
935.024	203.983
938.811	445.988
942.596	552.468
946.379	57.151
950.161	7.383
953.94	37.546
957.719	230.617
961.495	231.542
965.27	274.174
969.043	90.899
972.814	9.414
976.583	14.853
980.351	118.112
984.117	204.088
987.882	201.095
991.644	237.938
995.405	51.77
999.165	74.296
1002.92	152.785
1006.68	239.582
1010.43	299.264
1014.18	267.231
1017.93	136.737
1021.68	78.923
1025.43	114.797
1029.18	277.467
1032.92	279.125
1036.66	368.779
1040.4	230.504
1044.14	137.466
1047.88	92.327
1051.62	86.107
1055.35	246.596
1059.08	261.879
1062.81	299.641
1066.54	223.585
1070.27	91.925
1073.99	22.021
1077.72	151.142
1081.44	257.422
1085.16	302.27
1088.88	270.466
1092.59	211.448
1096.31	54.555
1100.02	74.793
1103.73	101.092
1107.44	237.143
1111.15	320.257
1114.86	316.901
1118.57	253.437
1122.27	362.709
1125.97	160.079
1129.67	17.668
1133.37	74.432
1137.07	275.166
1140.76	294.315
1144.45	284.919
1148.15	144.912
1151.84	15.052
1155.53	51.992
1159.21	93.069
1162.9	230.933
1166.58	304.782
1170.26	297.756
1173.94	240.548
1177.62	83.839
1181.3	19.908
1184.97	19.329
1188.65	170.355
1192.32	228.935
1195.99	328.175
1199.66	282.464
1203.33	290.495
1206.99	66.954
1210.65	59.375
1214.32	113.464
1217.98	150.227
1221.64	328.888
1225.29	331.827
1228.95	561.781
1232.6	346.688
1236.26	265.491
1239.91	116.801
1243.56	44.616
1247.2	87.911
1250.85	259.71
1254.49	351.901
1258.13	422.905
1261.78	358.448
1265.41	414.882
1269.05	212.644
1272.69	142.508
1276.32	34.653
1279.95	116.312
1283.59	204.07
1287.21	379.069
1290.84	444.878
1294.47	417.742
1298.09	292.616
1301.72	117.279
1305.34	75.997
1308.96	28.768
1312.58	34.206
1316.19	205.141
1319.81	404.284
1323.42	324.104
1327.03	392.564
1330.64	266.859
1334.25	175.075
1337.86	120.642
1341.46	26.175
1345.07	130.69
1348.67	159.334
1352.27	361.382
1355.87	401.718
1359.46	444.144
1363.06	459.552
1366.65	170.225
1370.25	52.102
1373.84	42.906
1377.43	77.097
1381.02	92.867
1384.6	144.073
1388.18	316.588
1391.77	504.936
1395.35	613.378
1398.93	550.813
1402.51	375.588
1406.08	306.939
1409.66	66.603
1413.23	51.565
1416.8	119.25
1420.37	183.331
1423.94	295.395
1427.51	394.532
1431.08	573.215
1434.64	680.083
1438.2	552.729
1441.76	422.77
1445.32	272.312
1448.88	112.571
1452.43	61.488
1455.99	72.737
1459.54	250.516
1463.09	347.142
1466.64	505.288
1470.19	679.444
1473.74	769.408
1477.28	624.969
1480.83	491.882
1484.37	438.156
1487.91	256.074
1491.45	38.558
1494.98	24.961
1498.52	14.778
1502.05	54.027
1505.59	247.201
