Measurement: Raman, 514 nm, depolarized, Raman Data Processed
Mineral: Sphalerite
Rruff sample: R060636
Ideal chemistry: Zn^2+^S^2-^
Locality: unknown
Source: Gemological Institute of America
Description: Light yellow-green cleavage fragment
Measured chemistry: Zn_1.00_S_1.00_
Pin_id: L01425
Orientation: Laser parallel to a* (1 0 0). Fiducial mark perpendicular to laser is parallel to -c [0 0 -1]
Raman shift (cm-1)	intensity
61.448	0
65.178	933.971
68.907	4022.7
72.634	597.726
76.36	402.489
80.084	51.2661
83.806	369.677
87.527	216.817
91.246	488.136
94.964	622.325
98.68	835.701
102.394	1711.34
106.107	2165.04
109.819	2065.56
113.529	2535.13
117.237	3087.67
120.944	2563.02
124.649	2603.63
128.352	3164.37
132.054	3709.36
135.755	5056.53
139.454	6221.56
143.151	7046.31
146.847	7357.46
150.541	7558.27
154.234	7782.56
157.925	8310.41
161.615	8876.9
165.303	9266.88
168.989	10165.5
172.674	11092.3
176.357	11857
180.039	11598.8
183.719	9836.89
187.398	8737.33
191.075	8366.53
194.751	7983.15
198.425	7997.72
202.097	8124.58
205.768	9181.03
209.438	10959.4
213.106	13431.9
216.772	14805.4
220.437	13387.8
224.1	10502.9
227.762	8458.63
231.422	7545.53
235.08	6919.65
238.737	5342.76
242.393	2849.66
246.047	1536.19
249.699	760.24
253.35	497.918
256.999	286.083
260.647	149.589
264.293	216.878
267.938	168.407
271.581	190.227
275.223	61.1934
278.863	109.017
282.502	152.527
286.139	81.791
289.774	59.9053
293.408	224.17
297.041	650.686
300.671	492.633
304.301	237.941
307.929	117.544
311.555	119.68
315.18	119.378
318.803	251.419
322.425	150.068
326.045	859.312
329.664	1953.92
333.281	3599.98
336.896	8050.95
340.51	19596.9
344.123	43741.1
347.734	85700.6
351.343	81013.8
354.951	32494.4
358.558	14810.7
362.163	10216
365.766	8660.14
369.368	8100.64
372.968	7837.53
376.567	7723.82
380.164	7858.9
383.76	7789.67
387.355	8082.79
390.947	8323.22
394.539	8577.26
398.128	8531.55
401.716	7486.45
405.303	6584.64
408.888	5956.99
412.472	5760.94
416.054	6458.34
419.635	7048.26
423.214	7018.55
426.792	6895.43
430.368	5775.43
433.942	4880.62
437.515	4254.28
441.087	4527.01
444.657	4479.91
448.225	4780.21
451.792	3972.96
455.358	2286.63
458.922	869.157
462.485	281.168
466.046	73.1611
469.605	52.9453
473.163	79.0137
476.72	39.9131
480.275	123.148
483.828	319.176
487.38	293.938
490.931	77.5059
494.48	157.514
498.027	136.049
501.573	406.74
505.117	607.387
508.66	495.467
512.202	813.775
515.742	873.752
519.28	909.289
522.817	663.24
526.353	270.955
529.887	206.301
533.419	119.164
536.95	126.731
540.48	34.1172
544.008	62.1016
547.534	82.5352
551.06	179.629
554.583	98.8555
558.105	140.361
561.626	150.35
565.145	153.789
568.662	228.547
572.178	504.449
575.693	628.832
579.206	938.92
582.718	798.893
586.228	928.986
589.737	1153.24
593.244	1557.89
596.75	2176.55
600.254	2581.91
603.757	3254.96
607.258	3882.44
610.758	4196.18
614.256	4195.01
617.753	3939.03
621.248	2331.38
624.742	1558.22
628.234	1173.7
631.725	1969.68
635.214	2567.74
638.702	2806.15
642.189	2424.08
645.674	1505.23
649.157	1261.75
652.639	1395.9
656.12	2373.07
659.599	3782.15
663.077	5795.99
666.553	8570.11
670.027	9280.01
673.5	7236.12
676.972	5696.65
680.442	4766.78
683.911	4279.19
687.379	3900.41
690.844	3333.96
694.309	2715.34
697.772	1864.7
701.233	987.383
704.693	402.051
708.151	514.402
711.609	230.863
715.064	36.8633
718.518	81.043
721.971	186.246
725.422	65.8125
728.872	25.3125
732.32	92.4688
735.767	5.25
739.212	139.438
742.656	333.684
746.098	170
749.539	45.5469
752.979	320.133
756.417	352.168
759.853	217.289
763.288	242.848
766.722	540.555
770.154	170.172
773.585	270.922
777.014	154.168
780.442	319.5
783.869	163.543
787.294	369.801
790.717	334.613
794.139	168.055
797.56	422.844
800.979	9.12891
804.396	17.9922
807.813	120.789
811.227	187.199
814.641	335.059
818.053	621.973
821.463	669.894
824.872	339.516
828.279	630.918
831.686	611.391
835.09	519.094
838.493	820.574
841.895	296.375
845.295	515.234
848.694	502.281
852.092	877.141
855.488	798.633
858.882	780.828
862.275	645.359
865.667	424.016
869.057	364.781
872.446	828.734
875.833	637.867
879.219	492.125
882.604	579.414
885.987	546.781
889.368	450.734
892.749	460.102
896.127	773.109
899.505	706.469
902.88	457.297
906.255	449.688
909.628	762.484
912.999	491.719
916.369	700.758
919.738	815.375
923.105	516.305
926.471	619.438
929.836	485.617
933.199	310.094
936.56	539.164
939.92	230.398
943.279	345.023
946.636	458.844
949.992	727.375
953.346	480.656
956.699	636.18
960.051	633.008
963.401	616.797
966.75	599.094
970.097	608.383
973.443	428.32
976.787	503.828
980.13	829.328
983.472	608.086
986.812	402.648
990.151	325.023
993.488	713.562
996.824	393.297
1000.16	435.828
1003.49	819.336
1006.82	331.117
1010.15	319.164
1013.48	421.586
1016.81	323.633
1020.14	904.797
1023.46	34.5312
1026.78	93.0625
1030.11	502.609
1033.43	394.938
1036.74	308.406
1040.06	449.844
1043.38	32.9688
1046.69	78.3125
1050.01	757.953
1053.32	132.031
1056.63	140.953
1059.94	409.719
1063.24	470.906
1066.55	588.328
1069.86	915.109
1073.16	865.391
1076.46	735.547
1079.76	946.719
1083.06	1247.27
1086.36	548.609
1089.66	535.547
1092.95	860.203
1096.24	768.516
1099.54	1036.75
1102.83	1194.3
1106.12	1044.69
1109.4	1154.84
1112.69	1073.81
1115.98	544.188
1119.26	692.234
1122.54	908.828
1125.82	1180.7
1129.1	811.781
1132.38	543.938
1135.66	1013.06
1138.93	916.234
1142.21	669.484
1145.48	794
1148.75	959.969
1152.02	760.109
1155.29	764.141
1158.56	608.422
1161.82	961.281
1165.09	814.516
1168.35	1475.62
1171.61	1266.67
1174.87	938.188
1178.13	542.328
1181.39	877.562
1184.64	630.547
1187.9	1107.16
1191.15	615.062
1194.4	1064.98
1197.65	743.359
1200.9	1199.53
1204.15	769.688
1207.4	823.297
1210.64	264.844
1213.88	983.156
1217.13	802.188
1220.37	616.406
1223.61	1087.72
1226.85	853.781
1230.08	1399.94
1233.32	973.5
1236.55	815
1239.78	527.125
1243.01	656.312
1246.24	1184.38
1249.47	446.344
1252.7	611.75
1255.92	935.344
1259.15	1185.62
1262.37	533.094
1265.59	461.969
1268.81	635.938
1272.03	1012.88
1275.25	1667.5
1278.46	529.969
1281.68	1144.69
1284.89	1137
1288.1	755.062
1291.31	620.844
1294.52	334.688
1297.73	959.688
1300.94	1538.78
1304.14	700.469
1307.35	878.938
1310.55	58.1562
1313.75	171.656
1316.95	151.969
1320.15	759.875
1323.34	31.7812
1326.54	578.25
1329.73	448.781
1332.92	548.969
1336.12	255.531
1339.31	289.969
1342.49	313.531
1345.68	44.5312
1348.87	586.062
1352.05	346.188
1355.23	119.469
1358.42	456.25
1361.6	214.875
1364.78	353.562
1367.95	101.312
1371.13	19.25
1374.31	265.406
1377.48	407.969
1380.65	657.094
1383.82	1120.75
1386.99	131.031
1390.16	1056.88
1393.33	873.719
1396.49	243.312
1399.66	807.312
