Measurement: Raman, 514 nm, ccw, Raman Data Processed
Mineral: Sphalerite
Rruff sample: R060005
Ideal chemistry: Zn^2+^S^2-^
Locality: Trinacria mine, Lake Poopo, Oruro, Bolivia
Source: University of Arizona Mineral Museum
Description: Steel gray crystal associated with franckeite R050431
Measured chemistry: Zn_0.82_Fe_0.18_S
Pin_id: M01404
Orientation: Laser parallel to c* (0 0 1). Fiducial mark perpendicular to laser is parallel to a [1 0 0]
Raman shift (cm-1)	intensity
96.203	0
101.156	1442.19
106.107	4557.52
111.055	1003.79
116.001	2135.9
120.944	831.432
125.883	99.043
130.821	731.609
135.755	610.848
140.686	985.912
145.615	1228.07
150.541	1142.14
155.464	1873.81
160.385	1921.3
165.303	2049.32
170.218	2507.27
175.13	1898.43
180.039	1691.35
184.946	1363.7
189.85	899.1
194.751	821.422
199.649	563.062
204.545	156.416
209.438	36.5391
214.328	208.992
219.215	79.582
224.1	16.5371
228.982	130.822
233.861	157.928
238.737	49.252
243.611	96.1699
248.482	372.496
253.35	1796.95
258.216	2025.31
263.078	1865.38
267.938	2408.52
272.795	3372.9
277.65	4505.02
282.502	6639.3
287.351	10145.1
292.197	14584.1
297.041	18076.6
301.881	17870.7
306.72	17492.5
311.555	18350.6
316.388	21815.8
321.218	23661.3
326.045	20510.5
330.869	15919.8
335.691	11972.2
340.51	9483.86
345.327	8285.23
350.14	8546.18
354.951	6455.5
359.76	4726.37
364.565	3490.28
369.368	2540.18
374.168	2108.47
378.966	1710.3
383.76	1355.16
388.552	1023.95
393.342	728.199
398.128	594.508
402.912	480.75
407.693	345.549
412.472	569.893
417.248	457.133
422.021	334.375
426.792	322.1
431.559	179.221
436.324	222.07
441.087	189.664
445.847	23.0508
450.604	129.327
455.358	12.5713
460.11	46.7969
464.859	82.3272
469.605	9.10059
474.349	60.0928
479.09	121.059
483.828	9.88672
488.564	42.1709
493.297	339.428
498.027	308.529
502.755	421.935
507.48	375.59
512.202	269.215
516.922	572.544
521.639	500.003
526.353	426.716
531.065	483.427
535.774	436.853
540.48	474.513
545.184	647.132
549.885	752.677
554.583	814.65
559.279	808.725
563.972	980.601
568.662	938.624
573.35	914.428
578.035	836.677
582.718	742.918
587.398	640.902
592.075	583.286
596.75	582.437
601.422	533.041
606.091	851.261
610.758	909.142
615.422	975.108
620.083	961.276
624.742	878.413
629.398	1064.16
634.051	1029.59
638.702	821.003
643.351	793.149
647.996	832.343
652.639	696.407
657.28	768.918
661.917	819.998
666.553	822.41
671.185	725.186
675.815	643.839
680.442	634.215
685.067	380.754
689.689	406.654
694.309	265.453
698.926	210.855
703.54	144.261
708.151	150.744
712.761	32.2266
717.367	193.457
721.971	142.44
726.572	14.1816
731.171	122.541
735.767	45.7246
740.36	30.9912
744.951	255.655
749.539	23.7158
754.125	144.615
758.708	134.63
763.288	113.186
767.866	163.731
772.442	22.6572
777.014	105.012
781.584	1.2959
786.152	59.8486
790.717	134.576
795.279	135.807
799.839	131.399
804.396	102.582
808.951	45.3447
813.503	121.324
818.053	7.64941
822.599	7.81445
827.144	13.7354
831.686	8.86328
836.225	1.80762
840.761	111.722
845.295	46.2695
849.827	5.89356
854.356	157.627
858.882	189.814
863.406	244.543
867.927	103.895
872.446	63.3906
876.962	135.874
881.476	132.466
885.987	99.8301
890.495	43.7676
895.001	239.334
899.505	133.755
904.005	51.1445
908.504	187.69
912.999	202.287
917.493	219.711
921.983	317.576
926.471	247.217
930.957	110.369
935.44	183.835
939.92	297.508
944.398	270.222
948.874	246.13
953.346	79.4268
957.817	212.542
962.285	163.408
966.75	377.583
971.213	194.213
975.673	268.821
980.13	528.181
984.586	407.99
989.038	331.581
993.488	258.248
997.936	302.525
1002.38	325.777
1006.82	339.949
1011.26	374.231
1015.7	278.457
1020.14	148.332
1024.57	178.466
1029	200.766
1033.43	241.217
1037.85	191.227
1042.27	292.882
1046.69	270.03
1051.11	289.626
1055.53	567.151
1059.94	211.837
1064.35	415.066
1068.76	485.217
1073.16	518.94
1077.56	393.505
1081.96	292.238
1086.36	335.274
1090.75	508.799
1095.15	311.203
1099.54	389.082
1103.92	462.006
1108.31	298.058
1112.69	275.062
1117.07	324.804
1121.45	368.704
1125.82	250.77
1130.2	311.745
1134.57	216.05
1138.93	137.717
1143.3	237.797
1147.66	120.856
1152.02	173.832
1156.38	167.838
1160.73	56.0518
1165.09	121.214
1169.44	96.4853
1173.79	158.648
1178.13	219.728
1182.47	74.2607
1186.81	75.4228
1191.15	106.576
1195.49	16.2354
1199.82	66.0498
1204.15	198.368
1208.48	152.642
1212.8	52.8848
1217.13	20.0654
1221.45	20.75
1225.77	3.08496
1230.08	160.828
1234.39	178.209
1238.7	223.876
1243.01	245.1
1247.32	80.2471
1251.62	284.758
1255.92	87.1436
1260.22	86.0908
1264.52	96.3955
1268.81	33.9697
1273.1	125.226
1277.39	170.083
1281.68	168.457
1285.96	37.8115
1290.24	70.7295
1294.52	224.734
1298.8	245.815
1303.07	295.381
1307.35	125.629
1311.62	110.459
1315.88	203.162
1320.15	227.981
1324.41	190.042
1328.67	239.608
1332.92	310.05
1337.18	334.298
1341.43	168.034
1345.68	271.62
1349.93	171.299
1354.17	167.834
1358.42	39.7559
1362.66	55.5469
1366.89	487.225
1371.13	147.275
1375.36	106.958
1379.59	314.683
1383.82	301.3
1388.05	315.823
1392.27	178.227
1396.49	76.3906
1400.71	58.0088
1404.93	185.801
1409.14	116.702
1413.35	118.345
1417.56	207.93
1421.77	208.387
1425.97	109.842
1430.17	320.249
1434.37	74.9316
1438.57	174.35
1442.76	152.043
1446.96	192.727
1451.15	153.887
1455.33	398.788
1459.52	204.84
1463.7	140.189
1467.88	81.8525
1472.06	142.938
1476.23	177.537
1480.41	7.08398
1484.58	169.333
1488.75	93.7695
1492.91	75.0781
1497.08	184.39
1501.24	1.57324
1505.4	76.9775
1509.55	38.8799
1513.71	119.503
1517.86	113.255
1522.01	128.072
1526.15	80.0469
1530.3	10.4551
1534.44	136.624
1538.58	88.6836
1542.72	81.2588
1546.85	20.4434
1550.99	41.9121
1555.12	177.964
1559.24	176.766
1563.37	215.867
1567.49	29.9014
1571.62	110.24
1575.73	16.25
