Measurement: Raman, 514 nm, ccw, Raman Data Processed
Mineral: Spinel
Rruff sample: R060799
Ideal chemistry: MgAl_2_O_4_
Locality: Aliabad, Hunza Valley, Pakistan
Source: Marcus Origlieri
Description: A group of blue distorted octahedra
Measured chemistry: (Mg_0.97_Fe^2+^_0.03_)_1.00_Al_2.00_O_4_
Pin_id: L01579
Orientation: Laser parallel to a* (1 0 0). Fiducial mark perpendicular to laser is parallel to c [0 0 1]
Raman shift (cm-1)	intensity
75.957	0
80.912	458.578
85.863	672.047
90.812	988.477
95.759	1058.62
100.703	1189.31
105.644	1053.06
110.583	368.102
115.52	626.336
120.453	29.3594
125.385	656.656
130.313	908.234
135.239	717.711
140.163	1142.5
145.084	952.297
150.002	1022.7
154.918	1040.63
159.832	776.898
164.742	708.219
169.651	583.883
174.556	349.664
179.459	242.211
184.36	291.602
189.258	511.922
194.153	422.328
199.046	971.992
203.936	1090.6
208.824	798.602
213.709	146.789
218.592	462.938
223.472	697.242
228.349	179.961
233.224	307.32
238.096	376.477
242.966	377.547
247.833	93.7109
252.698	692.453
257.56	551.516
262.419	558.766
267.276	579.352
272.13	605.602
276.982	201.352
281.831	603.5
286.677	77.6328
291.521	253.625
296.363	728.633
301.202	527.492
306.038	2779.73
310.872	5576.66
315.703	4757.38
320.531	1105.41
325.357	557.789
330.181	454.305
335.001	46.0078
339.82	508.312
344.635	320.797
349.448	93.0547
354.259	274.906
359.067	195.43
363.872	321.141
368.675	111.758
373.475	486.5
378.272	272.789
383.067	405.664
387.86	1007.58
392.649	1771.47
397.437	4948.74
402.221	11927.9
407.003	17215.3
411.783	6859.31
416.56	2174.57
421.334	443.555
426.106	393.719
430.875	205.789
435.641	9.10938
440.405	63.6016
445.167	160.266
449.925	261.898
454.681	548.586
459.435	650.406
464.186	243.156
468.934	389.805
473.68	455.297
478.423	35.6406
483.164	75.1406
487.902	300.438
492.637	7.16406
497.37	189.711
502.1	72.9766
506.828	194.438
511.553	30.4375
516.276	30.1172
520.995	131.398
525.713	405.789
530.427	59.5859
535.139	76.25
539.849	50.7578
544.556	30.0078
549.26	145.461
553.962	140.016
558.661	323.422
563.357	704.688
568.051	517.914
572.742	330.453
577.431	387.984
582.117	241.891
586.801	277.18
591.481	572.859
596.16	785.906
600.835	1051.81
605.508	1087.49
610.179	1171.08
614.847	1097.49
619.512	772.203
624.175	1491.53
628.835	1060.19
633.492	1077.04
638.147	1547.81
642.799	1205.52
647.449	2503.28
652.096	3711.7
656.74	7355.97
661.382	14503.4
666.021	17483.2
670.658	11628.4
675.292	6045.89
679.923	2981.18
684.552	1514.01
689.178	814.477
693.802	811.852
698.423	720.898
703.041	545.555
707.657	795.797
712.27	864.062
716.881	1073.37
721.489	540.875
726.094	170.617
730.697	398.805
735.297	199.648
739.894	914.766
744.489	1475.31
749.081	2853.92
753.671	4288.48
758.258	8352.89
762.842	14924.6
767.424	18587.5
772.003	12476.6
776.58	6249.42
781.154	3727.15
785.725	2104.89
790.294	1394.85
794.86	524.008
799.424	156.875
803.985	692.758
808.543	566.371
813.099	289.832
817.652	769.152
822.202	178.852
826.75	56.293
831.295	253.312
835.838	253.992
840.378	288.613
844.915	195.16
849.45	210.367
853.982	27.1094
858.512	143.062
863.039	330.305
867.563	226.578
872.085	126.394
876.604	99.7539
881.12	376.047
885.634	26.8438
890.145	301.691
894.654	95.8242
899.16	160.152
903.663	103.414
908.164	61.2812
912.662	371.336
917.158	202.746
921.651	471.481
926.141	47.7969
930.628	343.793
935.113	225.246
939.596	23.9648
944.076	130.332
948.553	355.57
953.027	238.441
957.499	298.418
961.969	431.266
966.435	378.641
970.899	452.496
975.361	423.934
979.82	80.2539
984.276	486.594
988.73	746.461
993.181	771.363
997.629	581.332
1002.08	940.41
1006.52	523.367
1010.96	671.758
1015.4	294.934
1019.83	223.07
1024.26	461.523
1028.69	295.707
1033.12	168.164
1037.55	217.875
1041.97	380.777
1046.39	236.586
1050.81	313.688
1055.22	64.7969
1059.63	121.242
1064.04	420.445
1068.45	69.6367
1072.85	93.0703
1077.25	99.4492
1081.65	123.133
1086.05	162.375
1090.44	46.2383
1094.83	245.871
1099.22	223.199
1103.6	31.793
1107.99	296.887
1112.37	271.824
1116.74	358.023
1121.12	265.18
1125.49	432.156
1129.86	506.527
1134.23	431.977
1138.59	308.356
1142.95	204.234
1147.31	427.293
1151.67	406.129
1156.02	259.527
1160.38	29.2461
1164.72	474.965
1169.07	99.6406
1173.41	263.324
1177.75	15.7031
1182.09	134.344
1186.43	115.031
1190.76	452.051
1195.09	526.106
1199.42	368.883
1203.74	100.098
1208.07	211.207
1212.39	173.719
1216.7	252.32
1221.02	326.746
1225.33	277.394
1229.64	158.312
1233.95	480.039
1238.25	512.328
1242.55	0.359375
1246.85	166.398
1251.15	44.3125
1255.44	309.184
1259.73	215.606
1264.02	11.4805
1268.31	36.4766
1272.59	108.449
1276.87	123.574
1281.15	267.559
1285.42	417.715
1289.69	219.676
1293.96	341.398
1298.23	69.7188
1302.5	144.824
1306.76	292.844
1311.02	3.59766
1315.27	163.148
1319.53	381.617
1323.78	90.0039
1328.03	238.906
1332.28	206.754
1336.52	145.633
1340.76	226.996
1345	116.652
1349.23	205.152
1353.47	108.344
1357.7	173.777
1361.93	202.098
1366.15	141.602
1370.37	237.781
1374.59	224.668
1378.81	30.2812
1383.03	459.289
1387.24	327.957
1391.45	388.248
1395.65	472.055
1399.86	498.266
1404.06	476.861
1408.26	335.473
1412.46	526.883
1416.65	680.084
1420.84	552.787
1425.03	353.426
1429.22	703.527
1433.4	583.01
1437.58	602.309
1441.76	314.451
1445.93	525.074
1450.11	355.008
1454.28	147.473
1458.44	468.289
1462.61	61.8965
1466.77	254.469
1470.93	66.9902
1475.09	186.342
1479.24	163.914
1483.39	142.68
1487.54	305.412
1491.69	51.293
1495.84	128.277
1499.98	139.092
1504.12	0.572266
1508.25	52.2441
1512.38	251.309
1516.52	137.449
1520.64	416.84
1524.77	467.31
1528.89	326.176
1533.01	276.111
1537.13	202.666
1541.25	269.807
1545.36	485.988
1549.47	541.328
1553.58	436.029
1557.68	111.842
1561.78	370.221
1565.88	113.248
1569.98	403.463
1574.07	72.4102
1578.16	0
