Measurement: Raman, 514 nm, ccw, Raman Data Processed
Mineral: Spinel
Rruff sample: R050184
Ideal chemistry: MgAl_2_O_4_
Locality: Pein Pyit, Mogok, Burma
Source: Marcus Origlieri
Description: Red crystal in calcite, associated with yellowish-green clinohumite, R050183
Measured chemistry: Mg_1.00_(Al_1.99_Cr_0.01_)_Î£=2_O_4_; trace amounts of V
Pin_id: L00212
Orientation: Laser parallel to -b* (0 -1 0). Fiducial mark perpendicular to laser is parallel to c [0 0 1]
Raman shift (cm-1)	intensity
111.855	0
115.57	52.9297
119.283	136.75
122.995	398.629
126.705	36.8398
130.414	176.973
134.12	20.1953
137.826	433.898
141.529	279.25
145.232	129.754
148.932	251.516
152.631	180.324
156.328	475.832
160.024	183.262
163.718	387.508
167.411	209.969
171.102	16.8789
174.791	99.4727
178.479	309.121
182.165	368.312
185.85	390.352
189.533	516.984
193.214	213.824
196.894	444.832
200.572	306.141
204.249	547.742
207.924	460.637
211.598	429.836
215.27	423.305
218.94	361.106
222.609	26.1445
226.276	468.231
229.942	142.633
233.606	34.6484
237.269	369.559
240.929	270.055
244.589	502.238
248.247	164.809
251.903	465.5
255.557	324.199
259.21	270.879
262.862	312.082
266.512	334.5
270.16	415.414
273.807	359.184
277.452	483.926
281.096	531.027
284.738	542.398
288.378	180.758
292.017	596.367
295.655	424.207
299.291	661.277
302.925	517.715
306.558	646.367
310.189	1476.21
313.818	1387.46
317.446	388.598
321.073	762.379
324.698	419.75
328.321	423.133
331.943	230.039
335.563	219.633
339.182	297.312
342.799	278.031
346.414	399.766
350.028	103.754
353.641	262.344
357.252	417.32
360.861	458.582
364.469	326.199
368.075	235.004
371.68	365.062
375.283	397.074
378.884	471.176
382.484	709.598
386.083	605.019
389.68	680.769
393.275	865.176
396.869	1065.54
400.461	1915.24
404.052	2907.68
407.641	3745.77
411.229	2648.39
414.815	1247.73
418.4	906.297
421.983	437.559
425.564	450.91
429.144	411.246
432.722	191.559
436.299	301.832
439.875	268.082
443.448	369.129
447.021	320.301
450.591	173.734
454.161	80.8203
457.728	426.848
461.294	49.7891
464.859	307.656
468.422	156.938
471.984	227.68
475.544	298.356
479.102	118.969
482.659	247.637
486.214	8.98047
489.768	6.21875
493.321	93.457
496.872	184.078
500.421	197.348
503.969	184.769
507.515	40.832
511.06	251.731
514.603	62.5781
518.144	168.566
521.685	99.6406
525.223	272.668
528.76	129.648
532.296	108.578
535.83	175.461
539.363	65.3047
542.894	81.1055
546.423	260.781
549.951	113.269
553.478	79.5703
557.003	30.8555
560.526	97.3477
564.048	48.4297
567.568	175.133
571.087	183.832
574.605	287.449
578.121	190.246
581.635	8.95312
585.148	126.5
588.659	52.1562
592.169	209.102
595.677	452.289
599.184	98.4961
602.69	68.3086
606.193	8.29297
609.696	260.137
613.197	14.7656
616.696	181.324
620.194	187.961
623.69	95.0938
627.185	13.1992
630.678	325.352
634.17	274.16
637.66	139.117
641.149	425.535
644.636	277.852
648.122	526.258
651.606	886.844
655.089	967.055
658.57	1676.33
662.05	2935.3
665.528	3545.66
669.005	2850.22
672.481	2190.24
675.954	1419.22
679.427	917.422
682.898	448.496
686.367	232.055
689.835	398.211
693.301	17.9062
696.766	39.6758
700.229	35.0078
703.691	28.082
707.152	204.34
710.611	373.891
714.068	473.742
717.524	388.906
720.978	658.059
724.431	228.356
727.883	84.1211
731.333	302.633
734.781	153.434
738.229	363.699
741.674	223.398
745.118	678.055
748.561	703.648
752.002	1025.82
755.442	1439.41
758.88	2239.47
762.316	3354.97
765.752	4238.25
769.185	3837.13
772.618	2525.86
776.048	1678.73
779.478	875.125
782.906	935.664
786.332	652.887
789.757	608.547
793.18	599.777
796.602	593.57
800.023	430.777
803.442	429.391
806.859	467.41
810.275	356.836
813.69	176.68
817.103	481.93
820.515	269.598
823.925	304.758
827.334	537.379
830.741	393.383
834.147	452.211
837.551	177.25
840.954	310.832
844.355	312.832
847.755	330.246
851.154	272.055
854.551	214.461
857.946	196.082
861.341	336.262
864.733	232.664
868.124	511.191
871.514	326.785
874.902	225.129
878.289	218.004
881.675	614.773
885.059	291.969
888.441	347.828
891.822	452.769
895.202	427.227
898.58	320.41
901.956	601.703
905.332	495.867
908.705	534.363
912.078	433.324
915.448	378.301
918.818	392.594
922.186	388.168
925.552	538.023
928.917	534.168
932.281	516.582
935.643	386.254
939.004	480.18
942.363	290.383
945.721	259.867
949.077	442.66
952.432	153.137
955.786	137.746
959.138	249.305
962.489	210.981
965.838	382.875
969.186	47.9844
972.532	159.305
975.877	388.098
979.22	141.109
982.562	186.301
985.903	3.25781
989.242	363.371
992.58	226.199
995.916	92.0898
999.251	122.348
1002.58	189.629
1005.92	14.9102
1009.25	41.2188
1012.58	102.688
1015.9	84.9297
1019.23	138.031
1022.55	35.25
1025.88	95.4492
1029.2	136.418
1032.52	41.6562
1035.84	21.7344
1039.16	19.7383
1042.47	8.80078
1045.79	194.328
1049.1	222.238
1052.41	115.652
1055.72	514.738
1059.03	361.824
1062.34	298.934
1065.65	616.227
1068.95	681.43
1072.26	749.293
1075.56	751.797
1078.86	800.297
1082.16	792.984
1085.45	702.797
1088.75	726.312
1092.05	605.672
1095.34	803.184
1098.63	701.32
1101.92	645.719
1105.21	793.691
1108.5	716.231
1111.79	648.125
1115.07	444.738
1118.36	553.18
1121.64	486.555
1124.92	656.082
1128.2	618.941
1131.47	532.484
1134.75	202.762
1138.03	281.406
1141.3	340.867
1144.57	568.801
1147.84	427.422
1151.11	579.16
1154.38	405.191
1157.65	413.734
1160.91	337.734
1164.18	311.258
1167.44	265.945
1170.7	397.699
1173.96	235.496
1177.22	569.422
1180.48	507.25
1183.73	247.125
1186.98	246.106
1190.24	339.387
1193.49	461.793
1196.74	186.695
1199.99	350.43
1203.23	87.4297
1206.48	7.22266
1209.72	308.816
1212.97	393.125
1216.21	138.676
1219.45	299.426
1222.69	25.2344
1225.93	181.859
1229.16	154.516
1232.4	202.699
1235.63	179.488
1238.86	307.352
1242.09	535.766
1245.32	12.457
1248.55	246.371
1251.78	253.812
1255	359.766
1258.22	423.848
1261.44	221.633
1264.67	192.805
1267.88	217.723
1271.1	662.242
1274.32	224.316
1277.54	349.414
1280.75	315.672
1283.96	527.824
1287.17	188.406
1290.38	251.644
1293.59	238.879
1296.8	342.176
1300	67.3672
1303.21	198.019
1306.41	350.289
1309.61	394.617
1312.81	55.6523
1316.01	125.711
1319.21	92.8594
1322.4	329.863
1325.6	251.789
1328.79	177.352
1331.98	131.973
1335.17	79.0117
1338.36	27.8008
1341.55	187.035
1344.73	184.074
1347.92	134.664
1351.1	10.3711
1354.29	228.977
1357.47	112.422
1360.64	239.543
1363.82	197.648
1367	252.746
1370.17	124.676
1373.35	302.035
1376.52	101.969
1379.69	100.09
1382.86	343.305
1386.03	394.902
1389.2	325.391
1392.36	70.1055
1395.53	372.625
1398.69	370.519
1401.85	298.633
1405.01	245.996
1408.17	425.699
1411.33	406.113
1414.49	401.887
1417.64	376.387
1420.8	267.465
1423.95	371.293
1427.1	234.383
1430.25	565.16
1433.4	366.977
1436.54	463.148
1439.69	90.6719
1442.83	173.574
1445.97	421.484
1449.12	39.6836
1452.26	85.2383
1455.39	184.746
1458.53	129.875
1461.67	138.625
1464.8	163.062
1467.94	0
