Measurement: Raman, 514 nm, ccw, Raman Data Processed
Mineral: Spinel
Rruff sample: R060799
Ideal chemistry: MgAl_2_O_4_
Locality: Aliabad, Hunza Valley, Pakistan
Source: Marcus Origlieri
Description: A group of blue distorted octahedra
Measured chemistry: (Mg_0.97_Fe^2+^_0.03_)_1.00_Al_2.00_O_4_
Pin_id: L01579
Orientation: Laser parallel to a* (1 0 0). Fiducial mark perpendicular to laser is parallel to c [0 0 1]
Raman shift (cm-1)	intensity
75.957	0
80.912	368.617
85.863	53.3516
90.812	672.773
95.759	443.844
100.703	545.953
105.644	1118.68
110.583	238.797
115.52	873.938
120.453	1082.56
125.385	1004.19
130.313	604.078
135.239	1136.41
140.163	869.312
145.084	977.492
150.002	747.914
154.918	731.656
159.832	589.047
164.742	451.406
169.651	515.734
174.556	222.219
179.459	207.781
184.36	385.359
189.258	140.859
194.153	215.219
199.046	381.375
203.936	543.875
208.824	225.719
213.709	323.352
218.592	511.055
223.472	542.562
228.349	85.5156
233.224	77.1641
238.096	67.6406
242.966	432.312
247.833	192.523
252.698	539.828
257.56	290.742
262.419	392.875
267.276	179.852
272.13	266.68
276.982	331.906
281.831	308.406
286.677	332.367
291.521	767.273
296.363	619.508
301.202	562.594
306.038	2275.62
310.872	2085.6
315.703	1129.98
320.531	746.758
325.357	629.078
330.181	815.836
335.001	654.469
339.82	760.688
344.635	574.086
349.448	1147.24
354.259	1481.46
359.067	1136.59
363.872	1895.43
368.675	2036.44
373.475	2494.8
378.272	2671.06
383.067	4145.34
387.86	6436.23
392.649	13700.7
397.437	33903.5
402.221	85057.4
407.003	96463.7
411.783	34619.1
416.56	11090
421.334	4837.12
426.106	2982.16
430.875	1618.48
435.641	1335.57
440.405	621.352
445.167	593.305
449.925	570.164
454.681	1061.76
459.435	660.242
464.186	430.617
468.934	853.977
473.68	434.328
478.423	437
483.164	439.828
487.902	601.828
492.637	450.648
497.37	154.766
502.1	152.023
506.828	103.312
511.553	43.2109
516.276	294.273
520.995	235.398
525.713	332.391
530.427	190.172
535.139	249.43
539.849	160.672
544.556	411.57
549.26	77.8203
553.962	121.242
558.661	181.023
563.357	243.773
568.051	459.875
572.742	315.914
577.431	204.148
582.117	561.062
586.801	282.625
591.481	515.352
596.16	635.703
600.835	622.422
605.508	717.156
610.179	624.617
614.847	1205
619.512	802.617
624.175	675
628.835	700.945
633.492	681.945
638.147	674.023
642.799	1072.79
647.449	981.367
652.096	1611.47
656.74	2925.38
661.382	4769.63
666.021	5038.63
670.658	3299.57
675.292	1526.23
679.923	865.07
684.552	155.746
689.178	90.5547
693.802	282.879
698.423	244.875
703.041	85.2344
707.657	143.168
712.27	391.398
716.881	123.34
721.489	110.367
726.094	252.512
730.697	628.254
735.297	160.688
739.894	733.254
744.489	1433.11
749.081	2230.03
753.671	3940.43
758.258	7408.38
762.842	12773.8
767.424	14507.3
772.003	9118.79
776.58	4106.6
781.154	2488.45
785.725	1463.25
790.294	1111.76
794.86	819.566
799.424	634.094
803.985	660.289
808.543	297.754
813.099	625.523
817.652	186.719
822.202	108.203
826.75	314.219
831.295	188.559
835.838	353.269
840.378	46.9727
844.915	90.2969
849.45	150.391
853.982	117.66
858.512	239.625
863.039	319.41
867.563	265.406
872.085	155.586
876.604	107.223
881.12	33.6914
885.634	254.598
890.145	156.051
894.654	199.356
899.16	212.047
903.663	289.969
908.164	343.715
912.662	8.53906
917.158	133.016
921.651	329.707
926.141	314.312
930.628	346.082
935.113	108.457
939.596	368.695
944.076	38.9453
948.553	467.336
953.027	69.9727
957.499	201.113
961.969	133.551
966.435	152.262
970.899	504.062
975.361	117.398
979.82	398.484
984.276	305.394
988.73	559.465
993.181	120.297
997.629	416.695
1002.08	440.164
1006.52	432.586
1010.96	319.609
1015.4	324.996
1019.83	71.3203
1024.26	36.6758
1028.69	240.871
1033.12	63.6484
1037.55	52.0234
1041.97	122.188
1046.39	164.102
1050.81	375.844
1055.22	268.938
1059.63	147.57
1064.04	220.289
1068.45	126.531
1072.85	190.434
1077.25	212.606
1081.65	242.824
1086.05	173.051
1090.44	170.754
1094.83	374.004
1099.22	160.309
1103.6	284.606
1107.99	331.941
1112.37	299.363
1116.74	538.68
1121.12	162.641
1125.49	466.789
1129.86	511.57
1134.23	34.7656
1138.59	414.812
1142.95	307.742
1147.31	534.137
1151.67	497.977
1156.02	441.441
1160.38	298.613
1164.72	297.746
1169.07	301.637
1173.41	345.848
1177.75	138.805
1182.09	260.777
1186.43	116.281
1190.76	215.297
1195.09	346.34
1199.42	419.217
1203.74	355.94
1208.07	80.1426
1212.39	77.4492
1216.7	290.717
1221.02	315.935
1225.33	103.82
1229.64	144.529
1233.95	281.543
1238.25	339.514
1242.55	116.643
1246.85	162.252
1251.15	583.902
1255.44	47.9707
1259.73	250.824
1264.02	64.5547
1268.31	159.998
1272.59	137.801
1276.87	32.0664
1281.15	186.607
1285.42	96.5801
1289.69	151.143
1293.96	188.602
1298.23	195.783
1302.5	78.3848
1306.76	15.5215
1311.02	45.0293
1315.27	279.277
1319.53	385.047
1323.78	5.99609
1328.03	139.92
1332.28	187.203
1336.52	278.049
1340.76	164.375
1345	225.647
1349.23	127.564
1353.47	15.5273
1357.7	155.482
1361.93	5.77344
1366.15	91.6934
1370.37	222.508
1374.59	179.336
1378.81	256.807
1383.03	213.553
1387.24	458.762
1391.45	200.041
1395.65	341.672
1399.86	260.512
1404.06	370.037
1408.26	470.791
1412.46	629.117
1416.65	587.432
1420.84	506.391
1425.03	488.047
1429.22	543.648
1433.4	354.356
1437.58	272.461
1441.76	292.848
1445.93	150.57
1450.11	333.795
1454.28	227.035
1458.44	279.988
1462.61	218.44
1466.77	175.353
1470.93	185.318
1475.09	64.7461
1479.24	64.6738
1483.39	111.441
1487.54	21.252
1491.69	49.2715
1495.84	36.0312
1499.98	52.8789
1504.12	226.688
1508.25	12.8105
1512.38	137.004
1516.52	172.191
1520.64	282.18
1524.77	215.106
1528.89	204.266
1533.01	157.551
1537.13	288.211
1541.25	365.244
1545.36	329.449
1549.47	303.881
1553.58	481.549
1557.68	218.68
1561.78	424.594
1565.88	171.455
1569.98	453.514
1574.07	3.96289
1578.16	0
