Measurement: Raman, 514 nm, depolarized, Raman Data Processed
Mineral: Spinel
Rruff sample: R060799
Ideal chemistry: MgAl_2_O_4_
Locality: Aliabad, Hunza Valley, Pakistan
Source: Marcus Origlieri
Description: A group of blue distorted octahedra
Measured chemistry: (Mg_0.97_Fe^2+^_0.03_)_1.00_Al_2.00_O_4_
Pin_id: L01579
Orientation: Laser parallel to a* (1 0 0). Fiducial mark perpendicular to laser is parallel to c [0 0 1]
Raman shift (cm-1)	intensity
75.957	0
80.912	181.852
85.863	187.492
90.812	426.062
95.759	425.109
100.703	572.086
105.644	1148.81
110.583	592.188
115.52	387.547
120.453	531.711
125.385	625.633
130.313	554.477
135.239	531.258
140.163	663.289
145.084	849.305
150.002	368.633
154.918	128.383
159.832	709.273
164.742	351.5
169.651	528.367
174.556	342.266
179.459	2.33594
184.36	199.25
189.258	149.508
194.153	728.547
199.046	319.312
203.936	303.703
208.824	95.3047
213.709	647.023
218.592	21.9766
223.472	288.039
228.349	127.148
233.224	288.773
238.096	214.18
242.966	285.492
247.833	22.6641
252.698	639.555
257.56	527.18
262.419	515.516
267.276	255.703
272.13	161.328
276.982	239.195
281.831	379.078
286.677	319.312
291.521	427.789
296.363	613.578
301.202	1054.54
306.038	1566.81
310.872	2919.03
315.703	2022.66
320.531	774.531
325.357	598.039
330.181	462.461
335.001	806.102
339.82	321.477
344.635	217.156
349.448	855.508
354.259	667.828
359.067	935.906
363.872	989.961
368.675	978.883
373.475	1195.7
378.272	1984.41
383.067	2781.48
387.86	3757.02
392.649	7681.72
397.437	18308.5
402.221	46998.6
407.003	61513.8
411.783	21923.8
416.56	6508.95
421.334	2952.66
426.106	1417.15
430.875	1019.7
435.641	910.562
440.405	481
445.167	402.047
449.925	666.75
454.681	335.398
459.435	123.773
464.186	487
468.934	482.094
473.68	442.07
478.423	199.031
483.164	354.531
487.902	31.1328
492.637	587.82
497.37	183.984
502.1	201.195
506.828	144.734
511.553	304.688
516.276	427.961
520.995	156.844
525.713	241.445
530.427	628.789
535.139	270.039
539.849	117.508
544.556	31.3203
549.26	201.391
553.962	205.195
558.661	263.961
563.357	6.78125
568.051	209.5
572.742	128.953
577.431	283.156
582.117	343.047
586.801	899.648
591.481	520.758
596.16	432.641
600.835	504.281
605.508	707.734
610.179	750.328
614.847	906.668
619.512	649.684
624.175	829.152
628.835	831.523
633.492	994.898
638.147	852.992
642.799	930.832
647.449	1577.15
652.096	2143.74
656.74	3702.28
661.382	7394.18
666.021	8367.17
670.658	5407.97
675.292	2605.84
679.923	2065.68
684.552	758.195
689.178	467.047
693.802	288.777
698.423	64.9219
703.041	626.316
707.657	373.445
712.27	316.812
716.881	155.113
721.489	139.898
726.094	88.5859
730.697	374.129
735.297	313.637
739.894	703.68
744.489	1371.12
749.081	2284.34
753.671	3596.26
758.258	6357.02
762.842	11403.2
767.424	13809.9
772.003	8972
776.58	4772.22
781.154	2396.45
785.725	1745.66
790.294	860.356
794.86	975.789
799.424	510.406
803.985	510.926
808.543	492.902
813.099	558.625
817.652	489.625
822.202	293.5
826.75	450.207
831.295	66.207
835.838	19.6758
840.378	282.348
844.915	62.7969
849.45	177.023
853.982	118.305
858.512	67.6055
863.039	3.48047
867.563	108.836
872.085	125.973
876.604	9.25781
881.12	104.863
885.634	176.664
890.145	324.07
894.654	66.9297
899.16	90.9023
903.663	33.2656
908.164	161.785
912.662	202.66
917.158	138.648
921.651	377.203
926.141	66.3516
930.628	188.707
935.113	60.3945
939.596	80.0352
944.076	155.18
948.553	430.785
953.027	213.113
957.499	413.148
961.969	696.324
966.435	439.863
970.899	261.273
975.361	167.16
979.82	257.481
984.276	243.875
988.73	393.137
993.181	288.297
997.629	269.379
1002.08	387.949
1006.52	422.926
1010.96	438.902
1015.4	336.816
1019.83	0.0625
1024.26	194.219
1028.69	364.141
1033.12	407.383
1037.55	144.742
1041.97	15.2812
1046.39	19.7227
1050.81	269.113
1055.22	343.246
1059.63	60.4805
1064.04	432.84
1068.45	26.4414
1072.85	175.203
1077.25	87.6641
1081.65	290.582
1086.05	115.305
1090.44	140.891
1094.83	28.8281
1099.22	67.8711
1103.6	449.012
1107.99	446.926
1112.37	464.074
1116.74	433.609
1121.12	310.582
1125.49	278.406
1129.86	442.688
1134.23	374.824
1138.59	296.117
1142.95	173.719
1147.31	433.016
1151.67	327.644
1156.02	214.617
1160.38	325.176
1164.72	324.019
1169.07	254.461
1173.41	363.027
1177.75	179.272
1182.09	124.412
1186.43	89.0312
1190.76	389.346
1195.09	404.049
1199.42	176.117
1203.74	438.527
1208.07	316.793
1212.39	385.227
1216.7	299.268
1221.02	248.094
1225.33	179.41
1229.64	228.973
1233.95	325.029
1238.25	9
1242.55	64.6914
1246.85	202.631
1251.15	69.5469
1255.44	181.072
1259.73	8.74219
1264.02	119.973
1268.31	163.664
1272.59	251.236
1276.87	88.4707
1281.15	176.977
1285.42	170.492
1289.69	197.279
1293.96	105.123
1298.23	54.0469
1302.5	174.781
1306.76	96.3731
1311.02	250.818
1315.27	6.16797
1319.53	223.865
1323.78	218.623
1328.03	154.316
1332.28	242
1336.52	36.0723
1340.76	84.2285
1345	5.06836
1349.23	173.514
1353.47	70.3184
1357.7	208.562
1361.93	230.537
1366.15	36.7344
1370.37	373.666
1374.59	157.367
1378.81	130.133
1383.03	338.553
1387.24	322.633
1391.45	302.352
1395.65	367.139
1399.86	166.305
1404.06	478.541
1408.26	488.545
1412.46	347.147
1416.65	402.379
1420.84	604.281
1425.03	371.902
1429.22	501.519
1433.4	568.715
1437.58	608.764
1441.76	184.119
1445.93	180.715
1450.11	244.543
1454.28	362.734
1458.44	171.004
1462.61	129.346
1466.77	231.699
1470.93	62.0957
1475.09	21.0273
1479.24	85.2441
1483.39	204.504
1487.54	36.5781
1491.69	295.541
1495.84	171.945
1499.98	201.33
1504.12	220.287
1508.25	32.5137
1512.38	229.074
1516.52	68.1875
1520.64	138.353
1524.77	195.832
1528.89	480.764
1533.01	274.885
1537.13	451.494
1541.25	416.404
1545.36	374.785
1549.47	252.93
1553.58	594.014
1557.68	207.422
1561.78	24.0176
1565.88	235.625
1569.98	195.867
1574.07	139.065
1578.16	0
