Measurement: Raman, 514 nm, ccw, Raman Data Processed
Mineral: Spinel
Rruff sample: R050259
Ideal chemistry: MgAl_2_O_4_
Locality: Mogok, Burma
Source: Marcus Origlieri
Description: Purple cut gemstone
Measured chemistry: (Mg_0.99_Zn_0.01_)_Σ=1_(Al_1.98_Fe^3+^_0.02_)_Σ=2_O_4_; trace amounts of Cr
Pin_id: L00851
Orientation: Laser parallel to c* (0 0 1). Fiducial mark perpendicular to laser is parallel to a [1 0 0]
Raman shift (cm-1)	intensity
75.957	0
80.912	3386.19
85.863	3216.31
90.812	798.125
95.759	2924.81
100.703	3063.25
105.644	3285.62
110.583	1116.31
115.52	2101.62
120.453	3588.88
125.385	1484.62
130.313	1740.56
135.239	3160.5
140.163	2855.56
145.084	2801
150.002	1781.19
154.918	771.5
159.832	4187
164.742	3166.12
169.651	225.5
174.556	3654.31
179.459	1497.62
184.36	1365.38
189.258	2402
194.153	1705.69
199.046	1067.06
203.936	1694.19
208.824	1603.56
213.709	2923.62
218.592	1254.12
223.472	3128.69
228.349	1309.81
233.224	2723.56
238.096	2825.69
242.966	3648.88
247.833	2876.69
252.698	2841.25
257.56	3119.75
262.419	2120.19
267.276	3696
272.13	2923.88
276.982	1088.81
281.831	1686.56
286.677	2369.5
291.521	2893.75
296.363	3396.38
301.202	3495.88
306.038	5607.56
310.872	7258.56
315.703	4899.31
320.531	2835.06
325.357	3330.25
330.181	3941.81
335.001	3889.62
339.82	4692
344.635	2563.56
349.448	3962.19
354.259	4388.81
359.067	4082.25
363.872	3397.5
368.675	3800.06
373.475	4612.31
378.272	4074.06
383.067	5083.81
387.86	4871.12
392.649	8695.75
397.437	16095.8
402.221	35242.9
407.003	45571.6
411.783	21286.6
416.56	9649.56
421.334	5264
426.106	3367.69
430.875	1585.69
435.641	246.5
440.405	7.625
445.167	360.875
449.925	396.688
454.681	188.562
459.435	332.25
464.186	609.875
468.934	860.688
473.68	1240.12
478.423	832.125
483.164	1050.25
487.902	45.75
492.637	346.375
497.37	1461
502.1	1162.5
506.828	1080.38
511.553	946.938
516.276	142.875
520.995	79.3125
525.713	1265.06
530.427	1205.94
535.139	493.125
539.849	891.312
544.556	1656.22
549.26	1239.62
553.962	946.062
558.661	2521.62
563.357	1154.19
568.051	1133.84
572.742	2111.31
577.431	2662.41
582.117	3022.88
586.801	4757.16
591.481	4240.16
596.16	4608.06
600.835	4350.09
605.508	4113.25
610.179	4270.34
614.847	4679.03
619.512	5224.91
624.175	5015.69
628.835	5821.62
633.492	6094.25
638.147	6631.25
642.799	7772.44
647.449	7379.56
652.096	8508.06
656.74	11882
661.382	16712.7
666.021	18441.2
670.658	13699.3
675.292	9218
679.923	7309.84
684.552	5361.22
689.178	6279.62
693.802	6310.72
698.423	5874.81
703.041	6251.88
707.657	6134.44
712.27	3635.44
716.881	746.594
721.489	2022.5
726.094	220.812
730.697	4034.09
735.297	5911.31
739.894	5980.56
744.489	6812.44
749.081	8150.38
753.671	11499.9
758.258	14578.4
762.842	21731.3
767.424	23251.8
772.003	15712.6
776.58	10111.3
781.154	7790.41
785.725	5202.53
790.294	3498.84
794.86	2458.38
799.424	3558.12
803.985	4804.06
808.543	5787.38
813.099	6027.53
817.652	4789.38
822.202	4491.59
826.75	4275.38
831.295	3909.72
835.838	4050.44
840.378	4284.53
844.915	3978.88
849.45	4250.91
853.982	3896.78
858.512	3114.75
863.039	2352.03
867.563	1709.38
872.085	2410.69
876.604	1809.59
881.12	578.031
885.634	827.438
890.145	391.156
894.654	481.312
899.16	1591.66
903.663	1140
908.164	1399.81
912.662	1300
917.158	1199.53
921.651	1742.88
926.141	2344
930.628	1318.22
935.113	1097.09
939.596	2061.03
944.076	1716
948.553	1495.19
953.027	916.031
957.499	1525.88
961.969	903.5
966.435	1525.47
970.899	1071
975.361	1619.97
979.82	1011.44
984.276	1495.88
988.73	1125.22
993.181	1439.62
997.629	704.344
1002.08	1536.75
1006.52	1196.72
1010.96	1590.09
1015.4	1140.02
1019.83	679.484
1024.26	742.438
1028.69	422.391
1033.12	716.859
1037.55	155.344
1041.97	414.5
1046.39	451.547
1050.81	205.484
1055.22	221.828
1059.63	817.797
1064.04	707.25
1068.45	351.047
1072.85	120.016
1077.25	785.703
1081.65	1068.22
1086.05	1115.61
1090.44	354.625
1094.83	1556.33
1099.22	796.562
1103.6	1497.66
1107.99	1450.44
1112.37	1895.08
1116.74	829.406
1121.12	2297.73
1125.49	1853.5
1129.86	1375.23
1134.23	722.734
1138.59	894.172
1142.95	585.562
1147.31	952.031
1151.67	952.266
1156.02	1508.95
1160.38	1397.28
1164.72	845.656
1169.07	10.9375
1173.41	676.422
1177.75	1132.95
1182.09	384.391
1186.43	297.281
1190.76	755.938
1195.09	527.766
1199.42	137.641
1203.74	593.391
1208.07	831.797
1212.39	1714.83
1216.7	336.031
1221.02	960.484
1225.33	408.766
1229.64	627.875
1233.95	598.453
1238.25	354.703
1242.55	1412.28
1246.85	529.5
1251.15	309.141
1255.44	248.641
1259.73	503.219
1264.02	211.734
1268.31	621.172
1272.59	872.328
1276.87	123
1281.15	400.219
1285.42	16.2188
1289.69	134.469
1293.96	323.438
1298.23	525.375
1302.5	834.516
1306.76	662.312
1311.02	907.531
1315.27	121.172
1319.53	1059.45
1323.78	244.797
1328.03	955.438
1332.28	604.234
1336.52	769.891
1340.76	417.5
1345	663.125
1349.23	642.672
1353.47	387.281
1357.7	360.781
1361.93	40.9062
1366.15	634
1370.37	608.75
1374.59	959.281
1378.81	1141.77
1383.03	1035.88
1387.24	654.812
1391.45	642.5
1395.65	1312.02
1399.86	276.812
1404.06	851.859
1408.26	957.766
1412.46	609.117
1416.65	463.898
1420.84	1127.69
1425.03	670.062
1429.22	758.93
1433.4	179.086
1437.58	725.766
1441.76	140.859
1445.93	276.227
1450.11	216.812
1454.28	169.109
1458.44	488.992
1462.61	494.547
1466.77	150.383
1470.93	28.0859
1475.09	65.7656
1479.24	655.156
1483.39	535.984
1487.54	533.43
1491.69	725.273
1495.84	381.555
1499.98	883.906
1504.12	998.602
1508.25	1010.98
1512.38	1714.83
1516.52	436.367
1520.64	1154.06
1524.77	579.945
1528.89	676.117
1533.01	574.852
1537.13	1268.96
1541.25	719.531
1545.36	572.414
1549.47	1020.81
1553.58	904.391
1557.68	233.852
1561.78	476.117
1565.88	864.969
1569.98	823.469
1574.07	5.28125
1578.16	0
