Measurement: Raman, 514 nm, ccw, Raman Data Processed
Mineral: Spinel
Rruff sample: R050184
Ideal chemistry: MgAl_2_O_4_
Locality: Pein Pyit, Mogok, Burma
Source: Marcus Origlieri
Description: Red crystal in calcite, associated with yellowish-green clinohumite, R050183
Measured chemistry: Mg_1.00_(Al_1.99_Cr_0.01_)_Î£=2_O_4_; trace amounts of V
Pin_id: L00212
Orientation: Laser parallel to -b* (0 -1 0). Fiducial mark perpendicular to laser is parallel to c [0 0 1]
Raman shift (cm-1)	intensity
111.855	0
115.57	719.219
119.283	419.238
122.995	548.984
126.705	362.934
130.414	233.098
134.12	358.84
137.826	36.8906
141.529	399.152
145.232	71.2773
148.932	461.531
152.631	390.133
156.328	577.402
160.024	474.082
163.718	293.039
167.411	355.148
171.102	379.356
174.791	405.609
178.479	88.8594
182.165	758.121
185.85	434.356
189.533	478.078
193.214	236.019
196.894	373.242
200.572	323.812
204.249	140.824
207.924	560.324
211.598	712.309
215.27	69.7773
218.94	516.742
222.609	388.352
226.276	350.473
229.942	361.188
233.606	471.332
237.269	434.898
240.929	212.066
244.589	312.258
248.247	298.133
251.903	225.383
255.557	312.281
259.21	341.938
262.862	167.121
266.512	222.844
270.16	286.941
273.807	32.1875
277.452	531.414
281.096	288.273
284.738	238.242
288.378	306.133
292.017	328.438
295.655	404.113
299.291	554.148
302.925	607.551
306.558	571.285
310.189	1126.61
313.818	1756.07
317.446	1269.48
321.073	610.652
324.698	418.176
328.321	77.2539
331.943	341.836
335.563	332.84
339.182	379.977
342.799	218.094
346.414	153.371
350.028	33.8008
353.641	415.387
357.252	326.824
360.861	378.316
364.469	437.824
368.075	447.969
371.68	513.703
375.283	686.004
378.884	694.914
382.484	802.133
386.083	615.648
389.68	915.34
393.275	1209.48
396.869	2002.09
400.461	3453.72
404.052	5852.8
407.641	8285.87
411.229	5375.22
414.815	2606.12
418.4	1529.69
421.983	1034.74
425.564	944.742
429.144	816.039
432.722	302.281
436.299	464.539
439.875	172.856
443.448	392.141
447.021	437.481
450.591	317.719
454.161	505.297
457.728	288.492
461.294	78.2773
464.859	20.4102
468.422	58.0664
471.984	64.5586
475.544	98.4102
479.102	192.195
482.659	204.801
486.214	371.312
489.768	18.7734
493.321	94.1484
496.872	5.46484
500.421	271.684
503.969	94.8398
507.515	7.10156
511.06	71.4453
514.603	265.731
518.144	191.766
521.685	10.4883
525.223	238.984
528.76	83.4023
532.296	154.277
535.83	132.641
539.363	335.414
542.894	195.856
546.423	127.516
549.951	10.5391
553.478	148.422
557.003	93.4453
560.526	145.09
564.048	149.43
567.568	310.547
571.087	140.641
574.605	230.676
578.121	180.688
581.635	27.0938
585.148	96.6133
588.659	261.461
592.169	17.7383
595.677	309.969
599.184	155.617
602.69	118.266
606.193	123.027
609.696	214.773
613.197	179.312
616.696	377.894
620.194	239.258
623.69	144.715
627.185	81.4219
630.678	12.1992
634.17	164.055
637.66	287.285
641.149	312.312
644.636	478.445
648.122	835.996
651.606	997.519
655.089	920.816
658.57	1760.44
662.05	2428.93
665.528	3067.87
669.005	2744.98
672.481	1997
675.954	1172.04
679.427	887.703
682.898	525.144
686.367	223.867
689.835	311.898
693.301	183.848
696.766	491.805
700.229	194.164
703.691	187.664
707.152	386.801
710.611	81.3047
714.068	200.18
717.524	703.344
720.978	445.461
724.431	550.519
727.883	419.551
731.333	436.902
734.781	358.434
738.229	458.555
741.674	255.449
745.118	508.406
748.561	851.363
752.002	1152.5
755.442	1757.83
758.88	2380.79
762.316	3445.28
765.752	4538.28
769.185	3668.78
772.618	2935.87
776.048	1598.38
779.478	1160.31
782.906	998.664
786.332	902.457
789.757	838.914
793.18	545.871
796.602	720.316
800.023	696.289
803.442	570.723
806.859	430.562
810.275	384.898
813.69	508.793
817.103	360.113
820.515	265.91
823.925	410.285
827.334	367.152
830.741	423.297
834.147	174.09
837.551	409.41
840.954	398.324
844.355	317.629
847.755	332.391
851.154	273.574
854.551	110.172
857.946	167.191
861.341	271.809
864.733	396.602
868.124	183.941
871.514	539.734
874.902	431.137
878.289	248.336
881.675	210.121
885.059	522.559
888.441	535.746
891.822	417.832
895.202	597.422
898.58	761.09
901.956	334.863
905.332	574.812
908.705	574.957
912.078	625.598
915.448	592.527
918.818	670.406
922.186	607.578
925.552	435.047
928.917	346.793
932.281	405.809
935.643	240.113
939.004	149.684
942.363	214.531
945.721	390.742
949.077	434.301
952.432	41.1328
955.786	307.231
959.138	415.582
962.489	423.172
965.838	149.031
969.186	197.199
972.532	255.606
975.877	137.305
979.22	92.2812
982.562	257.484
985.903	191.875
989.242	251.441
992.58	54.8203
995.916	241.031
999.251	143.039
1002.58	248.172
1005.92	0.429688
1009.25	77.1914
1012.58	39.0703
1015.9	111.297
1019.23	2.53516
1022.55	108.68
1025.88	312.543
1029.2	201.762
1032.52	88.5664
1035.84	5.32031
1039.16	104.09
1042.47	45.3242
1045.79	236.234
1049.1	132.566
1052.41	70.2109
1055.72	384.812
1059.03	387.812
1062.34	642.312
1065.65	580.293
1068.95	335.879
1072.26	551.301
1075.56	789.293
1078.86	517.484
1082.16	638.93
1085.45	650.477
1088.75	774.121
1092.05	628.242
1095.34	487.371
1098.63	820.637
1101.92	695.098
1105.21	667.406
1108.5	535.488
1111.79	609.785
1115.07	568.812
1118.36	706.332
1121.64	789.43
1124.92	600.375
1128.2	488.137
1131.47	706.43
1134.75	548.406
1138.03	847.856
1141.3	589.18
1144.57	427.082
1147.84	565.742
1151.11	571.394
1154.38	486.785
1157.65	607.152
1160.91	695.777
1164.18	449.535
1167.44	343.504
1170.7	402.457
1173.96	452.285
1177.22	483.973
1180.48	537.074
1183.73	298.769
1186.98	293.188
1190.24	425.695
1193.49	297.176
1196.74	303.805
1199.99	431.945
1203.23	227.648
1206.48	101.336
1209.72	9.60547
1212.97	209.641
1216.21	314.402
1219.45	150.578
1222.69	263.684
1225.93	209.934
1229.16	79.2227
1232.4	150.371
1235.63	105.051
1238.86	103.992
1242.09	343.863
1245.32	380.273
1248.55	223.281
1251.78	521.426
1255	185.367
1258.22	322.527
1261.44	315.644
1264.67	297.195
1267.88	282.922
1271.1	525.863
1274.32	332.203
1277.54	424.289
1280.75	273.32
1283.96	513.637
1287.17	34.0781
1290.38	129.047
1293.59	110.672
1296.8	329.629
1300	415.391
1303.21	476.414
1306.41	68.1289
1309.61	132.285
1312.81	286.375
1316.01	391.606
1319.21	254.742
1322.4	336.141
1325.6	329.996
1328.79	218.129
1331.98	226.832
1335.17	116.973
1338.36	158.734
1341.55	32.7422
1344.73	203.606
1347.92	170.473
1351.1	111.453
1354.29	71.9336
1357.47	219.633
1360.64	188.504
1363.82	165.496
1367	114.539
1370.17	198.488
1373.35	150.422
1376.52	186.453
1379.69	209.812
1382.86	74.582
1386.03	277.309
1389.2	246.621
1392.36	427.379
1395.53	64.5117
1398.69	233.691
1401.85	496.621
1405.01	635.715
1408.17	473.539
1411.33	360.352
1414.49	227.574
1417.64	281.375
1420.8	359.93
1423.95	301.559
1427.1	310.098
1430.25	431.324
1433.4	114.262
1436.54	465.648
1439.69	37.7305
1442.83	224.672
1445.97	186.883
1449.12	383.469
1452.26	302.293
1455.39	260.223
1458.53	30.0625
1461.67	193.754
1464.8	349.668
1467.94	0
