Measurement: Raman, 514 nm, depolarized, Raman Data Processed
Mineral: Spinel
Rruff sample: R050259
Ideal chemistry: MgAl_2_O_4_
Locality: Mogok, Burma
Source: Marcus Origlieri
Description: Purple cut gemstone
Measured chemistry: (Mg_0.99_Zn_0.01_)_Σ=1_(Al_1.98_Fe^3+^_0.02_)_Σ=2_O_4_; trace amounts of Cr
Pin_id: L00851
Orientation: Laser parallel to c* (0 0 1). Fiducial mark perpendicular to laser is parallel to a [1 0 0]
Raman shift (cm-1)	intensity
75.957	0
80.912	735.375
85.863	1595.81
90.812	1263.56
95.759	150.188
100.703	593.812
105.644	704.375
110.583	467.312
115.52	551.188
120.453	1986.12
125.385	2991.88
130.313	4121.62
135.239	4187.19
140.163	4562.06
145.084	4922.75
150.002	5893.19
154.918	4598.5
159.832	6369.38
164.742	4849.06
169.651	3509.44
174.556	4650.06
179.459	3323.44
184.36	4727.94
189.258	4595.62
194.153	5688.81
199.046	6316.88
203.936	7195.44
208.824	6589.75
213.709	6044.75
218.592	5768
223.472	5574
228.349	5909.75
233.224	6109.06
238.096	6338.44
242.966	7407.31
247.833	6093.44
252.698	6219.38
257.56	4882.75
262.419	5030.25
267.276	5913.06
272.13	6775
276.982	4590.88
281.831	5101.5
286.677	5840.62
291.521	6549
296.363	5363.44
301.202	6813.94
306.038	7268.62
310.872	7830.94
315.703	6782.5
320.531	5209.56
325.357	5601.81
330.181	5724.38
335.001	6304.94
339.82	5380.5
344.635	5495
349.448	4852.12
354.259	4959
359.067	5188.62
363.872	5375.31
368.675	6456.25
373.475	8045
378.272	9183.88
383.067	8345.56
387.86	11398
392.649	17959.2
397.437	33193.9
402.221	72184.3
407.003	96095.2
411.783	43146.6
416.56	18268.7
421.334	8670.06
426.106	5836.56
430.875	4104.06
435.641	2772.56
440.405	496.312
445.167	569.312
449.925	547.125
454.681	1148.5
459.435	470.312
464.186	506.875
468.934	1238.12
473.68	1408.75
478.423	589.5
483.164	735.25
487.902	899.812
492.637	97.9375
497.37	535.5
502.1	1158.31
506.828	894.375
511.553	751.938
516.276	1039.06
520.995	468.125
525.713	364.125
530.427	400.5
535.139	633.25
539.849	870.688
544.556	244.062
549.26	447.438
553.962	860.438
558.661	1005.78
563.357	1672.5
568.051	1696.19
572.742	1331.38
577.431	1641.09
582.117	2766.22
586.801	2922.31
591.481	3961.69
596.16	4637.91
600.835	7030.12
605.508	4054.56
610.179	3992
614.847	4234.34
619.512	4472.44
624.175	5378.38
628.835	5360.12
633.492	5633.97
638.147	6820.59
642.799	7338.84
647.449	7171.47
652.096	7475.03
656.74	8990.56
661.382	12057.2
666.021	12822.5
670.658	10542.8
675.292	6588.56
679.923	6105.81
684.552	4845.28
689.178	4950.03
693.802	6078.88
698.423	5347.28
703.041	5750.22
707.657	4533.28
712.27	4665.28
716.881	223.562
721.489	2216.28
726.094	40.5938
730.697	3694.78
735.297	5796.09
739.894	5862.25
744.489	7510.94
749.081	8744.66
753.671	11434.1
758.258	15378.6
762.842	21652
767.424	23075.2
772.003	16664
776.58	10442.4
781.154	8200.12
785.725	5027.78
790.294	4617.12
794.86	3364.66
799.424	3560.81
803.985	4943
808.543	6055.34
813.099	5636.28
817.652	5324.53
822.202	4629.44
826.75	4575.84
831.295	4658.34
835.838	4686.25
840.378	5361.19
844.915	5053.25
849.45	5310.47
853.982	3835.47
858.512	2981.28
863.039	2803.59
867.563	2225.97
872.085	1751.72
876.604	1720.56
881.12	1588.03
885.634	712.438
890.145	1190.53
894.654	655.969
899.16	515.781
903.663	2215.19
908.164	1953.03
912.662	1151.94
917.158	2233.03
921.651	1656.44
926.141	1389.75
930.628	1993.31
935.113	2258.12
939.596	2038.69
944.076	1888.62
948.553	1896.38
953.027	2136.5
957.499	2281.62
961.969	1365.75
966.435	1810.31
970.899	1467.06
975.361	1331
979.82	1576.22
984.276	1486.25
988.73	2484.22
993.181	969.688
997.629	1644.75
1002.08	1390.69
1006.52	1377.97
1010.96	1421.19
1015.4	1850.56
1019.83	1165.72
1024.26	657.391
1028.69	107.891
1033.12	8.70312
1037.55	220.297
1041.97	360.891
1046.39	252.75
1050.81	172.266
1055.22	412.703
1059.63	1095.5
1064.04	1146.28
1068.45	368.172
1072.85	383.625
1077.25	535.344
1081.65	1202.3
1086.05	1165.58
1090.44	552.281
1094.83	1599.2
1099.22	1314.5
1103.6	1748.8
1107.99	1470.56
1112.37	2236.31
1116.74	1545.08
1121.12	1581.98
1125.49	2185.47
1129.86	1491.3
1134.23	1056.72
1138.59	487.438
1142.95	1155.31
1147.31	1196.83
1151.67	2396.16
1156.02	462.844
1160.38	286.375
1164.72	1893.05
1169.07	114.016
1173.41	773.172
1177.75	954.594
1182.09	1309.75
1186.43	392.578
1190.76	542.516
1195.09	428.578
1199.42	754.562
1203.74	472.531
1208.07	797.906
1212.39	123.734
1216.7	1162.33
1221.02	720.203
1225.33	1004.72
1229.64	601.969
1233.95	1348.89
1238.25	864.422
1242.55	741.812
1246.85	260.328
1251.15	275.203
1255.44	275.516
1259.73	715.812
1264.02	299.438
1268.31	629.953
1272.59	456.172
1276.87	490.719
1281.15	39.5781
1285.42	145.797
1289.69	339.359
1293.96	255.781
1298.23	507.016
1302.5	162.828
1306.76	426.188
1311.02	782.062
1315.27	701.062
1319.53	602.172
1323.78	174.438
1328.03	695.469
1332.28	42.3438
1336.52	601.812
1340.76	436.922
1345	437.656
1349.23	870.141
1353.47	839.172
1357.7	206.641
1361.93	352.359
1366.15	957.781
1370.37	546.875
1374.59	1022.2
1378.81	549.688
1383.03	1293.84
1387.24	883.234
1391.45	689.469
1395.65	1076.66
1399.86	44.6562
1404.06	1037.47
1408.26	694.766
1412.46	492.531
1416.65	1007.75
1420.84	937.859
1425.03	771.734
1429.22	648.984
1433.4	38.5469
1437.58	773.922
1441.76	187.5
1445.93	334.734
1450.11	279.508
1454.28	137.586
1458.44	376.961
1462.61	245.242
1466.77	425.805
1470.93	240.469
1475.09	166.312
1479.24	647.836
1483.39	420.344
1487.54	936.508
1491.69	869.281
1495.84	142.047
1499.98	921.812
1504.12	873.266
1508.25	805.102
1512.38	538.195
1516.52	562.844
1520.64	886.031
1524.77	406.727
1528.89	863.039
1533.01	707.82
1537.13	961.109
1541.25	845.477
1545.36	524.539
1549.47	848.844
1553.58	1312.5
1557.68	517.648
1561.78	483.906
1565.88	336.047
1569.98	543.766
1574.07	10.75
1578.16	0
