Measurement: Raman, 514 nm, ccw, Raman Data Processed
Mineral: Spinel
Rruff sample: R050259
Ideal chemistry: MgAl_2_O_4_
Locality: Mogok, Burma
Source: Marcus Origlieri
Description: Purple cut gemstone
Measured chemistry: (Mg_0.99_Zn_0.01_)_Σ=1_(Al_1.98_Fe^3+^_0.02_)_Σ=2_O_4_; trace amounts of Cr
Pin_id: L00851
Orientation: Laser parallel to c* (0 0 1). Fiducial mark perpendicular to laser is parallel to a [1 0 0]
Raman shift (cm-1)	intensity
75.957	0
80.912	1680.38
85.863	25.25
90.812	5892.94
95.759	848.812
100.703	599.625
105.644	1397.38
110.583	718.688
115.52	1260
120.453	1625.69
125.385	2216.12
130.313	3869.44
135.239	3310.06
140.163	5088.44
145.084	6327.94
150.002	6221.75
154.918	5103.69
159.832	5548.88
164.742	5510.19
169.651	4428.12
174.556	5206.12
179.459	5110.38
184.36	5228.38
189.258	5592.25
194.153	5586.88
199.046	7463.81
203.936	7276.94
208.824	7050.25
213.709	7812.62
218.592	7679.31
223.472	8267.62
228.349	7825.5
233.224	6723.5
238.096	8420.5
242.966	7886.12
247.833	6344.94
252.698	6995.38
257.56	7695.81
262.419	6708.25
267.276	6715.81
272.13	8392.44
276.982	7025.56
281.831	6485.88
286.677	6846.88
291.521	7055.38
296.363	8191.06
301.202	6983.31
306.038	7475.94
310.872	7430.5
315.703	7521.56
320.531	6536.88
325.357	7811.38
330.181	7204.94
335.001	6647.38
339.82	6763.06
344.635	7553.12
349.448	7572.94
354.259	8678.12
359.067	8571.62
363.872	8565.56
368.675	9009.19
373.475	9967.38
378.272	11827.5
383.067	13781.7
387.86	16401.1
392.649	27333.6
397.437	51264.8
402.221	111566
407.003	146840
411.783	65474
416.56	27563.1
421.334	14326.8
426.106	8539.19
430.875	4941.81
435.641	4449.06
440.405	2258.75
445.167	1177.25
449.925	1754.81
454.681	826
459.435	550.688
464.186	1841.06
468.934	2091.94
473.68	2482.31
478.423	2003.75
483.164	1931.12
487.902	1005.19
492.637	800.562
497.37	319.062
502.1	1311.31
506.828	449.5
511.553	251.875
516.276	891.375
520.995	175.812
525.713	343.062
530.427	678.312
535.139	109.25
539.849	6.9375
544.556	148.312
549.26	275.938
553.962	1591.75
558.661	2043
563.357	326.562
568.051	1205.12
572.742	1209.25
577.431	1664.94
582.117	2002.38
586.801	2808.5
591.481	3333.16
596.16	3916.47
600.835	5194.22
605.508	2991.81
610.179	3150.22
614.847	4804.06
619.512	4636.16
624.175	4849.62
628.835	5319.78
633.492	5967.12
638.147	5853.09
642.799	6644.78
647.449	5595.28
652.096	5416.5
656.74	6055.81
661.382	6877.16
666.021	7637.59
670.658	5927.41
675.292	5030.44
679.923	4972.47
684.552	3994.81
689.178	4338.31
693.802	5634.38
698.423	5320.94
703.041	5928.88
707.657	5171.59
712.27	3440.66
716.881	1171.59
721.489	3212.97
726.094	676.906
730.697	3899.31
735.297	5734.41
739.894	5625.53
744.489	7633.56
749.081	8702.09
753.671	11752.1
758.258	15159.9
762.842	21740.4
767.424	23267.5
772.003	16154
776.58	10578.7
781.154	7991.56
785.725	5231.59
790.294	4492.97
794.86	2578.84
799.424	3536.44
803.985	3831.16
808.543	5864.31
813.099	6852.75
817.652	5781
822.202	4340.31
826.75	4956.88
831.295	5093.28
835.838	4396.22
840.378	4880.56
844.915	4937.03
849.45	4663.09
853.982	4362.62
858.512	3097.16
863.039	1997.5
867.563	1528.59
872.085	2314.94
876.604	1258.31
881.12	1638.72
885.634	1105.06
890.145	1229.81
894.654	461.562
899.16	1106.53
903.663	1235.16
908.164	1410.38
912.662	2104.09
917.158	2403.44
921.651	2008.31
926.141	2910.03
930.628	1931.56
935.113	1160.25
939.596	2145.44
944.076	1315.81
948.553	1420.75
953.027	1254.44
957.499	2018.47
961.969	1362.78
966.435	1484.31
970.899	2030.09
975.361	877.281
979.82	1737.12
984.276	1818.41
988.73	1554.69
993.181	2045.69
997.629	1249.25
1002.08	1555.56
1006.52	1866.84
1010.96	1718.03
1015.4	1029.16
1019.83	1273.81
1024.26	819.625
1028.69	544.922
1033.12	193.984
1037.55	250.875
1041.97	518.969
1046.39	493.828
1050.81	218.766
1055.22	215.875
1059.63	49.5938
1064.04	682.547
1068.45	399.734
1072.85	188.469
1077.25	363.984
1081.65	526.094
1086.05	738.688
1090.44	294.766
1094.83	995.312
1099.22	329.312
1103.6	1242.3
1107.99	1618.17
1112.37	1729
1116.74	1269.64
1121.12	1209.77
1125.49	2174.95
1129.86	1273.39
1134.23	699.641
1138.59	980.594
1142.95	767.516
1147.31	1138.75
1151.67	1614.53
1156.02	1018.72
1160.38	478.766
1164.72	931.094
1169.07	201.594
1173.41	831.188
1177.75	895.688
1182.09	494.578
1186.43	224.391
1190.76	222.344
1195.09	435.922
1199.42	45.9062
1203.74	621.578
1208.07	15.4531
1212.39	652.703
1216.7	274.203
1221.02	865.625
1225.33	275.094
1229.64	780.844
1233.95	494.812
1238.25	446.203
1242.55	194.891
1246.85	953.625
1251.15	88.6719
1255.44	134.875
1259.73	266.969
1264.02	271.281
1268.31	298.609
1272.59	552.234
1276.87	23.3594
1281.15	338.391
1285.42	75.2188
1289.69	283.156
1293.96	537.141
1298.23	195.078
1302.5	298.859
1306.76	287.062
1311.02	487.344
1315.27	81.6562
1319.53	651.781
1323.78	300.891
1328.03	333.875
1332.28	1095.81
1336.52	591.203
1340.76	70.1875
1345	992.234
1349.23	660.141
1353.47	652.562
1357.7	160.734
1361.93	742.062
1366.15	727.547
1370.37	667.766
1374.59	1003.73
1378.81	660.906
1383.03	1058.67
1387.24	955.047
1391.45	651.453
1395.65	1172.78
1399.86	588.953
1404.06	355.219
1408.26	1040.72
1412.46	1053.09
1416.65	774.797
1420.84	507.797
1425.03	57.9297
1429.22	947.367
1433.4	293.273
1437.58	531.969
1441.76	59.5312
1445.93	195.984
1450.11	51.8281
1454.28	547.031
1458.44	687.484
1462.61	553.438
1466.77	296.703
1470.93	71.9844
1475.09	92.4688
1479.24	717.984
1483.39	304.812
1487.54	1586.67
1491.69	845.609
1495.84	527.805
1499.98	1113.5
1504.12	1252.12
1508.25	1499.06
1512.38	1222.46
1516.52	698.477
1520.64	863.586
1524.77	874.258
1528.89	669.555
1533.01	764.555
1537.13	1204.48
1541.25	1088.92
1545.36	351.758
1549.47	1107.47
1553.58	882.523
1557.68	284.227
1561.78	536.57
1565.88	439.453
1569.98	108.516
1574.07	32.4062
1578.16	0
