Measurement: Raman, 514 nm, ccw, Raman Data Processed
Mineral: Spinel
Rruff sample: R060799
Ideal chemistry: MgAl_2_O_4_
Locality: Aliabad, Hunza Valley, Pakistan
Source: Marcus Origlieri
Description: A group of blue distorted octahedra
Measured chemistry: (Mg_0.97_Fe^2+^_0.03_)_1.00_Al_2.00_O_4_
Pin_id: L01579
Orientation: Laser parallel to a* (1 0 0). Fiducial mark perpendicular to laser is parallel to c [0 0 1]
Raman shift (cm-1)	intensity
75.957	0
80.912	221.844
85.863	696.812
90.812	536.562
95.759	591.961
100.703	611.352
105.644	1701.35
110.583	568.086
115.52	753.242
120.453	638.867
125.385	453.305
130.313	763.492
135.239	608.758
140.163	1407.32
145.084	915.977
150.002	444.039
154.918	966.797
159.832	473.875
164.742	115.727
169.651	541.602
174.556	302.992
179.459	95.6562
184.36	46.7891
189.258	297.758
194.153	798.469
199.046	557.891
203.936	197.891
208.824	533.445
213.709	617.5
218.592	229.758
223.472	353.75
228.349	124.938
233.224	207.109
238.096	420.047
242.966	24.875
247.833	179.508
252.698	278.031
257.56	293.617
262.419	652.789
267.276	182.312
272.13	318.047
276.982	41.1016
281.831	154.883
286.677	41.1328
291.521	521.305
296.363	652.258
301.202	653.969
306.038	946.391
310.872	1692.57
315.703	1306.54
320.531	292.297
325.357	451.742
330.181	769.68
335.001	369.484
339.82	708.922
344.635	915.969
349.448	765.172
354.259	1162.16
359.067	1618.53
363.872	1629.81
368.675	1925.53
373.475	2633.95
378.272	2978.35
383.067	4447.27
387.86	6780.73
392.649	13399.7
397.437	33626.6
402.221	82333.7
407.003	115198
411.783	42545.6
416.56	13129.2
421.334	5524.01
426.106	2970.32
430.875	1921.99
435.641	1314.19
440.405	831.141
445.167	835.359
449.925	762.391
454.681	240.211
459.435	722.258
464.186	611.109
468.934	503.945
473.68	546.75
478.423	508.508
483.164	466.203
487.902	590.805
492.637	81.75
497.37	65.75
502.1	50.2578
506.828	189.5
511.553	182.43
516.276	182.609
520.995	17.1328
525.713	333.68
530.427	163.445
535.139	179.867
539.849	343.18
544.556	283.266
549.26	103.617
553.962	116.477
558.661	365.531
563.357	66.2734
568.051	805.086
572.742	407.125
577.431	458.062
582.117	664.289
586.801	277.023
591.481	386.688
596.16	947.539
600.835	960.297
605.508	924.695
610.179	991.844
614.847	985.672
619.512	912.258
624.175	960.578
628.835	993.484
633.492	1400.56
638.147	1067.07
642.799	1171.11
647.449	1011.97
652.096	2170.58
656.74	3461.76
661.382	5720.42
666.021	6598.02
670.658	4205.72
675.292	1928.25
679.923	936.219
684.552	430.141
689.178	386.078
693.802	352.977
698.423	874.617
703.041	858.281
707.657	651.281
712.27	415.211
716.881	176.875
721.489	173.387
726.094	70.1797
730.697	332.562
735.297	878.309
739.894	1045.11
744.489	1435.68
749.081	2644.87
753.671	4685.75
758.258	7965.79
762.842	13914.2
767.424	16430.7
772.003	11373.9
776.58	5801.34
781.154	3379.63
785.725	1973.51
790.294	1270.39
794.86	833.367
799.424	653.312
803.985	639.559
808.543	436.801
813.099	536.137
817.652	399.914
822.202	473.254
826.75	317.926
831.295	850.297
835.838	198.852
840.378	232.465
844.915	87.6641
849.45	287.477
853.982	38.082
858.512	3.58594
863.039	362.402
867.563	253.078
872.085	28.9297
876.604	123.887
881.12	36.3203
885.634	247.836
890.145	99.3164
894.654	41.7422
899.16	8.98047
903.663	242.039
908.164	354.414
912.662	327.977
917.158	21.6133
921.651	357.699
926.141	238.383
930.628	11.2031
935.113	312.426
939.596	365.402
944.076	286.555
948.553	99.9219
953.027	306.898
957.499	274.754
961.969	237.402
966.435	511.484
970.899	411.07
975.361	461.168
979.82	303.457
984.276	384.301
988.73	208.492
993.181	321.383
997.629	417.543
1002.08	571.652
1006.52	643.551
1010.96	388.996
1015.4	259.797
1019.83	294.152
1024.26	522.777
1028.69	444.406
1033.12	172.231
1037.55	40.6719
1041.97	50.1133
1046.39	281.156
1050.81	175.379
1055.22	119.383
1059.63	95.7656
1064.04	162.348
1068.45	43.6211
1072.85	17.4336
1077.25	142.356
1081.65	173.551
1086.05	297.086
1090.44	163.457
1094.83	387.891
1099.22	350.16
1103.6	169.035
1107.99	537.254
1112.37	47.2656
1116.74	43.8711
1121.12	399.859
1125.49	242.219
1129.86	254.305
1134.23	503.019
1138.59	308.676
1142.95	340.297
1147.31	410.805
1151.67	394.836
1156.02	297.277
1160.38	170.227
1164.72	340.039
1169.07	143.957
1173.41	237.594
1177.75	221.391
1182.09	270.316
1186.43	398.125
1190.76	278.672
1195.09	241.574
1199.42	3.71484
1203.74	345.703
1208.07	41.3789
1212.39	203.328
1216.7	272.055
1221.02	474.762
1225.33	298.012
1229.64	27.9453
1233.95	309.961
1238.25	17.6992
1242.55	180.723
1246.85	82.2344
1251.15	260.227
1255.44	62.6328
1259.73	151.504
1264.02	41.6426
1268.31	122.363
1272.59	6.83789
1276.87	137.914
1281.15	221
1285.42	338.246
1289.69	34.4746
1293.96	364.523
1298.23	261.58
1302.5	314.318
1306.76	127.367
1311.02	118.195
1315.27	64.9258
1319.53	347.262
1323.78	137.685
1328.03	71.4863
1332.28	136.438
1336.52	88.7246
1340.76	93.1777
1345	28.5371
1349.23	229.799
1353.47	351.041
1357.7	217.193
1361.93	16.6426
1366.15	145.498
1370.37	275.699
1374.59	337.074
1378.81	243.039
1383.03	474.762
1387.24	381.533
1391.45	268.549
1395.65	495.924
1399.86	384.246
1404.06	613.518
1408.26	633.674
1412.46	614.236
1416.65	672.137
1420.84	803.836
1425.03	496.981
1429.22	655.127
1433.4	968.232
1437.58	553.24
1441.76	381.654
1445.93	410.402
1450.11	300.914
1454.28	290.275
1458.44	487.19
1462.61	48.1836
1466.77	7.11719
1470.93	112.557
1475.09	193.828
1479.24	110.272
1483.39	83.6738
1487.54	107.668
1491.69	108.578
1495.84	0.78125
1499.98	252.94
1504.12	78.8242
1508.25	52.9062
1512.38	340.019
1516.52	218.551
1520.64	252.522
1524.77	436.789
1528.89	315.088
1533.01	348.26
1537.13	572.076
1541.25	386.768
1545.36	87.6504
1549.47	276.81
1553.58	567.742
1557.68	296.787
1561.78	365.207
1565.88	353.121
1569.98	279.654
1574.07	157.385
1578.16	0
