Measurement: Raman, 514 nm, depolarized, Raman Data Processed
Mineral: Spinel
Rruff sample: R050184
Ideal chemistry: MgAl_2_O_4_
Locality: Pein Pyit, Mogok, Burma
Source: Marcus Origlieri
Description: Red crystal in calcite, associated with yellowish-green clinohumite, R050183
Measured chemistry: Mg_1.00_(Al_1.99_Cr_0.01_)_Î£=2_O_4_; trace amounts of V
Pin_id: L00212
Orientation: Laser parallel to -b* (0 -1 0). Fiducial mark perpendicular to laser is parallel to c [0 0 1]
Raman shift (cm-1)	intensity
111.855	0
115.57	177.898
119.283	300.691
122.995	243.098
126.705	49.0391
130.414	94.5703
134.12	189.617
137.826	69.5742
141.529	84.2617
145.232	247.816
148.932	429.883
152.631	60.2734
156.328	307.758
160.024	344.133
163.718	66.3008
167.411	482.238
171.102	172.914
174.791	306.277
178.479	234.328
182.165	295.062
185.85	231.418
189.533	259.172
193.214	599.207
196.894	473.449
200.572	508.762
204.249	323.273
207.924	556.93
211.598	600.996
215.27	603.648
218.94	223.672
222.609	212.125
226.276	540.934
229.942	296.023
233.606	108.195
237.269	159.488
240.929	116.988
244.589	260.938
248.247	241.203
251.903	505.625
255.557	253.191
259.21	160.746
262.862	95.6367
266.512	249.644
270.16	274.309
273.807	314.148
277.452	104.152
281.096	98.7031
284.738	582.418
288.378	671.594
292.017	396.039
295.655	613.734
299.291	581.316
302.925	239.488
306.558	612.695
310.189	1026.4
313.818	1264.64
317.446	589.25
321.073	414.781
324.698	128.957
328.321	221.727
331.943	266.738
335.563	132.367
339.182	173.047
342.799	106.43
346.414	250.914
350.028	31.8555
353.641	492.856
357.252	481.742
360.861	189.738
364.469	412.57
368.075	535.746
371.68	544.731
375.283	178.109
378.884	980.809
382.484	692.07
386.083	639.156
389.68	868.168
393.275	1400.39
396.869	2194.05
400.461	3762.04
404.052	6766.15
407.641	8997.6
411.229	6269.86
414.815	3131.97
418.4	1915.83
421.983	1278.04
425.564	791.453
429.144	492.84
432.722	471.281
436.299	307.727
439.875	223.18
443.448	262.703
447.021	252.746
450.591	357.289
454.161	116.598
457.728	208.633
461.294	501.441
464.859	20.7031
468.422	229.945
471.984	163.926
475.544	431.66
479.102	377.234
482.659	124.184
486.214	312.965
489.768	190.227
493.321	150.836
496.872	77.25
500.421	103.285
503.969	301.254
507.515	170.953
511.06	30.3945
514.603	55.6484
518.144	56.1641
521.685	68.8242
525.223	201.754
528.76	310.633
532.296	189.457
535.83	39.2227
539.363	13.0625
542.894	131.535
546.423	73.9297
549.951	87.3516
553.478	317.602
557.003	15.2656
560.526	6.39453
564.048	401.394
567.568	279.164
571.087	399.352
574.605	257.086
578.121	419.812
581.635	84.25
585.148	38.043
588.659	42.7461
592.169	1.77734
595.677	18.5547
599.184	72.5703
602.69	4.93359
606.193	153.902
609.696	106.887
613.197	152.633
616.696	17.7031
620.194	83.4844
623.69	220.785
627.185	98.5391
630.678	47.375
634.17	193.602
637.66	164.352
641.149	137.422
644.636	316.426
648.122	130.32
651.606	920.781
655.089	762.32
658.57	1413.42
662.05	2347.14
665.528	3005.11
669.005	2709.83
672.481	1830.87
675.954	1185.93
679.427	697.844
682.898	504.715
686.367	482.691
689.835	182.981
693.301	448.477
696.766	265.82
700.229	161.828
703.691	234.035
707.152	37.0352
710.611	458.727
714.068	127.945
717.524	53.7656
720.978	350.066
724.431	379.383
727.883	420.516
731.333	371.586
734.781	246.168
738.229	294.035
741.674	629.047
745.118	731.859
748.561	767.781
752.002	1101.41
755.442	1633.68
758.88	2193.25
762.316	3244.96
765.752	4216.49
769.185	3972.6
772.618	2331.75
776.048	1590.06
779.478	991.809
782.906	1046.93
786.332	814.574
789.757	958.707
793.18	767.238
796.602	680.898
800.023	701.559
803.442	450.316
806.859	478.469
810.275	560.019
813.69	195.957
817.103	812.301
820.515	326.059
823.925	366.266
827.334	422.93
830.741	457.992
834.147	260.926
837.551	423.941
840.954	34.625
844.355	316.762
847.755	282.969
851.154	130.57
854.551	67.8438
857.946	300.227
861.341	360.016
864.733	445.246
868.124	324.957
871.514	265.231
874.902	519.137
878.289	346.309
881.675	494.887
885.059	321.606
888.441	316.996
891.822	313.414
895.202	411.731
898.58	727.75
901.956	622.238
905.332	568.984
908.705	503.633
912.078	506.609
915.448	535.66
918.818	329.004
922.186	443.625
925.552	689.512
928.917	512.676
932.281	342.227
935.643	304.793
939.004	335.742
942.363	481.949
945.721	280.43
949.077	241.188
952.432	435.211
955.786	234.516
959.138	475.078
962.489	479.891
965.838	18.0664
969.186	203.203
972.532	416.738
975.877	252.227
979.22	186.211
982.562	450.398
985.903	246.797
989.242	299.387
992.58	248.152
995.916	193.098
999.251	245.195
1002.58	0.472656
1005.92	139.086
1009.25	17.2852
1012.58	60.75
1015.9	16.3203
1019.23	149.816
1022.55	78.8203
1025.88	86.5273
1029.2	65.3281
1032.52	33.3008
1035.84	2.43359
1039.16	214.359
1042.47	89.4688
1045.79	258.316
1049.1	281.434
1052.41	430.113
1055.72	422.844
1059.03	364.117
1062.34	580.191
1065.65	466.199
1068.95	759.953
1072.26	855.055
1075.56	705.777
1078.86	937.027
1082.16	637.426
1085.45	857.699
1088.75	984.402
1092.05	1002.33
1095.34	819.445
1098.63	741.281
1101.92	914.547
1105.21	763.602
1108.5	851.047
1111.79	779.809
1115.07	415.238
1118.36	515.641
1121.64	736.664
1124.92	586.777
1128.2	381.816
1131.47	664.195
1134.75	577.801
1138.03	806.473
1141.3	410.379
1144.57	798.441
1147.84	569.414
1151.11	668.996
1154.38	555.852
1157.65	494.859
1160.91	490.176
1164.18	280.156
1167.44	690.754
1170.7	398.082
1173.96	451.445
1177.22	513.566
1180.48	144.926
1183.73	599.176
1186.98	443.363
1190.24	338.102
1193.49	116.711
1196.74	323.484
1199.99	257.848
1203.23	93.7812
1206.48	159.961
1209.72	137.461
1212.97	189.969
1216.21	66.7383
1219.45	291.289
1222.69	314.121
1225.93	441.871
1229.16	130.902
1232.4	57.2578
1235.63	258.137
1238.86	348.449
1242.09	483.82
1245.32	550.562
1248.55	535.582
1251.78	295.856
1255	174.535
1258.22	410.824
1261.44	96.4141
1264.67	330.332
1267.88	479.32
1271.1	388.5
1274.32	437.965
1277.54	314.762
1280.75	493.953
1283.96	278.891
1287.17	308.184
1290.38	410.508
1293.59	422.402
1296.8	251.234
1300	245.375
1303.21	284.367
1306.41	169.512
1309.61	232.32
1312.81	286.574
1316.01	322.277
1319.21	197.773
1322.4	60.0469
1325.6	25.2812
1328.79	116.781
1331.98	62.7148
1335.17	35.3164
1338.36	207.184
1341.55	85.9883
1344.73	66.3789
1347.92	149.891
1351.1	243.644
1354.29	49.1367
1357.47	64.5391
1360.64	24.3516
1363.82	310.426
1367	145.941
1370.17	101.051
1373.35	317.691
1376.52	282.703
1379.69	306.133
1382.86	554.117
1386.03	523.137
1389.2	165.035
1392.36	390.754
1395.53	476.617
1398.69	602.461
1401.85	355.141
1405.01	593.938
1408.17	577.848
1411.33	552.707
1414.49	318.801
1417.64	172.352
1420.8	440.691
1423.95	365.566
1427.1	160.836
1430.25	300.426
1433.4	386.652
1436.54	417.613
1439.69	239.578
1442.83	563.586
1445.97	259.144
1449.12	519.109
1452.26	106.777
1455.39	331.754
1458.53	206.707
1461.67	354.801
1464.8	429.312
1467.94	0
