Measurement: Raman, 514 nm, ccw, Raman Data Processed
Mineral: Spinel
Rruff sample: R050259
Ideal chemistry: MgAl_2_O_4_
Locality: Mogok, Burma
Source: Marcus Origlieri
Description: Purple cut gemstone
Measured chemistry: (Mg_0.99_Zn_0.01_)_Σ=1_(Al_1.98_Fe^3+^_0.02_)_Σ=2_O_4_; trace amounts of Cr
Pin_id: L00851
Orientation: Laser parallel to c* (0 0 1). Fiducial mark perpendicular to laser is parallel to a [1 0 0]
Raman shift (cm-1)	intensity
75.957	0
80.912	2311.94
85.863	6576.44
90.812	2143.38
95.759	1161.94
100.703	4762.69
105.644	100.25
110.583	2672
115.52	66.5625
120.453	2340.81
125.385	1432.31
130.313	1596.06
135.239	4409.19
140.163	9012.12
145.084	5640.69
150.002	5969.06
154.918	5303.44
159.832	7576.38
164.742	2459.69
169.651	3980.94
174.556	3821.94
179.459	3013.81
184.36	5195.81
189.258	5479.06
194.153	3581.44
199.046	4891.69
203.936	7336.94
208.824	3899.25
213.709	4996.5
218.592	4252.5
223.472	1730.31
228.349	4793.19
233.224	3518.31
238.096	2961.44
242.966	2291.56
247.833	4623.44
252.698	3361.31
257.56	44.5
262.419	27.5625
267.276	3261.38
272.13	1241
276.982	1925.94
281.831	2585.81
286.677	3875.25
291.521	3564.31
296.363	2501.75
301.202	2222.56
306.038	3995.75
310.872	1845.81
315.703	2651.44
320.531	2352.81
325.357	3956.06
330.181	4415.94
335.001	4516.12
339.82	4001.5
344.635	3978.06
349.448	4436.94
354.259	5653.06
359.067	4393
363.872	5574.88
368.675	5823.56
373.475	7908.19
378.272	9172.5
383.067	9688.06
387.86	14708.4
392.649	24522.1
397.437	50295
402.221	110616
407.003	151912
411.783	66956.1
416.56	26008.1
421.334	13281.2
426.106	8282.5
430.875	5316.94
435.641	2444.81
440.405	812.812
445.167	734.562
449.925	155.812
454.681	492.125
459.435	569.062
464.186	1822.75
468.934	585.562
473.68	560.625
478.423	896.75
483.164	769.812
487.902	151.875
492.637	925.438
497.37	444.5
502.1	473.5
506.828	26.9375
511.553	58.5625
516.276	6.3125
520.995	32.6875
525.713	493.438
530.427	402.125
535.139	401.438
539.849	549.625
544.556	1654.06
549.26	2230.56
553.962	1571.06
558.661	1924.56
563.357	2402.56
568.051	1861.75
572.742	2205.62
577.431	2861.44
582.117	2415.5
586.801	4788.88
591.481	4772.69
596.16	5732.69
600.835	5088.03
605.508	6040.59
610.179	4340.84
614.847	5009.22
619.512	5290.75
624.175	6554.31
628.835	7088.25
633.492	7141.97
638.147	7981
642.799	8155.5
647.449	6833.12
652.096	7373.66
656.74	7707.41
661.382	8057.78
666.021	7638.97
670.658	8049.59
675.292	6750.12
679.923	5988.69
684.552	4772.28
689.178	6025.75
693.802	6613.59
698.423	6668.03
703.041	6788.88
707.657	7150.72
712.27	5490.62
716.881	440.625
721.489	3257.56
726.094	306.844
730.697	5410.53
735.297	6966
739.894	6628.53
744.489	9147.44
749.081	10210.5
753.671	12359.1
758.258	15903.8
762.842	22735.3
767.424	25852.8
772.003	17619.9
776.58	11409.4
781.154	8633.72
785.725	6279.31
790.294	4760.5
794.86	4044.66
799.424	5058.12
803.985	5781.66
808.543	6722
813.099	7224.62
817.652	6438.19
822.202	5751.09
826.75	4757.53
831.295	5108.09
835.838	5751.47
840.378	5035.28
844.915	5444.88
849.45	5265.22
853.982	4799.22
858.512	4098.59
863.039	3035.59
867.563	2942.12
872.085	2443.75
876.604	2212.5
881.12	1825.72
885.634	1275.03
890.145	1172.84
894.654	1386.84
899.16	1359.03
903.663	1932.28
908.164	1619.25
912.662	2626.25
917.158	1901.97
921.651	1839.22
926.141	1760.5
930.628	1944.41
935.113	1853.47
939.596	2306.88
944.076	2098.62
948.553	1491.19
953.027	1449.47
957.499	1600.16
961.969	1009.47
966.435	728.656
970.899	1396.41
975.361	1665.81
979.82	1491.72
984.276	1366.38
988.73	1605.09
993.181	1718.34
997.629	962.406
1002.08	1348.03
1006.52	964.312
1010.96	1748.34
1015.4	888.406
1019.83	964.094
1024.26	38
1028.69	82.5312
1033.12	555.344
1037.55	276.469
1041.97	308.016
1046.39	673.406
1050.81	735.391
1055.22	50.0312
1059.63	1067.89
1064.04	644.734
1068.45	477.156
1072.85	1033.67
1077.25	275.719
1081.65	1591.84
1086.05	943.984
1090.44	160.438
1094.83	1119.42
1099.22	1405.47
1103.6	1065.02
1107.99	1489.7
1112.37	2270.72
1116.74	1510.95
1121.12	1389.53
1125.49	1343.61
1129.86	1290.89
1134.23	1157.27
1138.59	509.078
1142.95	273.266
1147.31	1024.59
1151.67	1783.97
1156.02	1597.42
1160.38	829.547
1164.72	1683.47
1169.07	259.812
1173.41	1073
1177.75	220.016
1182.09	868.875
1186.43	164.156
1190.76	179.875
1195.09	691.078
1199.42	117.844
1203.74	958.266
1208.07	368.422
1212.39	691.656
1216.7	238.562
1221.02	434.562
1225.33	978.016
1229.64	278.594
1233.95	1008.17
1238.25	999.797
1242.55	256.859
1246.85	380.938
1251.15	434.812
1255.44	6.5625
1259.73	291.25
1264.02	260.531
1268.31	122.328
1272.59	980.531
1276.87	399.859
1281.15	614.688
1285.42	286.547
1289.69	426.875
1293.96	339.891
1298.23	320.203
1302.5	215.734
1306.76	304.094
1311.02	147.172
1315.27	696.234
1319.53	958.75
1323.78	391.828
1328.03	309.219
1332.28	169.719
1336.52	58.1406
1340.76	490.906
1345	423.609
1349.23	392.75
1353.47	956.781
1357.7	209.828
1361.93	232.781
1366.15	662.016
1370.37	929.391
1374.59	680.922
1378.81	1152.95
1383.03	1123.67
1387.24	552.297
1391.45	462.375
1395.65	587.344
1399.86	451.297
1404.06	320.531
1408.26	1132.2
1412.46	115.625
1416.65	1285.17
1420.84	648.375
1425.03	500.953
1429.22	694.984
1433.4	239.75
1437.58	603.195
1441.76	216.883
1445.93	24.7109
1450.11	554.648
1454.28	200.539
1458.44	85.4609
1462.61	70.6562
1466.77	496.008
1470.93	311.367
1475.09	143.75
1479.24	672.43
1483.39	457.203
1487.54	1278.99
1491.69	766.664
1495.84	488.203
1499.98	981.242
1504.12	1052.67
1508.25	748.055
1512.38	1412.57
1516.52	855.469
1520.64	438.219
1524.77	1008.02
1528.89	633.797
1533.01	1154.73
1537.13	1568.67
1541.25	1166.86
1545.36	468.914
1549.47	1048.26
1553.58	1002.19
1557.68	654.281
1561.78	707.164
1565.88	304.961
1569.98	1332.53
1574.07	11.1719
1578.16	0
