Measurement: Raman, 514 nm, ccw, Raman Data Processed
Mineral: Spinel
Rruff sample: R050184
Ideal chemistry: MgAl_2_O_4_
Locality: Pein Pyit, Mogok, Burma
Source: Marcus Origlieri
Description: Red crystal in calcite, associated with yellowish-green clinohumite, R050183
Measured chemistry: Mg_1.00_(Al_1.99_Cr_0.01_)_Î£=2_O_4_; trace amounts of V
Pin_id: L00212
Orientation: Laser parallel to -b* (0 -1 0). Fiducial mark perpendicular to laser is parallel to c [0 0 1]
Raman shift (cm-1)	intensity
111.855	0
115.57	338.414
119.283	126.734
122.995	36.1367
126.705	90.4531
130.414	139.543
134.12	71.1133
137.826	137.344
141.529	350.844
145.232	210.047
148.932	315.383
152.631	354.949
156.328	266.227
160.024	225.738
163.718	256.711
167.411	160.734
171.102	186.625
174.791	272.375
178.479	185.898
182.165	304.242
185.85	242.969
189.533	305.961
193.214	236.027
196.894	391.762
200.572	165.293
204.249	374.125
207.924	470.297
211.598	394.801
215.27	370.629
218.94	463.035
222.609	371.168
226.276	329.059
229.942	448.695
233.606	125.574
237.269	399.738
240.929	80.0469
244.589	205.516
248.247	11.6836
251.903	90.7852
255.557	199.816
259.21	516.766
262.862	3.82031
266.512	341.816
270.16	508.137
273.807	395.215
277.452	373.785
281.096	27.2383
284.738	333.09
288.378	190.738
292.017	421.738
295.655	286.051
299.291	485.133
302.925	502.875
306.558	590.809
310.189	1296.93
313.818	1201.24
317.446	705.324
321.073	401.555
324.698	166.445
328.321	366.801
331.943	175.473
335.563	496.438
339.182	224.746
342.799	279.402
346.414	289.797
350.028	177.305
353.641	385.809
357.252	345.496
360.861	314.266
364.469	140.062
368.075	499.719
371.68	491.738
375.283	620.586
378.884	595.637
382.484	468.184
386.083	541.008
389.68	555.789
393.275	1019.55
396.869	1751.34
400.461	2283.01
404.052	4543.06
407.641	5547.04
411.229	4074.89
414.815	2289.62
418.4	1205.39
421.983	705.16
425.564	576.644
429.144	284.391
432.722	178.629
436.299	524.801
439.875	102.469
443.448	353.09
447.021	330.398
450.591	121.918
454.161	315.559
457.728	47.3633
461.294	97.4258
464.859	68.3203
468.422	7.36719
471.984	128.219
475.544	228.512
479.102	0.292969
482.659	124.961
486.214	161.906
489.768	185.477
493.321	222.812
496.872	127.023
500.421	187.953
503.969	240.059
507.515	263.023
511.06	213.926
514.603	337.738
518.144	46.5117
521.685	84.8008
525.223	285.719
528.76	233.496
532.296	325.188
535.83	421.832
539.363	345.422
542.894	236.977
546.423	80.4531
549.951	315.836
553.478	312.426
557.003	122.981
560.526	314.266
564.048	169.531
567.568	142.769
571.087	217.996
574.605	317.184
578.121	262.195
581.635	253.133
585.148	19.5273
588.659	177.461
592.169	170.383
595.677	177.312
599.184	20.1875
602.69	17.3281
606.193	131.457
609.696	32.7148
613.197	116.019
616.696	23.1094
620.194	12.4062
623.69	313.754
627.185	238.172
630.678	95.793
634.17	326.234
637.66	125.535
641.149	442.606
644.636	289.887
648.122	262.332
651.606	646.09
655.089	1191.68
658.57	1545.31
662.05	3029.48
665.528	3473.09
669.005	2841.59
672.481	1906.31
675.954	1180.24
679.427	821.367
682.898	313.754
686.367	282.961
689.835	87.6484
693.301	109.402
696.766	30.6992
700.229	311.227
703.691	230.023
707.152	291.098
710.611	416.566
714.068	216.238
717.524	206.715
720.978	295.387
724.431	276.953
727.883	189.949
731.333	208.129
734.781	209.484
738.229	164.297
741.674	450.617
745.118	527.824
748.561	755.602
752.002	1259.31
755.442	1489.27
758.88	2190.85
762.316	3289.28
765.752	3972.11
769.185	3878.46
772.618	2695.92
776.048	1627.93
779.478	1326.24
782.906	991.941
786.332	748.023
789.757	944.512
793.18	407.391
796.602	598.691
800.023	291.625
803.442	638.082
806.859	501.945
810.275	530.219
813.69	480.883
817.103	470.961
820.515	399.438
823.925	503.344
827.334	385.934
830.741	389.137
834.147	503.008
837.551	299.519
840.954	302.438
844.355	250.742
847.755	367.438
851.154	221.555
854.551	182.18
857.946	474.191
861.341	320.598
864.733	103.391
868.124	271.781
871.514	368.402
874.902	349.262
878.289	571.867
881.675	102.676
885.059	534.668
888.441	443.188
891.822	648.219
895.202	500.176
898.58	386.762
901.956	606.824
905.332	585.074
908.705	440.141
912.078	520.199
915.448	559.414
918.818	377.902
922.186	547.641
925.552	356.652
928.917	312.93
932.281	179.461
935.643	392.246
939.004	434.266
942.363	224.531
945.721	302.004
949.077	348.703
952.432	199.648
955.786	300.82
959.138	358.227
962.489	526.906
965.838	293.828
969.186	88.9883
972.532	193.387
975.877	158.984
979.22	62.7656
982.562	430.727
985.903	82.8906
989.242	385.25
992.58	171.766
995.916	220.43
999.251	143.227
1002.58	6.13672
1005.92	95.8516
1009.25	123.875
1012.58	359.008
1015.9	46.0938
1019.23	133.781
1022.55	174.297
1025.88	31.6641
1029.2	143.941
1032.52	61.1797
1035.84	110.043
1039.16	150.656
1042.47	81.3828
1045.79	208.934
1049.1	165.879
1052.41	364.816
1055.72	431.566
1059.03	250.008
1062.34	664.617
1065.65	660.945
1068.95	657.785
1072.26	888.945
1075.56	768.766
1078.86	875.32
1082.16	810.59
1085.45	763.336
1088.75	813.715
1092.05	712.57
1095.34	692.188
1098.63	893.344
1101.92	579.789
1105.21	465.371
1108.5	722.348
1111.79	568.356
1115.07	639.121
1118.36	704.051
1121.64	583.606
1124.92	591.816
1128.2	727.09
1131.47	611.984
1134.75	694.805
1138.03	427.023
1141.3	729.656
1144.57	514.988
1147.84	446.164
1151.11	613.078
1154.38	699.551
1157.65	451.516
1160.91	504.098
1164.18	496.293
1167.44	390.723
1170.7	556.305
1173.96	179.629
1177.22	190.769
1180.48	59.5391
1183.73	302
1186.98	329.984
1190.24	134.211
1193.49	252.719
1196.74	232.031
1199.99	35.5312
1203.23	376.516
1206.48	434.262
1209.72	248.379
1212.97	244.512
1216.21	184.727
1219.45	173.883
1222.69	277.731
1225.93	383.953
1229.16	84.6758
1232.4	234.43
1235.63	344.141
1238.86	223.277
1242.09	152.945
1245.32	124.856
1248.55	204.734
1251.78	294.668
1255	361.231
1258.22	257.856
1261.44	189.656
1264.67	479.008
1267.88	201.219
1271.1	487.644
1274.32	258.863
1277.54	253.062
1280.75	101.191
1283.96	418.238
1287.17	308.609
1290.38	386.137
1293.59	211.805
1296.8	136.547
1300	322.996
1303.21	300.695
1306.41	267.488
1309.61	149.012
1312.81	37.4102
1316.01	67.4805
1319.21	309.227
1322.4	399.394
1325.6	214.844
1328.79	155.809
1331.98	15.0664
1335.17	94.0664
1338.36	15.707
1341.55	88.9648
1344.73	143.731
1347.92	4
1351.1	138.922
1354.29	42.7422
1357.47	154.488
1360.64	251.508
1363.82	268.305
1367	13.8672
1370.17	259.652
1373.35	236.691
1376.52	277.113
1379.69	237.773
1382.86	427.93
1386.03	298.965
1389.2	620.117
1392.36	550.938
1395.53	205.113
1398.69	480.586
1401.85	516.742
1405.01	446.625
1408.17	516.023
1411.33	444.102
1414.49	188.953
1417.64	399.672
1420.8	134.352
1423.95	484.469
1427.1	137.582
1430.25	473.438
1433.4	272.242
1436.54	278.641
1439.69	351.426
1442.83	456.348
1445.97	296.438
1449.12	220.184
1452.26	311.508
1455.39	183.238
1458.53	263.262
1461.67	132.977
1464.8	259.434
1467.94	0
