Measurement: Raman, 514 nm, depolarized, Raman Data Processed
Mineral: Spodumene
Rruff sample: R040050
Ideal chemistry: LiAlSi_2_O_6_
Locality: Minas Gerais, Brazil
Source: University of Arizona Mineral Museum
Description: Pale pink fragment of a single crystal, variety kunzite
Measured chemistry: (Li_0.99_Na_0.01_)Al_1.00_Si_2.00_O_6_
Pin_id: L00429
Orientation: Laser parallel to c* (0 0 1). Fiducial mark perpendicular to laser is parallel to a [1 0 0]
Raman shift (cm-1)	intensity
115.417	0
119.123	33.3113
122.827	103.755
126.529	134.756
130.23	195.823
133.93	189.038
137.628	62.8013
141.324	80.9243
145.019	53.6987
148.713	20.4038
152.405	82.3767
156.096	45.6977
159.785	62.8245
163.473	82.0718
167.159	60.7207
170.844	71.6643
174.528	60.7353
178.21	45.103
181.89	150.366
185.569	253.663
189.247	280.275
192.923	208.221
196.597	18.7781
200.27	101.681
203.942	67.9329
207.612	30.7825
211.281	49.4939
214.948	75.1614
218.614	52.5742
222.279	142.133
225.941	205.91
229.603	250.417
233.263	97.676
236.921	109.995
240.578	276.103
244.234	471.09
247.888	911.177
251.54	927.789
255.192	391.241
258.841	201.585
262.49	49.0942
266.136	17.4587
269.782	6.15747
273.425	61.9985
277.068	96.1267
280.709	72.9761
284.348	200.11
287.986	361.4
291.622	661.266
295.257	903.915
298.891	794.43
302.523	342.618
306.154	107.916
309.783	59.9958
313.41	109.022
317.037	120.044
320.661	210.19
324.285	294.959
327.906	372.827
331.527	394.173
335.145	176.686
338.763	126.347
342.379	255.816
345.993	542.55
349.606	1149.39
353.218	2099.04
356.828	2123.59
360.436	1077.39
364.043	452.55
367.649	216.178
371.253	158.702
374.856	222.535
378.457	218.218
382.057	414.676
385.655	660.05
389.252	1075.69
392.847	1595.17
396.441	1246.74
400.034	622.65
403.625	272.636
407.214	161.91
410.802	181.589
414.389	229.827
417.974	281.596
421.557	128.326
425.139	161.37
428.72	96.2793
432.299	183.878
435.877	252.202
439.453	427.323
443.028	429.924
446.601	250.246
450.173	244.292
453.743	99.8252
457.312	106.674
460.88	32.0991
464.446	25.2163
468.01	2.61182
471.573	13.8989
475.135	15.1396
478.695	10.1025
482.253	50.7734
485.81	54.1133
489.366	10.6426
492.92	14.1445
496.473	63.1909
500.024	38.9829
503.574	2.61328
507.122	89.2144
510.669	152.508
514.214	347.923
517.758	587.777
521.301	825.845
524.842	667.1
528.381	345.453
531.919	161.334
535.456	132.055
538.991	156.544
542.524	166.575
546.056	101.841
549.587	117.019
553.116	146.311
556.644	149
560.17	47.0405
563.695	101.335
567.218	188.796
570.74	261.005
574.26	222.125
577.779	296.805
581.296	368.075
584.812	484.9
588.327	382.087
591.84	348.757
595.351	250.151
598.861	178.757
602.37	66.4844
605.877	131.54
609.383	86.9268
612.887	65.8477
616.39	134.439
619.891	156.182
623.391	160.981
626.889	67.2202
630.386	186.236
633.881	24.2622
637.375	71.5024
640.867	90.8794
644.358	29.1357
647.848	29.6113
651.335	1.50049
654.822	0.995605
658.307	84.0586
661.791	56.5395
665.273	30.7178
668.753	12.2334
672.232	58.4658
675.71	156.379
679.186	236.629
682.661	255.522
686.134	178.759
689.606	268.228
693.076	601.654
696.545	902.528
700.013	1887.58
703.478	3229.04
706.943	4650.01
710.406	3286.24
713.867	1534.87
717.327	757.262
720.786	398.621
724.243	280.6
727.698	218.206
731.153	227.41
734.605	129.793
738.056	178.035
741.506	224.728
744.954	121.125
748.401	93.6836
751.846	44.5781
755.29	116.759
758.733	185.461
762.173	90.168
765.613	60.3447
769.051	196.473
772.487	83.4394
775.922	186.56
779.356	82.2207
782.788	25.8574
786.218	159.106
789.648	87.1777
793.075	77.624
796.501	94.5537
799.926	37.3877
803.349	118.759
806.771	87.1231
810.191	143.075
813.61	60.0185
817.027	172.991
820.443	140.955
823.858	187.849
827.271	199.238
830.682	166.902
834.092	148.005
837.501	191.342
840.908	172.673
844.313	320.06
847.717	196.506
851.12	182.012
854.521	162.546
857.921	112.272
861.319	57.0137
864.716	97.9385
868.111	174.797
871.505	119.944
874.897	77.0801
878.288	81.0293
881.677	151.573
885.065	191.59
888.452	214.234
891.837	250.602
895.22	215.602
898.602	82.4766
901.983	23.8623
905.362	199.543
908.74	69.7598
912.116	114.809
915.49	16.166
918.864	98.001
922.235	170.558
925.606	5.25781
928.974	113.272
932.342	13.6055
935.708	25.665
939.072	18.9844
942.435	69.6494
945.796	3.62109
949.156	86.3857
952.515	9.88281
955.872	39.4658
959.228	158.926
962.582	173.323
965.934	335.435
969.285	390.641
972.635	573.708
975.983	1120.47
979.33	1052.7
982.675	676.162
986.019	551.065
989.362	181.998
992.702	139.398
996.042	48.5078
999.38	115.106
1002.72	208.402
1006.05	164.066
1009.38	96.9883
1012.72	148.324
1016.05	283.477
1019.38	578.885
1022.7	415.932
1026.03	409.26
1029.36	283.16
1032.68	50.7227
1036	167.381
1039.32	114.004
1042.64	113.719
1045.96	170.103
1049.27	251.957
1052.59	335.215
1055.9	449.434
1059.21	547.326
1062.52	736.797
1065.83	1523.45
1069.14	2348.82
1072.44	3330.67
1075.75	2766.06
1079.05	1571.1
1082.35	714.602
1085.65	512.475
1088.95	359.272
1092.25	158.242
1095.54	279.748
1098.84	163.574
1102.13	326.123
1105.42	320.272
1108.71	140.24
1112	92.1406
1115.28	159.283
1118.57	42.8887
