Measurement: Raman, 514 nm, depolarized, Raman Data Processed
Mineral: Spodumene
Rruff sample: R040050
Ideal chemistry: LiAlSi_2_O_6_
Locality: Minas Gerais, Brazil
Source: University of Arizona Mineral Museum
Description: Pale pink fragment of a single crystal, variety kunzite
Measured chemistry: (Li_0.99_Na_0.01_)Al_1.00_Si_2.00_O_6_
Pin_id: L00235
Orientation: Laser parallel to a* (1 0 0). Fiducial mark perpendicular to laser is parallel to b [0 1 0]
Raman shift (cm-1)	intensity
112.946	0
116.653	106.649
120.358	72.5669
124.061	18.9382
127.763	4.56592
131.464	100.379
135.163	8.85645
138.86	17.27
142.556	11.5449
146.251	72.0796
149.944	81.7612
153.636	76.0112
157.326	81.1816
161.015	53.8457
164.702	57.7512
168.388	77.2771
172.072	114.619
175.755	97.0657
179.437	131.819
183.117	216.585
186.795	127.686
190.472	75.5447
194.148	115.291
197.822	59.6641
201.494	27.9866
205.166	7.63721
208.835	53.6799
212.504	92.4731
216.17	15.7217
219.836	30.3665
223.5	41.5698
227.162	72.0898
230.823	77.3611
234.482	0.617676
238.14	44.854
241.797	84.8081
245.452	226.206
249.106	306.582
252.758	133.578
256.408	101.383
260.058	88.5732
263.705	117.048
267.352	99.5593
270.996	8.21655
274.64	35.7952
278.281	71.415
281.922	97.5212
285.561	194.472
289.198	346.392
292.834	518.098
296.469	776.02
300.102	719.532
303.733	340.967
307.363	197.986
310.992	40.6636
314.619	76.3101
318.245	67.9099
321.869	177.314
325.492	258.821
329.113	300.122
332.733	270.246
336.351	88.313
339.968	79.4663
343.584	180.011
347.198	578.176
350.81	1141.48
354.421	1959.38
358.031	1507.34
361.639	648.197
365.245	330.971
368.851	244.103
372.454	174.043
376.056	99.3623
379.657	197.477
383.256	346.925
386.854	569.398
390.451	954.086
394.045	1138.88
397.639	721.252
401.231	262.17
404.821	142.558
408.41	19.9014
411.998	14.8213
415.584	14.6201
419.168	62.582
422.751	0.415527
426.333	23.5483
429.913	27.4746
433.492	36.5039
437.069	138.583
440.645	282.619
444.219	312.12
447.792	156.179
451.363	67.0889
454.933	41.9409
458.501	15.7793
462.068	10.2358
465.634	24.2153
469.198	64.6265
472.76	144.367
476.321	69.4429
479.881	87.9673
483.439	29.6221
486.996	35.1123
490.551	64.3281
494.105	36.8589
497.657	37.4761
501.207	28.4326
504.757	132.796
508.305	153.971
511.851	153.68
515.396	184.677
518.939	576.933
522.481	609.753
526.022	434.701
529.561	227.972
533.098	91.9604
536.634	119.277
540.169	74.7817
543.702	76.7524
547.233	16.3164
550.763	72.7788
554.292	78.2236
557.819	32.3379
561.345	75.0581
564.869	39.3252
568.392	151.605
571.913	87.7104
575.433	131.548
578.952	116.055
582.469	96.3003
585.984	157.502
589.498	171.509
593.011	143.775
596.522	139.14
600.031	53.273
603.539	121.824
607.046	50.2144
610.551	144.81
614.055	96.1172
617.557	165.367
621.058	4.53711
624.557	82.2563
628.055	29.4043
631.551	4.55322
635.046	1.68848
638.539	107.805
642.031	103.116
645.521	1.68359
649.01	41.9976
652.498	62.1792
655.984	55.9985
659.468	90.6445
662.951	96.9253
666.433	11.0645
669.913	118.581
673.392	67.2515
676.869	182.813
680.345	59.104
683.819	106.486
687.292	176.817
690.763	179.896
694.233	327.995
697.701	439.214
701.168	852.515
704.633	1684.9
708.097	1951.62
711.56	1042.42
715.021	472.732
718.48	299.316
721.938	201.295
725.395	86.126
728.85	42.044
732.304	17.335
735.756	190.22
739.206	185.134
742.656	8.98828
746.103	55.8652
749.55	68.2266
752.995	34.1826
756.438	117.242
759.88	22.7383
763.32	59.5889
766.759	44.7598
770.196	59.3066
773.632	65.8242
777.067	138.047
780.5	194.849
783.932	162.568
787.362	256.547
790.79	78.5879
794.217	120.065
797.643	162.65
801.067	77.9541
804.49	163.064
807.911	208.247
811.331	153.403
814.749	22.9805
818.166	186.761
821.582	119.461
824.995	81.9111
828.408	84.4258
831.819	79.0225
835.228	125.44
838.636	282.187
842.043	189.18
845.448	195.73
848.852	276.937
852.254	241.322
855.654	122.297
859.054	209.465
862.451	221.622
865.848	308.231
869.242	246.295
872.636	277.78
876.028	190.348
879.418	165.133
882.807	111.998
886.194	216.658
889.58	197.899
892.965	189.029
896.348	88.3291
899.729	242.115
903.109	211.444
906.488	135.163
909.865	63.3154
913.241	64.2324
916.615	134.325
919.988	45.1748
923.359	246.808
926.729	243.106
930.097	198.66
933.464	171.283
936.829	130.977
940.193	123.737
943.556	233.988
946.917	162.469
950.276	64.751
953.634	246.481
956.991	52.8203
960.346	15.3203
963.699	33.3691
967.051	155.92
970.402	93.0781
973.751	236.934
977.099	45.1836
980.445	101.353
983.79	16.8613
987.134	94.3613
990.475	0.017578
993.816	58.1797
997.155	175.367
1000.49	92.9043
1003.83	209.619
1007.16	326.74
1010.5	178.16
1013.83	370.615
1017.16	451.996
1020.49	508.416
1023.81	243.795
1027.14	129.982
1030.46	68.3398
1033.79	120.475
1037.11	227.781
1040.43	212.066
1043.74	285.752
1047.06	293.43
1050.38	314.859
1053.69	196.127
1057	229.102
1060.32	288.783
1063.62	474.992
1066.93	858.67
1070.24	1519.07
1073.55	1611.48
1076.85	1182.56
1080.15	528.293
1083.45	516.742
1086.75	392.75
1090.05	362.285
1093.35	224.068
1096.64	133.787
1099.93	1.31445
1103.22	420.428
1106.52	256.66
1109.8	125.262
1113.09	1.61328
1116.38	253.516
