Measurement: Raman, 514 nm, depolarized, Raman Data Processed
Mineral: Spodumene
Rruff sample: R040050
Ideal chemistry: LiAlSi_2_O_6_
Locality: Minas Gerais, Brazil
Source: University of Arizona Mineral Museum
Description: Pale pink fragment of a single crystal, variety kunzite
Measured chemistry: (Li_0.99_Na_0.01_)Al_1.00_Si_2.00_O_6_
Pin_id: L00199
Orientation: Laser parallel to b* (0 1 0). Fiducial mark perpendicular to laser is parallel to c [0 0 1]
Raman shift (cm-1)	intensity
106.766	0
110.475	81.5666
114.182	59.9186
117.888	96.512
121.592	179.541
125.295	266.717
128.997	570.674
132.697	423.335
136.395	209.881
140.092	142.763
143.788	112.625
147.482	69.3972
151.175	84.7759
154.866	80.9831
158.556	91.1121
162.244	13.2871
165.931	99.5496
169.616	53.8101
173.3	66.3035
176.982	83.1169
180.663	126.858
184.343	89.8987
188.021	298.906
191.697	137.073
195.373	129.113
199.046	86.9141
202.718	70.6375
206.389	22.3845
210.058	6.8147
213.726	18.551
217.392	33.7437
221.057	25.4282
224.721	56.5518
228.382	105.248
232.043	32.8516
235.702	11.346
239.359	51.6638
243.015	81.6616
246.67	172.047
250.323	247.804
253.975	139.549
257.625	149.467
261.274	77.7954
264.921	68.6262
268.567	2.85059
272.211	14.2827
275.854	19.8772
279.495	83.5488
283.135	29.2312
286.773	207.428
290.41	287.086
294.046	396.572
297.68	337.392
301.312	259.036
304.944	79.7539
308.573	19.0752
312.201	52.8935
315.828	63.3623
319.453	64.605
323.077	41.523
326.699	63.7024
330.32	65.3499
333.939	73.9956
337.557	122.279
341.174	153.963
344.789	220.992
348.402	505.139
352.014	1027.79
355.625	1389.54
359.234	667.779
362.841	270.807
366.447	150.053
370.052	115.251
373.655	43.688
377.257	18.6157
380.857	128.997
384.456	104.502
388.053	175.516
391.649	305.441
395.243	254.482
398.836	215.641
402.428	33.6887
406.018	126.724
409.606	61.7353
413.193	45.8865
416.779	85.1448
420.363	33.063
423.945	6.87939
427.527	24.8638
431.106	158.5
434.684	85.7412
438.261	208.109
441.836	267.421
445.41	209.361
448.982	139.893
452.553	32.5688
456.123	26.6787
459.691	32.6855
463.257	165.032
466.822	33.0977
470.386	55.7798
473.948	33.8462
477.508	6.98486
481.067	83.083
484.625	29.5029
488.181	5.11377
491.736	48.375
495.289	51.5767
498.84	83.4824
502.391	137.243
505.94	100.069
509.487	57.7002
513.033	198.824
516.577	259.093
520.12	451.658
523.661	446.209
527.201	206.052
530.74	40.1636
534.277	71.8584
537.812	110.629
541.346	80.0264
544.879	98.8906
548.41	25.4766
551.94	72.2612
555.468	108.557
558.995	146.657
562.52	51.2866
566.044	15.5635
569.566	133.811
573.087	164.634
576.606	157.481
580.124	255.597
583.641	304.07
587.156	391.864
590.669	353.679
594.181	260.82
597.692	15.0083
601.201	105.605
604.708	192.997
608.214	104.281
611.719	128.743
615.222	91.6269
618.724	66.7695
622.224	120.494
625.723	133.152
629.22	31.5864
632.716	70.978
636.21	30.8418
639.703	9.60449
643.195	46.4326
646.685	65.3364
650.173	74.5381
653.66	118.183
657.145	117.165
660.63	78.9116
664.112	100.981
667.593	69.8882
671.073	182.119
674.551	97.2519
678.028	159.447
681.503	132.622
684.977	73.7271
688.449	214.047
691.92	358.314
695.389	437.728
698.857	777.832
702.323	1515.52
705.788	2654.35
709.252	2285.56
712.714	1100.95
716.174	551.984
719.633	331.551
723.091	238.279
726.547	240.387
730.001	222.344
733.455	66.8311
736.906	213.08
740.356	70.5596
743.805	195.503
747.252	175.145
750.698	124.753
754.142	143.746
757.585	159.067
761.027	176.217
764.467	132.446
767.905	167.661
771.342	134.7
774.777	160.796
778.211	49.4697
781.644	244.8
785.075	158.55
788.505	211.048
791.933	243.384
795.359	90.1904
798.785	155.685
802.208	117.798
805.631	108.249
809.051	201.449
812.471	123.185
815.888	166.622
819.305	27.5859
822.72	94.0088
826.133	57.4922
829.545	159.278
832.956	12.4004
836.365	24.7061
839.772	10.2344
843.178	175.38
846.583	166.863
849.986	163.686
853.387	127.042
856.788	193.16
860.186	215.88
863.584	295.178
866.979	284.498
870.374	337.942
873.766	304.631
877.158	112.261
880.548	18.1152
883.936	226.346
887.323	227.113
890.709	168.691
894.093	212.374
897.475	115.702
900.856	103.438
904.236	184.375
907.614	66.9609
910.99	74.8408
914.366	230.565
917.739	89.4199
921.112	39.4277
924.482	90.2666
927.852	142.223
931.219	228.91
934.586	151.507
937.951	74.2402
941.314	229.33
944.676	272.841
948.037	142.846
951.396	42.9805
954.753	21.4326
958.109	162.37
961.464	115.956
964.817	91.9541
968.169	131.305
971.519	408.047
974.867	263.566
978.215	609.051
981.56	503.582
984.905	225.416
988.248	62.2656
991.589	108.353
994.929	150.621
998.267	30.6133
1001.6	25.1426
1004.94	244.641
1008.27	180.518
1011.61	179.883
1014.94	181.984
1018.27	366.777
1021.6	389.041
1024.92	415.332
1028.25	58.6719
1031.57	31.7559
1034.89	197.703
1038.21	97.6621
1041.53	258.695
1044.85	387.711
1048.17	234.809
1051.48	360.84
1054.8	288.109
1058.11	179.348
1061.42	285.897
1064.73	409.424
1068.04	491.934
1071.34	667.91
1074.65	752.291
1077.95	451.6
1081.25	441.926
1084.55	483.885
1087.85	289.949
1091.15	340.557
1094.44	75.5801
1097.74	350.846
1101.03	92.8945
1104.32	262.568
1107.61	227.65
1110.9	10.375
1114.19	53.6367
1117.47	255.957
1120.76	314.185
1124.04	141.184
1127.32	131.709
