Measurement: Raman, 514 nm, depolarized, Raman Data Processed
Mineral: Spodumene
Rruff sample: R040050
Ideal chemistry: LiAlSi_2_O_6_
Locality: Minas Gerais, Brazil
Source: University of Arizona Mineral Museum
Description: Pale pink fragment of a single crystal, variety kunzite
Measured chemistry: (Li_0.99_Na_0.01_)Al_1.00_Si_2.00_O_6_
Pin_id: L00321
Orientation: Laser parallel to (1 0 1). Fiducial mark perpendicular to laser is parallel to b [0 1 0]
Raman shift (cm-1)	intensity
99.344	0
103.056	82.8525
106.766	234.753
110.475	305.317
114.182	240.528
117.888	560.359
121.592	862.973
125.295	1692.37
128.997	3075.42
132.697	2746.68
136.395	1109.7
140.092	491.653
143.788	299.697
147.482	75.7456
151.175	87.7407
154.866	190.261
158.556	168.64
162.244	121.245
165.931	42.6172
169.616	47.0708
173.3	56.4375
176.982	153.034
180.663	273.914
184.343	526.224
188.021	1060.02
191.697	620.326
195.373	201.128
199.046	73.3984
202.718	18.1113
206.389	14.2192
210.058	13.7192
213.726	8.08252
217.392	132.274
221.057	30.4932
224.721	39.7456
228.382	278.624
232.043	105.239
235.702	28.7612
239.359	165.39
243.015	173.142
246.67	713.058
250.323	1232.95
253.975	759.242
257.625	570.829
261.274	602.345
264.921	322.579
268.567	105.381
272.211	92.6846
275.854	88.4077
279.495	92.4448
283.135	354.067
286.773	930.605
290.41	1798.35
294.046	3008.3
297.68	3376.43
301.312	2217.68
304.944	950.849
308.573	345.888
312.201	187.06
315.828	166.352
319.453	405.9
323.077	664.668
326.699	1222.91
330.32	1535
333.939	722.104
337.557	553.722
341.174	680.814
344.789	1648.05
348.402	3538.61
352.014	7482.51
355.625	11562.1
359.234	6363.17
362.841	2483.84
366.447	1175.63
370.052	621.319
373.655	696.787
377.257	673.256
380.857	1058.68
384.456	1642.06
388.053	2496.37
391.649	4230.63
395.243	4636.92
398.836	2400.64
402.428	846.034
406.018	364.213
409.606	211.186
413.193	151.124
416.779	363.417
420.363	334.465
423.945	9.73535
427.527	91.126
431.106	401.602
434.684	612.858
438.261	1192.96
441.836	1778.89
445.41	1345.65
448.982	1012.22
452.553	528.618
456.123	227.828
459.691	79.8525
463.257	31.1572
466.822	49.0137
470.386	115.572
473.948	9.32324
477.508	75.0576
481.067	67.2207
484.625	18.0566
488.181	33.0127
491.736	42.1973
495.289	105.861
498.84	38.6836
502.391	150.473
505.94	207.143
509.487	351.359
513.033	604.545
516.577	1247.5
520.12	1981.16
523.661	2398.74
527.201	1344.6
530.74	588.327
534.277	330.573
537.812	177.428
541.346	293.744
544.879	344.534
548.41	212.853
551.94	224.817
555.468	154.414
558.995	86.5938
562.52	187.349
566.044	252.39
569.566	280.357
573.087	546.969
576.606	736.206
580.124	1029.05
583.641	1386.5
587.156	1710.55
590.669	1290.19
594.181	874.431
597.692	666.092
601.201	381.727
604.708	252.833
608.214	192.759
611.719	82.9502
615.222	139.657
618.724	113.689
622.224	63.4209
625.723	148.095
629.22	66.6504
632.716	6.09082
636.21	3.95508
639.703	0.5
643.195	23.5664
646.685	78.2588
650.173	120.344
653.66	180.588
657.145	66.7227
660.63	0.790039
664.112	46.1963
667.593	148.571
671.073	73.3389
674.551	150.787
678.028	9.41895
681.503	140.001
684.977	535.313
688.449	404.721
691.92	750.32
695.389	1376.05
698.857	3033.24
702.323	5694.19
705.788	9964.65
709.252	9178.12
712.714	4246.53
716.174	1981.54
719.633	972.72
723.091	656.961
726.547	438.677
730.001	427.454
733.455	281.85
736.906	218.316
740.356	338.999
743.805	318.622
747.252	36.0684
750.698	137.654
754.142	198.815
757.585	100.995
761.027	141.573
764.467	197.551
767.905	169.658
771.342	120.592
774.777	26.2988
778.211	53.5
781.644	140.05
785.075	400.592
788.505	219.695
791.933	112.857
795.359	59.1191
798.785	0.029297
802.208	137.422
805.631	135.055
809.051	12.8047
812.471	119.24
815.888	267.812
819.305	127.531
822.72	69.4004
826.133	14.373
829.545	39.8926
832.956	167.629
836.365	110.861
839.772	71.4062
843.178	242.238
846.583	158.371
849.986	205.846
853.387	381.727
856.788	205.826
860.186	153.184
863.584	187.065
866.979	269.385
870.374	155.783
873.766	187.422
877.158	181.424
880.548	138.938
883.936	131.547
887.323	178.199
890.709	46.9277
894.093	77.6894
897.475	33.0215
900.856	140.352
904.236	174.049
907.614	211.531
910.99	349.18
914.366	120.57
917.739	32.6543
921.112	7.375
924.482	98.5117
927.852	103.318
931.219	26.6777
934.586	172.496
937.951	159.231
941.314	56.9551
944.676	63.6582
948.037	10.2676
951.396	39.5645
954.753	133.67
958.109	149.43
961.464	135.754
964.817	199.815
968.169	669.66
971.519	860.541
974.867	961.576
978.215	1448.65
981.56	1047.79
984.905	694.523
988.248	415.051
991.589	201.994
994.929	55.3672
998.267	268.992
1001.6	253.41
1004.94	223.435
1008.27	490.865
1011.61	505.863
1014.94	1483.34
1018.27	2390.73
1021.6	2563.14
1024.92	893.363
1028.25	537.607
1031.57	502.326
1034.89	166.693
1038.21	231.488
1041.53	113.613
1044.85	206.252
1048.17	306.41
1051.48	403.332
1054.8	777.191
1058.11	798.275
1061.42	1376.59
1064.73	2209.23
1068.04	4552.96
1071.34	7647.26
1074.65	7828.75
1077.95	4049.4
1081.25	2089.34
1084.55	1027.35
1087.85	798.481
1091.15	356.127
1094.44	414.416
1097.74	559.51
1101.03	629.49
1104.32	681.242
1107.61	445.488
1110.9	173.408
1114.19	8.76562
1117.47	208.842
1120.76	287.713
1124.04	227.906
1127.32	101.197
1130.6	243.148
1133.88	328.889
1137.16	332.94
1140.43	219.947
1143.7	149.461
1146.98	70.2363
1150.25	264.615
1153.52	213.004
1156.79	27.5156
1160.05	0
