Measurement: Raman, 514 nm, depolarized, Raman Data Processed
Mineral: Staurolite
Rruff sample: R050079
Ideal chemistry: Fe^2+^_2_Al_9_Si_4_O_23_(OH)
Locality: Keivy, Kola Peninsula, Russia
Source: Rock Currier
Description: Brown cruciform twins
Measured chemistry: (Fe^2+^_0.77_Mg_0.23_)_2_(Al_0.99_Ti_0.01_)_9_(Si_0.99_Al_0.01_)_4_O_20_(O_0.76_(OH)_0.24_)_4_
Pin_id: L00460
Orientation: Laser parallel to -c* (0 0 -1). Fiducial mark perpendicular to laser is parallel to a [1 0 0]
Raman shift (cm-1)	intensity
113.881	0
118.066	117.211
122.249	147.07
126.43	757.865
130.608	1006.49
134.785	612.278
138.959	328.054
143.131	506.534
147.301	496.424
151.469	323.154
155.635	248.322
159.799	152.782
163.961	41.487
168.121	55.873
172.278	41.011
176.434	17.351
180.587	74.276
184.739	159.185
188.888	338.778
193.035	531.355
197.18	908.183
201.324	1212.05
205.465	1356.29
209.603	1321.53
213.74	1092.35
217.875	836.323
222.008	586.572
226.139	430.043
230.267	365.156
234.394	280.175
238.518	212.635
242.641	162.886
246.761	126.821
250.879	161.565
254.996	187.487
259.11	199.474
263.222	286.988
267.332	274.626
271.44	115.501
275.546	46.734
279.65	88.984
283.752	99.123
287.852	39.6
291.95	47.222
296.046	230.273
300.14	740.676
304.231	1830.55
308.321	2575.18
312.409	2037.89
316.495	1191.51
320.578	718.419
324.66	523.529
328.739	367.314
332.817	336.953
336.892	318.078
340.966	393.768
345.037	436.212
349.107	399.965
353.174	437.987
357.24	586.394
361.303	494.808
365.365	399.479
369.424	361.007
373.481	347.267
377.537	318.341
381.59	262.214
385.642	213.878
389.691	280.616
393.738	404.298
397.784	472.78
401.827	430.789
405.868	397.646
409.908	344.311
413.945	288.502
417.98	261.183
422.014	251.98
426.045	355.451
430.075	559.548
434.102	758.221
438.127	946.618
442.151	1275.8
446.172	1618.47
450.192	1835.49
454.209	2048.91
458.225	2424.95
462.238	4260.66
466.25	6918
470.259	5304.88
474.267	2723.49
478.273	1543.75
482.276	1092.09
486.278	893.595
490.278	872.671
494.276	791.968
498.271	850.797
502.265	847.535
506.257	815.877
510.247	870.964
514.235	770.085
518.221	690.291
522.205	723.572
526.187	695.881
530.167	720.247
534.145	671.576
538.122	599.483
542.096	532.794
546.068	382.185
550.039	314.861
554.007	254.357
557.973	221.591
561.938	204.955
565.901	252.738
569.861	217.331
573.82	196.649
577.777	197.717
581.732	231.619
585.685	197.339
589.636	146.453
593.585	183.584
597.532	162.836
601.477	203.426
605.42	266.405
609.361	277.752
613.301	203.389
617.238	187.13
621.174	32.894
625.108	40.656
629.039	9.415
632.969	19.82
636.897	14.93
640.823	28.691
644.747	6.457
648.669	5.241
652.589	17.065
656.508	14.937
660.424	19.851
664.339	15.802
668.251	3.788
672.162	14.188
676.071	49.153
679.978	30.84
683.883	16.859
687.786	32.916
691.687	10.003
695.586	8.111
699.484	50.287
703.379	15.51
707.273	63.325
711.165	74.238
715.055	2.676
718.943	16.544
722.829	26.909
726.713	20.671
730.595	52.279
734.476	64.947
738.354	113.678
742.231	190.469
746.106	219.308
749.978	303.199
753.849	403.14
757.719	475.129
761.586	546.16
765.451	682.232
769.315	799.34
773.177	842.481
777.036	943.611
780.894	949.464
784.75	977.604
788.605	947.799
792.457	974.98
796.307	1049.23
800.156	1019.08
804.003	773.53
807.848	643.106
811.691	431.614
815.532	249.78
819.371	132.74
823.209	33.748
827.045	40.175
830.878	47.65
834.71	79.204
838.54	74.481
842.369	116.881
846.195	171.369
850.02	181.786
853.842	231.246
857.663	278.453
861.482	434.473
865.299	442.019
869.115	571.442
872.928	658.895
876.74	773.309
880.55	895.767
884.358	1116.62
888.164	1462.53
891.969	1782.5
895.771	2238.53
899.572	2324.62
903.371	2245.76
907.168	2059.98
910.963	1790.25
914.757	1515.58
918.548	1457.95
922.338	1324.38
926.126	1275.85
929.912	1353.55
933.697	1425.12
937.479	1558.74
941.26	1595.74
945.039	1525.32
948.816	1278.24
952.591	1161.36
956.365	1002.37
960.136	963.916
963.906	864.463
967.674	810.108
971.441	726.576
975.205	649.016
978.968	553.952
982.729	419.005
986.488	309.603
990.245	285.668
994	247.511
997.754	270.825
1001.51	211.231
1005.26	203.533
1009	202.8
1012.75	180.075
1016.5	177.466
1020.24	142.963
1023.98	95.574
1027.72	146.256
1031.46	91.133
1035.19	131.247
1038.93	74.415
1042.66	62.602
1046.39	79.666
1050.12	103.637
1053.85	152.864
1057.57	96.143
1061.29	80.881
1065.02	49.721
1068.74	78.358
1072.45	75.957
1076.17	35.497
1079.88	67.981
1083.6	124.394
1087.31	31.787
1091.02	15.093
1094.72	28.465
1098.43	14.46
1102.13	15.379
1105.84	22.535
1109.54	17.808
1113.24	13.416
1116.93	30.109
1120.63	6.507
1124.32	13.095
1128.01	17.753
1131.7	24.709
1135.39	3.352
1139.08	10.55
1142.76	38.689
1146.45	27.801
1150.13	45.323
1153.81	43.822
1157.48	97.17
1161.16	197.655
1164.84	198.309
1168.51	115.115
1172.18	71.897
1175.85	36.87
1179.52	32.716
1183.18	57.526
1186.85	43.272
1190.51	50.799
1194.17	45.273
1197.83	17.3
1201.48	4.408
1205.14	63.79
1208.79	59.838
1212.44	61.827
1216.09	53.961
1219.74	71.701
1223.39	103.247
1227.03	71.605
1230.68	94.072
1234.32	92.607
1237.96	127.206
1241.6	93.173
1245.23	45.812
1248.87	72.38
1252.5	60.953
1256.13	74.818
1259.76	46.917
1263.39	66.253
1267.02	74.22
1270.64	27.062
1274.26	60.82
1277.88	36.243
1281.5	43.022
1285.12	36.652
1288.74	37.225
1292.35	38.908
1295.96	52.703
1299.57	64.013
1303.18	25.553
1306.79	18.998
1310.4	56.343
1314	4.596
1317.6	36.651
1321.2	33.606
1324.8	32.414
1328.4	16.042
1331.99	36.337
1335.59	31.62
1339.18	68.877
1342.77	18.753
1346.36	61.662
1349.95	60.981
1353.53	56.175
1357.12	37.195
1360.7	21.401
1364.28	61.546
1367.86	17.653
1371.44	25.636
1375.01	2.654
1378.59	17.584
1382.16	25.567
1385.73	41.926
1389.3	51.215
1392.87	44.197
1396.43	15.62
1399.99	66.24
1403.56	1.832
1407.12	21.368
1410.68	31.239
1414.23	10.616
1417.79	8.163
1421.34	54.35
1424.9	67.336
1428.45	1.915
1431.99	10.004
1435.54	15.733
1439.09	2.372
1442.63	21.48
1446.17	26.285
1449.71	60.847
1453.26	41.259
1456.79	76.963
1460.33	28.502
1463.86	54.78
1467.39	41.772
1470.92	25.502
1474.45	2.781
1477.98	18.548
1481.51	33.601
1485.03	30.643
1488.56	54.926
1492.08	19.392
1495.6	13.349
1499.11	25.418
1502.63	33.589
1506.14	43.777
1509.66	26.305
1513.17	2.251
1516.68	10.268
1520.19	24.095
1523.69	0
