Measurement: Raman, 514 nm, depolarized, Raman Data Processed
Mineral: Staurolite
Rruff sample: R050079
Ideal chemistry: Fe^2+^_2_Al_9_Si_4_O_23_(OH)
Locality: Keivy, Kola Peninsula, Russia
Source: Rock Currier
Description: Brown cruciform twins
Measured chemistry: (Fe^2+^_0.77_Mg_0.23_)_2_(Al_0.99_Ti_0.01_)_9_(Si_0.99_Al_0.01_)_4_O_20_(O_0.76_(OH)_0.24_)_4_
Pin_id: L00403
Orientation: Laser parallel to -b* (0 -1 0). Fiducial mark perpendicular to laser is parallel to c [0 0 1]
Raman shift (cm-1)	intensity
182.303	0
186.446	27.885
190.587	53.136
194.726	212.309
198.862	358.439
202.997	435.734
207.13	497.584
211.261	537.904
215.39	442.566
219.517	299.457
223.642	260.335
227.765	261.672
231.886	304.979
236.005	410.222
240.122	473.539
244.237	388.398
248.35	401.648
252.461	312.396
256.57	357.042
260.677	433.448
264.782	385.096
268.885	173.492
272.986	31.158
277.085	73.248
281.182	63.429
285.278	47.899
289.371	181.244
293.462	346.644
297.552	1019.07
301.639	2692.5
305.724	4114.43
309.808	3684.18
313.889	2345.06
317.969	1327.88
322.046	778.402
326.122	404.833
330.196	261.18
334.267	278.451
338.337	338.656
342.405	327.798
346.471	218.072
350.535	192.994
354.597	225.977
358.657	159.577
362.715	103.176
366.771	133.114
370.825	38.339
374.877	21.732
378.928	71.336
382.976	101.754
387.023	22.927
391.067	97.204
395.11	175.818
399.15	145.969
403.189	158.681
407.226	156.186
411.261	204.506
415.294	148.665
419.325	291.68
423.354	454.572
427.381	657.358
431.406	873.532
435.43	1042.21
439.451	1314.62
443.471	1670.39
447.488	1951.47
451.504	2035.57
455.518	1976.89
459.53	2516.41
463.54	3884.89
467.548	3793.35
471.554	2194.8
475.558	1286.26
479.561	891.728
483.561	823.221
487.559	760.74
491.556	753.18
495.551	861.684
499.544	978.295
503.535	937.941
507.524	834.428
511.511	657.353
515.496	605.787
519.48	596.669
523.461	626.093
527.441	507.26
531.418	497.771
535.394	446.934
539.368	393.504
543.34	315.784
547.311	322.276
551.279	357.063
555.245	375.673
559.21	326.941
563.173	395.346
567.133	382.769
571.092	401.627
575.049	491.122
579.005	433.521
582.958	363.178
586.909	321.177
590.859	222.464
594.807	162.244
598.753	169.233
602.697	174.104
606.639	183.16
610.579	143.719
614.518	148.87
618.454	149.882
622.389	125.989
626.322	152.256
630.253	101.497
634.182	147.9
638.109	203.013
642.035	145.01
645.958	168.719
649.88	193.533
653.8	220.454
657.718	251.458
661.634	233.826
665.549	166.863
669.461	152.226
673.372	60.716
677.281	1.329
681.188	46.131
685.093	9.037
688.997	127.205
692.898	36.558
696.798	28.3
700.696	38.044
704.592	17.086
708.486	83.718
712.378	118.993
716.269	166.4
720.158	168.937
724.045	301.604
727.93	321.398
731.813	411.322
735.694	544.368
739.574	643.532
743.452	722.815
747.328	834.215
751.202	983.732
755.075	1071.37
758.945	1275.11
762.814	1460.96
766.681	1787.92
770.546	1951.99
774.409	2304.16
778.271	2494.43
782.131	2789.8
785.989	3033.28
789.845	3394.86
793.699	3715.55
797.552	3634.35
801.402	3212.28
805.251	2544.35
809.098	1737.53
812.944	1085.81
816.787	629.268
820.629	378.853
824.469	214.557
828.307	125.365
832.144	63.306
835.978	27.015
839.811	2.519
843.642	21.481
847.472	93.173
851.299	37.201
855.125	14.696
858.949	25.416
862.771	43.449
866.591	92.399
870.41	141.408
874.227	227.476
878.042	389.624
881.855	548.841
885.667	714.112
889.476	1017.44
893.284	1224.82
897.09	1358.24
900.895	1377.71
904.698	1267.22
908.499	1302.78
912.298	1273.39
916.095	1401.03
919.891	1746.7
923.685	2007.4
927.477	2575.14
931.267	3007.9
935.056	3585.68
938.843	3984.04
942.628	3861.29
946.411	3360.95
950.193	2822.22
953.973	2245.41
957.751	1911.13
961.527	1685.74
965.302	1562.07
969.075	1443.21
972.846	1366.97
976.615	1268.18
980.383	1169.62
984.149	1105.67
987.913	1064.57
991.675	1092.21
995.436	1055.25
999.195	1014.42
1002.95	1003.81
1006.71	942.738
1010.46	874.896
1014.21	779.638
1017.96	747.444
1021.71	654.347
1025.46	591.402
1029.2	557.679
1032.95	472.737
1036.69	407.008
1040.43	354.695
1044.17	306.457
1047.9	237.302
1051.64	201.071
1055.37	150.135
1059.1	171.958
1062.83	188.812
1066.56	199.979
1070.29	136.377
1074.01	79.183
1077.73	52.134
1081.46	87.024
1085.17	70.889
1088.89	104.71
1092.61	13.327
1096.32	6.781
1100.04	31.136
1103.75	29.411
1107.46	14.641
1111.16	39.708
1114.87	5.5
1118.57	55.158
1122.28	32.796
1125.98	61.981
1129.67	31.65
1133.37	24.389
1137.07	6.098
1140.76	5.759
1144.45	53.103
1148.14	9.708
1151.83	38.969
1155.52	75.632
1159.21	104.067
1162.89	136.393
1166.57	95.187
1170.25	68.21
1173.93	38.094
1177.61	33.585
1181.28	78.982
1184.96	40.367
1188.63	63.688
1192.3	73.569
1195.97	24.658
1199.64	61.313
1203.3	86.762
1206.97	74.268
1210.63	105.506
1214.29	91.503
1217.95	5.563
1221.6	91.912
1225.26	54.71
1228.91	66.041
1232.57	109.314
1236.21	136.04
1239.86	113.066
1243.51	118.359
1247.16	41.348
1250.8	75.173
1254.44	61.335
1258.08	120.221
1261.72	58.762
1265.36	122.486
1268.99	89.623
1272.63	68.62
1276.26	59.04
1279.89	71.192
1283.52	12.609
1287.15	30.841
1290.77	107.697
1294.4	110.845
1298.02	100.009
1301.64	68.058
1305.26	42.832
1308.88	91.453
1312.49	26.887
1316.11	25.953
1319.72	28.613
1323.33	32.054
1326.94	61.702
1330.55	39.497
1334.15	48.626
1337.76	75.776
1341.36	50.388
1344.96	42.526
1348.56	39.823
1352.16	29.093
1355.75	39.284
1359.35	27.917
1362.94	82.416
1366.53	39.646
1370.12	81.566
1373.71	53.417
1377.3	10.343
1380.88	29.346
1384.46	2.596
1388.05	3.423
1391.63	15.537
1395.2	87.144
1398.78	89.602
1402.36	19.428
1405.93	42.467
1409.5	71.657
1413.07	49.391
1416.64	21.841
1420.21	6.615
1423.78	19.969
1427.34	1.214
1430.9	16.247
1434.46	36.31
1438.02	53.15
1441.58	57.89
1445.13	109.749
1448.69	38.731
1452.24	58.807
1455.79	35.031
1459.34	60.188
1462.89	29.84
1466.44	57.453
1469.98	63.804
1473.53	52.446
1477.07	63.829
1480.61	105.153
1484.14	36.002
1487.68	60.792
1491.22	44.429
1494.75	16.541
1498.28	1.443
1501.81	2.531
1505.34	37.024
1508.87	38.089
1512.4	37.106
1515.92	8.22
1519.44	0.125
