Measurement: Raman, 514 nm, depolarized, Raman Data Processed
Mineral: Staurolite
Rruff sample: R050079
Ideal chemistry: Fe^2+^_2_Al_9_Si_4_O_23_(OH)
Locality: Keivy, Kola Peninsula, Russia
Source: Rock Currier
Description: Brown cruciform twins
Measured chemistry: (Fe^2+^_0.77_Mg_0.23_)_2_(Al_0.99_Ti_0.01_)_9_(Si_0.99_Al_0.01_)_4_O_20_(O_0.76_(OH)_0.24_)_4_
Pin_id: m00494
Orientation: Laser parallel to a* (1 0 0). Fiducial mark perpendicular to laser is parallel to b [0 1 0]
Raman shift (cm-1)	intensity
159.799	0
163.961	48.976
168.121	10.591
172.278	110.337
176.434	71.679
180.587	175.048
184.739	384.542
188.888	774.618
193.035	1333.07
197.18	1902.95
201.324	2244.34
205.465	2169.24
209.603	1744.46
213.74	1289.03
217.875	1026.76
222.008	779.184
226.139	583.878
230.267	364.569
234.394	383.011
238.518	175.512
242.641	152.203
246.761	183.524
250.879	179.015
254.996	272.295
259.11	332.234
263.222	430.6
267.332	80.053
271.44	51.93
275.546	164.66
279.65	9.363
283.752	36.862
287.852	59.636
291.95	314.121
296.046	1144.38
300.14	2338.27
304.231	2821.12
308.321	2010.67
312.409	1029.79
316.495	614.673
320.578	261.587
324.66	165.572
328.739	68.139
332.817	44.386
336.892	74.167
340.966	131.17
345.037	173.801
349.107	464.243
353.174	990.188
357.24	621.545
361.303	504.208
365.365	369.114
369.424	277.334
373.481	173.09
377.537	157.668
381.59	118.208
385.642	121.168
389.691	202.545
393.738	270.317
397.784	338.751
401.827	333.347
405.868	233.828
409.908	189.728
413.945	241.036
417.98	345.962
422.014	534.313
426.045	718.795
430.075	740.689
434.102	935.402
438.127	1228.7
442.151	1578.1
446.172	1943.78
450.192	2185.75
454.209	3240.72
458.225	7103.26
462.238	11717.9
466.25	7783.56
470.259	3707.47
474.267	2206.76
478.273	1583.41
482.276	1270.3
486.278	1212.2
490.278	1187.91
494.276	1223.42
498.271	1262.59
502.265	1279.98
506.257	1283.19
510.247	1346.9
514.235	1278.27
518.221	1323.74
522.205	1316.45
526.187	1428.53
530.167	1468.2
534.145	1234.27
538.122	962.506
542.096	782.007
546.068	555.874
550.039	459.743
554.007	548.234
557.973	578.06
561.938	617.108
565.901	688.037
569.861	686.983
573.82	643.958
577.777	639.026
581.732	582.486
585.685	419.58
589.636	372.127
593.585	258.325
597.532	184.293
601.477	273.406
605.42	205.571
609.361	103.752
613.301	72.8
617.238	62.625
621.174	31.208
625.108	0.546
629.039	57.414
632.969	51.776
636.897	19.573
640.823	7.731
644.747	93.227
648.669	53.101
652.589	35.163
656.508	30.379
660.424	9.209
664.339	2.4
668.251	4.132
672.162	9.023
676.071	46.944
679.978	81.819
683.883	77.627
687.786	4.596
691.687	109.227
695.586	165.03
699.484	158.809
703.379	122.634
707.273	151.49
711.165	163.366
715.055	274.258
718.943	382.164
722.829	465.094
726.713	613.067
730.595	661.098
734.476	845.183
738.354	967.296
742.231	1130.42
746.106	1288.57
749.978	1447.73
753.849	1602.72
757.719	1855.89
761.586	2200.89
765.451	2419.41
769.315	2678.7
773.177	2900.81
777.036	3317.55
780.894	3526.74
784.75	3952.52
788.605	4221.59
792.457	4539.73
796.307	4330.01
800.156	3682.63
804.003	2904.84
807.848	2040.9
811.691	1264.4
815.532	759.535
819.371	476.354
823.209	315.008
827.045	259.391
830.878	116.181
834.71	33.477
838.54	70.785
842.369	57.083
846.195	2.889
850.02	34.286
853.842	32.599
857.663	46.046
861.482	145.628
865.299	165.346
869.115	350.207
872.928	427.224
876.74	637.38
880.55	1069.69
884.358	1559.17
888.164	2083.78
891.969	2575.55
895.771	2685.45
899.572	2590.49
903.371	2251.69
907.168	1787.03
910.963	1724.51
914.757	1648.13
918.548	1673.89
922.338	1820.8
926.126	2114.87
929.912	2522.09
933.697	2743.48
937.479	2745.08
941.26	2516.26
945.039	2233.89
948.816	1954.69
952.591	1692.76
956.365	1586.93
960.136	1658.8
963.906	1579.66
967.674	1452.39
971.441	1401.71
975.205	1272.71
978.968	1180.14
982.729	1212.09
986.488	1059.76
990.245	1012.98
994	962.535
997.754	950.48
1001.51	945.155
1005.26	906.569
1009	853.828
1012.75	785.14
1016.5	686.512
1020.24	652.967
1023.98	574.681
1027.72	480.869
1031.46	431.876
1035.19	297.278
1038.93	233.33
1042.66	181.586
1046.39	124.455
1050.12	121.961
1053.85	173.336
1057.57	160.245
1061.29	150.345
1065.02	134.932
1068.74	80.658
1072.45	56.529
1076.17	169.939
1079.88	262.286
1083.6	180.601
1087.31	80.843
1091.02	51.051
1094.72	48.918
1098.43	50.563
1102.13	74.659
1105.84	0.137
1109.54	35.012
1113.24	20.422
1116.93	10.229
1120.63	7.345
1124.32	32.129
1128.01	0.023
1131.7	4.059
1135.39	67.464
1139.08	58.051
1142.76	2.697
1146.45	19.54
1150.13	45.5
1153.81	109.493
1157.48	250.694
1161.16	217.435
1164.84	174.164
1168.51	120.131
1172.18	75.899
1175.85	14.663
1179.52	83.987
1183.18	102.105
1186.85	72.182
1190.51	157.19
1194.17	53.456
1197.83	105.269
1201.48	94.265
1205.14	87.718
1208.79	124.553
1212.44	91.249
1216.09	71.45
1219.74	183.705
1223.39	157.495
1227.03	125.516
1230.68	130.27
1234.32	190.131
1237.96	146.882
1241.6	79.056
1245.23	176.794
1248.87	126.225
1252.5	182.214
1256.13	104.274
1259.76	134.517
1263.39	90.329
1267.02	105.59
1270.64	95.744
1274.26	143.172
1277.88	169.254
1281.5	92.286
1285.12	61.523
1288.74	91.472
1292.35	52.091
1295.96	46.406
1299.57	27.664
1303.18	65.612
1306.79	33.646
1310.4	44.701
1314	91.907
1317.6	49.416
1321.2	87.354
1324.8	98.479
1328.4	50.974
1331.99	38.415
1335.59	33.661
1339.18	88.439
1342.77	96.046
1346.36	58.333
1349.95	62.775
1353.53	158.212
1357.12	96.421
1360.7	24.417
1364.28	65.386
1367.86	9.736
1371.44	56.552
1375.01	56.104
1378.59	70.021
1382.16	83.546
1385.73	162.827
1389.3	76.455
1392.87	87.836
1396.43	98.7
1399.99	2.255
1403.56	25.99
1407.12	38.765
1410.68	71.504
1414.23	75.231
1417.79	142.349
1421.34	69.328
1424.9	102.662
1428.45	56.147
1431.99	76.738
1435.54	46.927
1439.09	66.057
1442.63	40.05
1446.17	64.392
1449.71	88.138
1453.26	37.338
1456.79	91.984
1460.33	72.307
1463.86	59.094
1467.39	128.3
1470.92	90.037
1474.45	44.477
1477.98	49.47
1481.51	66.329
1485.03	32.167
1488.56	44.803
1492.08	19.124
1495.6	91.427
1499.11	104.252
1502.63	134.826
1506.14	109.692
1509.66	84.777
1513.17	115.013
1516.68	72.449
