Measurement: Raman, 514 nm, depolarized, Raman Data Processed
Mineral: Stellerite
Rruff sample: R040174
Ideal chemistry: Ca_4_(Si_28_Al_8_)O_72_28H_2_O
Locality: unknown
Source: University of Arizona Mineral Museum
Description: Parallel aggregates of thin tabular brown crystals
Measured chemistry: (Ca_3.89_Na_0.06_K_0.05_)_Σ=4_(Si_28.11_Al_7.89_)O_72_·15.18H_2_O; H_2_O estimated by difference
Pin_id: M00192
Orientation: Laser parallel to (1 0 1). Fiducial mark perpendicular to laser is parallel to b [0 1 0]
Raman shift (cm-1)	intensity
85.706	0
89.89	224.52
94.071	456.668
98.251	871.507
102.428	733.141
106.604	1123.66
110.777	1290.62
114.949	1704.01
119.119	1760.14
123.286	1848.08
127.452	1814.62
131.615	2208.11
135.777	2622.25
139.937	3229.63
144.094	3932.88
148.25	4513.28
152.403	4527.47
156.555	3888.23
160.705	3141.91
164.853	2578.06
168.998	2081.48
173.142	1466.04
177.284	1182.11
181.424	939.827
185.562	628.963
189.698	279.232
193.831	90.366
197.963	102.17
202.093	155.637
206.221	213.392
210.347	191.205
214.472	189.073
218.594	86.605
222.714	24.93
226.832	103.141
230.948	36.974
235.063	35.361
239.175	83.314
243.286	110.965
247.394	188.783
251.501	87.603
255.605	184.579
259.708	166.062
263.808	309.442
267.907	483.584
272.004	737.849
276.099	817.546
280.192	935.536
284.283	1138.52
288.372	997.715
292.459	981.527
296.544	971.79
300.627	1011.42
304.709	1010.52
308.788	1028.74
312.865	1044.52
316.941	1017.59
321.015	939.381
325.086	970.291
329.156	721.056
333.224	641.886
337.29	772.768
341.354	623.688
345.416	574.643
349.476	895.635
353.534	946.623
357.591	1167.64
361.645	1378.69
365.698	1704.6
369.748	2132.23
373.797	2746.2
377.844	3288.2
381.889	4366.99
385.932	5339.86
389.973	6489.94
394.012	8502.94
398.049	11114.2
402.084	13111.4
406.118	13550.2
410.15	11976.6
414.179	10073.6
418.207	7901.98
422.233	6131.31
426.257	4794.06
430.279	3865.43
434.299	3345.49
438.318	2815.27
442.334	2564.56
446.349	2543.61
450.361	2742.41
454.372	3040.98
458.381	2689.32
462.388	2527.45
466.394	2345.36
470.397	2153.06
474.398	2100.58
478.398	2487.95
482.396	3825.18
486.391	6282.29
490.385	9659.49
494.377	10866.6
498.368	8123.56
502.356	4541.64
506.342	2641.8
510.327	1371.11
514.31	911.692
518.291	674.932
522.27	375.799
526.247	273.681
530.222	131.861
534.196	27.718
538.167	111.508
542.137	19.316
546.105	73.066
550.071	5.095
554.035	81.81
557.998	78.456
561.958	25.31
565.917	39.259
569.874	53.201
573.829	92.246
577.782	87.753
581.733	2.278
585.683	46.471
589.63	240.544
593.576	274.397
597.52	328.155
601.462	431.792
605.402	495.28
609.341	728.557
613.277	911.616
617.212	994.461
621.145	867.105
625.076	819.52
629.006	821.709
632.933	653.673
636.859	508.832
640.783	416.898
644.705	288.152
648.625	169.167
652.543	295.289
656.46	170.443
660.375	30.686
664.288	80.642
668.199	80.275
672.108	180.161
676.016	30.106
679.921	129.879
683.825	55.448
687.727	56.572
691.628	162.161
695.526	184.312
699.423	178.52
703.318	122.077
707.211	260.5
711.102	224.795
714.992	216.428
718.879	167.861
722.765	254.829
726.649	411.353
730.532	335.099
734.412	294.888
738.291	260.588
742.168	332.855
746.043	381.369
749.916	468.588
753.788	561.208
757.658	375.52
761.526	569.199
765.392	581.381
769.257	882.608
773.119	876.288
776.98	886.804
780.839	837.181
784.697	1108.05
788.552	1307.69
792.406	1457.19
796.258	1426.28
800.108	1565.08
803.957	1523.33
807.804	1371.56
811.649	1059.08
815.492	517.589
819.333	211.228
823.173	156.109
827.011	269.042
830.847	277.514
834.681	199.436
838.514	83.324
842.345	17.06
846.174	10.831
850.001	142.062
853.827	126.145
857.651	109.759
861.473	16.739
865.293	52.573
869.112	51.131
872.928	34.772
876.744	128.605
880.557	101.582
884.369	4.532
888.178	13.054
891.987	49.84
895.793	53.918
899.598	55.464
903.401	87.085
907.202	191.104
911.001	29.722
914.799	41.485
918.595	142.573
922.389	243.548
926.182	224.382
929.972	45.11
933.761	14.249
937.549	116.293
941.334	286.758
945.118	347.153
948.9	127.49
952.681	97.772
956.459	128.007
960.236	148.193
964.012	318.345
967.785	190.62
971.557	13.852
975.327	208.34
979.095	308.078
982.862	387.178
986.627	555.894
990.39	598.432
994.152	554.746
997.912	962.586
1001.67	531.243
1005.43	639.372
1009.18	545.302
1012.93	902.809
1016.68	889.231
1020.43	936.478
1024.18	976.773
1027.93	857.594
1031.67	890.926
1035.42	801.212
1039.16	1029.17
1042.9	1140.87
1046.63	1022.79
1050.37	836.32
1054.11	687.762
1057.84	648.9
1061.57	979.925
1065.3	952.894
1069.03	925.982
1072.75	609.541
1076.47	691.315
1080.2	755.3
1083.92	958.834
1087.64	1592.52
1091.36	1326.57
1095.07	1450.96
1098.79	1635.6
1102.5	1490.09
1106.21	1544.63
1109.92	1639.17
1113.62	1794.08
1117.33	1739.81
1121.04	1955.54
1124.74	1721.11
1128.44	1770.95
1132.14	1556.35
1135.83	1612.61
1139.53	1511.27
1143.22	1442.92
1146.92	1340.07
1150.61	1477.84
1154.3	1411.56
1157.98	1238.77
1161.67	1180.94
1165.35	1082.27
1169.04	1085.77
1172.72	1026.69
1176.4	1026.93
1180.07	930.246
1183.75	716.047
1187.42	739.494
1191.1	415.627
1194.77	442.867
1198.44	569.217
1202.1	630.383
1205.77	505.934
1209.43	441.945
1213.1	302.85
1216.76	297.1
1220.42	11.662
1224.07	156.678
1227.73	349.852
1231.38	422.303
1235.04	525.83
1238.69	498.412
1242.34	431.486
1245.99	304.105
1249.63	136.895
1253.28	298.775
1256.92	200.258
1260.56	281.512
1264.2	453.025
1267.84	363.688
1271.48	194.734
1275.11	304.664
1278.74	179.574
1282.38	17.568
1286.01	79.572
1289.63	300.643
1293.26	237.107
1296.89	242.547
1300.51	398.373
1304.13	352.926
1307.75	296.76
1311.37	90.826
1314.99	296.379
1318.6	144.377
1322.22	92.947
1325.83	47.576
1329.44	177.42
1333.05	236.596
1336.66	355.15
1340.26	203.094
1343.87	29.48
1347.47	117.318
1351.07	136.385
1354.67	40.668
1358.27	234.58
1361.86	239.467
1365.46	403.396
1369.05	517.939
1372.64	912.117
1376.23	456.859
1379.82	422.711
1383.41	217.277
1386.99	171.457
1390.57	135.549
1394.16	298.635
1397.74	480.885
1401.32	571.512
1404.89	647.58
1408.47	588.436
1412.04	703.221
1415.61	571.371
1419.18	369.734
1422.75	351.885
1426.32	190.051
1429.89	24.883
1433.45	253.213
1437.01	564.182
1440.58	431.703
1444.13	774.861
1447.69	675.242
1451.25	758.383
1454.81	519.135
1458.36	366.875
1461.91	155.414
1465.46	321.678
1469.01	342.959
1472.56	195.508
1476.1	440.549
1479.64	508.041
1483.19	667.939
1486.73	654.174
1490.27	791.326
1493.81	540.672
1497.34	391.584
1500.88	214.91
1504.41	61.758
1507.94	2.07
1511.47	197.734
1515	27.359
1518.53	216.971
1522.05	307.125
