Measurement: Raman, 514 nm, depolarized, Raman Data Processed
Mineral: Stellerite
Rruff sample: R040174
Ideal chemistry: Ca_4_(Si_28_Al_8_)O_72_28H_2_O
Locality: unknown
Source: University of Arizona Mineral Museum
Description: Parallel aggregates of thin tabular brown crystals
Measured chemistry: (Ca_3.89_Na_0.06_K_0.05_)_Σ=4_(Si_28.11_Al_7.89_)O_72_·15.18H_2_O; H_2_O estimated by difference
Pin_id: L00419
Orientation: Laser parallel to -b* (0 -1 0). Fiducial mark perpendicular to laser is parallel to -c [0 0 -1]
Raman shift (cm-1)	intensity
94.838	0
99.023	388.026
103.206	961.956
107.387	2339.54
111.566	3414.03
115.744	4635.94
119.919	4624.22
124.092	4606.44
128.263	4278.4
132.432	4062.4
136.599	3951.45
140.764	4230.26
144.927	4517.31
149.088	5030.4
153.247	4884.4
157.404	4344.42
161.559	3644.39
165.711	2875.18
169.862	2194.06
174.011	1707.66
178.158	1271.18
182.303	1075.07
186.446	911.922
190.587	551.781
194.726	634.23
198.862	381.946
202.997	265.906
207.13	101.173
211.261	147.52
215.39	234.761
219.517	262.703
223.642	81.109
227.765	179.688
231.886	258.281
236.005	56.862
240.122	15.513
244.237	74.714
248.35	65.412
252.461	14.561
256.57	15.781
260.677	53.93
264.782	194.803
268.885	125.519
272.986	121.375
277.085	284.532
281.182	116.248
285.278	77.108
289.371	27.599
293.462	17.981
297.552	161.599
301.639	361.134
305.724	670.393
309.808	1039.08
313.889	1217.13
317.969	1344.58
322.046	1371.51
326.122	1357.95
330.196	1153.93
334.267	1009.42
338.337	1013.81
342.405	927.292
346.471	909.264
350.535	929.068
354.597	986.998
358.657	1133.73
362.715	1240
366.771	1776.18
370.825	2222.26
374.877	2768.28
378.928	3304.67
382.976	4089.95
387.023	4958.62
391.067	5840.86
395.11	7216
399.15	9229.86
403.189	11604.6
407.226	13931.9
411.261	14213.3
415.294	12732.2
419.325	10680.9
423.354	8782.02
427.381	6886.01
431.406	5821.47
435.43	4671.2
439.451	3902.32
443.471	3368.95
447.488	3371.41
451.504	3551.92
455.518	3977.95
459.53	4230.51
463.54	3891.03
467.548	3291.16
471.554	2740.89
475.558	2610.22
479.561	2719.16
483.561	3117.72
487.559	4695.9
491.556	7093.71
495.551	9451.13
499.544	8598.19
503.535	5944.92
507.524	3441.67
511.511	1958.53
515.496	1205.38
519.48	852.188
523.461	479.432
527.441	327.043
531.418	219.328
535.394	177.78
539.368	109.568
543.34	30.787
547.311	88.244
551.279	165.724
555.245	67.516
559.21	94.917
563.173	40.324
567.133	37.647
571.092	65.575
575.049	146.31
579.005	3.368
582.958	116.641
586.909	76.632
590.859	186.289
594.807	286.5
598.753	336.692
602.697	557.147
606.639	637.73
610.579	798.346
614.518	1088.96
618.454	1259.44
622.389	1199.63
626.322	1239.52
630.253	1269.19
634.182	978.624
638.109	907.773
642.035	836.713
645.958	585.357
649.88	603.705
653.8	481.761
657.718	359.523
661.634	306.998
665.549	184.181
669.461	191.061
673.372	173.907
677.281	124.578
681.188	106.317
685.093	68.225
688.997	74.255
692.898	9.635
696.798	124.472
700.696	55.596
704.592	10.025
708.486	83.872
712.378	60.092
716.269	40.622
720.158	67.894
724.045	99.808
727.93	148.465
731.813	141.147
735.694	161.7
739.574	111.485
743.452	273.289
747.328	374.604
751.202	382.499
755.075	492.977
758.945	444.309
762.814	573.292
766.681	573.71
770.546	756.349
774.409	904.398
778.271	1022.12
782.131	1270.36
785.989	1438.06
789.845	1774.93
793.699	1939.37
797.552	2005.74
801.402	1811.66
805.251	1697.17
809.098	1502.72
812.944	1097.67
816.787	703.066
820.629	437.097
824.469	270.479
828.307	193.292
832.144	195.334
835.978	146.487
839.811	126.531
843.642	221.706
847.472	79.256
851.299	215.042
855.125	86.622
858.949	156.237
862.771	83.601
866.591	51.862
870.41	1.271
874.227	91.316
878.042	68.583
881.855	13.125
885.667	36.832
889.476	13.136
893.284	83.573
897.09	23.715
900.895	4.59
904.698	5.024
908.499	324.063
912.298	172.985
916.095	18.277
919.891	29.72
923.685	148.628
927.477	86.804
931.267	104.85
935.056	147.232
938.843	40.316
942.628	42.258
946.411	204.975
950.193	152.009
953.973	198.953
957.751	5.818
961.527	202.599
965.302	0.688
969.075	14.044
972.846	42.529
976.615	299.063
980.383	55.488
984.149	191.738
987.913	417.575
991.675	482.925
995.436	447.827
999.195	573.273
1002.95	788.765
1006.71	474.847
1010.46	541.674
1014.21	618.251
1017.96	725.011
1021.71	810.224
1025.46	770.985
1029.2	703.934
1032.95	723.259
1036.69	696.463
1040.43	807.557
1044.17	959.528
1047.9	848.143
1051.64	914.4
1055.37	674.352
1059.1	782.268
1062.83	628.279
1066.56	695.127
1070.29	891.17
1074.01	647.047
1077.73	685.385
1081.46	743.645
1085.17	823.688
1088.89	850.359
1092.61	1128.26
1096.32	1251.45
1100.04	1310.39
1103.75	1399.54
1107.46	1528.64
1111.16	1587.96
1114.87	1721.01
1118.57	1817.09
1122.28	1843.51
1125.98	1831.48
1129.67	2098.02
1133.37	1798.71
1137.07	1899.3
1140.76	1869.79
1144.45	1624.31
1148.14	1564.58
1151.83	1820.01
1155.52	1896.19
1159.21	1620.64
1162.89	1607.11
1166.57	1482.11
1170.25	1563.85
1173.93	1234.3
1177.61	1425.78
1181.28	1342.61
1184.96	1204.19
1188.63	1157.24
1192.3	861.84
1195.97	665.43
1199.64	594.299
1203.3	666.172
1206.97	546.588
1210.63	587.049
1214.29	395.848
1217.95	427.422
1221.6	368.938
1225.26	68.088
1228.91	114.748
1232.57	279.934
1236.21	305.84
1239.86	377.234
1243.51	326.178
1247.16	419.971
1250.8	163.818
1254.44	173.211
1258.08	102.76
1261.72	101.484
1265.36	139.482
1268.99	377.188
1272.63	405.104
1276.26	403.564
1279.89	336.947
1283.52	73.039
1287.15	40.963
1290.77	135.496
1294.4	50.9
1298.02	163.318
1301.64	327.041
1305.26	270.172
1308.88	47.473
1312.49	174.281
1316.11	85.682
1319.72	36.68
1323.33	52.73
1326.94	127.383
1330.55	56.953
1334.15	125.898
1337.76	274.332
1341.36	252.211
1344.96	199.598
1348.56	156.531
1352.16	103.08
1355.75	100.746
1359.35	15
1362.94	20.445
1366.53	315.65
1370.12	180.432
1373.71	157.818
1377.3	192.432
1380.88	305.701
1384.46	158.969
1388.05	262.713
1391.63	75.762
1395.2	87.703
1398.78	58.777
1402.36	228.52
1405.93	483.57
1409.5	324.637
1413.07	572.561
1416.64	640.037
1420.21	403.883
1423.78	231.057
1427.34	351.576
1430.9	151.57
1434.46	265.465
1438.02	303.727
1441.58	686.781
1445.13	733.883
1448.69	900.225
1452.24	862.98
1455.79	852.773
1459.34	783.461
1462.89	711.947
1466.44	331.029
1469.98	348.5
1473.53	312.766
1477.07	258.178
1480.61	535.625
1484.14	582.379
1487.68	561.053
1491.22	570.922
1494.75	600.734
1498.28	422.211
1501.81	337.752
1505.34	207.586
1508.87	149.787
1512.4	29.562
1515.92	142.523
1519.44	73.01
