Measurement: Raman, 514 nm, depolarized, Raman Data Processed
Mineral: Stellerite
Rruff sample: R040174
Ideal chemistry: Ca_4_(Si_28_Al_8_)O_72_28H_2_O
Locality: unknown
Source: University of Arizona Mineral Museum
Description: Parallel aggregates of thin tabular brown crystals
Measured chemistry: (Ca_3.89_Na_0.06_K_0.05_)_Σ=4_(Si_28.11_Al_7.89_)O_72_·15.18H_2_O; H_2_O estimated by difference
Pin_id: M00319
Orientation: Laser parallel to c* (0 0 1). Fiducial mark perpendicular to laser is parallel to -b [0 -1 0]
Raman shift (cm-1)	intensity
72.286	0
76.49	99.826
80.692	1241
84.891	1604
89.089	2355.18
93.284	3482.77
97.477	4657.49
101.667	5533.15
105.856	6279.17
110.042	6485.52
114.226	7101.52
118.408	8000.84
122.588	7632.73
126.765	7238.44
130.94	6917.98
135.113	6702.86
139.284	6774.12
143.452	7175.23
147.618	7964.72
151.782	8783.4
155.944	9407.11
160.104	8649.46
164.261	7547.39
168.417	6081.58
172.57	4884.23
176.72	3754.8
180.869	2916.81
185.015	2410.02
189.16	1674.22
193.302	1239.24
197.442	984.786
201.579	790.528
205.715	466.373
209.848	142.285
213.979	8.255
218.108	135.726
222.235	139.667
226.359	143.589
230.482	158.32
234.602	274.286
238.72	240.254
242.836	127.396
246.949	28.895
251.061	24.9
255.17	331.062
259.277	388.74
263.382	12.752
267.485	63.992
271.586	344.699
275.684	833.382
279.781	1521.7
283.875	1979.33
287.967	1996.29
292.057	1892.65
296.144	1668.5
300.23	1783.9
304.313	1608.89
308.395	1473.49
312.474	1566.65
316.551	1557.61
320.625	1556.03
324.698	1262.82
328.769	1119.35
332.837	1185.87
336.903	1021.91
340.968	837.897
345.03	973.856
349.089	929.768
353.147	875.623
357.203	981.414
361.256	1227.13
365.308	1752.77
369.357	2148.31
373.404	2683.76
377.449	3598.31
381.492	4723.98
385.533	5838.56
389.571	6995.43
393.608	8666.38
397.642	11343.4
401.675	14493
405.705	18683.6
409.733	22163.5
413.759	23191.9
417.783	20721.9
421.804	16936.6
425.824	13304.6
429.842	10541.6
433.857	8406.87
437.871	6631.05
441.882	5404
445.891	4716.06
449.898	4307.24
453.903	4368.07
457.906	4518.55
461.907	5138.69
465.906	5048.48
469.902	4557.94
473.897	3687.06
477.889	3405.88
481.88	3624.41
485.868	4382.69
489.854	6430.73
493.839	10248.5
497.821	16466
501.801	18563.3
505.779	13620.5
509.755	8103.31
513.729	4315.35
517.7	2573.82
521.67	1641.54
525.638	938.968
529.603	604.584
533.567	356.965
537.528	245.607
541.488	54.85
545.445	2.963
549.4	12.601
553.354	73.25
557.305	42.725
561.254	201.422
565.201	84.89
569.146	58.901
573.089	78.485
577.03	94.857
580.969	42.566
584.906	118.154
588.841	170.841
592.774	222.318
596.705	211.473
600.633	227.307
604.56	515.826
608.485	866.09
612.408	935.046
616.328	1151.71
620.247	1434.07
624.163	1598.14
628.078	1702.92
631.991	1511.41
635.901	1273.62
639.81	1142.54
643.716	922.161
647.621	682.475
651.523	543.493
655.424	357.195
659.322	342.579
663.218	370.642
667.113	284.373
671.005	107.748
674.896	152.746
678.784	236.362
682.671	238.641
686.555	295.589
690.437	193.833
694.318	195.496
698.196	252.499
702.073	335.768
705.947	257.171
709.82	302.248
713.69	254.368
717.558	272.498
721.425	397.343
725.289	419.551
729.152	395.146
733.013	219.014
736.871	408.467
740.728	524.404
744.582	396.976
748.435	529.26
752.286	481.788
756.134	583.127
759.981	622.404
763.826	730.833
767.668	764.074
771.509	877.425
775.348	1046.87
779.185	1126.4
783.02	1492.05
786.853	1632.11
790.684	1731.17
794.513	1905.97
798.34	2172.7
802.165	2377.63
805.988	2581.04
809.809	2443.85
813.628	1964.46
817.446	1431.17
821.261	870.572
825.074	644.103
828.886	422.537
832.695	254.942
836.503	182.604
840.309	190.698
844.112	150.751
847.914	92.372
851.714	66.196
855.512	37.03
859.308	100.64
863.102	23.762
866.894	27.934
870.684	57.956
874.472	97.107
878.258	44.393
882.043	58.986
885.825	63.921
889.606	49.832
893.384	58.803
897.161	26.975
900.936	24.497
904.709	11.354
908.479	52.48
912.248	99
916.016	134.18
919.781	29.904
923.544	23.697
927.305	10.968
931.065	126.077
934.822	76.839
938.578	59.679
942.332	15.467
946.083	16.371
949.833	4.977
953.581	76.418
957.328	51.573
961.072	68.511
964.814	45.242
968.555	0.77
972.293	29.111
976.03	75.288
979.765	204.313
983.497	230.798
987.228	309.761
990.958	292.432
994.685	358.138
998.41	473.088
1002.13	676.485
1005.86	683.91
1009.58	744.059
1013.29	875.057
1017.01	885.125
1020.72	959.778
1024.43	1036.01
1028.14	1000.26
1031.85	1180.79
1035.56	1104.16
1039.27	1035.61
1042.97	995.011
1046.67	1050.91
1050.37	1105.84
1054.07	1039.78
1057.76	1095.57
1061.45	952.244
1065.15	874.312
1068.84	902.759
1072.52	899.834
1076.21	960.951
1079.89	1195.3
1083.58	1286.86
1087.26	1548.19
1090.94	1734.37
1094.61	1819.92
1098.29	2234.85
1101.96	2410.48
1105.63	2676.58
1109.3	2813.14
1112.97	2859.14
1116.63	2905.49
1120.3	2942.5
1123.96	3169.17
1127.62	3216.79
1131.28	2953.8
1134.94	2865.98
1138.59	2837.35
1142.24	2500.16
1145.89	2417.83
1149.55	2305.49
1153.19	2485.2
1156.84	2412.28
1160.48	2369.9
1164.12	2209.45
1167.76	1970.83
1171.4	1694.88
1175.04	1517.02
1178.67	1226.42
1182.31	1104.77
1185.94	1127.61
1189.57	939.533
1193.19	858.554
1196.82	693.895
1200.44	526.11
1204.07	374.638
1207.69	378.139
1211.3	364.023
1214.92	300.373
1218.54	314.924
1222.15	127.863
1225.76	168.898
1229.37	196.898
1232.98	75.304
1236.58	116.466
1240.19	120.588
1243.79	79.659
1247.39	223.854
1250.99	115.839
1254.59	121.463
1258.18	138.021
1261.77	96.916
1265.37	74.591
1268.95	13.049
1272.54	213.859
1276.13	175.45
1279.71	101.791
1283.3	164.916
1286.88	89.676
1290.46	75.444
1294.03	23.796
1297.61	76.245
1301.18	91.629
1304.75	80.415
1308.32	105.397
1311.89	108.889
1315.46	69.083
1319.02	223.929
1322.59	50.505
1326.15	15.951
1329.71	1.852
1333.27	90.516
1336.82	11.027
1340.38	123.213
1343.93	105.279
1347.48	168.249
1351.03	210.299
1354.58	227.205
1358.12	190.625
1361.66	97.613
1365.21	102.393
1368.75	24.65
1372.29	174.329
1375.82	321.22
1379.36	303.121
1382.89	314.47
1386.42	387.799
1389.95	343.916
1393.48	295.571
1397.01	200.601
1400.53	169.808
1404.05	92.163
1407.57	89.835
1411.09	243.011
1414.61	261.889
1418.13	180.576
1421.64	202.756
1425.15	194.448
1428.66	133.265
1432.17	52.178
1435.68	208.268
1439.19	137.322
1442.69	104.297
1446.19	60.447
1449.69	227.011
1453.19	224.569
1456.69	291.001
1460.18	250.355
1463.68	330.319
1467.17	289.111
1470.66	158.71
1474.15	119.221
1477.63	110.646
1481.12	101.691
1484.6	88.51
1488.08	99.882
1491.56	41.831
1495.04	0
