Measurement: Raman, 514 nm, depolarized, Raman Data Processed
Mineral: Stellerite
Rruff sample: R040174
Ideal chemistry: Ca_4_(Si_28_Al_8_)O_72_28H_2_O
Locality: unknown
Source: University of Arizona Mineral Museum
Description: Parallel aggregates of thin tabular brown crystals
Measured chemistry: (Ca_3.89_Na_0.06_K_0.05_)_Σ=4_(Si_28.11_Al_7.89_)O_72_·15.18H_2_O; H_2_O estimated by difference
Pin_id: M00484
Orientation: Laser parallel to a* (1 0 0). Fiducial mark perpendicular to laser is parallel to b [0 1 0]
Raman shift (cm-1)	intensity
195.209	0
199.34	158.424
203.47	169.807
207.597	155.604
211.722	357.54
215.846	606.828
219.967	861.907
224.087	892.436
228.204	1080.82
232.32	1007.93
236.434	814.003
240.545	426.931
244.655	303.843
248.763	155.365
252.869	46.082
256.973	99.85
261.075	24.315
265.175	24.296
269.273	139.677
273.369	293.106
277.463	417.441
281.556	302.471
285.646	258.323
289.734	125.611
293.821	213.821
297.905	122.084
301.988	30.318
306.069	218.434
310.147	165.925
314.224	232.637
318.299	109.273
322.372	175.977
326.443	82.729
330.512	89.477
334.579	166.213
338.645	152.964
342.708	209.743
346.769	246.513
350.829	433.332
354.887	610.291
358.942	580.959
362.996	1054.97
367.048	1318.7
371.098	1893.39
375.146	2634.14
379.192	3365.95
383.236	4325.02
387.279	5567.88
391.319	7178.57
395.358	9317.27
399.394	11595.2
403.429	13323.8
407.462	12922.9
411.493	11000.1
415.522	8470.01
419.549	6881.31
423.575	5207.63
427.598	4070.97
431.619	3266.55
435.639	2703.81
439.657	2591.77
443.673	2649.79
447.687	2957.82
451.699	3645.34
455.709	3762.72
459.717	3479.45
463.724	2855.96
467.728	2113.01
471.731	1889.86
475.732	1787.16
479.731	2364.47
483.728	3772.02
487.723	5928.96
491.716	7955.53
495.708	7192.06
499.697	4320.6
503.685	2269.64
507.671	1158.4
511.655	721.332
515.637	430.68
519.617	331.774
523.596	200.57
527.572	120.067
531.547	121.893
535.52	44.034
539.491	119.296
543.46	4.837
547.427	33.214
551.393	141.941
555.356	249.445
559.318	194.154
563.278	101.324
567.236	290.157
571.192	193.47
575.147	84.708
579.099	427.701
583.05	379.56
586.999	315.353
590.946	216.658
594.891	477.184
598.834	448.427
602.776	586.853
606.715	741.185
610.653	795.073
614.589	1109.05
618.523	1092.74
622.456	1056.02
626.386	909.076
630.315	781.9
634.242	704.487
638.167	576.819
642.09	488.89
646.012	410.697
649.931	335.243
653.849	157.531
657.765	87.524
661.679	151.711
665.592	10.492
669.502	107.091
673.411	11.743
677.318	32.772
681.223	26.825
685.126	92.402
689.028	54.615
692.927	153.79
696.825	77.03
700.721	42.334
704.616	103.345
708.508	160.857
712.399	154.769
716.288	192.89
720.175	123.278
724.06	284.7
727.944	157.411
731.825	109.062
735.705	197.578
739.584	197.255
743.46	307.613
747.334	197.679
751.207	115.242
755.078	260.042
758.947	293.238
762.815	330.667
766.68	268.035
770.544	262.972
774.406	419.481
778.267	530.374
782.125	295.94
785.982	526.83
789.837	654.135
793.69	570.77
797.542	627.22
801.391	673.068
805.239	438.823
809.085	413.529
812.93	278.913
816.772	180.647
820.613	133.065
824.452	146.752
828.29	35.925
832.125	0.138
835.959	6.241
839.791	70.25
843.621	72.325
847.45	73.967
851.277	46.277
855.102	11.501
858.925	14.383
862.746	42.484
866.566	30.018
870.384	155.964
874.2	97.561
878.015	9.479
881.828	83.455
885.639	47.636
889.448	52.395
893.256	37.377
897.061	22.252
900.865	21.694
904.668	14.987
908.468	99.034
912.267	102.872
916.064	86.222
919.86	0.589
923.653	2.124
927.445	134.823
931.236	207.354
935.024	119.661
938.811	61.75
942.596	175.243
946.379	195.324
950.161	186.829
953.94	98.149
957.719	239.29
961.495	40.258
965.27	191.069
969.043	250.823
972.814	239.731
976.583	358.611
980.351	403.227
984.117	407.064
987.882	421.376
991.644	519.277
995.405	487.75
999.165	586.164
1002.92	550.89
1006.68	558.845
1010.43	566.978
1014.18	511.349
1017.93	577.207
1021.68	655.743
1025.43	697.698
1029.18	665.669
1032.92	632.143
1036.66	701.507
1040.4	687.287
1044.14	596.821
1047.88	595.014
1051.62	724.734
1055.35	813.752
1059.08	600.796
1062.81	687.068
1066.54	633.886
1070.27	516.592
1073.99	675.999
1077.72	696.968
1081.44	917.607
1085.16	1038.11
1088.88	1019.32
1092.59	1211
1096.31	1162.57
1100.02	1403.69
1103.73	1465.11
1107.44	1576.4
1111.15	1457.29
1114.86	1718.17
1118.57	1616.93
1122.27	1581.46
1125.97	1724.58
1129.67	1736.99
1133.37	1631.39
1137.07	1554.97
1140.76	1461.02
1144.45	1435.49
1148.15	1468.73
1151.84	1633.7
1155.53	1467.36
1159.21	1620.67
1162.9	1484.02
1166.58	1311.04
1170.26	1252.36
1173.94	1238.01
1177.62	1130.57
1181.3	1061.19
1184.97	991.633
1188.65	874.678
1192.32	800.515
1195.99	697.135
1199.66	507.838
1203.33	494.189
1206.99	365.89
1210.65	618.697
1214.32	293.793
1217.98	286.087
1221.64	247.729
1225.29	209.56
1228.95	252.066
1232.6	33.219
1236.26	105.073
1239.91	246.371
1243.56	167.105
1247.2	207.064
1250.85	149.128
1254.49	169.052
1258.13	215.293
1261.78	224.359
1265.41	54.238
1269.05	163.011
1272.69	172.671
1276.32	29.155
1279.95	228.645
1283.59	176.062
1287.21	162.886
1290.84	0.959
1294.47	45.243
1298.09	49.949
1301.72	65.609
1305.34	49.453
1308.96	26.626
1312.58	3.098
1316.19	39.995
1319.81	57.416
1323.42	37.37
1327.03	43.654
1330.64	77.491
1334.25	91.811
1337.86	121.601
1341.46	68.104
1345.07	22.599
1348.67	196.262
1352.27	134.808
1355.87	63.482
1359.46	72.065
1363.06	179.57
1366.65	46.784
1370.25	43.828
1373.84	142.08
1377.43	97.902
1381.02	94.115
1384.6	99.05
1388.18	272.984
1391.77	206.896
1395.35	190.325
1398.93	342.666
1402.51	284.933
1406.08	233.164
1409.66	217.477
1413.23	128.911
1416.8	334.718
1420.37	367.026
1423.94	344.986
1427.51	249.095
1431.08	265.72
1434.64	271.568
1438.2	236.298
1441.76	85.771
1445.32	38.176
1448.88	195.261
1452.43	161.021
1455.99	345.453
1459.54	210.687
1463.09	336.709
1466.64	372.628
1470.19	274.343
1473.74	384.117
1477.28	145.893
1480.83	432.268
1484.37	434.838
1487.91	156.157
1491.45	81.863
1494.98	157.604
1498.52	16.726
1502.05	329.396
1505.59	146.952
1509.12	215.707
1512.65	135.663
1516.17	244.799
1519.7	204.853
1523.23	58.395
1526.75	74.688
