Measurement: Raman, 514 nm, depolarized, Raman Data Processed
Mineral: Stilbite-Ca
Rruff sample: R050012
Ideal chemistry: NaCa_4_(Si_27_Al_9_)O_72_28H_2_O
Locality: Harborville, Nova Scotia, Canada
Source: University of Arizona Mineral Museum
Description: Globular aggregate of thin tabular white single crystals
Measured chemistry: (Na_1.50_K_0.03_)_Σ=1.53_Ca_4.15_(Si_26.17_Al_9.83_)O_72_·27.91H_2_O; H_2_O estimated by difference
Pin_id: M00488
Orientation: Laser parallel to (-1 0 -1). Fiducial mark perpendicular to laser is parallel to -b [0 -1 0]
Raman shift (cm-1)	intensity
82.863	0
87.064	17.271
91.262	164.678
95.458	887.777
99.652	2090.55
103.843	3252.22
108.033	4283.31
112.22	5243.86
116.406	6237.21
120.589	6849.1
124.77	6926.43
128.949	6776.59
133.126	6647.29
137.301	6626.47
141.473	6703.13
145.644	6966.57
149.812	7146.67
153.979	7203.06
158.143	6554.6
162.305	5901.12
166.465	4912.5
170.623	4045.05
174.778	3512.43
178.932	2879.55
183.083	2181.1
187.233	1800.19
191.38	1429.65
195.525	1122.25
199.669	825.215
203.81	730.734
207.949	631.895
212.085	570.012
216.22	577.649
220.353	644.578
224.483	552.281
228.612	607.163
232.738	585.848
236.863	622.734
240.985	583.516
245.105	481.565
249.223	364.087
253.339	248.233
257.453	138.368
261.565	16.532
265.675	71.392
269.783	44.312
273.888	4.648
277.992	92.479
282.093	174.021
286.193	188.563
290.29	164.175
294.386	216.368
298.479	150.417
302.57	71.197
306.659	200.603
310.746	282.537
314.831	307.91
318.914	262.632
322.995	79.627
327.074	71.827
331.151	46.163
335.226	63.404
339.299	28.932
343.37	119.472
347.438	88.04
351.505	29.64
355.57	119.752
359.632	180.156
363.693	500.537
367.751	869.869
371.808	1356.26
375.862	2040.46
379.914	2679.84
383.965	3483.3
388.013	4535.54
392.06	5809.23
396.104	7712.27
400.146	9960.12
404.186	12369.4
408.225	13864.6
412.261	13544.6
416.295	11516.5
420.327	9444.52
424.357	7561.63
428.386	6056.24
432.412	4982.65
436.436	4110.21
440.458	3648.53
444.478	3387.33
448.496	3506.56
452.513	3726.19
456.527	3946.18
460.539	3936.5
464.549	3337.12
468.557	2714.01
472.563	2272.15
476.567	2210.5
480.57	2548.04
484.57	3573.75
488.568	5555.52
492.564	8407.46
496.558	9648.33
500.551	7719.56
504.541	4716.45
508.529	2673.29
512.515	1492.92
516.5	880.143
520.482	483.299
524.462	250.957
528.441	91.03
532.417	38.193
536.391	40.766
540.364	115.804
544.334	3.576
548.303	51.363
552.269	172.65
556.234	70.123
560.197	22.71
564.157	2.7
568.116	1.202
572.073	132.759
576.027	245.825
579.98	174.542
583.931	258.948
587.88	339.267
591.827	394.969
595.772	527.562
599.715	698.907
603.656	761.924
607.595	980.552
611.532	1174.79
615.468	1268.62
619.401	1254.04
623.332	1278.06
627.262	1225.66
631.189	1165.82
635.115	1029.52
639.039	954.756
642.96	906.507
646.88	806.764
650.798	698.52
654.714	581.781
658.628	492.546
662.54	479.842
666.45	432.665
670.358	304.974
674.264	272.762
678.169	283.382
682.071	301.204
685.972	349.751
689.87	368.176
693.767	243.747
697.662	276.735
701.555	245.2
705.446	264.535
709.335	212.278
713.222	238.753
717.107	237.448
720.99	277.098
724.872	379.121
728.751	344.655
732.629	322.183
736.504	286.22
740.378	285.129
744.25	405.939
748.12	522.282
751.988	500.297
755.854	486.249
759.719	557.055
763.581	712.206
767.442	839.042
771.3	988.549
775.157	1177.25
779.012	1335.93
782.865	1608.94
786.716	1612.84
790.565	1718.33
794.413	1700.78
798.258	1543.52
802.102	1441.45
805.943	1231.31
809.783	969.691
813.621	615.439
817.457	503.808
821.292	287.634
825.124	287.601
828.954	245.819
832.783	113.293
836.61	116.307
840.435	83.929
844.258	104.354
848.079	134.613
851.898	66.15
855.715	74.469
859.531	125.108
863.345	78.038
867.157	99.382
870.967	107.658
874.775	22.024
878.581	37.126
882.386	26.261
886.188	31.681
889.989	15.568
893.788	83.515
897.585	16.866
901.38	52.372
905.174	66.731
908.965	20.752
912.755	59.968
916.543	8.017
920.329	7.775
924.113	67.365
927.895	35.244
931.676	17.116
935.454	20.181
939.231	89.575
943.006	8.171
946.78	22.625
950.551	127.959
954.32	39.186
958.088	60.301
961.854	179.325
965.618	107.259
969.38	86.106
973.141	148.872
976.9	227.586
980.656	224.073
984.411	481.603
988.165	448.902
991.916	536.158
995.665	540.528
999.413	578.962
1003.16	767.566
1006.9	683.988
1010.65	736.083
1014.39	734.466
1018.12	801.271
1021.86	877.32
1025.6	911.086
1029.33	797.084
1033.06	935.267
1036.79	886.349
1040.52	940.169
1044.25	882.345
1047.97	860.556
1051.69	824.737
1055.41	796.15
1059.13	819.644
1062.85	864.006
1066.57	856.848
1070.28	956.432
1073.99	1038.94
1077.7	1138.72
1081.41	1358.33
1085.12	1576.91
1088.82	1695.18
1092.52	1883.26
1096.22	1832.19
1099.92	1853.84
1103.62	2036.57
1107.32	2095.33
1111.01	2185.29
1114.7	2274.38
1118.39	2306.05
1122.08	2179.11
1125.77	2002.28
1129.45	2005.01
1133.14	1945.95
1136.82	2039.91
1140.5	1986.12
1144.18	1834.29
1147.85	1745.38
1151.53	1638.17
1155.2	1490.65
1158.87	1176.42
1162.54	1184.16
1166.21	969.749
1169.88	957.251
1173.54	791.385
1177.2	681.435
1180.86	498.513
1184.52	397.579
1188.18	290.28
1191.83	304.035
1195.49	310.459
1199.14	291.714
1202.79	285.551
1206.44	170.766
1210.08	45.479
1213.73	47.206
1217.37	79.57
1221.01	63.841
1224.65	9.465
1228.29	109.735
1231.93	138.602
1235.56	38.866
1239.19	70.625
1242.83	26.998
1246.46	2.833
1250.08	62.569
1253.71	27.474
1257.33	71.055
1260.96	156.716
1264.58	165.219
1268.19	19.412
1271.81	114.606
1275.43	48.244
1279.04	75.29
1282.65	113.342
1286.27	38.546
1289.87	80.549
1293.48	46.141
1297.09	27.428
1300.69	125.468
1304.29	10.67
1307.89	104.091
1311.49	10.224
1315.09	47.351
1318.68	170.294
1322.28	62.018
1325.87	140.488
1329.46	169.653
1333.05	1.449
1336.63	44.167
1340.22	21.446
1343.8	45.281
1347.38	63.358
1350.96	24.306
1354.54	53.762
1358.12	125.259
1361.69	114.493
1365.26	204.696
1368.83	59.448
1372.4	65.091
1375.97	58.557
1379.54	140.758
1383.1	6.684
1386.66	145.477
1390.23	157.637
1393.79	176.088
1397.34	153.871
1400.9	223.003
1404.45	295.649
1408.01	145.24
1411.56	125.281
1415.11	36.899
1418.66	72.493
1422.2	66.931
1425.75	145.613
1429.29	155.17
1432.83	301.682
1436.37	314.493
1439.91	437.933
1443.44	353.451
1446.98	299.963
1450.51	294.222
1454.04	237.178
1457.57	280.911
1461.1	293.274
1464.63	183.579
1468.15	297.842
1471.67	382.016
1475.19	282.567
1478.71	327.076
1482.23	309.646
1485.75	256.477
1489.26	173.498
1492.78	70.482
1496.29	6.889
1499.8	13.561
1503.31	140.881
1506.81	95.257
1510.32	136.975
1513.82	247.736
1517.32	276.466
1520.82	0
