Measurement: Raman, 514 nm, depolarized, Raman Data Processed
Mineral: Stilbite-Ca
Rruff sample: R050012
Ideal chemistry: NaCa_4_(Si_27_Al_9_)O_72_28H_2_O
Locality: Harborville, Nova Scotia, Canada
Source: University of Arizona Mineral Museum
Description: Globular aggregate of thin tabular white single crystals
Measured chemistry: (Na_1.50_K_0.03_)_Σ=1.53_Ca_4.15_(Si_26.17_Al_9.83_)O_72_·27.91H_2_O; H_2_O estimated by difference
Pin_id: M00467
Orientation: Laser parallel to c* (0 0 1). Fiducial mark perpendicular to laser is parallel to -a [-1 0 0]
Raman shift (cm-1)	intensity
78.661	0
82.863	31.251
87.064	43.407
91.262	324.986
95.458	524.366
99.652	882.084
103.843	1044.6
108.033	1152.13
112.22	1273.39
116.406	1398.31
120.589	1308.37
124.77	1163.4
128.949	1049.87
133.126	1003.04
137.301	967.918
141.473	874.172
145.644	1018.95
149.812	1028.36
153.979	1045.75
158.143	947.006
162.305	869.246
166.465	706.604
170.623	534.292
174.778	496.998
178.932	414.559
183.083	350.642
187.233	283.09
191.38	226.951
195.525	187.964
199.669	126.106
203.81	105.356
207.949	85.697
212.085	30.103
216.22	52.534
220.353	45.97
224.483	54.411
228.612	32.856
232.738	30.333
236.863	36.881
240.985	59.527
245.105	14.084
249.223	9.542
253.339	55.882
257.453	2.822
261.565	44.126
265.675	1.199
269.783	36.123
273.888	41.021
277.992	40.942
282.093	20.909
286.193	25.927
290.29	5.016
294.386	31.858
298.479	47.671
302.57	107.414
306.659	124.095
310.746	126.718
314.831	246.289
318.914	184.807
322.995	152.268
327.074	153.677
331.151	156.018
335.226	95.288
339.299	127.372
343.37	114.115
347.438	121.575
351.505	148.881
355.57	117.176
359.632	139.471
363.693	262.763
367.751	292.042
371.808	352.304
375.862	495.663
379.914	619.5
383.965	696.672
388.013	804.56
392.06	970.45
396.104	1343.22
400.146	1615.06
404.186	1782.83
408.225	2043
412.261	2129.27
416.295	1904.53
420.327	1540.95
424.357	1239.36
428.386	1089.82
432.412	902.776
436.436	708.931
440.458	606.626
444.478	557.376
448.496	643.637
452.513	588.887
456.527	649.456
460.539	732.974
464.549	645.437
468.557	553.847
472.563	454.202
476.567	434.503
480.57	525.75
484.57	615.943
488.568	884.083
492.564	1269.17
496.558	1581.2
500.551	1261.18
504.541	755.215
508.529	377.213
512.515	268.185
516.5	199.654
520.482	140.846
524.462	77.018
528.441	94.265
532.417	43.031
536.391	46.474
540.364	4.739
544.334	11.817
548.303	22.914
552.269	36.195
556.234	29.611
560.197	27.241
564.157	8.578
568.116	14.507
572.073	57.372
576.027	3.141
579.98	1.958
583.931	29.675
587.88	78.448
591.827	45.062
595.772	46.668
599.715	68.29
603.656	119.94
607.595	182.612
611.532	150.298
615.468	156.964
619.401	179.584
623.332	237.149
627.262	245.674
631.189	161.154
635.115	137.6
639.039	147.997
642.96	175.354
646.88	159.659
650.798	104.907
654.714	70.13
658.628	53.301
662.54	78.416
666.45	58.472
670.358	0.467
674.264	5.529
678.169	13.416
682.071	36.369
685.972	31.229
689.87	13.913
693.767	17.513
697.662	7.414
701.555	20.478
705.446	2.77
709.335	20.738
713.222	29.033
717.107	1.775
720.99	55.774
724.872	47.8
728.751	30.344
732.629	5.754
736.504	32.678
740.378	10.223
744.25	79.797
748.12	40.322
751.988	49.044
755.854	52.616
759.719	85.202
763.581	157.769
767.442	126.854
771.3	118.505
775.157	160.101
779.012	243.236
782.865	287.39
786.716	298.072
790.565	308.091
794.413	254.746
798.258	277.958
802.102	262.802
805.943	235.952
809.783	161.039
813.621	91.703
817.457	99.225
821.292	50.67
825.124	70.645
828.954	52.051
832.783	12.605
836.61	7.607
840.435	39.612
844.258	42.331
848.079	74.695
851.898	51.498
855.715	20.249
859.531	52.525
863.345	4.054
867.157	53.12
870.967	40.598
874.775	31.264
878.581	7.034
882.386	13.142
886.188	12.374
889.989	17.357
893.788	22.056
897.585	35.801
901.38	0.51
905.174	2.252
908.965	9.989
912.755	55.7
916.543	44.39
920.329	18.975
924.113	4.416
927.895	36.105
931.676	27.391
935.454	39.052
939.231	16.454
943.006	50.383
946.78	20.112
950.551	18.372
954.32	50.623
958.088	49.839
961.854	41.993
965.618	42.121
969.38	23.24
973.141	23.361
976.9	42.469
980.656	70.491
984.411	88.343
988.165	121.232
991.916	53.308
995.665	86.338
999.413	151.296
1003.16	170.663
1006.9	125.607
1010.65	155.724
1014.39	153.65
1018.12	162.802
1021.86	141.19
1025.6	119.321
1029.33	131.263
1033.06	155.297
1036.79	135.372
1040.52	171.352
1044.25	110.891
1047.97	114.032
1051.69	111.881
1055.41	170.321
1059.13	214.018
1062.85	174.161
1066.57	181.428
1070.28	116.539
1073.99	139.467
1077.7	194.63
1081.41	224.544
1085.12	277.524
1088.82	312.518
1092.52	329.706
1096.22	287.213
1099.92	219.127
1103.62	352.889
1107.32	338.731
1111.01	361.609
1114.7	344.819
1118.39	330.92
1122.08	324.167
1125.77	260.399
1129.45	276.698
1133.14	350.775
1136.82	326.026
1140.5	308.328
1144.18	268.632
1147.85	204.869
1151.53	176.182
1155.2	209.024
1158.87	201.769
1162.54	241.97
1166.21	233.144
1169.88	243.396
1173.54	166.662
1177.2	109.953
1180.86	125.351
1184.52	99.762
1188.18	77.057
1191.83	74.451
1195.49	98.768
1199.14	47.207
1202.79	44.027
1206.44	65.525
1210.08	22.173
1213.73	25.971
1217.37	2.635
1221.01	40.692
1224.65	55.854
1228.29	64.127
1231.93	40.408
1235.56	29.571
1239.19	5.867
1242.83	2.015
1246.46	24.917
1250.08	22.271
1253.71	65.493
1257.33	31.607
1260.96	36.708
1264.58	67.863
1268.19	27.922
1271.81	27.031
1275.43	17.417
1279.04	46.517
1282.65	71.609
1286.27	40.598
1289.87	47.477
1293.48	37.308
1297.09	19.114
1300.69	31.895
1304.29	26.347
1307.89	9.366
1311.49	26.062
1315.09	29.717
1318.68	31.352
1322.28	14.97
1325.87	18.092
1329.46	34.078
1333.05	23.576
1336.63	1.944
1340.22	14.578
1343.8	4.165
1347.38	15.188
1350.96	25.607
1354.54	34.66
1358.12	39.055
1361.69	8.297
1365.26	49.75
1368.83	49.535
1372.4	20.643
1375.97	47.793
1379.54	5.642
1383.1	44.551
1386.66	36.871
1390.23	55.754
1393.79	58.511
1397.34	80.252
1400.9	79.026
1404.45	51.623
1408.01	43.279
1411.56	13.558
1415.11	20.359
1418.66	20.162
1422.2	56.408
1425.75	90.631
1429.29	120.651
1432.83	108.087
1436.37	127.964
1439.91	114.81
1443.44	115.726
1446.98	110.396
1450.51	112.187
1454.04	107.278
1457.57	125.84
1461.1	123.798
1464.63	128.49
1468.15	141.333
1471.67	147.249
1475.19	96.811
1478.71	162.885
1482.23	119.033
1485.75	95.229
1489.26	81.736
1492.78	73.517
1496.29	44.222
1499.8	63.647
1503.31	86.032
1506.81	103.946
1510.32	181.146
1513.82	145.993
1517.32	0
