Measurement: Raman, 514 nm, depolarized, Raman Data Processed
Mineral: Stilbite-Ca
Rruff sample: R050012
Ideal chemistry: NaCa_4_(Si_27_Al_9_)O_72_28H_2_O
Locality: Harborville, Nova Scotia, Canada
Source: University of Arizona Mineral Museum
Description: Globular aggregate of thin tabular white single crystals
Measured chemistry: (Na_1.50_K_0.03_)_Σ=1.53_Ca_4.15_(Si_26.17_Al_9.83_)O_72_·27.91H_2_O; H_2_O estimated by difference
Pin_id: M00431
Orientation: Laser parallel to -b* (0 -1 0). Fiducial mark perpendicular to laser is parallel to c [0 0 1]
Raman shift (cm-1)	intensity
81.463	0
85.664	38.915
89.863	453.916
94.059	1864.03
98.254	3249.12
102.446	4405.38
106.637	5424.51
110.825	6675.04
115.011	6919.23
119.195	7092.77
123.377	7071.8
127.556	6993.74
131.734	6796.47
135.909	6646.77
140.083	6653.56
144.254	6346.49
148.423	6297.8
152.59	5935.68
156.755	5406.99
160.918	4521.64
165.078	3789.49
169.237	3303.14
173.393	2503.3
177.548	2136.45
181.7	1739.25
185.85	1531.71
189.998	1176.24
194.144	903.18
198.288	711.771
202.429	709.768
206.569	424.266
210.707	506.182
214.842	394.847
218.976	290.416
223.107	176.626
227.236	264.57
231.363	274.363
235.488	106.436
239.611	57.671
243.732	187.691
247.851	162.896
251.967	59.809
256.082	160.992
260.195	155.225
264.305	124.639
268.414	60.273
272.52	32.756
276.624	167.406
280.726	219.797
284.827	164.133
288.925	160.174
293.021	139.855
297.115	76.619
301.207	13.266
305.296	67.965
309.384	100.23
313.47	123.422
317.554	157.432
321.635	132.197
325.715	90.598
329.792	136.311
333.868	19.812
337.941	152.945
342.013	235.807
346.082	8.303
350.15	10.322
354.215	78.189
358.278	67.305
362.339	146.959
366.399	482.973
370.456	974.768
374.511	1400.87
378.564	1828
382.615	2420.28
386.664	3147.28
390.711	4006.18
394.756	5283.28
398.799	7067.15
402.84	8927.72
406.879	9963.61
410.916	9331.4
414.951	8152.06
418.983	6749.4
423.014	5403.91
427.043	4365.19
431.07	3560.72
435.095	2929.91
439.118	2713.86
443.138	2279.13
447.157	2384.56
451.174	2770.03
455.189	2967.36
459.202	2761.03
463.212	2176.25
467.221	1871.66
471.228	1687
475.233	1542.24
479.236	1877.37
483.237	2632.36
487.235	4033.05
491.232	5907.08
495.227	6665.26
499.22	5253.94
503.211	3280.59
507.2	1789.72
511.187	988.248
515.172	546.594
519.155	437.412
523.136	133.795
527.115	98.291
531.092	146.221
535.067	76.268
539.04	102.27
543.011	4.27
546.98	16.566
550.947	50.625
554.913	94.23
558.876	178.068
562.837	135.586
566.797	53.312
570.754	182.85
574.709	174.711
578.663	129.568
582.614	243.389
586.564	187.291
590.511	339.318
594.457	430.762
598.401	411.695
602.343	532.148
606.282	822.105
610.22	971.566
614.156	1090.57
618.09	909.074
622.022	1267.06
625.952	1154.55
629.88	1091.5
633.807	668.02
637.731	744.029
641.653	629.564
645.574	794.58
649.492	759.186
653.409	343.385
657.323	427.172
661.236	130.68
665.147	443.816
669.056	357.736
672.963	70.691
676.868	263.217
680.771	325.209
684.672	159.107
688.571	139.791
692.468	204.285
696.364	54.734
700.257	296.219
704.149	260.922
708.038	241.451
711.926	238.379
715.812	253.598
719.696	164.242
723.578	433.064
727.458	530.496
731.336	345.869
735.213	175.898
739.087	157.254
742.96	417.779
746.83	582.297
750.699	418.588
754.566	378.564
758.431	578.48
762.294	767.58
766.155	850.438
770.014	1059.27
773.872	997.99
777.727	964.828
781.581	1143.94
785.433	1657.47
789.282	1373.63
793.13	1206.55
796.977	1332
800.821	1227.02
804.663	1164.23
808.504	887.525
812.342	602.033
816.179	428.965
820.014	190.344
823.847	340.062
827.678	582.779
831.507	301.203
835.334	281.27
839.16	37.461
842.983	101.387
846.805	297.035
850.625	265.91
854.443	328.748
858.259	294.203
862.074	356.781
865.886	252.965
869.697	205.338
873.506	352.387
877.313	106.934
881.118	154.422
884.921	66.064
888.722	39.848
892.522	366.666
896.319	233.809
900.115	71.203
903.909	248.484
907.701	145.678
911.492	212.678
915.28	419.529
919.067	306.166
922.852	2.531
926.635	178.693
930.416	45.314
934.195	400.502
937.973	156.148
941.748	191.512
945.522	26.611
949.294	151.498
953.064	43.756
956.832	180.797
960.599	395.242
964.364	219.58
968.127	283.678
971.888	13.176
975.647	50.107
979.404	92.586
983.16	184.891
986.914	566.963
990.666	268.75
994.416	161.074
998.164	104.648
1001.91	467.488
1005.65	251.332
1009.4	704.93
1013.14	758.943
1016.88	582.994
1020.62	596.215
1024.35	664.533
1028.09	645.986
1031.82	894.209
1035.55	783.164
1039.28	674.93
1043	588.174
1046.73	653.393
1050.45	521.943
1054.17	656.037
1057.89	711.822
1061.61	795.732
1065.33	794.898
1069.04	585.25
1072.75	417.924
1076.46	851.312
1080.17	1234.57
1083.88	1365.42
1087.59	1601.54
1091.29	1326.45
1094.99	1172.88
1098.69	1137.41
1102.39	1029.02
1106.09	1864.64
1109.78	1959.75
1113.47	1783.73
1117.16	1929.94
1120.85	1412.71
1124.54	1394.2
1128.23	1068.15
1131.91	1310.83
1135.59	1527.52
1139.27	1653.08
1142.95	1759.41
1146.63	1593.27
1150.3	1065
1153.98	674.697
1157.65	980.4
1161.32	796.461
1164.99	1033.29
1168.65	1148.17
1172.32	912.967
1175.98	506.246
1179.64	239.416
1183.3	272.482
1186.96	266.936
1190.62	111.859
1194.27	154.688
1197.92	426
1201.57	658.85
1205.22	340.586
1208.87	109.434
1212.51	82.568
1216.16	353.385
1219.8	440.375
1223.44	853.285
1227.08	865.578
1230.72	611.271
1234.35	278.912
1237.98	149.654
1241.62	186.729
1245.25	358.268
1248.87	275.033
1252.5	742.602
1256.12	1031.2
1259.75	941.506
1263.37	907.371
1266.99	403.988
1270.61	301.094
1274.22	93.279
1277.84	6.67
1281.45	547.984
1285.06	875.721
1288.67	738.336
1292.28	910.65
1295.88	533.424
1299.49	314.346
1303.09	145.408
1306.69	3.402
1310.29	121.701
1313.89	699.463
1317.48	726.201
1321.08	942.082
1324.67	907.721
1328.26	622.242
1331.85	475.943
1335.44	178.479
1339.02	81.264
1342.61	169.594
1346.19	629.893
1349.77	707.818
1353.35	1290.45
1356.92	963.229
1360.5	1161.74
1364.07	628.029
1367.64	121.434
1371.21	29.043
1374.78	390.34
1378.35	57.588
1381.91	616.422
1385.48	862.105
1389.04	1116.31
1392.6	1462.6
1396.16	1248.32
1399.71	1237.33
1403.27	655.357
1406.82	479.016
1410.38	140.449
1413.92	503.805
1417.47	190.609
1421.02	845.814
1424.57	1216.03
1428.11	1446
1431.65	1751.06
1435.19	1783.69
1438.73	1331.87
1442.27	922.773
1445.8	611.879
1449.33	916.465
1452.87	666.051
1456.4	1050.53
1459.92	816.527
1463.45	1386.8
1466.98	1475.94
1470.5	1995.23
1474.02	1690.28
1477.54	1153.78
1481.06	981.352
1484.58	479.844
1488.09	190.145
1491.61	90.484
1495.12	7.781
1498.63	316.68
1502.14	350.953
1505.64	652.078
1509.15	859.859
1512.65	918.473
