Measurement: Raman, 514 nm, depolarized, Raman Data Processed
Mineral: Stilbite-Ca
Rruff sample: R050012
Ideal chemistry: NaCa_4_(Si_27_Al_9_)O_72_28H_2_O
Locality: Harborville, Nova Scotia, Canada
Source: University of Arizona Mineral Museum
Description: Globular aggregate of thin tabular white single crystals
Measured chemistry: (Na_1.50_K_0.03_)_Σ=1.53_Ca_4.15_(Si_26.17_Al_9.83_)O_72_·27.91H_2_O; H_2_O estimated by difference
Pin_id: M00353
Orientation: Laser parallel to a* (1 0 0). Fiducial mark perpendicular to laser is parallel to b [0 1 0]
Raman shift (cm-1)	intensity
82.863	0
87.064	17.484
91.262	103.247
95.458	461.666
99.652	967.403
103.843	1480.91
108.033	1799.28
112.22	2053.81
116.406	2401.67
120.589	2464.8
124.77	2432.93
128.949	2349.5
133.126	2252.68
137.301	2065.53
141.473	1942.41
145.644	2004.91
149.812	1970.06
153.979	1972.87
158.143	1905.35
162.305	1740.51
166.465	1498.39
170.623	1249.21
174.778	1218.67
178.932	1020.33
183.083	771.337
187.233	625.799
191.38	492.286
195.525	378.901
199.669	307.153
203.81	315.006
207.949	318.427
212.085	335.381
216.22	442.819
220.353	593.682
224.483	652.94
228.612	671.593
232.738	622.822
236.863	564.791
240.985	440.532
245.105	294.9
249.223	212.279
253.339	157.403
257.453	25.159
261.565	42.155
265.675	51.127
269.783	64.112
273.888	96.342
277.992	41.997
282.093	44.146
286.193	19.875
290.29	71.226
294.386	9.273
298.479	72.954
302.57	97.419
306.659	178.097
310.746	205.978
314.831	310.051
318.914	348.306
322.995	323.735
327.074	313.327
331.151	290.07
335.226	325.961
339.299	318.911
343.37	322.697
347.438	331.334
351.505	360.932
355.57	358.546
359.632	451.312
363.693	528.222
367.751	651.371
371.808	891.406
375.862	1134.85
379.914	1449.51
383.965	1819.79
388.013	2201.23
392.06	2787.48
396.104	3662.7
400.146	4618.6
404.186	5648.32
408.225	6381.44
412.261	6275.94
416.295	5516.47
420.327	4576.3
424.357	3758.89
428.386	3170.95
432.412	2701.24
436.436	2204.23
440.458	2074.62
444.478	1913.93
448.496	2032.41
452.513	2256.47
456.527	2400.49
460.539	2336.02
464.549	1928.54
468.557	1565.06
472.563	1264.55
476.567	1176.04
480.57	1225.5
484.57	1449.93
488.568	2035.33
492.564	2930.7
496.558	3218.03
500.551	2404.32
504.541	1451.57
508.529	769.773
512.515	443.939
516.5	272.319
520.482	143.727
524.462	31.98
528.441	18.009
532.417	4.292
536.391	18.581
540.364	12.501
544.334	35.874
548.303	4.034
552.269	32.001
556.234	14.505
560.197	34.141
564.157	10.943
568.116	22.811
572.073	48.603
576.027	9.241
579.98	2.724
583.931	59.07
587.88	112.427
591.827	140.772
595.772	193.147
599.715	240.064
603.656	304.865
607.595	355.164
611.532	377.408
615.468	419.614
619.401	418.745
623.332	400.762
627.262	401.664
631.189	370.45
635.115	318.116
639.039	351.662
642.96	289.096
646.88	227.409
650.798	202.597
654.714	228.658
658.628	137.593
662.54	148.403
666.45	111.172
670.358	101.99
674.264	77.965
678.169	97.562
682.071	102.312
685.972	80.24
689.87	95.594
693.767	79.225
697.662	93.875
701.555	58.286
705.446	73.677
709.335	84.944
713.222	67.149
717.107	68.732
720.99	113.607
724.872	75.03
728.751	82.21
732.629	92.132
736.504	125.269
740.378	107.457
744.25	113.894
748.12	98.491
751.988	138.911
755.854	139.292
759.719	170.191
763.581	196.011
767.442	240.149
771.3	242.585
775.157	318.021
779.012	380.291
782.865	447.502
786.716	437.475
790.565	438.277
794.413	364.481
798.258	335.387
802.102	294.826
805.943	224.994
809.783	170.245
813.621	127.274
817.457	83.195
821.292	67.008
825.124	48.691
828.954	47.838
832.783	27.145
836.61	40.305
840.435	24.359
844.258	12.73
848.079	6.293
851.898	45.499
855.715	15.068
859.531	25.291
863.345	17.947
867.157	3.083
870.967	4.725
874.775	29.468
878.581	29.816
882.386	17.345
886.188	13.041
889.989	8.368
893.788	34.59
897.585	1.673
901.38	6.641
905.174	5.517
908.965	26.309
912.755	20.025
916.543	9.331
920.329	5.771
924.113	12.699
927.895	4.076
931.676	8.389
935.454	33.642
939.231	51.837
943.006	26.977
946.78	5.551
950.551	15.074
954.32	79.039
958.088	56.959
961.854	47.838
965.618	82.68
969.38	99.482
973.141	87.133
976.9	154.535
980.656	150.694
984.411	225.952
988.165	224.983
991.916	216.163
995.665	237.705
999.413	265.556
1003.16	268.698
1006.9	270.681
1010.65	301.538
1014.39	305.591
1018.12	329.801
1021.86	281.033
1025.6	298.429
1029.33	333.392
1033.06	357.089
1036.79	312.874
1040.52	319.665
1044.25	323.309
1047.97	323.406
1051.69	294.458
1055.41	326.54
1059.13	336.653
1062.85	320.019
1066.57	304.918
1070.28	376.069
1073.99	383.885
1077.7	474.296
1081.41	534.815
1085.12	541.373
1088.82	588.038
1092.52	662.66
1096.22	686.572
1099.92	712.129
1103.62	807.918
1107.32	806.859
1111.01	816.748
1114.7	808.972
1118.39	850.17
1122.08	808.606
1125.77	793.794
1129.45	813.758
1133.14	807.529
1136.82	847.745
1140.5	832.866
1144.18	787.155
1147.85	715.21
1151.53	712.511
1155.2	704.804
1158.87	691.099
1162.54	656.713
1166.21	567.156
1169.88	550.678
1173.54	484.117
1177.2	406.59
1180.86	374.98
1184.52	317.951
1188.18	268.461
1191.83	232.414
1195.49	192.826
1199.14	143.622
1202.79	114.383
1206.44	59.198
1210.08	58.522
1213.73	36.351
1217.37	30.002
1221.01	21.681
1224.65	31.316
1228.29	28.046
1231.93	22.012
1235.56	20.678
1239.19	17.639
1242.83	20.217
1246.46	18.835
1250.08	3.444
1253.71	32.288
1257.33	9.105
1260.96	16.442
1264.58	11.947
1268.19	15.701
1271.81	4.272
1275.43	11.724
1279.04	20.133
1282.65	5.506
1286.27	26.893
1289.87	25.162
1293.48	1.354
1297.09	16.392
1300.69	9.651
1304.29	4.309
1307.89	29.333
1311.49	10.45
1315.09	11.38
1318.68	31.156
1322.28	10.599
1325.87	14.507
1329.46	48.081
1333.05	2.605
1336.63	5.068
1340.22	5.467
1343.8	27.188
1347.38	29.087
1350.96	4.683
1354.54	13.508
1358.12	27.633
1361.69	41.709
1365.26	52.797
1368.83	27.688
1372.4	36.749
1375.97	31.658
1379.54	12.037
1383.1	46.298
1386.66	46.485
1390.23	39.252
1393.79	31.953
1397.34	42.152
1400.9	32.179
1404.45	49.556
1408.01	24.005
1411.56	36.122
1415.11	57.555
1418.66	56.611
1422.2	46.692
1425.75	88.514
1429.29	65.242
1432.83	57.365
1436.37	65.414
1439.91	75.342
1443.44	60.513
1446.98	42.443
1450.51	44.015
1454.04	73.825
1457.57	43.002
1461.1	43.951
1464.63	68.384
1468.15	65.936
1471.67	80.698
1475.19	47.268
1478.71	51.085
1482.23	58.807
1485.75	33.818
1489.26	41.033
1492.78	24.397
1496.29	52.114
1499.8	50.143
1503.31	46.64
1506.81	45.621
1510.32	85.536
1513.82	73.019
1517.32	5.266
