Measurement: Raman, 514 nm, depolarized, Raman Data Processed
Mineral: Strontianite
Rruff sample: R040037
Ideal chemistry: SrCO_3_
Locality: Alston Moor, Cumbria, England
Source: University of Arizona Mineral Museum
Description: Group of tan colored crystals
Measured chemistry: (Sr_0.91_Ca_0.09_)_Î£=1_CO_3_; CO_2_ estimated by difference
Pin_id: L00367
Orientation: Laser parallel to -a* (-1 0 0). Fiducial mark perpendicular to laser is parallel to -b [0 -1 0]
Raman shift (cm-1)	intensity
91.981	0
96.161	17.587
100.34	205.725
104.516	375.313
108.691	392.378
112.864	648.869
117.034	876.79
121.203	618.118
125.369	656.441
129.534	746.894
133.696	1209.05
137.857	2031.79
142.016	4200.7
146.172	8012.46
150.327	10271.9
154.48	5712.74
158.63	2787.98
162.779	1667.38
166.926	1286.51
171.07	1303.43
175.213	2061.01
179.354	2860.33
183.493	3459.53
187.63	2538.49
191.765	1202.15
195.898	500.922
200.029	506.896
204.158	204.631
208.285	143.578
212.41	157.031
216.533	185.135
220.654	170.18
224.773	97.354
228.891	100.957
233.006	169.476
237.119	308.577
241.231	500.63
245.34	673.509
249.448	896.875
253.553	633.564
257.657	421.257
261.758	439.77
265.858	220.777
269.956	156.886
274.052	95.873
278.146	53.604
282.237	37.799
286.327	100.888
290.416	17.523
294.502	41.283
298.586	2.442
302.668	52.817
306.749	17.853
310.827	51.868
314.903	34.733
318.978	15.505
323.051	31.014
327.121	3.192
331.19	8.768
335.257	53.384
339.322	40.443
343.385	9.337
347.446	61.956
351.505	41.72
355.563	51.864
359.618	36.051
363.672	47.76
367.723	12.809
371.773	76.584
375.821	147.225
379.866	33.767
383.91	26.255
387.952	121.434
391.992	11.297
396.031	26.675
400.067	56.256
404.101	111.539
408.134	88.576
412.165	42.543
416.193	64.491
420.22	88.52
424.245	154.546
428.268	117.096
432.289	110.185
436.309	102.125
440.326	138.171
444.342	90.345
448.355	163.083
452.367	111.493
456.377	176.851
460.385	55.079
464.391	81.976
468.395	96.43
472.398	69.746
476.398	18.753
480.397	73.301
484.394	86.823
488.389	115.873
492.382	116.695
496.373	9.227
500.362	130.816
504.349	58.012
508.335	83.417
512.319	67.313
516.3	56.597
520.28	27.553
524.259	60.573
528.235	135.335
532.209	135.235
536.182	190.033
540.152	127.185
544.121	46.228
548.088	30.92
552.053	200.009
556.017	37.456
559.978	121.577
563.938	167.816
567.895	81.583
571.851	98.542
575.805	104.8
579.758	130.667
583.708	94.585
587.657	147.466
591.603	146.744
595.548	72.312
599.491	142.24
603.432	59.242
607.372	153.217
611.309	38.98
615.245	78.439
619.179	77.784
623.111	134.99
627.041	49.11
630.97	88.001
634.896	103.633
638.821	23.427
642.744	109.753
646.665	52.296
650.584	62.249
654.502	76.183
658.418	83.89
662.331	113.328
666.244	53.14
670.154	140.606
674.062	101.234
677.969	118.191
681.874	73.833
685.777	132.215
689.678	212.815
693.577	438.087
697.475	2128.44
701.371	1739.25
705.265	626.207
709.157	228.337
713.047	243.069
716.936	5.049
720.823	154.861
724.708	73.681
728.591	3.551
732.472	44.182
736.352	8.035
740.23	206.12
744.106	134.637
747.98	63.106
751.853	131.992
755.723	14.622
759.592	49.942
763.459	129.357
767.325	170.369
771.188	129.165
775.05	88.637
778.91	59.875
782.768	3.58
786.625	112.327
790.479	56.332
794.332	53.701
798.183	113.031
802.033	9.65
805.88	18.148
809.726	71.81
813.57	25.181
817.413	9.696
821.253	40.607
825.092	97.72
828.929	87.059
832.764	5.683
836.598	75.713
840.429	52.259
844.259	56.548
848.088	79.804
851.914	67.761
855.739	209.588
859.562	12.81
863.383	5.995
867.203	58.189
871.02	4.632
874.836	93.786
878.65	112.101
882.463	44.079
886.274	0.475
890.083	28.092
893.89	143.173
897.695	5.334
901.499	75.428
905.301	74.476
909.102	151.858
912.9	106.531
916.697	88.374
920.492	22.182
924.285	186.116
928.077	154.751
931.867	119.538
935.655	165.104
939.442	85.94
943.226	151.626
947.009	96.46
950.791	149.504
954.57	76.896
958.348	131.685
962.124	20.934
965.899	51.361
969.671	170.878
973.442	146.716
977.211	86.149
980.979	149.588
984.745	28.574
988.509	22.516
992.271	156.072
996.032	171.886
999.791	10.125
1003.55	84.773
1007.3	125.664
1011.06	135.113
1014.81	157.768
1018.56	201.348
1022.31	183.407
1026.06	202.013
1029.8	315.313
1033.55	166.281
1037.29	294.197
1041.03	332.508
1044.77	308.685
1048.5	331.514
1052.24	447.008
1055.97	226.289
1059.7	380.251
1063.43	590.123
1067.16	1541.19
1070.89	9597.51
1074.61	54247.8
1078.34	6000.14
1082.06	925.305
1085.78	449.286
1089.5	227.974
1093.21	195.479
1096.93	154.779
1100.64	219.947
1104.35	129.279
1108.06	137.195
1111.77	89.17
1115.48	146.924
1119.18	105.437
1122.89	150.885
1126.59	23.725
1130.29	150.524
1133.99	30.763
1137.68	57.534
1141.38	145.146
1145.07	125.382
1148.76	55.461
1152.45	52.937
1156.14	123.949
1159.83	86.893
1163.51	168.618
1167.19	44.408
1170.88	99.92
1174.56	42.084
1178.23	12.997
1181.91	52.303
1185.59	120.224
1189.26	146.623
1192.93	146.685
1196.6	141.882
1200.27	249.52
1203.94	264.01
1207.6	170.979
1211.27	152.94
1214.93	142.257
1218.59	189.37
1222.25	156.284
1225.9	244.371
1229.56	291.846
1233.21	107.312
1236.86	151.574
1240.51	163.56
1244.16	201.788
1247.81	216.054
1251.45	81.373
1255.1	117.351
1258.74	40.77
1262.38	132.1
1266.02	155.014
1269.66	178.928
1273.29	97.283
1276.93	62.201
1280.56	54.967
1284.19	10.934
1287.82	1.209
1291.45	74.443
1295.07	149.812
1298.7	140.493
1302.32	72.971
1305.94	21.042
1309.56	9.585
1313.18	154.269
1316.8	107.736
1320.41	22.106
1324.02	69.752
1327.63	38.501
1331.24	8.339
1334.85	101.049
1338.46	189.178
1342.06	103.896
1345.67	153.906
1349.27	50.828
1352.87	137.518
1356.47	121.087
1360.07	212.972
1363.66	163.554
1367.25	226.479
1370.85	55.061
1374.44	199.89
1378.03	161.418
1381.61	146.729
1385.2	133.038
1388.78	198.711
1392.37	87.112
1395.95	177.247
1399.53	179.077
1403.1	150.023
1406.68	206.35
1410.26	297.877
1413.83	184.366
1417.4	264.695
1420.97	192.925
1424.54	363.074
1428.1	241.715
1431.67	126.373
1435.23	180.662
1438.8	259.965
1442.36	298.516
1445.91	431.297
1449.47	1180.84
1453.03	849.396
1456.58	262.047
1460.13	84.193
1463.68	211.705
1467.23	457.375
1470.78	283.9
1474.33	434.352
1477.87	233.52
1481.42	433.559
1484.96	352.113
1488.5	312.686
1492.04	151.332
1495.57	237.895
1499.11	213.025
1502.64	116.824
1506.17	148.242
1509.71	160.676
1513.23	143.617
1516.76	234.869
1520.29	83.027
1523.81	0.338
