Measurement: Raman, 514 nm, depolarized, Raman Data Processed
Mineral: Strontianite
Rruff sample: R040037
Ideal chemistry: SrCO_3_
Locality: Alston Moor, Cumbria, England
Source: University of Arizona Mineral Museum
Description: Group of tan colored crystals
Measured chemistry: (Sr_0.91_Ca_0.09_)_Î£=1_CO_3_; CO_2_ estimated by difference
Pin_id: L00091
Orientation: Laser parallel to -b* (0 -1 0). Fiducial mark perpendicular to laser is parallel to -c [0 0 -1]
Raman shift (cm-1)	intensity
87.798	0
91.981	35.4
96.161	157.292
100.34	648.031
104.516	718.471
108.691	496.276
112.864	779.891
117.034	652.388
121.203	393.508
125.369	448.579
129.534	703.297
133.696	890.614
137.857	1577.66
142.016	2957.4
146.172	5549.74
150.327	5501.42
154.48	2836.83
158.63	1901.43
162.779	1657.96
166.926	1539.51
171.07	2508.86
175.213	4300.03
179.354	6820.12
183.493	7210.4
187.63	3496.63
191.765	1423.53
195.898	750.989
200.029	419.693
204.158	318.994
208.285	188.114
212.41	172.403
216.533	172.478
220.654	95.019
224.773	115.48
228.891	175.701
233.006	388.312
237.119	761.686
241.231	972.435
245.34	1165.23
249.448	936.081
253.553	630.017
257.657	434.843
261.758	400.178
265.858	249.515
269.956	152.746
274.052	77.489
278.146	20.037
282.237	13.054
286.327	39.014
290.416	35.326
294.502	86.123
298.586	0.241
302.668	21.287
306.749	27.468
310.827	75.989
314.903	31.646
318.978	40.781
323.051	26.661
327.121	31.093
331.19	25.922
335.257	34.417
339.322	14.753
343.385	13.656
347.446	49.144
351.505	83.159
355.563	22.364
359.618	24.371
363.672	9.781
367.723	40.067
371.773	8.198
375.821	9.414
379.866	74.986
383.91	20.737
387.952	35.02
391.992	63.314
396.031	59.601
400.067	82.826
404.101	69.165
408.134	28.359
412.165	22.404
416.193	8.641
420.22	22.113
424.245	102.198
428.268	33.498
432.289	133.616
436.309	77.734
440.326	85.157
444.342	112.82
448.355	51.433
452.367	204.986
456.377	34.145
460.385	160.631
464.391	104.036
468.395	24.513
472.398	136.323
476.398	43.686
480.397	41.088
484.394	118.41
488.389	105.819
492.382	84.354
496.373	7.646
500.362	53.302
504.349	179.413
508.335	69.764
512.319	103.851
516.3	133.938
520.28	132.324
524.259	115.083
528.235	155.998
532.209	112.118
536.182	106.771
540.152	30.632
544.121	62.525
548.088	77.459
552.053	80.771
556.017	126.201
559.978	47.36
563.938	76.894
567.895	53.499
571.851	102.189
575.805	69.784
579.758	104.964
583.708	32.178
587.657	125.422
591.603	158.935
595.548	118.551
599.491	121.345
603.432	15.721
607.372	18.625
611.309	109.691
615.245	137.337
619.179	125.958
623.111	76.495
627.041	183.278
630.97	94.739
634.896	101.22
638.821	11.828
642.744	53.741
646.665	133.097
650.584	20.065
654.502	61.792
658.418	136.653
662.331	73.453
666.244	137.623
670.154	59.161
674.062	132.369
677.969	100.386
681.874	144.515
685.777	150.792
689.678	194.83
693.577	947.785
697.475	2092.62
701.371	1845.01
705.265	609.41
709.157	524.972
713.047	287.363
716.936	137.769
720.823	114.045
724.708	136.983
728.591	76.072
732.472	107.185
736.352	99.399
740.23	122.667
744.106	59.704
747.98	134.329
751.853	17.875
755.723	28.016
759.592	166.972
763.459	76.424
767.325	46.169
771.188	75.948
775.05	131.86
778.91	31.541
782.768	9.976
786.625	25.975
790.479	4.135
794.332	45.347
798.183	12.29
802.033	18.632
805.88	118.184
809.726	129.365
813.57	103.102
817.413	35.342
821.253	11.158
825.092	35.143
828.929	142.123
832.764	31.39
836.598	34.748
840.429	224.011
844.259	112.179
848.088	35.601
851.914	75.55
855.739	323.71
859.562	107.891
863.383	178.068
867.203	39.216
871.02	113.329
874.836	55.435
878.65	142.545
882.463	179.37
886.274	81.053
890.083	102.172
893.89	51.222
897.695	140.166
901.499	154.675
905.301	143.304
909.102	124.816
912.9	138.739
916.697	3.607
920.492	182.813
924.285	175.741
928.077	104.676
931.867	65.387
935.655	9.14
939.442	10.96
943.226	148.387
947.009	91.177
950.791	223.129
954.57	10.313
958.348	106.808
962.124	108.124
965.899	132.139
969.671	162.384
973.442	69.691
977.211	50.093
980.979	68.623
984.745	29.178
988.509	158.249
992.271	90.937
996.032	196.217
999.791	116.527
1003.55	188.381
1007.3	134.376
1011.06	170.83
1014.81	96.739
1018.56	138.874
1022.31	203.847
1026.06	188.453
1029.8	257.51
1033.55	275.899
1037.29	243.271
1041.03	134.329
1044.77	255.359
1048.5	491.568
1052.24	450.058
1055.97	484.553
1059.7	401.207
1063.43	703.374
1067.16	2739.6
1070.89	20537.2
1074.61	43611.1
1078.34	2904.41
1082.06	592.649
1085.78	338.856
1089.5	299.827
1093.21	196.965
1096.93	223.935
1100.64	197.968
1104.35	204.838
1108.06	0.057
1111.77	88.106
1115.48	71.913
1119.18	19.43
1122.89	160.623
1126.59	79.648
1130.29	53.552
1133.99	49.703
1137.68	232.101
1141.38	50.231
1145.07	132.139
1148.76	12.013
1152.45	178.505
1156.14	13.579
1159.83	196.791
1163.51	115.517
1167.19	195.482
1170.88	55.794
1174.56	169.004
1178.23	130.201
1181.91	132.761
1185.59	130.705
1189.26	120.575
1192.93	123.52
1196.6	132.683
1200.27	212.965
1203.94	171.251
1207.6	103.46
1211.27	217.114
1214.93	212.939
1218.59	211.006
1222.25	128.868
1225.9	101.852
1229.56	236.564
1233.21	153.258
1236.86	315.682
1240.51	249.604
1244.16	217.777
1247.81	85.348
1251.45	140.531
1255.1	113.581
1258.74	79.42
1262.38	184.645
1266.02	87.732
1269.66	30.912
1273.29	144.296
1276.93	41.863
1280.56	31.117
1284.19	105.867
1287.82	114.25
1291.45	20.174
1295.07	65.942
1298.7	161.389
1302.32	100.29
1305.94	32.874
1309.56	58.66
1313.18	88.688
1316.8	70.879
1320.41	43.627
1324.02	60.005
1327.63	9.846
1331.24	120.235
1334.85	24.662
1338.46	56.921
1342.06	42.74
1345.67	60.257
1349.27	53
1352.87	103.173
1356.47	161.143
1360.07	218.301
1363.66	130.912
1367.25	176.354
1370.85	212.001
1374.44	213.29
1378.03	131.732
1381.61	199.947
1385.2	153.454
1388.78	121.756
1392.37	243.187
1395.95	332.379
1399.53	143.52
1403.1	294.995
1406.68	154.867
1410.26	247.985
1413.83	214.426
1417.4	196.937
1420.97	318.447
1424.54	199.086
1428.1	209.661
1431.67	222.68
1435.23	364.979
1438.8	424.478
1442.36	415.351
1445.91	539.237
1449.47	561.75
1453.03	387.908
1456.58	232.43
1460.13	370.885
1463.68	482.504
1467.23	313.354
1470.78	334.318
1474.33	311.521
1477.87	312.068
1481.42	260.377
1484.96	300.01
1488.5	240.984
1492.04	201.029
1495.57	176.152
1499.11	109.281
1502.64	33.061
1506.17	253.734
1509.71	138.166
1513.23	322.551
1516.76	79.271
1520.29	160.119
1523.81	0
