Measurement: Raman, 514 nm, depolarized, Raman Data Processed
Mineral: Strontianite
Rruff sample: R040037
Ideal chemistry: SrCO_3_
Locality: Alston Moor, Cumbria, England
Source: University of Arizona Mineral Museum
Description: Group of tan colored crystals
Measured chemistry: (Sr_0.91_Ca_0.09_)_Î£=1_CO_3_; CO_2_ estimated by difference
Pin_id: L00119
Orientation: Laser parallel to -c* (0 0 -1). Fiducial mark perpendicular to laser is parallel to a [1 0 0]
Raman shift (cm-1)	intensity
86.404	0
90.587	51.772
94.768	204.749
98.947	596.677
103.124	762.237
107.3	591.902
111.473	878.694
115.644	794.963
119.813	472.392
123.981	401.509
128.146	371.308
132.309	354.856
136.47	367.34
140.63	506.287
144.787	737.34
148.942	894.331
153.096	694.107
157.247	728.539
161.396	682.666
165.544	749.161
169.689	1035.75
173.833	1251.43
177.974	1636.39
182.114	2125.73
186.251	1869.96
190.387	921.358
194.52	417.444
198.652	220.829
202.782	201.413
206.909	227.88
211.035	127.788
215.159	115.497
219.281	136.185
223.4	140.668
227.518	57.331
231.634	180.665
235.748	220.87
239.86	421.263
243.97	629.047
248.079	819.437
252.185	718.026
256.289	722.458
260.391	790.771
264.492	552.051
268.59	292.458
272.687	184.779
276.781	64.487
280.874	92
284.964	50.923
289.053	44.575
293.14	62.68
297.225	41.811
301.308	17.102
305.389	50.656
309.468	72.873
313.545	63.942
317.62	43.561
321.693	2.365
325.765	4.711
329.834	11.218
333.902	44.404
337.967	1.831
342.031	19.966
346.093	6.472
350.153	27.072
354.21	27.728
358.267	21.149
362.321	30.631
366.373	80.74
370.423	37.113
374.471	101.995
378.518	21.597
382.563	23.104
386.605	0.074
390.646	64.328
394.685	14.521
398.722	53.604
402.757	81.338
406.79	16.206
410.821	63.043
414.851	13.81
418.878	65.208
422.904	34.481
426.927	102.448
430.949	0.955
434.969	134.692
438.987	40.449
443.003	29.07
447.018	55.244
451.03	3.241
455.041	1.751
459.049	14.796
463.056	4.63
467.061	1.966
471.064	30.31
475.065	82.537
479.064	16.266
483.062	98.549
487.057	61.259
491.051	71.272
495.043	24.479
499.032	93.613
503.02	48.947
507.007	80.822
510.991	115.628
514.973	81.084
518.954	25.869
522.933	72.256
526.91	69.588
530.885	65.343
534.858	37.792
538.829	123.526
542.799	15.362
546.766	29.531
550.732	98.092
554.696	68.917
558.658	86.936
562.618	28.475
566.576	33.046
570.533	77.157
574.488	2.631
578.44	25.526
582.391	139.313
586.341	126.316
590.288	88.634
594.233	96.383
598.177	164.851
602.119	43.855
606.059	61.824
609.997	92.375
613.933	105.349
617.868	84.28
621.801	170.139
625.731	9.323
629.66	34.774
633.588	141.894
637.513	15.814
641.437	109.848
645.358	150.05
649.278	75.067
653.196	88.606
657.113	145.798
661.027	142.134
664.94	37.005
668.851	173.27
672.76	85.697
676.667	96.699
680.572	31.116
684.476	140.793
688.378	242.811
692.278	629.302
696.176	2973.54
700.072	3344.91
703.967	775.12
707.86	163.501
711.751	136.291
715.64	78.074
719.527	81.301
723.413	54.006
727.297	118.966
731.179	38.04
735.059	155.436
738.937	189.24
742.814	113.417
746.689	56.121
750.562	118.485
754.433	90.846
758.303	7.266
762.17	80.375
766.036	147.704
769.901	166.241
773.763	11.084
777.624	128.77
781.482	22.188
785.339	86.75
789.195	30.836
793.048	5.009
796.9	123.867
800.75	63.376
804.598	50.711
808.445	55.107
812.289	37.172
816.132	86.956
819.973	5.656
823.813	4.257
827.65	28.091
831.486	82.623
835.32	101.623
839.152	93.015
842.983	53.188
846.812	54.367
850.639	152.731
854.464	55.808
858.288	95.849
862.11	28.781
865.93	58.783
869.748	52.804
873.564	96.609
877.379	113.342
881.192	72.366
885.004	106.71
888.813	80.064
892.621	117.664
896.427	0.136
900.232	70.207
904.034	81.411
907.835	154.568
911.634	94.608
915.432	41.326
919.227	160.151
923.021	91.714
926.813	115.907
930.604	164.753
934.393	191.259
938.18	165.625
941.965	100.019
945.749	206.771
949.53	62.629
953.311	119.858
957.089	71.102
960.866	85.764
964.641	82.442
968.414	4.32
972.185	99.238
975.955	135.692
979.723	101.264
983.49	28.078
987.254	78.4
991.017	107.303
994.779	86.36
998.538	21.891
1002.3	175.633
1006.05	175.936
1009.81	283.084
1013.56	130.785
1017.31	115.104
1021.06	196.565
1024.81	91.171
1028.55	364.961
1032.3	183.697
1036.04	252.263
1039.78	336.665
1043.52	330.212
1047.26	323.228
1050.99	433.101
1054.73	268.635
1058.46	384.211
1062.19	512.504
1065.92	1345.42
1069.65	7303.1
1073.37	49364
1077.1	3864.12
1080.82	715.166
1084.54	336.955
1088.26	359.16
1091.97	158.981
1095.69	127.499
1099.4	214.493
1103.12	85.727
1106.83	179.581
1110.54	68.688
1114.24	108.789
1117.95	157.5
1121.65	91.945
1125.35	15.168
1129.06	134.387
1132.75	68.558
1136.45	13.082
1140.15	25.252
1143.84	23.021
1147.53	61.616
1151.22	23.961
1154.91	52.396
1158.6	79.868
1162.28	104.6
1165.97	93.633
1169.65	83.686
1173.33	57.57
1177.01	35.771
1180.69	150.076
1184.36	38.323
1188.04	210.415
1191.71	149.161
1195.38	117.713
1199.05	203.562
1202.71	136.019
1206.38	216.757
1210.04	193.811
1213.71	170.892
1217.37	278.476
1221.03	70.25
1224.68	40.424
1228.34	95.226
1231.99	9.3
1235.65	92.62
1239.3	211.241
1242.95	243.979
1246.59	217.172
1250.24	163.001
1253.88	213.882
1257.53	56.97
1261.17	58.609
1264.81	170.353
1268.45	179.524
1272.08	185.662
1275.72	73.701
1279.35	90.753
1282.98	169.025
1286.61	105.464
1290.24	165.029
1293.87	65.377
1297.49	93.048
1301.11	32.488
1304.73	70.612
1308.36	14.878
1311.97	50.941
1315.59	110.249
1319.2	122.681
1322.82	54.356
1326.43	3.627
1330.04	150.944
1333.65	149.752
1337.26	84.013
1340.86	129.049
1344.47	185.91
1348.07	208.853
1351.67	68.871
1355.27	27.474
1358.87	45.121
1362.46	206.161
1366.06	183.757
1369.65	128.06
1373.24	84.235
1376.83	211.531
1380.42	146.797
1384	209.138
1387.59	224.554
1391.17	126.432
1394.75	125.028
1398.33	170.564
1401.91	182.651
1405.49	252.35
1409.06	383.519
1412.64	189.688
1416.21	344.763
1419.78	115.222
1423.35	371.856
1426.91	298.817
1430.48	76.747
1434.05	177.944
1437.61	223.455
1441.17	228.938
1444.73	258.635
1448.29	433.131
1451.84	310.35
1455.4	231.505
1458.95	192.778
1462.5	206.427
1466.05	338.29
1469.6	225.201
1473.15	291.071
1476.69	53.945
1480.24	413.264
1483.78	101.354
1487.32	434.628
1490.86	162.005
1494.39	132.795
1497.93	334.438
1501.46	41.663
1505	121.285
1508.53	183.174
1512.06	239.635
1515.59	221.397
1519.11	186.658
1522.64	5.731
