Measurement: Raman, 514 nm, depolarized, Raman Data Processed
Mineral: Sulphur
Rruff sample: R040135
Ideal chemistry: S
Locality: Sicily, Italy
Source: University of Arizona Mineral Museum
Description: Yellow fragments
Measured chemistry: S_1.00_
Pin_id: L00272
Orientation: Laser parallel to -c* (0 0 -1). Fiducial mark perpendicular to laser is parallel to a [1 0 0]
Raman shift (cm-1)	intensity
64.758	0
68.952	63.875
73.144	795.368
77.333	2655.22
81.521	4716.33
85.706	6269.49
89.89	5829.8
94.071	1594.54
98.251	458.159
102.428	170.21
106.604	123.252
110.777	64.573
114.949	46.119
119.119	2.273
123.286	5.066
127.452	12.718
131.615	28.079
135.777	173.303
139.937	636.783
144.094	4417.5
148.25	15020.3
152.403	18708.3
156.555	12275.8
160.705	2705.1
164.853	675.997
168.998	187.918
173.142	20.925
177.284	7.578
181.424	263.848
185.562	807.074
189.698	616.204
193.831	994.017
197.963	693.558
202.093	399.736
206.221	737.98
210.347	4771.66
214.472	25531.8
218.594	49182.8
222.714	10842.7
226.832	1483.33
230.948	868.893
235.063	976.887
239.175	1271.47
243.286	4545.73
247.394	4540.34
251.501	897.091
255.605	113.905
259.708	11.306
263.808	39.768
267.907	15.447
272.004	2.667
276.099	10.407
280.192	0.308
284.283	20.252
288.372	19.498
292.459	18.913
296.544	29.018
300.627	57.302
304.709	42.342
308.788	34.139
312.865	40.7
316.941	60.033
321.015	39.149
325.086	32.046
329.156	15.604
333.224	6.601
337.29	8.84
341.354	14.137
345.416	3.547
349.476	15.785
353.534	23.874
357.591	32.728
361.645	50.34
365.698	116.651
369.748	136.593
373.797	150.265
377.844	183.73
381.889	240.047
385.932	294.24
389.973	310.312
394.012	319.544
398.049	357.093
402.084	434.767
406.118	693.275
410.15	1017.62
414.179	1094.89
418.207	1261.06
422.233	1900.84
426.257	2898.6
430.279	4305.36
434.299	5471.69
438.318	5775.06
442.334	2824.5
446.349	1000.24
450.361	790.398
454.372	1159.22
458.381	2723.17
462.388	7436.84
466.394	20563.2
470.397	45224.1
474.398	49764.8
478.398	12505.6
482.396	4363.14
486.391	2156.19
490.385	1334.38
494.377	949.967
498.368	776.947
502.356	559.14
506.342	436.494
510.327	399.693
514.31	375.262
518.291	337.455
522.27	319.391
526.247	285.296
530.222	242.513
534.196	194.84
538.167	190.307
542.137	161.082
546.105	198.409
550.071	202.618
554.035	179.744
557.998	107.858
561.958	84.905
565.917	53.374
569.874	29.035
573.829	33.244
577.782	29.154
581.733	21.183
585.683	13.172
589.63	14.155
593.576	14.581
597.52	6.387
601.462	2.122
605.402	22.941
609.341	26.129
613.277	44.739
617.212	59.046
621.145	48.851
625.076	43.509
629.006	38.704
632.933	15.811
636.859	20.087
640.783	13.055
644.705	18.017
648.625	38.994
652.543	70.999
656.46	67.067
660.375	60.22
664.288	43.445
668.199	33.712
672.108	21.015
676.016	23.344
679.921	30.688
683.825	34.04
687.727	42.389
691.628	14.732
695.526	1.066
699.423	8.389
703.318	13.7
707.211	23.005
711.102	23.305
714.992	32.6
718.879	13.891
722.765	3.177
726.649	11.376
730.532	10.446
734.412	0.409
738.291	5.668
742.168	10.354
746.043	16.373
749.916	0.528
753.788	4.733
757.658	19.079
761.526	11.579
765.392	6.302
769.257	0.141
773.119	2.903
776.98	0.962
780.839	6.968
784.697	1.889
788.552	15.687
792.406	25.43
796.258	14.116
800.108	27.858
803.957	48.744
807.804	85.625
811.649	136.5
815.492	175.369
819.333	239.229
823.173	228.079
827.011	193.048
830.847	160.874
834.681	158.066
838.514	164.89
842.345	196.731
846.174	200.511
850.001	209.497
853.827	220.831
857.651	283.53
861.473	336.276
865.293	358.011
869.112	337.696
872.928	329.675
876.744	305.824
880.557	291.794
884.369	178.621
888.178	128.664
891.987	97.114
895.793	105.074
899.598	82.26
903.401	106.044
907.202	86.719
911.001	69.71
914.799	53.617
918.595	50.138
922.389	82.178
926.182	121.407
929.972	156.176
933.761	166.425
937.549	144.026
941.334	124.681
945.118	104.229
948.9	48.828
952.681	37.423
956.459	16.013
960.236	16.751
964.012	16.944
967.785	8.034
971.557	22.601
975.327	0.836
979.095	1.722
982.862	18.276
986.627	0.883
990.39	0.44
994.152	16.629
997.912	14.177
1001.67	7.729
1005.43	27.109
1009.18	17.802
1012.93	12.365
1016.68	2.897
1020.43	0.412
1024.18	3.915
1027.93	12.966
1031.67	15.348
1035.42	15.129
1039.16	4.647
1042.9	20.165
1046.63	10.684
1050.37	11.786
1054.11	5.747
1057.84	13.304
1061.57	9.867
1065.3	0.429
1069.03	5.989
1072.75	9.595
1076.47	18.157
1080.2	12.717
1083.92	5.281
1087.64	28.881
1091.36	13.452
1095.07	16.998
1098.79	18.55
1102.5	12.083
1106.21	2.61
1109.92	18.148
1113.62	10.685
1117.33	12.2
1121.04	16.698
1124.74	32.538
1128.44	16.044
1132.14	1.884
1135.83	25.966
1139.53	11.402
1143.22	4.954
1146.92	5.158
1150.61	11.256
1154.3	14.696
1157.98	6.119
1161.67	26.545
1165.35	6.946
1169.04	19.668
1172.72	15.407
1176.4	0.33
1180.07	1.937
1183.75	10.42
1187.42	14.812
1191.1	22.156
1194.77	16.493
1198.44	15.047
1202.1	10.359
1205.77	6.541
1209.43	16.954
1213.1	10.15
1216.76	3.419
1220.42	11.693
1224.07	20.01
1227.73	9.621
1231.38	3.032
1235.04	21.221
1238.69	24.368
1242.34	16.359
1245.99	32.586
1249.63	27.819
1253.28	7.012
1256.92	4.085
1260.56	26.167
1264.2	33.342
1267.84	14.517
1271.48	25.684
1275.11	29.829
1278.74	18.922
1282.38	20.037
1286.01	24.132
1289.63	15.569
1293.26	7.638
1296.89	6.935
1300.51	13.014
1304.13	7.042
1307.75	21.07
1311.37	8.097
1314.99	5.138
1318.6	32.163
1322.22	18.015
1325.83	26.5
1329.44	25.501
1333.05	8.496
1336.66	13.485
1340.26	2.468
1343.87	14.45
1347.47	12.47
1351.07	7.103
1354.67	12.377
1358.27	10.338
1361.86	16.267
1365.46	12.224
1369.05	7.163
1372.64	11.109
1376.23	23.013
1379.82	0.04
1383.41	10.899
1386.99	28.865
1390.57	15.937
1394.16	19.884
1397.74	14.871
1401.32	25.896
1404.89	19.477
1408.47	25.026
1412.04	32.044
1415.61	21.035
1419.18	7.01
1422.75	5.96
1426.32	27.48
1429.89	2.781
1433.45	20.709
1437.01	21.563
1440.58	12.473
1444.13	19.392
1447.69	5.248
1451.25	3.177
1454.81	19.44
1458.36	17.135
1461.91	12.63
1465.46	18.451
1469.01	17.279
1472.56	17.095
1476.1	15.928
1479.64	13.802
1483.19	16.69
1486.73	1.397
1490.27	18.866
1493.81	14.743
1497.34	5.638
1500.88	6.622
1504.41	36.636
1507.94	11.69
1511.47	30.785
1515	16.742
1518.53	24.061
1522.05	18.513
1525.57	23.17
1529.1	0.766
1532.62	9.76
1536.14	0
