Measurement: Raman, 514 nm, depolarized, Raman Data Processed
Mineral: Sulphur
Rruff sample: R050006
Ideal chemistry: S
Locality: San Felipe, Mexicali, Baja California Norte, Mexico
Source: Eugene Schlepp
Description: Yellow single crystal
Measured chemistry: S_1.00_
Pin_id: L00280
Orientation: Laser parallel to -a* (-1 0 0). Fiducial mark perpendicular to laser is parallel to -b [0 -1 0]
Raman shift (cm-1)	intensity
52.261	0
56.477	16.096
60.691	31.905
64.903	30.679
69.112	24.431
73.319	0.732
77.525	8.857
81.728	18.181
85.929	177.478
90.128	461.795
94.324	470.119
98.519	304.476
102.712	234.017
106.902	281.237
111.09	346.846
115.277	395.792
119.461	404.036
123.643	423.548
127.823	425.872
132.001	484.006
136.176	583.225
140.35	766.374
144.521	1461.47
148.691	5256.53
152.858	17148.6
157.024	23458.6
161.187	8569.78
165.348	2322.99
169.507	949.259
173.664	583.607
177.819	453.031
181.971	425.528
186.122	521.095
190.271	512.731
194.417	613.658
198.562	770.185
202.704	622.183
206.844	712.229
210.983	1449.35
215.119	6201.74
219.253	30897.7
223.385	44157.2
227.515	9666.88
231.643	2012.68
235.769	1126.59
239.893	998.68
244.014	1385.15
248.134	2335.34
252.252	1859.9
256.367	710.582
260.481	255.367
264.592	155.238
268.702	128.188
272.809	125.221
276.915	137.324
281.018	132.496
285.119	105.732
289.218	87.026
293.316	94.387
297.411	129.785
301.504	145.209
305.595	121.661
309.684	101.137
313.771	79.639
317.856	78.167
321.939	70.721
326.02	39.303
330.099	27.911
334.176	2.457
338.251	12.819
342.323	26.202
346.394	23.63
350.463	18.1
354.53	3.6
358.594	6.119
362.657	0.285
366.718	39.563
370.777	59.773
374.833	70.967
378.888	78.177
382.941	91.408
386.992	109.677
391.04	118.98
395.087	120.658
399.132	115.665
403.174	114.044
407.215	132.449
411.254	159.88
415.29	194.326
419.325	287.103
423.358	431.631
427.389	620.128
431.417	930.363
435.444	1254.87
439.469	1513.74
443.492	1466.35
447.512	700.084
451.531	388.596
455.548	441.299
459.563	814.982
463.576	1933.86
467.587	4802.43
471.596	14429
475.603	31580.6
479.608	19112.1
483.611	6091.91
487.612	2385.62
491.611	1292.48
495.608	804.851
499.603	594.113
503.596	454.1
507.587	346.994
511.577	308.541
515.564	255.192
519.549	242.141
523.533	225.85
527.514	191.296
531.493	173.738
535.471	149.177
539.447	126.699
543.42	144.354
547.392	164.477
551.362	146.914
555.329	120.327
559.295	127.748
563.259	80.166
567.221	25.595
571.181	19.012
575.139	12.539
579.095	2.461
583.049	9.299
587.002	2.262
590.952	9.421
594.9	6.033
598.847	5.241
602.792	2.554
606.734	4.069
610.675	0.486
614.614	3.91
618.55	4.205
622.485	19.237
626.418	16.238
630.349	11.336
634.279	11.29
638.206	0.798
642.131	0.089
646.055	2.048
649.976	2.786
653.896	4.601
657.814	11.421
661.729	15.271
665.643	17.164
669.555	20.094
673.465	9.041
677.373	25.003
681.28	16.963
685.184	16.909
689.087	23.837
692.987	10.744
696.886	3.631
700.783	7.5
704.677	12.332
708.57	18.146
712.462	22.94
716.351	22.713
720.238	16.466
724.124	13.198
728.007	9.909
731.889	2.597
735.769	2.06
739.647	6.715
743.523	3.901
747.397	4.723
751.269	9.653
755.139	0.198
759.008	0.007
762.875	5.1
766.739	5.563
770.602	6.947
774.463	2.184
778.323	9.228
782.18	1.455
786.035	15.843
789.889	16.075
793.741	19.144
797.591	34.219
801.439	42.149
805.285	54.253
809.129	87.439
812.971	150.645
816.812	207.745
820.651	264.91
824.488	287.29
828.323	256.217
832.156	204.35
835.987	177.502
839.817	182.693
843.644	206.799
847.47	238.871
851.294	258.281
855.116	251.774
858.936	284.001
862.755	349.061
866.571	394.075
870.386	400.082
874.199	399.083
878.01	375.03
881.82	342.961
885.627	262.692
889.433	152.855
893.236	107.57
897.038	81.374
900.838	89.703
904.637	89.527
908.433	79.359
912.228	64.699
916.021	55.121
919.812	53.013
923.601	57.672
927.388	72.346
931.174	107.314
934.958	119.134
938.739	125.07
942.52	108.009
946.298	71.961
950.074	44.911
953.849	36.875
957.622	24.823
961.393	24.135
965.162	17.823
968.93	1.76
972.696	13.71
976.459	11.641
980.222	7.575
983.982	0.501
987.74	0.476
991.497	0.453
995.252	4.487
999.005	8.392
1002.76	1.323
1006.51	0.327
1010.25	9.22
1014	13.111
1017.74	2.475
1021.49	0.516
1025.23	1.345
1028.96	2.221
1032.7	4.106
1036.44	7.978
1040.17	4.855
1043.9	9.196
1047.63	3.077
1051.36	2.037
1055.09	9.104
1058.81	13.998
1062.54	7.905
1066.26	3.083
1069.97	1.044
1073.69	2.948
1077.41	9.863
1081.12	4.764
1084.84	6.69
1088.55	5.586
1092.25	7.48
1095.96	12.371
1099.67	11.258
1103.37	7.179
1107.07	2.06
1110.77	6.013
1114.47	5.889
1118.16	10.987
1121.86	8.853
1125.55	8.719
1129.24	11.581
1132.93	11.416
1136.62	7.235
1140.31	0.987
1143.99	10.855
1147.67	2.79
1151.35	0.86
1155.03	6.724
1158.71	3.312
1162.39	16.088
1166.06	4.894
1169.73	6.685
1173.4	13.458
1177.07	10.476
1180.74	5.381
1184.4	5.162
1188.07	6.054
1191.73	13.716
1195.39	9.469
1199.05	3.175
1202.7	7.826
1206.36	13.578
1210.01	4.327
1213.66	19.062
1217.31	11.783
1220.96	10.505
1224.6	11.231
1228.25	9.954
1231.89	5.673
1235.53	8.943
1239.17	11.098
1242.81	12.809
1246.44	0.516
1250.08	11.202
1253.71	9.993
1257.34	17.902
1260.97	6.598
1264.6	17.282
1268.22	11.946
1271.85	9.625
1275.47	12.295
1279.09	13.965
1282.71	7.521
1286.33	5.04
1289.94	13.698
1293.56	14.338
1297.17	12.859
1300.78	15.512
1304.39	22.155
1307.99	14.806
1311.6	0.973
1315.2	6.502
1318.8	14.151
1322.4	10.78
1326	10.396
1329.6	8.024
1333.19	11.206
1336.79	3.818
1340.38	2.445
1343.97	3.956
1347.56	8.673
1351.14	13.304
1354.73	15.926
1358.31	20.554
1361.89	6.866
1365.47	10.491
1369.05	18.108
1372.63	9.741
1376.2	14.357
1379.78	19.07
1383.35	17.704
1386.92	14.334
1390.49	22.916
1394.05	1.686
1397.62	11.958
1401.18	0.599
1404.74	10.241
1408.3	11.074
1411.86	8.399
1415.42	1.392
1418.97	2.687
1422.53	18.024
1426.08	17.502
1429.63	14.161
1433.18	10.802
1436.72	9.035
1440.27	15.693
1443.81	21.348
1447.36	16.025
1450.89	9.692
1454.43	8.371
1457.97	15.054
1461.51	11.94
1465.04	11.399
1468.57	16.046
1472.1	10.689
1475.63	10.955
1479.16	14.084
1482.68	4.178
1486.21	6.571
1489.73	17.332
1493.25	16.18
1496.77	7.135
1500.29	6.176
1503.8	14.576
1507.32	19.527
1510.83	23.337
1514.34	14.49
1517.85	10.341
1521.36	0
