Measurement: Raman, 514 nm, depolarized, Raman Data RAW
Mineral: Sulphur
Rruff sample: R040135
Ideal chemistry: S
Locality: Sicily, Italy
Source: University of Arizona Mineral Museum
Description: Yellow fragments
Measured chemistry: S_1.00_
Pin_id: L00267
Orientation: Laser parallel to -a* (-1 0 0). Fiducial mark perpendicular to laser is parallel to b [0 1 0]
Raman shift (cm-1)	intensity
50.765	384
54.966	433
59.164	436
63.36	463
67.554	505
71.747	591
75.937	811
80.125	1802
84.311	5038
88.496	6240
92.678	3790
96.858	1809
101.036	1311
105.212	1195
109.387	1153
113.559	1154
117.729	1130
121.897	1058
126.063	1067
130.228	1072
134.39	1121
138.55	1304
142.709	2072
146.865	5604
151.019	18940
155.171	26690
159.322	7289
163.47	2368
167.617	1362
171.761	1070
175.904	925
180.044	955
184.183	1079
188.319	1084
192.454	1266
196.586	1623
200.717	1278
204.846	1288
208.972	1894
213.097	6377
217.22	30510
221.341	46640
225.46	6500
229.577	2113
233.692	1658
237.805	1624
241.916	2266
246.025	5541
250.132	3059
254.237	1169
258.34	738
262.442	643
266.541	612
270.639	604
274.734	590
278.828	588
282.919	590
287.009	574
291.097	597
295.183	582
299.266	602
303.348	588
307.428	555
311.507	533
315.583	518
319.657	521
323.729	494.796
327.8	466
331.868	434
335.935	432
339.999	425
344.062	416
348.123	426
352.182	430
356.239	448
360.294	433
364.347	467
368.398	499
372.448	501
376.495	515
380.54	519
384.584	560
388.626	554
392.666	573
396.704	557
400.74	554
404.774	576
408.806	613
412.836	650
416.865	742
420.891	942
424.916	1250
428.939	1642
432.959	2008
436.978	2411
440.996	2275
445.011	1130
449.024	843
453.036	913
457.045	1387
461.053	2860
465.059	6074
469.063	17630
473.065	45410
477.065	22190
481.063	6442
485.06	2920
489.054	1840
493.047	1288
497.038	1039
501.027	855
505.014	745
508.999	710
512.982	649
516.964	641
520.944	631
524.921	601
528.897	566
532.871	539
536.844	507
540.814	518
544.783	522
548.749	522
552.714	516
556.677	492
560.638	442.842
564.597	406
568.555	394
572.511	382
576.464	377
580.416	383
584.366	379
588.315	365
592.261	361
596.206	352
600.148	370
604.089	365
608.028	356
611.965	345
615.901	371
619.834	385
623.766	382
627.696	370
631.624	370
635.551	352
639.475	355
643.398	353
647.318	358
651.237	372
655.155	375
659.07	368
662.984	367
666.895	356.611
670.805	357
674.713	367
678.62	371
682.524	366
686.427	370
690.328	367
694.227	350
698.124	342
702.02	343
705.913	355
709.805	366
713.695	363
717.584	361.056
721.47	342
725.355	332
729.238	332
733.119	332
736.998	330
740.876	331
744.752	341
748.626	333
752.498	330
756.368	338
760.237	343
764.104	338
767.969	330
771.832	345
775.693	347
779.553	353
783.411	345
787.267	351
791.122	359
794.974	369
798.825	388
802.674	399
806.522	431
810.367	487
814.211	537
818.053	595
821.893	602
825.732	558
829.568	515
833.403	495
837.236	521
841.068	559
844.898	551
848.726	567
852.552	579
856.376	615
860.199	683
864.02	711
867.839	726
871.656	707
875.472	703
879.286	674
883.098	593
886.909	482
890.717	448
894.524	413
898.33	425
902.133	431
905.935	423
909.735	399
913.533	384
917.33	383
921.124	396
924.918	422
928.709	459
932.499	470
936.286	462
940.073	462
943.857	430
947.64	388
951.421	370
955.2	368
958.978	354
962.753	354
966.527	347
970.3	355
974.071	342
977.84	340
981.607	352
985.372	350
989.136	349
992.898	348
996.659	340
1000.42	354
1004.17	350
1007.93	341
1011.68	347
1015.43	341
1019.18	345
1022.93	355
1026.68	356
1030.42	350
1034.17	355.229
1037.91	354
1041.65	357
1045.39	359
1049.12	356
1052.86	356
1056.59	351
1060.33	354
1064.06	353.237
1067.78	353
1071.51	352
1075.23	342
1078.96	346
1082.68	359
1086.4	347
1090.12	361
1093.83	361
1097.55	355
1101.26	361
1104.97	363
1108.68	358
1112.39	340
1116.1	354
1119.8	356
1123.5	351
1127.2	340
1130.9	362
1134.6	350
1138.3	364.104
1141.99	366
1145.69	360
1149.38	349
1153.07	353
1156.76	354
1160.44	355
1164.13	358
1167.81	350
1171.49	358
1175.17	353
1178.85	347
1182.52	352
1186.2	356
1189.87	360
1193.54	362
1197.21	354
1200.88	358
1204.55	365
1208.21	358
1211.88	353
1215.54	362
1219.2	358
1222.86	362
1226.51	362
1230.17	360
1233.82	366
1237.47	352
1241.12	361
1244.77	366
1248.42	358
1252.06	372
1255.71	366
1259.35	369
1262.99	366
1266.63	359
1270.26	361
1273.9	373
1277.53	372
1281.16	362
1284.8	361.234
1288.42	366
1292.05	363
1295.68	374
1299.3	371
1302.92	378
1306.55	365
1310.16	364
1313.78	369
1317.4	377
1321.01	372.639
1324.62	362
1328.24	361
1331.85	370
1335.45	374
1339.06	370
1342.66	375
1346.27	374
1349.87	377
1353.47	377
1357.07	375
1360.66	381
1364.26	374
1367.85	380
1371.44	378
1375.04	378
1378.62	387
1382.21	368
1385.8	374
1389.38	390
1392.96	372
1396.54	376
1400.12	374
1403.7	380
1407.28	390
1410.85	385
1414.42	390
1417.99	388
1421.56	382
1425.13	395
1428.7	385
1432.26	383
1435.83	394
1439.39	382
1442.95	389
1446.51	385
1450.06	381
1453.62	402
1457.17	399
1460.73	399
1464.28	397
1467.83	384
1471.37	391
1474.92	390.448
1478.46	390
1482.01	392
1485.55	397
1489.09	404
1492.63	399
1496.16	397
1499.7	404
1503.23	393
1506.76	407
1510.29	390
1513.82	399
1517.35	387
1520.88	397
