Measurement: Raman, 514 nm, depolarized, Raman Data Processed
Mineral: Sulphur
Rruff sample: R050006
Ideal chemistry: S
Locality: San Felipe, Mexicali, Baja California Norte, Mexico
Source: Eugene Schlepp
Description: Yellow single crystal
Measured chemistry: S_1.00_
Pin_id: L00477
Orientation: Laser parallel to -b* (0 -1 0). Fiducial mark perpendicular to laser is parallel to -c [0 0 -1]
Raman shift (cm-1)	intensity
52.261	0
56.477	12.202
60.691	19.504
64.903	19.936
69.112	3.01
73.319	5.175
77.525	0.175
81.728	27.484
85.929	163.42
90.128	491.385
94.324	513.325
98.519	294.07
102.712	319.413
106.902	361.229
111.09	403.445
115.277	476.008
119.461	414.88
123.643	404.03
127.823	383.835
132.001	381.378
136.176	472.079
140.35	622.724
144.521	1481.33
148.691	5478.92
152.858	11059.5
157.024	15278.2
161.187	6124.99
165.348	1690.83
169.507	694.764
173.664	416.786
177.819	315.897
181.971	356.095
186.122	556.377
190.271	784.741
194.417	574.184
198.562	596.536
202.704	481.677
206.844	559.389
210.983	1438.11
215.119	8196.42
219.253	25524.2
223.385	27462.1
227.515	4380.38
231.643	1186.85
235.769	733.541
239.893	679.119
244.014	694.083
248.134	1142.23
252.252	767.603
256.367	298.101
260.481	121.707
264.592	103.413
268.702	99.213
272.809	85.097
276.915	93.07
281.018	68.123
285.119	67.247
289.218	74.447
293.316	78.701
297.411	83.996
301.504	114.324
305.595	75.685
309.684	55.081
313.771	54.512
317.856	48.977
321.939	41.487
326.02	23.038
330.099	19.621
334.176	8.235
338.251	9.134
342.323	9.506
346.394	15.887
350.463	10.291
354.53	12.71
358.594	11.136
362.657	8.615
366.718	33.823
370.777	43.208
374.833	39.577
378.888	58.965
382.941	80.38
386.992	108.841
391.04	109.345
395.087	105.886
399.132	106.462
403.174	119.845
407.215	182.717
411.254	292.39
415.29	346.609
419.325	377.33
423.358	544.559
427.389	793.858
431.417	1223.44
435.444	1564.87
439.469	1763.42
443.492	1466.18
447.512	633.465
451.531	363.634
455.548	402.761
459.563	847.629
463.576	2194.51
467.587	5701.39
471.596	14527.3
475.603	28008.2
479.608	13369.2
483.611	4035.34
487.612	1653.33
491.611	901.267
495.608	592.151
499.603	421.11
503.596	332.642
507.587	241.2
511.577	181.405
515.564	167.25
519.549	162.037
523.533	160.564
527.514	126.377
531.493	94.238
535.471	85.1
539.447	93.016
543.42	94.092
547.392	98.171
551.362	89.141
555.329	90.054
559.295	63.068
563.259	42.008
567.221	30.053
571.181	17.111
575.139	17.128
579.095	0.167
583.049	3.918
587.002	7.967
590.952	3.878
594.9	5.542
598.847	0.501
602.792	7.423
606.734	0.114
610.675	3.832
614.614	11.73
618.55	17.496
622.485	28.307
626.418	16.145
630.349	20.024
634.279	10.486
638.206	11.101
642.131	2.265
646.055	4.607
649.976	18.933
653.896	23.243
657.814	24.557
661.729	35.886
665.643	34.239
669.555	18.625
673.465	24.025
677.373	15.439
681.28	24.858
685.184	29.27
689.087	19.669
692.987	19.051
696.886	4.415
700.783	12.761
704.677	2.085
708.57	5.391
712.462	6.678
716.351	5.96
720.238	0.226
724.124	14.468
728.007	2.687
731.889	3.362
735.769	9.401
739.647	1.824
743.523	10.164
747.397	19.06
751.269	11.522
755.139	6.655
759.008	7.95
762.875	2.657
766.739	16.127
770.602	4.875
774.463	0.817
778.323	5.263
782.18	13.633
786.035	2.513
789.889	10.373
793.741	16.345
797.591	27.577
801.439	40.77
805.285	48.172
809.129	72.52
812.971	111.775
816.812	151.561
820.651	189.337
824.488	193.102
828.323	178.856
832.156	149.601
835.987	127.331
839.817	151.366
843.644	160.084
847.47	166.8
851.294	186.638
855.116	192.174
858.936	221.976
862.755	265.579
866.571	297.884
870.386	275.283
874.199	295.691
878.01	279.292
881.82	239.572
885.627	177.023
889.433	109.46
893.236	86.86
897.038	71.373
900.838	75.88
904.637	67.526
908.433	44.84
912.228	51.163
916.021	37.509
919.812	32.15
923.601	38.392
927.388	76.727
931.174	82.746
934.958	95.404
938.739	88.568
942.52	77.207
946.298	66.834
950.074	45.492
953.849	33.126
957.622	9.76
961.393	17.419
965.162	10.041
968.93	9.685
972.696	10.353
976.459	4.992
980.222	10.602
983.982	12.208
987.74	7.527
991.497	16.322
995.252	12.909
999.005	4.5
1002.76	12.079
1006.51	1.343
1010.25	14.229
1014	2.799
1017.74	11.658
1021.49	8.92
1025.23	5.652
1028.96	17.201
1032.7	12.015
1036.44	8.561
1040.17	21.327
1043.9	9.903
1047.63	4.43
1051.36	14.979
1055.09	3.521
1058.81	8.087
1062.54	14.642
1066.26	7.382
1069.97	12.922
1073.69	8.924
1077.41	9.478
1081.12	9.015
1084.84	19.551
1088.55	6.087
1092.25	9.654
1095.96	3.183
1099.67	25.706
1103.37	7.225
1107.07	14.737
1110.77	17.244
1114.47	24.759
1118.16	13.255
1121.86	19.998
1125.55	19.481
1129.24	19.958
1132.93	10.427
1136.62	13.886
1140.31	20.019
1143.99	11.45
1147.67	9.011
1151.35	14.184
1155.03	13.524
1158.71	13.287
1162.39	23.674
1166.06	2.683
1169.73	21.867
1173.4	14.425
1177.07	15.854
1180.74	31.24
1184.4	15.751
1188.07	6.312
1191.73	12.64
1195.39	7.095
1199.05	7.42
1202.7	12.978
1206.36	22.351
1210.01	12.655
1213.66	18.951
1217.31	5.761
1220.96	27.508
1224.6	23.771
1228.25	20.24
1231.89	20.421
1235.53	21.845
1239.17	20.085
1242.81	15.294
1246.44	11.518
1250.08	18.733
1253.71	16.946
1257.34	24.118
1260.97	21.333
1264.6	3.501
1268.22	9.633
1271.85	25.782
1275.47	11.943
1279.09	11.097
1282.71	16.526
1286.33	10.468
1289.94	10.598
1293.56	21.71
1297.17	17.822
1300.78	9.927
1304.39	19.028
1307.99	24.117
1311.6	17.184
1315.2	8.266
1318.8	21.304
1322.4	28.36
1326	16.146
1329.6	24.193
1333.19	14.006
1336.79	0.978
1340.38	5.067
1343.97	2.906
1347.56	0.135
1351.14	19.143
1354.73	14.466
1358.31	4.3
1361.89	20.86
1365.47	11.896
1369.05	5.901
1372.63	20.899
1376.2	2.108
1379.78	1.891
1383.35	13.927
1386.92	16.04
1390.49	19.145
1394.05	22.23
1397.62	20.042
1401.18	21.124
1404.74	5.213
1408.3	24.141
1411.86	9.207
1415.42	12.325
1418.97	22.383
1422.53	22.149
1426.08	5.087
1429.63	16.554
1433.18	22.374
1436.72	18.882
1440.27	12.881
1443.81	21.878
1447.36	6.497
1450.89	16.124
1454.43	22.077
1457.97	2.966
1461.51	12.981
1465.04	4.879
1468.57	20.802
1472.1	37.77
1475.63	17.754
1479.16	36.786
1482.68	32.87
1486.21	16.979
1489.73	23.173
1493.25	2.317
1496.77	0.079
1500.29	1.236
1503.8	17.643
1507.32	24.182
1510.83	24.48
1514.34	6.3
1517.85	7.324
1521.36	19.75
