Measurement: Raman, 514 nm, depolarized, Raman Data Processed
Mineral: Sulphur
Rruff sample: R040135
Ideal chemistry: S
Locality: Sicily, Italy
Source: University of Arizona Mineral Museum
Description: Yellow fragments
Measured chemistry: S_1.00_
Pin_id: L00492
Orientation: Laser parallel to b* (0 1 0). Fiducial mark perpendicular to laser is parallel to -c [0 0 -1]
Raman shift (cm-1)	intensity
50.765	0
54.966	34.26
59.164	7.163
63.36	19.588
67.554	51.346
71.747	181.801
75.937	643.129
80.125	936.08
84.311	1877.78
88.496	3754.65
92.678	2377.54
96.858	919.064
101.036	608.793
105.212	499.479
109.387	504.962
113.559	482.129
117.729	454.895
121.897	413.216
126.063	386.747
130.228	417.69
134.39	500.972
138.55	627.083
142.709	1281.05
146.865	3861.02
151.019	11189.1
155.171	22717.2
159.322	9795.49
163.47	2293.9
167.617	867.453
171.761	485.153
175.904	371.993
180.044	423.967
184.183	877.067
188.319	1229.29
192.454	654.216
196.586	552.364
200.717	475.53
204.846	619.918
208.972	1401.98
213.097	6080.82
217.22	27876.6
221.341	40062.5
225.46	5094.66
229.577	1261.77
233.692	861.563
237.805	756.782
241.916	871.347
246.025	1676.2
250.132	920.293
254.237	250.6
258.34	91.087
262.442	50.472
266.541	45.539
270.639	53.467
274.734	56.504
278.828	53.651
282.919	50.904
287.009	46.248
291.097	54.672
295.183	68.148
299.266	74.66
303.348	69.206
307.428	40.789
311.507	39.413
315.583	69.075
319.657	49.779
323.729	36.523
327.8	8.319
331.868	15.859
335.935	28.356
339.999	20.258
344.062	34.516
348.123	15.834
352.182	28.193
356.239	29.403
360.294	1.805
364.347	23.058
368.398	58.179
372.448	68.207
376.495	101.252
380.54	97.32
384.584	155.45
388.626	128.64
392.666	154.88
396.704	153.155
400.74	169.459
404.774	272.785
408.806	457.138
412.836	552.506
416.865	582.13
420.891	865.281
424.916	1343.18
428.939	2062.7
432.959	2678.23
436.978	3202.74
440.996	2609.62
445.011	992.111
449.024	472.181
453.036	542.276
457.045	1174.88
461.053	3086.26
465.059	7914.63
469.063	18565.1
473.065	34815.6
477.065	16146.7
481.063	4537.46
485.06	1897.89
489.054	1073.14
493.047	745.993
497.038	593.54
501.027	411.624
505.014	319.015
508.999	257.976
512.982	223.364
516.964	195.495
520.944	183.636
524.921	176.911
528.897	146.937
532.871	127.345
536.844	99.436
540.814	131.715
544.783	117.982
548.749	116.25
552.714	109.972
556.677	63.016
560.638	32.935
564.597	13.396
568.555	13.459
572.511	0.514
576.464	17.197
580.416	2.426
584.366	1.25
588.315	12.1
592.261	20.863
596.206	30.091
600.148	10.237
604.089	7.759
608.028	0.228
611.965	7.252
615.901	25.706
619.834	35.052
623.766	13.362
627.696	1.676
631.624	2.987
635.551	21.211
639.475	13.344
643.398	11.573
647.318	19.438
651.237	42.434
655.155	30.448
659.07	32.495
662.984	30.583
666.895	25.716
670.805	13.881
674.713	5.09
678.62	33.331
682.524	31.568
686.427	30.779
690.328	24.965
694.227	4.117
698.124	7.237
702.02	10.324
705.913	9.384
709.805	18.427
713.695	28.45
717.584	29.448
721.47	2.415
725.355	1.346
729.238	9.989
733.119	9.135
736.998	20.739
740.876	5.979
744.752	1.845
748.626	5.536
752.498	28.046
756.368	17.208
760.237	5.906
764.104	8.298
767.969	2.442
771.832	14.844
775.693	11.342
779.553	27.815
783.411	2.955
787.267	6.223
791.122	16.951
794.974	35.998
798.825	51.619
802.674	63.613
806.522	78.983
810.367	145.997
814.211	200.422
818.053	252.785
821.893	238.106
825.732	191.336
829.568	155.434
833.403	141.717
837.236	157.99
841.068	172.26
844.898	214.5
848.726	206.518
852.552	248.83
856.376	256.465
860.199	303.404
864.02	335.372
867.839	326.434
871.656	363.806
875.472	329.243
879.286	278.563
883.098	198.847
886.909	130.257
890.717	97.788
894.524	62.707
898.33	85.602
902.133	91.198
905.935	92.163
909.735	61.841
913.533	42.444
917.33	40.481
921.124	45.461
924.918	84.612
928.709	139.672
932.499	131.787
936.286	111.781
940.073	84.833
943.857	93.918
947.64	28.07
951.421	26.261
955.2	21.419
958.978	12.956
962.753	1.825
966.527	4.303
970.3	20.384
974.071	12.48
977.84	10.585
981.607	9.455
985.372	7.546
989.136	8.712
992.898	8.154
996.659	20.46
1000.42	27.601
1004.17	24.711
1007.93	4.777
1011.68	5.176
1015.43	3.025
1019.18	4.847
1022.93	10.159
1026.68	7.825
1030.42	3.251
1034.17	9.265
1037.91	1.478
1041.65	12.581
1045.39	18.598
1049.12	39.633
1052.86	34.642
1056.59	27.624
1060.33	12.077
1064.06	25.077
1067.78	27.105
1071.51	21.075
1075.23	38.035
1078.96	28.003
1082.68	10.99
1086.4	8.054
1090.12	28.289
1093.83	18.338
1097.55	2.315
1101.26	12.476
1104.97	17.445
1108.68	7.692
1112.39	18.573
1116.1	17.432
1119.8	25.322
1123.5	25.155
1127.2	29.974
1130.9	25.858
1134.6	4.801
1138.3	17.555
1141.99	30.557
1145.69	12.353
1149.38	13.464
1153.07	26.17
1156.76	30.962
1160.44	28.773
1164.13	12.399
1167.81	22.938
1171.49	19.792
1175.17	19.9
1178.85	31.538
1182.52	42.222
1186.2	35.553
1189.87	17.108
1193.54	34.283
1197.21	29.076
1200.88	33.51
1204.55	3.092
1208.21	20.097
1211.88	21.44
1215.54	40.785
1219.2	25.148
1222.86	31.347
1226.51	34.746
1230.17	5.755
1233.82	26.03
1237.47	19.232
1241.12	22.403
1244.77	27.589
1248.42	37.039
1252.06	28.287
1255.71	24.867
1259.35	27.942
1262.99	19.995
1266.63	44.996
1270.26	40.993
1273.9	43.94
1277.53	22.217
1281.16	39.028
1284.8	0.049
1288.42	22.731
1292.05	2.042
1295.68	21.69
1299.3	6.442
1302.92	25.206
1306.55	39.883
1310.16	21.327
1313.78	29.916
1317.4	61.525
1321.01	18.096
1324.62	8.551
1328.24	30.034
1331.85	14.247
1335.45	15.612
1339.06	20.043
1342.66	51.437
1346.27	44.785
1349.87	37.751
1353.47	21.006
1357.07	21.308
1360.66	11.56
1364.26	28.84
1367.85	19.156
1371.44	19.556
1375.04	30.682
1378.62	34.775
1382.21	55.095
1385.8	52.508
1389.38	37.088
1392.96	28.595
1396.54	21.181
1400.12	32.647
1403.7	14.487
1407.28	42.667
1410.85	35.865
1414.42	44.084
1417.99	33.214
1421.56	56.082
1425.13	32.958
1428.7	38.956
1432.26	47.155
1435.83	18.371
1439.39	38.496
1442.95	19.62
1446.51	21.607
1450.06	26.953
1453.62	24.811
1457.17	43.521
1460.73	25.762
1464.28	65.292
1467.83	26.865
1471.37	29.995
1474.92	28.242
1478.46	11.613
1482.01	28.887
1485.55	34.316
1489.09	25.711
1492.63	14.16
1496.16	28.959
1499.7	28.872
1503.23	47.696
1506.76	56.162
1510.29	54.549
1513.82	13.012
1517.35	37.26
