Measurement: Raman, 514 nm, depolarized, Raman Data Processed
Mineral: Sulphur
Rruff sample: R050006
Ideal chemistry: S
Locality: San Felipe, Mexicali, Baja California Norte, Mexico
Source: Eugene Schlepp
Description: Yellow single crystal
Measured chemistry: S_1.00_
Pin_id: L00244
Orientation: Laser parallel to -c* (0 0 -1). Fiducial mark perpendicular to laser is parallel to a [1 0 0]
Raman shift (cm-1)	intensity
48.666	0
52.873	15.388
57.079	15.188
61.283	22.417
65.484	11.252
69.684	1.628
73.881	7.59
78.076	28.013
82.27	139.01
86.461	483.124
90.65	854.293
94.838	514.337
99.023	369.029
103.206	367.231
107.387	399.86
111.566	413.061
115.744	440.184
119.919	456.803
124.092	453.051
128.263	438.2
132.432	420.518
136.599	521.761
140.764	1147.95
144.927	4267.13
149.088	8280.33
153.247	8891.59
157.404	4061.92
161.559	1204.34
165.711	547.832
169.862	342.416
174.011	280.088
178.158	259.845
182.303	353.684
186.446	456.603
190.587	596.634
194.726	860.167
198.862	618.931
202.997	526.401
207.13	1140.19
211.261	5975.97
215.39	19784.2
219.517	26312.5
223.642	5905.22
227.765	1345.19
231.886	763.368
236.005	821.664
240.122	1415.94
244.237	3536.57
248.35	2149.47
252.461	525.497
256.57	203.632
260.677	143.864
264.782	123.185
268.885	130.585
272.986	130.019
277.085	132.608
281.182	109.236
285.278	89.936
289.371	101.704
293.462	113.517
297.552	112.362
301.639	100.238
305.724	68.147
309.808	67.088
313.889	57.396
317.969	53.071
322.046	29.116
326.122	26.191
330.196	2.296
334.267	4.579
338.337	14.452
342.405	13.342
346.471	24.25
350.535	12.19
354.597	18.151
358.657	0.167
362.715	13.727
366.771	29.541
370.825	57.324
374.877	53.128
378.928	80.958
382.976	110.835
387.023	115.755
391.067	129.712
395.11	156.703
399.15	187.726
403.189	259.779
407.226	458.861
411.261	601.967
415.294	599.135
419.325	825.368
423.354	1238.67
427.381	2002.27
431.406	2858.59
435.43	3400.29
439.451	2955.71
443.471	1250.02
447.488	556.934
451.504	532.158
455.518	953.474
459.53	2540.8
463.54	6861.13
467.548	17874.5
471.554	35675.8
475.558	24177.2
479.561	6930.88
483.561	2558.33
487.559	1353.68
491.556	846.995
495.551	625.251
499.544	485.732
503.535	395.12
507.524	317.365
511.511	256.388
515.496	258.935
519.48	257.409
523.461	225.677
527.441	203.017
531.418	185.484
535.394	168.707
539.368	154.157
543.34	157.712
547.311	152.179
551.279	157.53
555.245	132.881
559.21	85.231
563.173	54.578
567.133	20.041
571.092	16.589
575.049	4.288
579.005	0.648
582.958	3.46
586.909	6.261
590.859	1.424
594.807	1.278
598.753	7.27
602.697	7.876
606.639	2.418
610.579	9.331
614.518	26.861
618.454	30.16
622.389	23.353
626.322	23.506
630.253	11.774
634.182	0.901
638.109	3.91
642.035	9.897
645.958	14.858
649.88	42.805
653.8	46.749
657.718	33.712
661.634	33.701
665.549	28.723
669.461	18.78
673.372	16.862
677.281	16.961
681.188	14.053
685.093	31.13
688.997	23.191
692.898	2.236
696.798	4.262
700.696	2.267
704.592	11.253
708.486	13.221
712.378	17.172
716.269	18.106
720.158	2.023
724.045	2.919
727.93	3.794
731.813	4.604
735.694	2.772
739.574	3.71
743.452	4.644
747.328	5.919
751.202	3.023
755.075	0.153
758.945	1.287
762.814	7.977
766.681	1.943
770.546	1.499
774.409	0.968
778.271	4.544
782.131	2.959
785.989	4.517
789.845	5.871
793.699	6.011
797.552	25.369
801.402	28.784
805.251	45.195
809.098	69.594
812.944	100.732
816.787	138.355
820.629	154.718
824.469	134.081
828.307	112.378
832.144	97.71
835.978	110.005
839.811	117.295
843.642	132.57
847.472	128.762
851.299	139.977
855.125	154.052
858.949	172.24
862.771	203.486
866.591	193.68
870.41	189.861
874.227	177.933
878.042	157.986
881.855	135.942
885.667	100.745
889.476	69.871
893.284	57.401
897.09	67.72
900.895	62.778
904.698	58.579
908.499	49.904
912.298	34.951
916.095	28.572
919.891	43.577
923.685	61.546
927.477	93.225
931.267	114.297
935.056	109.18
938.843	83.211
942.628	86.272
946.411	49.385
950.193	36.503
953.973	25.745
957.751	17.98
961.527	16.078
965.302	4.192
969.075	4.275
972.846	3.355
976.615	7.43
980.383	1.632
984.149	5.706
987.913	4.769
991.675	4.829
995.436	0.888
999.195	3.01
1002.95	3.076
1006.71	6.135
1010.46	2.184
1014.21	3.229
1017.96	3.279
1021.71	6.566
1025.46	3.607
1029.2	1.648
1032.95	2.871
1036.69	0.275
1040.43	7.384
1044.17	7.457
1047.9	3.521
1051.64	0.411
1055.37	1.66
1059.1	4.735
1062.83	3.187
1066.56	4.886
1070.29	9.991
1074.01	2.093
1077.73	9.174
1081.46	0.748
1085.17	2.33
1088.89	1.412
1092.61	1.494
1096.32	1.587
1100.04	7.699
1103.75	7.811
1107.46	5.876
1111.16	2.936
1114.87	7.997
1118.57	6.061
1122.28	4.116
1125.98	2.153
1129.67	7.186
1133.37	8.224
1137.07	9.272
1140.76	12.315
1144.45	10.354
1148.14	4.424
1151.83	2.43
1155.52	4.492
1159.21	5.526
1162.89	8.522
1166.57	4.554
1170.25	2.582
1173.93	7.604
1177.61	2.623
1181.28	1.359
1184.96	0.377
1188.63	0.628
1192.3	12.634
1195.97	9.637
1199.64	2.525
1203.3	8.518
1206.97	8.508
1210.63	3.145
1214.29	2.14
1217.95	9.151
1221.6	7.138
1225.26	5.018
1228.91	4.954
1232.57	1.913
1236.21	1.886
1239.86	0.855
1243.51	0.139
1247.16	0.174
1250.8	14.654
1254.44	17.483
1258.08	7.442
1261.72	1.38
1265.36	5.348
1268.99	8.307
1272.63	6.26
1276.26	4.092
1279.89	4.038
1283.52	4.99
1287.15	7.94
1290.77	5.889
1294.4	8.768
1298.02	1.695
1301.64	12.643
1305.26	6.661
1308.88	6.605
1312.49	6.54
1316.11	6.583
1319.72	8.169
1323.33	5.102
1326.94	2.906
1330.55	1.539
1334.15	4.462
1337.76	0.409
1341.36	0.653
1344.96	3.28
1348.56	8.216
1352.16	10.153
1355.75	2.093
1359.35	0.022
1362.94	1.005
1366.53	10.906
1370.12	7.832
1373.71	4.768
1377.3	5.665
1380.88	8.578
1384.46	7.45
1388.05	12.311
1391.63	3.256
1395.2	6.192
1398.78	12.134
1402.36	8.069
1405.93	1.011
1409.5	14.914
1413.07	8.712
1416.64	1.65
1420.21	8.588
1423.78	10.533
1427.34	5.484
1430.9	5.434
1434.46	5.313
1438.02	3.273
1441.58	20.213
1445.13	9.117
1448.69	15.078
1452.24	9.041
1455.79	8.912
1459.34	5.883
1462.89	7.857
1466.44	7.814
1469.98	5.797
1473.53	10.778
1477.07	1.778
1480.61	6.778
1484.14	6.767
1487.68	8.501
1491.22	15.517
1494.75	4.547
1498.28	5.666
1501.81	0.494
1505.34	5.368
1508.87	10.195
1512.4	0.961
1515.92	4.451
1519.44	0.052
1522.96	0
