Measurement: Raman, 514 nm, depolarized, Raman Data Processed
Mineral: Talc
Rruff sample: R040137
Ideal chemistry: Mg_3_Si_4_O_10_(OH)_2_
Locality: Murphy, North Carolina, USA
Source: University of Arizona Mineral Museum
Description: Colorless massive
Measured chemistry: (Mg_0.97_Fe_0.01_Al_0.01_)_3_Si_4.03_O_10_((OH)_0.99_F_0.01_)_2_
Pin_id: L00440
Orientation: Laser parallel to -1 0 0. Fiducial mark perpendicular to laser is parallel to 0 1 0
Raman shift (cm-1)	intensity
142.709	0
145.48	212.656
148.25	226.045
151.019	198.879
153.788	225.752
156.555	258.666
159.322	173.52
162.088	377.543
164.853	1.109
167.617	446.227
170.38	258.516
173.142	94.984
175.904	241.867
178.664	308.293
181.424	364.348
184.183	512.945
186.94	1133.78
189.698	2686.51
192.454	5810.92
195.209	6026.85
197.963	4594.18
200.717	2112.82
203.47	982.699
206.221	493.766
208.972	485.969
211.722	299.258
214.472	453.582
217.22	438.918
219.967	595.238
222.714	432.512
225.46	610.633
228.204	638.859
230.948	427.23
233.692	115.887
236.434	534.941
239.175	314.414
241.916	694.328
244.655	494.715
247.394	275.586
250.132	466.945
252.869	348.805
255.605	281.156
258.34	464
261.075	347.496
263.808	385.992
266.541	516.258
269.273	601.406
272.004	597.031
274.734	503.129
277.463	459.664
280.192	586.723
282.919	700.023
285.646	828.789
288.372	921.004
291.097	1050.14
293.821	1059.75
296.544	869.957
299.266	660.516
301.988	521.426
304.709	572.684
307.428	588.07
310.147	585.723
312.865	266.293
315.583	428.371
318.299	551.578
321.015	615.734
323.729	432.371
326.443	728.145
329.156	674.578
331.868	701.637
334.579	779.277
337.29	787.465
339.999	676.145
342.708	665.289
345.416	884.875
348.123	924.867
350.829	605.266
353.534	1126.04
356.239	1457.18
358.942	2248.67
361.645	3070.68
364.347	2912.85
367.048	2255.31
369.748	1228.09
372.448	961.156
375.146	703.633
377.844	747.27
380.54	766.281
383.236	580.438
385.932	404.84
388.626	513.023
391.319	397.91
394.012	513.387
396.704	408.75
399.394	187.551
402.084	633.488
404.774	609.668
407.462	266.102
410.15	342.773
412.836	383.211
415.522	22.82
418.207	81.383
420.891	326.453
423.575	216.133
426.257	554.344
428.939	425.543
431.619	694.129
434.299	750.188
436.978	889.121
439.657	874.652
442.334	433.914
445.011	243.496
447.687	743.652
450.361	653.367
453.036	683.223
455.709	493.215
458.381	423.891
461.053	484.168
463.724	504.605
466.394	711.09
469.063	946.387
471.731	757.34
474.398	473.273
477.065	566.867
479.731	508.578
482.396	220.32
485.06	88.387
487.723	288.984
490.385	511.191
493.047	774.941
495.708	369.605
498.368	492.242
501.027	545.035
503.685	397.98
506.342	331.059
508.999	324.309
511.655	247.719
514.31	401.234
516.964	194.855
519.617	11.418
522.27	2.41
524.921	496.352
527.572	140.395
530.222	344.535
532.871	228.766
535.52	472.996
538.167	597.234
540.814	261.531
543.46	365.859
546.105	99.73
548.749	294.68
551.393	10.84
554.035	483.715
556.677	79.277
559.318	105.348
561.958	90.387
564.597	217.191
567.236	246.734
569.874	78.176
572.511	53.277
575.147	423.238
577.782	517.219
580.416	238.797
583.05	123.605
585.683	278.707
588.315	193.527
590.946	121.664
593.576	223.02
596.206	98.277
598.834	272.934
601.462	162.469
604.089	21.953
606.715	286.359
609.341	311.27
611.965	65.781
614.589	270.734
617.212	187.383
619.834	146.816
622.456	71.281
625.076	14.398
627.696	330.176
630.315	94.281
632.933	8.227
635.551	71.953
638.167	195.637
640.783	30.73
643.398	271.137
646.012	434.59
648.625	577.988
651.237	711.316
653.849	694.547
656.46	480.508
659.07	713.848
661.679	843.887
664.288	994.086
666.895	1466.34
669.502	2450.47
672.108	4053.37
674.713	5746.19
677.318	6569.8
679.921	5403.55
682.524	3677.91
685.126	2531.38
687.727	1793.97
690.328	1336.61
692.927	840.996
695.526	616.254
698.124	484.121
700.721	366.434
703.318	656.137
705.913	328.078
708.508	512.234
711.102	684.898
713.695	374.773
716.288	156.062
718.879	99.195
721.47	31.184
724.06	391.992
726.649	450.465
729.238	119.852
731.825	199.742
734.412	419.059
736.998	434.824
739.584	202.582
742.168	596.605
744.752	443.199
747.334	395.164
749.916	188.105
752.498	273.312
755.078	369.641
757.658	507.879
760.237	287.93
762.815	336.047
765.392	829.457
767.969	217.27
770.544	234.926
773.119	691.859
775.693	509.352
778.267	566.426
780.839	234.32
783.411	789.617
785.982	726.223
788.552	535.688
791.122	582.449
793.69	618.68
796.258	496.039
798.825	387.203
801.391	473.117
803.957	508.898
806.522	473.066
809.085	726.797
811.649	297.648
814.211	43.273
816.772	708.285
819.333	63.148
821.893	391.715
824.452	627.227
827.011	451.797
829.568	316.977
832.125	453.859
834.681	517.898
837.236	481.508
839.791	686.582
842.345	379.855
844.898	515.891
847.45	721.758
850.001	274.918
852.552	387.645
855.102	270.426
857.651	583.621
860.199	935.754
862.746	257.75
865.293	209.605
867.839	678.945
870.384	950.191
872.928	959.621
875.472	646.184
878.015	207.164
880.557	207.684
883.098	506.473
885.639	518.719
888.178	68.797
890.717	521.484
893.256	490.453
895.793	549.254
898.33	327.938
900.865	526.434
903.401	854.203
905.935	442.293
908.468	480.215
911.001	97.945
913.533	545.449
916.064	582.715
918.595	780.203
921.124	896.504
923.653	632.746
926.182	747.5
928.709	879.258
931.236	557.168
933.761	513.258
936.286	588.777
938.811	733.254
941.334	681.434
943.857	413.691
946.379	525.875
948.9	1127.9
951.421	836.801
953.94	613.684
956.459	643.246
958.978	483.984
961.495	953.312
964.012	640.227
966.527	448.934
969.043	143.148
971.557	481.367
974.071	248.477
976.583	313.582
979.095	238.797
981.607	770.699
984.117	1077.31
986.627	601.32
989.136	109.215
991.644	602.289
994.152	922.719
996.659	933.707
999.165	270.316
1001.67	484.016
1004.17	344.676
1006.68	161.469
1009.18	557.93
1011.68	611.16
1014.18	551.863
1016.68	807.664
1019.18	824.238
1021.68	498.094
1024.18	574.234
1026.68	336.141
1029.18	320.254
1031.67	369.473
1034.17	89.391
1036.66	95.285
1039.16	404.426
1041.65	558.766
1044.14	518.547
1046.63	1014.37
1049.12	1446.62
1051.62	1782.22
1054.11	1226.17
1056.59	1348.32
1059.08	1228.77
1061.57	789.629
1064.06	343.25
1066.54	12.332
1069.03	673.312
1071.51	449.164
1073.99	75.465
1076.47	23.723
1078.96	271.547
1081.44	491.902
1083.92	227.051
1086.4	100.168
1088.88	0
