Measurement: Raman, 514 nm, depolarized, Raman Data Processed
Mineral: Talc
Rruff sample: R050087
Ideal chemistry: Mg_3_Si_4_O_10_(OH)_2_
Locality: St. Lawrence County, New York, USA
Source: University of Arizona Mineral Museum
Description: An aggregate of colorless foliated coarse single crystals
Measured chemistry: (Mg_.998_Fe_.002_)_3_(Si_.997_Al_.003_)_4_O_10_(OH_.966_F_.034_)_2_
Pin_id: M00178
Orientation: Laser parallel to (1 1 0). Fiducial mark perpendicular to laser is parallel to c [0 0 1]
Raman shift (cm-1)	intensity
99.649	0
104.582	1501.04
109.512	2525.21
114.44	1732.63
119.365	1073.83
124.288	11.0859
129.209	18.542
134.127	3.65527
139.043	72.7275
143.956	152.336
148.867	320.618
153.775	50.626
158.681	78.2812
163.585	252.746
168.486	175.886
173.385	218.518
178.282	358.252
183.176	1285.18
188.067	4562.48
192.956	9926.2
197.843	8794.66
202.727	1374.88
207.609	345.656
212.489	487
217.366	134.051
222.24	436.777
227.112	306.449
231.982	280.871
236.849	152.857
241.714	274.334
246.577	175.228
251.437	3.57812
256.294	135.08
261.149	337.719
266.002	344.404
270.852	7.81055
275.7	99.2715
280.545	524.062
285.388	785.973
290.229	1498.29
295.067	862.144
299.902	42.1699
304.735	279.228
309.566	133.295
314.394	71.1621
319.22	27.6406
324.043	227.744
328.864	340.143
333.682	626.854
338.498	398.822
343.311	523.039
348.122	760.445
352.931	2042.57
357.737	3649.28
362.54	5599.68
367.341	3476.74
372.14	1042.94
376.936	635.269
381.73	446.949
386.521	364.496
391.31	103.01
396.096	20.7246
400.88	55.5039
405.661	11.6992
410.44	88.2988
415.216	4.05469
419.99	117.213
424.761	594.107
429.53	1045.37
434.297	1786.62
439.061	783.781
443.822	272.039
448.581	213.465
453.337	385.213
458.091	91.8047
462.843	365.078
467.592	390.408
472.338	205.404
477.082	132.08
481.824	285.065
486.563	22.5117
491.3	164.805
496.034	27.7441
500.765	244.486
505.494	265.115
510.221	325.615
514.945	83.0176
519.666	89.5996
524.385	66.4844
529.102	39.5098
533.816	188.188
538.527	149.348
543.236	51.4277
547.943	148.609
552.647	140.312
557.348	104.481
562.047	74.3262
566.744	52.6309
571.438	123.455
576.129	122.121
580.818	134.594
585.504	59.957
590.188	56.084
594.87	2.08008
599.549	52.7129
604.225	131.625
608.899	31.1621
613.57	94.0625
618.239	62.1855
622.905	153.641
627.569	200.353
632.23	104.443
636.889	449.785
641.545	494.938
646.198	459.393
650.849	656.152
655.498	917.727
660.144	1587.19
664.787	3081.3
669.428	6810.01
674.067	12330.3
678.703	12829.7
683.336	6195.41
687.967	2790.18
692.595	1249.65
697.221	815.654
701.844	784.547
706.465	518.359
711.083	339.744
715.698	212.639
720.311	100.064
724.922	149.406
729.53	305.879
734.135	155.315
738.738	410.506
743.338	97.6953
747.936	235.359
752.531	286.144
757.124	41.127
761.714	140.709
766.302	166.807
770.887	11.2383
775.469	400.518
780.049	549.457
784.626	619.613
789.201	830.873
793.773	751.545
798.343	714.047
802.91	353.207
807.475	226.273
812.037	273.26
816.596	311.156
821.153	454.002
825.707	222.629
830.259	4.70898
834.808	330.602
839.355	43.0254
843.899	24.4102
848.441	132.131
852.98	22.2754
857.516	244.945
862.05	76.541
866.581	269.779
871.11	307.691
875.636	64.707
880.159	139.627
884.68	71.2422
889.199	60.7148
893.714	93.3945
898.228	65.5
902.738	9.92969
907.246	42.6953
911.752	358.805
916.255	292.644
920.755	138.215
925.253	107.481
929.748	247.457
934.241	256.07
938.731	155.152
943.218	43.3477
947.703	89.8789
952.186	493.406
956.665	166.426
961.142	204.137
965.617	59.0078
970.089	251.934
974.558	185.383
979.025	220.039
983.489	173.531
987.951	477.977
992.41	251.555
996.866	408.211
1001.32	373.102
1005.77	356.852
1010.22	480.961
1014.67	772.977
1019.11	641.227
1023.55	283.371
1027.99	97.3164
1032.42	228.856
1036.86	540.227
1041.29	336.488
1045.72	800.773
1050.14	1486.82
1054.56	1141.07
1058.98	632.824
1063.4	185.168
1067.82	491.965
1072.23	327.613
1076.64	108.488
1081.05	286.945
1085.45	292.352
1089.85	288.277
1094.25	440.988
1098.65	389.375
1103.04	92.6133
1107.43	78.6758
1111.82	8.78906
1116.21	24.7773
1120.59	328.566
1124.97	113.281
1129.35	266.383
1133.73	107.398
1138.1	34.3438
1142.47	95.9844
1146.84	478.805
1151.21	553.594
1155.57	366.453
1159.93	74.0391
1164.29	261.199
1168.64	93.6445
1172.99	151.617
1177.34	255.012
1181.69	112.398
1186.04	106.777
1190.38	462.168
1194.72	40.582
1199.05	289.004
1203.39	307.625
1207.72	274.227
1212.05	51.8281
1216.37	196.281
1220.7	235.707
1225.02	338.047
1229.34	256.203
1233.65	53.5273
1237.97	315.84
1242.28	192.137
1246.59	176.41
1250.89	143.066
1255.19	277.754
1259.49	181.473
1263.79	211.305
1268.09	159.137
1272.38	257.301
1276.67	383.508
1280.95	108.754
1285.24	166.227
1289.52	264.758
1293.8	344.824
1298.08	5.40234
1302.35	167.551
1306.62	488.797
1310.89	300.234
1315.15	126.863
1319.42	216.688
1323.68	453.711
1327.94	265.887
1332.19	96.2109
1336.44	16.1641
1340.69	177.156
1344.94	224.367
1349.19	28.9414
1353.43	382.156
1357.67	8.29297
1361.9	70.5742
1366.14	550.394
1370.37	318.953
1374.6	113.465
1378.83	247.121
1383.05	144.57
1387.27	345.781
1391.49	116.207
1395.7	68.6523
1399.92	191.164
1404.13	162.906
1408.34	36.6875
1412.54	34.6992
1416.74	13.9414
1420.94	175.648
1425.14	157.68
1429.34	91.0234
1433.53	75.8164
1437.72	445.996
1441.9	280.461
1446.09	516.367
1450.27	77.2812
1454.45	359.09
1458.63	193.945
1462.8	449.082
1466.97	206.219
1471.14	315.984
1475.31	7.33203
1479.47	69.8125
1483.63	414.356
1487.79	476.133
1491.94	323.41
1496.09	402.57
1500.24	241.602
1504.39	348.922
1508.54	341.469
1512.68	390.273
1516.82	287.375
1520.95	375.227
1525.09	355.496
1529.22	309.562
1533.35	100.035
1537.47	41.7617
1541.6	491.578
1545.72	198.887
1549.83	181.598
1553.95	272.824
1558.06	331.586
1562.17	379.203
1566.28	138.914
1570.38	345.965
