Measurement: Raman, 514 nm, ccw, Raman Data RAW
Mineral: Talc
Rruff sample: R050087
Ideal chemistry: Mg_3_Si_4_O_10_(OH)_2_
Locality: St. Lawrence County, New York, USA
Source: University of Arizona Mineral Museum
Description: An aggregate of colorless foliated coarse single crystals
Measured chemistry: (Mg_.998_Fe_.002_)_3_(Si_.997_Al_.003_)_4_O_10_(OH_.966_F_.034_)_2_
Pin_id: M00178
Orientation: Laser parallel to (1 1 0). Fiducial mark perpendicular to laser is parallel to c [0 0 1]
Raman shift (cm-1)	intensity
99.649	14398
104.582	16927
109.512	18605
114.44	17928.8
119.365	16875
124.288	16101
129.209	16310
134.127	16300
139.043	16700
143.956	16703
148.867	17096
153.775	17039
158.681	17263
163.585	17399
168.486	17724
173.385	17927
178.282	18008
183.176	18928
188.067	21205
192.956	30425
197.843	30889
202.727	20212
207.609	18952
212.489	19231
217.366	19062
222.24	19324
227.112	19222
231.982	19524
236.849	19486
241.714	19818
246.577	19619
251.437	19856
256.294	20120.5
261.149	20147
266.002	20170
270.852	20368
275.7	20569
280.545	20718
285.388	21255
290.229	22626
295.067	21909
299.902	21076
304.735	21444
309.566	21281
314.394	21641
319.22	21731
324.043	21947
328.864	22027
333.682	22638
338.498	22689
343.311	22718
348.122	23033
352.931	23845
357.737	25951
362.54	28848
367.341	26582
372.14	24025
376.936	23734
381.73	23754
386.521	23612
391.31	23436
396.096	23732
400.88	23720
405.661	23857
410.44	23906
415.216	23954
419.99	24377.6
424.761	24511
429.53	25276
434.297	26135.6
439.061	25259
443.822	25102
448.581	25149
453.337	25408
458.091	25452
462.843	25596
467.592	26007
472.338	25953
477.082	25528
481.824	25865
486.563	25748
491.3	26070
496.034	26278
500.765	26382
505.494	26484
510.221	26468
514.945	26549
519.666	27078
524.385	27118
529.102	27066
533.816	27387
538.527	27237
543.236	27471
547.943	27508
552.647	27559
557.348	27934
562.047	27799
566.744	27943
571.438	28099
576.129	28302
580.818	28418
585.504	28493
590.188	28562
594.87	28672
599.549	29005
604.225	29119
608.899	29260
613.57	29287
618.239	29594
622.905	29632
627.569	29870
632.23	30101
636.889	30156
641.545	30392
646.198	30749
650.849	30984
655.498	31370
660.144	31971
664.787	33362
669.428	36526
674.067	43100
678.703	46075
683.336	38649
687.967	34637
692.595	32968
697.221	32701
701.844	32400
706.465	32422
711.083	32191
715.698	32444
720.311	32695
724.922	32776
729.53	33008
734.135	32863
738.738	33324
743.338	33030
747.936	33484
752.531	33410
757.124	33537
761.714	33703
766.302	34012
770.887	34150
775.469	34114.2
780.049	34318
784.626	35011
789.201	35317
793.773	35627
798.343	35375
802.91	35275
807.475	35053
812.037	35054
816.596	35290
821.153	35378.1
825.707	35593
830.259	35811
834.808	36150
839.355	35997
843.899	36068
848.441	36207
852.98	36489
857.516	36763
862.05	36803.3
866.581	37114
871.11	36966
875.636	37285
880.159	37155
884.68	37348
889.199	37623
893.714	37717
898.228	37971
902.738	38104
907.246	38055
911.752	38102
916.255	38762
920.755	38630
925.253	38656
929.748	38907
934.241	39083
938.731	39129
943.218	39390
947.703	39510
952.186	39409
956.665	39750
961.142	40266
965.617	40027
970.089	40439
974.558	40392
979.025	40659
983.489	40789
987.951	41112
992.41	41146
996.866	41313
1001.32	41371
1005.77	41466
1010.22	41814
1014.67	42027
1019.11	42507
1023.55	42397
1027.99	42448
1032.42	42667
1036.86	42848
1041.29	43425
1045.72	43478
1050.14	44457
1054.56	44770
1058.98	43990
1063.4	43875
1067.82	43726.7
1072.23	44183
1076.64	44100
1081.05	44475
1085.45	44475
1089.85	44407
1094.25	44648
1098.65	44990
1103.04	44949
1107.43	44893
1111.82	45409
1116.21	45458
1120.59	45705
1124.97	46051
1129.35	45956
1133.73	46049
1138.1	46092
1142.47	46402
1146.84	46624
1151.21	46518
1155.57	46728
1159.93	47219
1164.29	47252
1168.64	47294
1172.99	47856
1177.34	47635
1181.69	47708
1186.04	48194
1190.38	48376
1194.72	48334
1199.05	48483
1203.39	48486
1207.72	48927.2
1212.05	48793
1216.37	49016
1220.7	49268
1225.02	49308
1229.34	49612
1233.65	49774
1237.97	49769
1242.28	50292
1246.59	49995
1250.89	50330
1255.19	50412
1259.49	50718
1263.79	51023
1268.09	51128
1272.38	51049
1276.67	51323
1280.95	51333
1285.24	51809
1289.52	51561
1293.8	51860
1298.08	52035
1302.35	52257
1306.62	52396
1310.89	52794
1315.15	52669
1319.42	52533
1323.68	53012
1327.94	53113
1332.19	53115
1336.44	53662
1340.69	53646
1344.94	53893
1349.19	53772
1353.43	53881
1357.67	54205
1361.9	54291
1366.14	54464
1370.37	54739
1374.6	54773
1378.83	54997
1383.05	55058
1387.27	55026
1391.49	55397
1395.7	55253
1399.92	55630
1404.13	55695
1408.34	56067
1412.54	56052
1416.74	56491
1420.94	56343
1425.14	56570
1429.34	56501
1433.53	56806
1437.72	57268
1441.9	57055
1446.09	57382
1450.27	57745
1454.45	57620
1458.63	57931
1462.8	58149
1466.97	58499
1471.14	58376
1475.31	58557
1479.47	58672
1483.63	58365
1487.79	58931
1491.94	59334
1496.09	59054
1500.24	59400
1504.39	59600
1508.54	59675.5
1512.68	60067
1516.82	60163
1520.95	60155
1525.09	60472
1529.22	60480
1533.35	60501
1537.47	60412
1541.6	60704
1545.72	60736
1549.83	60978
1553.95	61204
1558.06	61380
1562.17	61613
1566.28	61371
1570.38	61513
