Measurement: Raman, 514 nm, depolarized, Raman Data Processed
Mineral: Talc
Rruff sample: R050087
Ideal chemistry: Mg_3_Si_4_O_10_(OH)_2_
Locality: St. Lawrence County, New York, USA
Source: University of Arizona Mineral Museum
Description: An aggregate of colorless foliated coarse single crystals
Measured chemistry: (Mg_.998_Fe_.002_)_3_(Si_.997_Al_.003_)_4_O_10_(OH_.966_F_.034_)_2_
Pin_id: M00333
Orientation: Laser parallel to c* (0 0 1). Fiducial mark perpendicular to laser is parallel to a [1 0 0]
Raman shift (cm-1)	intensity
95.948	0
100.883	1427.73
105.815	3887.07
110.744	4053.32
115.671	3062.25
120.596	1377.23
125.519	61.4062
130.439	34.9316
135.356	21.8848
140.271	117.078
145.184	31.7832
150.094	165.473
155.002	330.188
159.908	212.441
164.811	264.826
169.711	476.978
174.61	571.812
179.505	898.584
184.399	6391.79
189.29	11786.9
194.178	24892
199.064	15734.6
203.948	1933.15
208.829	693.789
213.708	608.311
218.585	411.264
223.459	481.66
228.33	566.445
233.199	485.338
238.066	253.266
242.93	247.377
247.792	101.246
252.651	4.89453
257.508	79.0977
262.363	59.1621
267.215	10.8477
272.064	174.541
276.912	441.164
281.756	1273.87
286.598	1378.18
291.438	2078.68
296.276	677.211
301.111	321.572
305.943	156.791
310.773	59.7188
315.601	53.3594
320.426	302.688
325.248	210.518
330.068	631.543
334.886	662.971
339.701	612.154
344.514	922.178
349.324	1964.75
354.132	4684.58
358.938	6852.77
363.741	7082.28
368.541	3290.1
373.339	1487.18
378.135	897.596
382.928	714.293
387.718	183.441
392.506	130.69
397.292	257.353
402.075	82.1367
406.856	93.9922
411.634	80.543
416.41	108.928
421.183	421.984
425.954	1098.68
430.722	1904.95
435.488	1714.18
440.251	561.629
445.012	613.93
449.77	780.85
454.526	818.789
459.28	694.824
464.03	768.85
468.779	1318.01
473.525	706.568
478.268	287.068
483.009	160.791
487.747	102.947
492.483	21.8828
497.217	201.531
501.948	197
506.676	279.289
511.402	319.385
516.125	156.275
520.846	144.949
525.565	73.3789
530.281	279.334
534.994	192.033
539.705	228.486
544.413	318.297
549.119	34.5664
553.822	84.5488
558.523	63.3965
563.222	119.654
567.917	88.6445
572.611	204.178
577.302	53.1152
581.99	186.504
586.676	47.5762
591.359	31.6426
596.04	355.424
600.718	138.24
605.394	145.859
610.067	316.728
614.737	233.414
619.406	175.893
624.071	357.207
628.734	393.586
633.395	575.15
638.053	650.606
642.708	650.66
647.361	594.443
652.012	1352.89
656.66	1808.47
661.305	3325.74
665.948	7627.57
670.588	16194.7
675.226	22528.6
679.861	18249.7
684.494	8370.98
689.124	3687.57
693.752	1934.82
698.377	1555.23
702.999	675.66
707.619	773.981
712.237	417.32
716.852	211.352
721.464	287.434
726.074	182.016
730.681	281.672
735.286	289.707
739.888	362.656
744.488	116.398
749.085	122.457
753.68	369.777
758.272	344.945
762.861	88.4219
767.448	258.852
772.033	542.156
776.614	316.375
781.194	749.582
785.77	1035.33
790.345	881.703
794.916	787.074
799.485	610.262
804.052	154.5
808.616	213.203
813.177	45.8711
817.736	341.352
822.292	201.652
826.846	197.777
831.397	294.836
835.945	230.836
840.491	177.84
845.035	138.867
849.576	154.852
854.114	122.844
858.65	104.711
863.183	256.539
867.713	508.316
872.241	126.191
876.767	111.594
881.29	87.582
885.81	151.512
890.328	52.8633
894.843	88.8086
899.356	62.1406
903.866	102.262
908.373	201.516
912.878	106.566
917.38	120.352
921.88	185.062
926.377	178.66
930.872	222.141
935.364	179.582
939.853	129
944.34	75.3945
948.824	161.918
953.306	158.012
957.785	127.043
962.261	263.102
966.735	83.418
971.207	211.484
975.675	72.0859
980.141	349.172
984.605	57.2852
989.066	232.129
993.524	78.7695
997.98	52.9414
1002.43	115.988
1006.88	430.609
1011.33	730.609
1015.78	1124.79
1020.22	1102.04
1024.66	642.684
1029.1	224.844
1033.53	325.383
1037.97	536.523
1042.4	1093.04
1046.82	2150.6
1051.25	3823.09
1055.67	2298.83
1060.09	815.824
1064.51	574.231
1068.92	531.356
1073.33	407.168
1077.74	140.574
1082.15	332.867
1086.55	368.266
1090.95	234.781
1095.35	251.406
1099.75	328.008
1104.14	222.059
1108.53	195.875
1112.92	263.492
1117.31	152.738
1121.69	314.012
1126.07	496.398
1130.45	71.5898
1134.82	44.3164
1139.19	365.637
1143.57	83.5195
1147.93	157.555
1152.3	24.2578
1156.66	30.8711
1161.02	9.875
1165.38	222.484
1169.73	144.324
1174.08	52.2266
1178.43	27.6094
1182.78	250.727
1187.12	149.125
1191.46	340.742
1195.8	147.555
1200.14	169.523
1204.47	31.6758
1208.8	191.059
1213.13	70.6875
1217.46	131.508
1221.78	417.535
1226.1	187.84
1230.42	132.348
1234.73	266.981
1239.04	145.219
1243.35	108.527
1247.66	33.6758
1251.97	147.492
1256.27	79.7812
1260.57	498.269
1264.86	214.457
1269.16	277.426
1273.45	154.613
1277.74	439.926
1282.03	370.164
1286.31	208.144
1290.59	251.434
1294.87	354.773
1299.14	656.816
1303.42	239.684
1307.69	330.176
1311.95	425.035
1316.22	441.644
1320.48	414.527
1324.74	74.6445
1329	440.277
1333.26	448.836
1337.51	380.617
1341.76	335.629
1346	176.863
1350.25	103.875
1354.49	223.344
1358.73	432.809
1362.96	112.715
1367.2	40.7109
1371.43	86.1602
1375.66	184.981
1379.88	473.738
1384.11	156.707
1388.33	206.93
1392.54	193.434
1396.76	269.332
1400.97	175.449
1405.18	246.691
1409.39	207.227
1413.59	46.3438
1417.8	318.637
1421.99	143.273
1426.19	304.223
1430.38	232.148
1434.58	237.75
1438.77	327.156
1442.95	286.984
1447.13	385.977
1451.32	339.812
1455.49	153.027
1459.67	494.629
1463.84	245.469
1468.01	194.609
1472.18	451.457
1476.35	149.805
1480.51	30.8594
1484.67	187.887
1488.83	396.039
1492.98	428.606
1497.13	79.5664
1501.28	330.594
1505.43	188.926
1509.57	297.41
1513.71	170.234
1517.85	273.617
1521.99	370.559
1526.12	267.824
1530.25	372.641
1534.38	5.99609
1538.5	120.289
1542.62	197.438
1546.74	324.461
1550.86	32.7148
1554.98	311.156
1559.09	469.289
1563.2	110.637
1567.31	246.09
1571.41	0
