Measurement: Raman, 514 nm, depolarized, Raman Data Processed
Mineral: Talc
Rruff sample: R050087
Ideal chemistry: Mg_3_Si_4_O_10_(OH)_2_
Locality: St. Lawrence County, New York, USA
Source: University of Arizona Mineral Museum
Description: An aggregate of colorless foliated coarse single crystals
Measured chemistry: (Mg_.998_Fe_.002_)_3_(Si_.997_Al_.003_)_4_O_10_(OH_.966_F_.034_)_2_
Pin_id: M00418
Orientation: Laser parallel to (1 0 1). Fiducial mark perpendicular to laser is parallel to b [0 1 0]
Raman shift (cm-1)	intensity
91.012	0
95.948	856.52
100.883	2737.32
105.815	5895.05
110.744	6882.22
115.671	6620.69
120.596	2168.45
125.519	209.474
130.439	53.4702
135.356	11.7188
140.271	16.0161
145.184	12.2598
150.094	10.917
155.002	79.1172
159.908	110.085
164.811	136.949
169.711	311.041
174.61	411.373
179.505	1114.3
184.399	9251.13
189.29	21441
194.178	51456.6
199.064	15954
203.948	2000.36
208.829	557.573
213.708	357.004
218.585	383.166
223.459	353.284
228.33	643.069
233.199	351.356
238.066	68.585
242.93	6.63623
247.792	26.6494
252.651	17.9121
257.508	24.3569
262.363	62.8096
267.215	79.4136
272.064	1.30664
276.912	110.005
281.756	904.929
286.598	2176.74
291.438	2615.23
296.276	641.106
301.111	612.745
305.943	359.155
310.773	108.946
315.601	69.4663
320.426	173.723
325.248	390.769
330.068	940.583
334.886	1109.6
339.701	940.827
344.514	1212.86
349.324	2440.43
354.132	5836.9
358.938	10932.6
363.741	11035.4
368.541	4307.39
373.339	1433.45
378.135	1460.61
382.928	1036.71
387.718	495.719
392.506	149.846
397.292	229.995
402.075	171.356
406.856	49.8799
411.634	74.4297
416.41	135.845
421.183	383.933
425.954	1337.84
430.722	3014.87
435.488	2237.6
440.251	808.516
445.012	673.645
449.77	1242.05
454.526	1301.31
459.28	867.507
464.03	1016.29
468.779	1231.34
473.525	435.353
478.268	278.319
483.009	38.2344
487.747	88.0098
492.483	101.562
497.217	173.884
501.948	228.117
506.676	344.292
511.402	263.403
516.125	143.449
520.846	166.427
525.565	43.2959
530.281	121.07
534.994	93.7861
539.705	58.457
544.413	105.71
549.119	10.0381
553.822	150.885
558.523	99.7607
563.222	14.1875
567.917	160.086
572.611	17.2373
577.302	26.876
581.99	61.54
586.676	66.0312
591.359	31.6758
596.04	92.9981
600.718	185.394
605.394	138.727
610.067	84.9717
614.737	293.143
619.406	282.234
624.071	278.039
628.734	387.763
633.395	467.265
638.053	593.948
642.708	802.852
647.361	1090.92
652.012	1426.91
656.66	2335.97
661.305	4333.97
665.948	9501.84
670.588	21929.7
675.226	34557
679.861	25196.5
684.494	10931.9
689.124	4951.25
693.752	2562.51
698.377	1501.15
702.999	1079.14
707.619	776.689
712.237	718.845
716.852	316.218
721.464	290.227
726.074	232.582
730.681	137.817
735.286	316.188
739.888	284.653
744.488	130.011
749.085	264.332
753.68	219.73
758.272	139.54
762.861	136.739
767.448	114.867
772.033	219.084
776.614	177.19
781.194	293.155
785.77	772.297
790.345	1312.59
794.916	1033.27
799.485	563.076
804.052	423.164
808.616	166.219
813.177	12.9316
817.736	56.0518
822.292	189.122
826.846	35.6875
831.397	156.614
835.945	156.068
840.491	138.117
845.035	64.1103
849.576	133.094
854.114	19.3623
858.65	213.032
863.183	142.991
867.713	61.0059
872.241	38.9014
876.767	80.54
881.29	74.793
885.81	17.0049
890.328	101.1
894.843	40.8721
899.356	52.8926
903.866	58.4082
908.373	54.0996
912.878	31.375
917.38	58.3691
921.88	6.36426
926.377	33.7402
930.872	33.873
935.364	79.4434
939.853	34.9541
944.34	118.403
948.824	34.5547
953.306	64.915
957.785	142.307
962.261	55.5478
966.735	180.482
971.207	88.3555
975.675	181.792
980.141	74.668
984.605	89.6514
989.066	89.1953
993.524	109.189
997.98	289.111
1002.43	257.959
1006.88	386.72
1011.33	727.476
1015.78	1488.01
1020.22	1493.03
1024.66	809.562
1029.1	518.375
1033.53	458.103
1037.97	648.293
1042.4	1244.69
1046.82	3675.34
1051.25	6126.34
1055.67	3246.05
1060.09	1161.37
1064.51	602.243
1068.92	286.641
1073.33	245.224
1077.74	131.899
1082.15	153.126
1086.55	221.177
1090.95	83.5225
1095.35	401.488
1099.75	313.947
1104.14	137.872
1108.53	283.202
1112.92	165.315
1117.31	140.33
1121.69	506.276
1126.07	247.163
1130.45	107.987
1134.82	62.751
1139.19	25.4541
1143.57	117.098
1147.93	96.7119
1152.3	87.251
1156.66	20.7666
1161.02	124.273
1165.38	203.829
1169.73	130.339
1174.08	154.853
1178.43	140.419
1182.78	10.8828
1187.12	191.144
1191.46	83.4082
1195.8	81.6699
1200.14	103.856
1204.47	12.0508
1208.8	114.216
1213.13	194.498
1217.46	178.432
1221.78	179.233
1226.1	58.9775
1230.42	33.6348
1234.73	91.751
1239.04	77.6357
1243.35	62.9805
1247.66	152.398
1251.97	87.0215
1256.27	110.309
1260.57	165.777
1264.86	217.288
1269.16	64.7861
1273.45	170.287
1277.74	152.636
1282.03	8.25586
1286.31	226.726
1290.59	80.4023
1294.87	118.401
1299.14	158.231
1303.42	221.742
1307.69	228.982
1311.95	305.051
1316.22	183.004
1320.48	175.002
1324.74	95.8984
1329	291.348
1333.26	208.377
1337.51	114.549
1341.76	220.322
1346	116.029
1350.25	289.459
1354.49	190.357
1358.73	153.504
1362.96	77.3418
1367.2	70.7519
1371.43	198.844
1375.66	231.842
1379.88	179.957
1384.11	164.197
1388.33	50.5645
1392.54	96.457
1396.76	149.996
1400.97	99.6836
1405.18	70.5098
1409.39	31.5312
1413.59	167.365
1417.8	136.352
1421.99	89.3516
1426.19	63.459
1430.38	193.623
1434.58	243.006
1438.77	201.74
1442.95	187.106
1447.13	180.803
1451.32	295.725
1455.49	131.131
1459.67	214.824
1463.84	166.965
1468.01	175.455
1472.18	44.459
1476.35	268.537
1480.51	137.875
1484.67	178.356
1488.83	303.068
1492.98	242.549
1497.13	280.777
1501.28	258.078
1505.43	297.002
1509.57	196.176
1513.71	370.006
1517.85	155.742
1521.99	299.998
1526.12	321.781
1530.25	278.148
1534.38	274.94
1538.5	146.49
1542.62	237.299
1546.74	230.209
1550.86	320.103
1554.98	375.791
1559.09	74.6797
1563.2	255.559
1567.31	112.93
1571.41	0
