Measurement: Raman, 514 nm, depolarized, Raman Data Processed
Mineral: Talc
Rruff sample: R050087
Ideal chemistry: Mg_3_Si_4_O_10_(OH)_2_
Locality: St. Lawrence County, New York, USA
Source: University of Arizona Mineral Museum
Description: An aggregate of colorless foliated coarse single crystals
Measured chemistry: (Mg_.998_Fe_.002_)_3_(Si_.997_Al_.003_)_4_O_10_(OH_.966_F_.034_)_2_
Pin_id: M00180
Orientation: Laser parallel to b* (0 1 0). Fiducial mark perpendicular to laser is parallel to c [0 0 1]
Raman shift (cm-1)	intensity
93.48	0
98.416	1087.86
103.349	4235.73
108.28	6604.73
113.208	4529.99
118.134	2335.84
123.058	136.377
127.979	76.084
132.898	251.006
137.814	362.863
142.728	691.557
147.639	325.117
152.549	188.426
157.455	222.914
162.359	118.273
167.261	358.25
172.161	372.891
177.058	641.223
181.952	2581.01
186.845	14263.5
191.734	30610.4
196.622	26193
201.507	3513.35
206.389	709.289
211.269	365.078
216.147	201.965
221.022	470.885
225.895	554.074
230.765	480.215
235.633	154.008
240.498	41.7988
245.361	1.5
250.222	7.08789
255.08	81.3652
259.936	263.736
264.789	20.3691
269.64	54.7695
274.488	142.426
279.334	346.297
284.178	1007.92
289.019	2080.09
293.857	754.691
298.693	339.672
303.527	160.318
308.358	99.4219
313.187	22.8457
318.013	29.9277
322.837	193.478
327.659	676.742
332.478	913.742
337.294	559.957
342.108	696.465
346.92	1584.77
351.729	3766.11
356.535	7477.28
361.34	9955.38
366.141	5288.8
370.94	1855.06
375.737	1289.6
380.531	856.094
385.323	483.685
390.113	353.342
394.9	170.471
399.684	175.022
404.466	184.984
409.245	168.435
414.022	41.5352
418.797	142.629
423.569	796.396
428.338	1755.63
433.105	2215.68
437.87	631.58
442.632	603.277
447.391	756.521
452.149	1097.91
456.903	1115.39
461.655	1264.73
466.405	1922.39
471.152	1124.38
475.897	407.209
480.639	367.984
485.378	77.0508
490.116	252.09
494.85	273.195
499.582	192.842
504.312	363.256
509.039	219.494
513.764	221.56
518.486	205.445
523.206	314.117
527.923	61.6641
532.638	53.1309
537.35	139.568
542.059	93.1973
546.766	66.3047
551.471	273.174
556.173	67.5606
560.873	83.1504
565.57	82.2285
570.264	190.955
574.957	70.9707
579.646	39.8047
584.333	170.725
589.018	2.21875
593.7	234.838
598.379	29.7598
603.056	176.582
607.73	117.309
612.402	165.185
617.072	286.119
621.739	215.916
626.403	292.775
631.065	440.242
635.724	455.527
640.381	784.311
645.035	656.213
649.687	1022.92
654.336	1468.69
658.983	2495.08
663.627	5423.4
668.268	13000.8
672.907	24015.8
677.544	24420.8
682.178	12230.5
686.809	5449.85
691.438	2609.13
696.065	1409.74
700.688	1035.64
705.31	713.588
709.929	555.861
714.545	444.185
719.158	190.99
723.77	355.945
728.378	175.309
732.984	241.092
737.588	174.299
742.189	147.914
746.787	233.793
751.383	63.7832
755.976	16.8594
760.567	76.6621
765.155	246.893
769.741	180.512
774.324	276.018
778.904	221.482
783.482	760.854
788.058	1195.19
792.631	1383.71
797.201	768.621
801.769	340.822
806.334	112.477
810.897	65.5234
815.457	138.762
820.014	22.5664
824.569	281.07
829.122	176.144
833.671	153.762
838.219	221.219
842.763	130.402
847.306	118.551
851.845	14.6445
856.382	156.891
860.917	301.008
865.448	178.426
869.978	224.488
874.505	204.531
879.029	23.3711
883.55	86.4023
888.069	183.555
892.586	305.059
897.1	221.207
901.611	145.473
906.12	158.539
910.626	83.9102
915.129	21.707
919.63	25.2734
924.129	5.78516
928.625	295.121
933.118	88.2891
937.609	53.7695
942.097	216.062
946.582	33.2656
951.065	195.613
955.546	360.445
960.023	241.137
964.499	121.598
968.971	163.961
973.441	270.394
977.909	151.938
982.374	249.617
986.836	384.797
991.295	232.289
995.753	504.676
1000.21	218.481
1004.66	529.598
1009.11	817.918
1013.55	1121.95
1018	1603.23
1022.44	1023.46
1026.88	430.035
1031.32	433.312
1035.75	464.883
1040.18	960.289
1044.61	1873.56
1049.04	3966.31
1053.46	3460.3
1057.88	1300.82
1062.3	777.059
1066.71	325.961
1071.13	224.828
1075.54	336.445
1079.94	588.91
1084.35	69.9062
1088.75	274.902
1093.15	88.7188
1097.55	250.008
1101.94	63.9492
1106.34	174.07
1110.73	62.2773
1115.11	498.418
1119.5	703.707
1123.88	830.051
1128.26	427.414
1132.63	267.316
1137.01	193.824
1141.38	78.957
1145.75	276.914
1150.12	201.207
1154.48	57.9258
1158.84	60.2383
1163.2	416.156
1167.55	188.859
1171.91	272.715
1176.26	94.6094
1180.61	336.633
1184.95	68.832
1189.29	90.1328
1193.63	241.457
1197.97	205.848
1202.31	100.664
1206.64	113.477
1210.97	30.8789
1215.29	67.5742
1219.62	42.1094
1223.94	174.019
1228.26	246.984
1232.57	360.043
1236.89	167.207
1241.2	169.465
1245.51	282.863
1249.81	78.3477
1254.12	202.926
1258.42	205.738
1262.72	8.49219
1267.01	225.269
1271.3	354.945
1275.59	93.2383
1279.88	55.4727
1284.17	390.859
1288.45	50.9805
1292.73	202.992
1297.01	360.719
1301.28	334
1305.55	365.731
1309.82	342.07
1314.09	253.586
1318.35	373.547
1322.61	42.7148
1326.87	219.734
1331.13	334.711
1335.38	25.6367
1339.63	474.25
1343.88	310.488
1348.12	55.6875
1352.37	671.019
1356.61	125.867
1360.85	238.996
1365.08	306.793
1369.31	118.137
1373.54	321.973
1377.77	260.027
1381.99	252.352
1386.22	287.117
1390.43	151.012
1394.65	377.297
1398.87	92.8945
1403.08	399.25
1407.29	77.2539
1411.49	238.523
1415.69	69.6953
1419.89	63.4766
1424.09	308.945
1428.29	166.066
1432.48	412.578
1436.67	288.18
1440.86	304.117
1445.04	168.57
1449.23	283.648
1453.4	441.102
1457.58	127.102
1461.76	326.523
1465.93	269.992
1470.1	270.531
1474.26	331.027
1478.43	209.453
1482.59	222.836
1486.75	90.7109
1490.9	219.027
1495.06	209.164
1499.21	219.434
1503.35	139.504
1507.5	213.926
1511.64	317.766
1515.78	137.953
1519.92	679.148
1524.05	389.016
1528.18	492.234
1532.31	368.133
1536.44	450.074
1540.56	387.742
1544.69	300.363
1548.8	410.074
1552.92	742.949
1557.03	217.617
1561.14	137.562
1565.25	262.066
1569.36	121.293
