Measurement: Raman, 514 nm, depolarized, Raman Data Processed
Mineral: Talc
Rruff sample: R050087
Ideal chemistry: Mg_3_Si_4_O_10_(OH)_2_
Locality: St. Lawrence County, New York, USA
Source: University of Arizona Mineral Museum
Description: An aggregate of colorless foliated coarse single crystals
Measured chemistry: (Mg_.998_Fe_.002_)_3_(Si_.997_Al_.003_)_4_O_10_(OH_.966_F_.034_)_2_
Pin_id: M00196
Orientation: Laser parallel to a* (1 0 0). Fiducial mark perpendicular to laser is parallel to -b [0 -1 0]
Raman shift (cm-1)	intensity
95.948	0
100.883	824.188
105.815	1986.34
110.744	2511.51
115.671	1663.83
120.596	620.846
125.519	6.00781
130.439	25.5684
135.356	232.225
140.271	653.984
145.184	664.961
150.094	52.9727
155.002	271.215
159.908	99.2754
164.811	336.5
169.711	100.33
174.61	289.746
179.505	625.477
184.399	3829.12
189.29	6801.08
194.178	11381.8
199.064	5522.41
203.948	809.844
208.829	362.184
213.708	104.812
218.585	178.838
223.459	457.266
228.33	478.984
233.199	480.885
238.066	222.824
242.93	82.2578
247.792	68.9336
252.651	24.2852
257.508	31.8516
262.363	96.2871
267.215	99.3613
272.064	2.25586
276.912	94.6211
281.756	487.559
286.598	905.324
291.438	867.127
296.276	493.857
301.111	100.389
305.943	30.5605
310.773	67.5039
315.601	132
320.426	19.168
325.248	59.1309
330.068	250.935
334.886	296.273
339.701	188.014
344.514	321.211
349.324	864.807
354.132	1980.88
358.938	3142.4
363.741	3233.79
368.541	1402.51
373.339	562.66
378.135	194.955
382.928	357.678
387.718	14.2734
392.506	60.793
397.292	103.533
402.075	330.951
406.856	18.3984
411.634	112.32
416.41	348.215
421.183	4.55859
425.954	698.551
430.722	774.869
435.488	928.594
440.251	305.535
445.012	182.631
449.77	159.328
454.526	390.957
459.28	282.301
464.03	712.432
468.779	802.553
473.525	294.758
478.268	132.086
483.009	233.791
487.747	216.857
492.483	154.383
497.217	5.46875
501.948	199.598
506.676	265.639
511.402	147.594
516.125	291.453
520.846	380.203
525.565	176.791
530.281	358.986
534.994	275.336
539.705	329.967
544.413	243.609
549.119	180.121
553.822	20.8574
558.523	85.9981
563.222	16.8535
567.917	17.9805
572.611	335.486
577.302	72.0723
581.99	61.2051
586.676	159.94
591.359	18.9375
596.04	427.432
600.718	234.596
605.394	279.197
610.067	107.098
614.737	96.9102
619.406	129.127
624.071	92.5488
628.734	390.522
633.395	492.711
638.053	450.293
642.708	393.49
647.361	523.459
652.012	646.207
656.66	1011.86
661.305	1880.43
665.948	3440.81
670.588	7877.4
675.226	10810.1
679.861	8580.96
684.494	4313.65
689.124	2014.66
693.752	1022.55
698.377	655.848
702.999	433.894
707.619	339.465
712.237	342.926
716.852	220.527
721.464	112.18
726.074	202.828
730.681	337.906
735.286	457.203
739.888	216.934
744.488	191.785
749.085	342.871
753.68	343.828
758.272	110.797
762.861	175.504
767.448	102.547
772.033	47.6289
776.614	144.5
781.194	547.977
785.77	573.481
790.345	457.883
794.916	414.156
799.485	156.059
804.052	377.109
808.616	463.344
813.177	268.426
817.736	101.504
822.292	258.16
826.846	328.938
831.397	347.844
835.945	270.961
840.491	453.723
845.035	396.481
849.576	236.621
854.114	349.176
858.65	160.906
863.183	328.816
867.713	221.094
872.241	276.992
876.767	200.516
881.29	66.3945
885.81	177.699
890.328	254.809
894.843	218.125
899.356	244.012
903.866	249.387
908.373	112.285
912.878	133.391
917.38	124.316
921.88	89.0664
926.377	253.598
930.872	232.664
935.364	56.6367
939.853	134.684
944.34	54.707
948.824	539.844
953.306	115.891
957.785	77.5859
962.261	459.531
966.735	302.402
971.207	65.4023
975.675	135.074
980.141	12.5859
984.605	223.246
989.066	281.891
993.524	343.531
997.98	400.121
1002.43	308.668
1006.88	167.133
1011.33	429.434
1015.78	671.945
1020.22	635.039
1024.66	408.496
1029.1	137.688
1033.53	177.344
1037.97	217.383
1042.4	570.254
1046.82	1159.51
1051.25	1760.46
1055.67	1053.21
1060.09	605.879
1064.51	391.523
1068.92	295.269
1073.33	334.699
1077.74	174.207
1082.15	21.9883
1086.55	441.516
1090.95	275.344
1095.35	302.875
1099.75	66.4062
1104.14	185.648
1108.53	190.141
1112.92	21.2422
1117.31	177.152
1121.69	471.805
1126.07	215.574
1130.45	56.7734
1134.82	95.8633
1139.19	240.699
1143.57	314.238
1147.93	10.5195
1152.3	396.699
1156.66	128.856
1161.02	82.0625
1165.38	65.7344
1169.73	195.375
1174.08	110.461
1178.43	81.5391
1182.78	70.6875
1187.12	31.918
1191.46	147.356
1195.8	256
1200.14	192.754
1204.47	51.3438
1208.8	18.2461
1213.13	154.984
1217.46	20.0117
1221.78	303.387
1226.1	352.902
1230.42	174.531
1234.73	269.844
1239.04	383.84
1243.35	55.8711
1247.66	179.934
1251.97	170.527
1256.27	337.824
1260.57	322.258
1264.86	104.988
1269.16	127.867
1273.45	141.047
1277.74	203.383
1282.03	640.938
1286.31	258.496
1290.59	620.242
1294.87	330.211
1299.14	441.375
1303.42	585.981
1307.69	632.656
1311.95	321.57
1316.22	215.734
1320.48	484.164
1324.74	224.777
1329	336.57
1333.26	362.644
1337.51	25.6055
1341.76	512.004
1346	647.328
1350.25	320.125
1354.49	229.07
1358.73	408.246
1362.96	141.68
1367.2	94.3477
1371.43	228.641
1375.66	382.371
1379.88	190.434
1384.11	244.625
1388.33	212.672
1392.54	42.5078
1396.76	301.238
1400.97	154.203
1405.18	375.473
1409.39	139.309
1413.59	226.164
1417.8	219.363
1421.99	245.969
1426.19	321.215
1430.38	220.633
1434.58	516.602
1438.77	607.023
1442.95	384.941
1447.13	848.488
1451.32	473.598
1455.49	495.305
1459.67	426.777
1463.84	384.41
1468.01	98.457
1472.18	572.938
1476.35	337.07
1480.51	300.316
1484.67	165.773
1488.83	467.242
1492.98	693.891
1497.13	193.953
1501.28	507.32
1505.43	418.902
1509.57	443.68
1513.71	9.96094
1517.85	295.184
1521.99	1.89062
1526.12	148.164
1530.25	386.394
1534.38	474.469
1538.5	115.332
1542.62	260.297
1546.74	481.629
1550.86	524.008
1554.98	548.828
1559.09	118.617
1563.2	453.938
1567.31	379.652
1571.41	0
