Measurement: Raman, 514 nm, depolarized, Raman Data Processed
Mineral: Talc
Rruff sample: R050087
Ideal chemistry: Mg_3_Si_4_O_10_(OH)_2_
Locality: St. Lawrence County, New York, USA
Source: University of Arizona Mineral Museum
Description: An aggregate of colorless foliated coarse single crystals
Measured chemistry: (Mg_.998_Fe_.002_)_3_(Si_.997_Al_.003_)_4_O_10_(OH_.966_F_.034_)_2_
Pin_id: M00271
Orientation: Laser parallel to (0 -1 -1). Fiducial mark perpendicular to laser is parallel to a [1 0 0]
Raman shift (cm-1)	intensity
100.883	0
105.815	2095.3
110.744	1990.06
115.671	1866.68
120.596	519.291
125.519	180.518
130.439	213.502
135.356	241.756
140.271	249.232
145.184	370.002
150.094	168.943
155.002	296.756
159.908	199.842
164.811	274.094
169.711	422.201
174.61	242.861
179.505	675.012
184.399	1952.75
189.29	4164.48
194.178	12298.2
199.064	3846.22
203.948	907.6
208.829	520.248
213.708	231.803
218.585	289.578
223.459	423.504
228.33	818.74
233.199	349.109
238.066	248.447
242.93	225.856
247.792	126.691
252.651	4.09375
257.508	258.738
262.363	38.5859
267.215	273.803
272.064	177.662
276.912	149.988
281.756	468.728
286.598	1105.56
291.438	1133.47
296.276	391.273
301.111	210.887
305.943	31.2344
310.773	109.232
315.601	177.898
320.426	346.1
325.248	198.818
330.068	490.027
334.886	477.699
339.701	393.256
344.514	457.387
349.324	1059.79
354.132	2257.01
358.938	4467.93
363.741	4792.79
368.541	1987.96
373.339	687.984
378.135	516.418
382.928	273.422
387.718	168.986
392.506	198.365
397.292	153.07
402.075	0.378906
406.856	7.76367
411.634	41.6133
416.41	27.6465
421.183	144.106
425.954	435.844
430.722	1051.66
435.488	976.811
440.251	200.928
445.012	145.678
449.77	355.869
454.526	445.615
459.28	462.857
464.03	768.389
468.779	1208.58
473.525	492.299
478.268	195.002
483.009	178.682
487.747	96.3652
492.483	59.8945
497.217	194.164
501.948	92.3477
506.676	412.42
511.402	10.3867
516.125	22.8203
520.846	197.699
525.565	140.045
530.281	104.238
534.994	210.291
539.705	256.654
544.413	79.1055
549.119	60.9453
553.822	44.5176
558.523	275.596
563.222	24.2812
567.917	371.519
572.611	164.438
577.302	136.332
581.99	52.625
586.676	373.598
591.359	245.144
596.04	241.277
600.718	207.809
605.394	100.387
610.067	499.289
614.737	409.559
619.406	523.906
624.071	781.988
628.734	692.328
633.395	335.473
638.053	587.531
642.708	773.129
647.361	753.898
652.012	1029.86
656.66	1276.55
661.305	1804.44
665.948	3914.78
670.588	8245.64
675.226	13462.2
679.861	10786.6
684.494	4772.39
689.124	2131.77
693.752	1114.29
698.377	701.535
702.999	353.496
707.619	261.164
712.237	178.922
716.852	3.28906
721.464	349.012
726.074	303.297
730.681	52.4883
735.286	160.676
739.888	163.856
744.488	93.1523
749.085	2.5
753.68	39.9727
758.272	240.262
762.861	10.3555
767.448	210.191
772.033	29.3633
776.614	232.996
781.194	454.914
785.77	665.332
790.345	480.93
794.916	775.035
799.485	436.43
804.052	410.871
808.616	238.359
813.177	106.539
817.736	244.496
822.292	481.023
826.846	356.66
831.397	444.434
835.945	141.57
840.491	431.812
845.035	271.742
849.576	439.156
854.114	670.106
858.65	398.394
863.183	697.285
867.713	548.328
872.241	391.148
876.767	154.676
881.29	341.133
885.81	180.856
890.328	260.262
894.843	450.047
899.356	449.672
903.866	35.1406
908.373	261.84
912.878	115.348
917.38	72.582
921.88	263.391
926.377	374.086
930.872	116.672
935.364	247.418
939.853	113.262
944.34	454.641
948.824	410.512
953.306	118.141
957.785	125.746
962.261	282.238
966.735	78.5117
971.207	188.469
975.675	466.477
980.141	207.852
984.605	209.559
989.066	25.75
993.524	92.7734
997.98	379.422
1002.43	619.938
1006.88	274.539
1011.33	483.957
1015.78	696.418
1020.22	873.953
1024.66	616.848
1029.1	347.078
1033.53	155.574
1037.97	82.4766
1042.4	310.758
1046.82	576.91
1051.25	1126
1055.67	928.121
1060.09	462.809
1064.51	194.289
1068.92	419.652
1073.33	637.691
1077.74	357.496
1082.15	468.824
1086.55	444.492
1090.95	214.191
1095.35	417.019
1099.75	340.078
1104.14	365.102
1108.53	216.769
1112.92	371.019
1117.31	103.574
1121.69	219.731
1126.07	357.574
1130.45	368.117
1134.82	163.867
1139.19	51.5547
1143.57	226.285
1147.93	185.102
1152.3	198.012
1156.66	31.0977
1161.02	26.3164
1165.38	140.629
1169.73	429.016
1174.08	104.449
1178.43	162.055
1182.78	281.305
1187.12	196.695
1191.46	22.7344
1195.8	97.9102
1200.14	208.023
1204.47	112.207
1208.8	179.695
1213.13	22.6328
1217.46	10.707
1221.78	7.74609
1226.1	165.422
1230.42	372.863
1234.73	163.543
1239.04	416.215
1243.35	112.547
1247.66	465.676
1251.97	521.492
1256.27	382.606
1260.57	426.031
1264.86	581.824
1269.16	528.68
1273.45	488.004
1277.74	450.594
1282.03	554.441
1286.31	334.644
1290.59	371.856
1294.87	803.371
1299.14	694.777
1303.42	301.723
1307.69	173.297
1311.95	353.156
1316.22	604.297
1320.48	544.68
1324.74	506.844
1329	535.973
1333.26	556.117
1337.51	219.324
1341.76	8.80078
1346	428.418
1350.25	146.449
1354.49	582.039
1358.73	112.934
1362.96	406.742
1367.2	353.242
1371.43	229.969
1375.66	241.676
1379.88	228.969
1384.11	262.547
1388.33	340.781
1392.54	206.609
1396.76	319.418
1400.97	177.324
1405.18	402.559
1409.39	149.887
1413.59	110.906
1417.8	184.129
1421.99	202.394
1426.19	246.707
1430.38	228.445
1434.58	559.828
1438.77	633.066
1442.95	891.859
1447.13	965.996
1451.32	987.723
1455.49	1119.71
1459.67	800.125
1463.84	915.215
1468.01	780.793
1472.18	742.871
1476.35	261.332
1480.51	438.227
1484.67	295.566
1488.83	642.133
1492.98	442.555
1497.13	9.07031
1501.28	255.188
1505.43	309.066
1509.57	172.348
1513.71	293.359
1517.85	319.992
1521.99	103.188
1526.12	362.902
1530.25	361.094
1534.38	176.625
1538.5	63.7812
1542.62	356.688
1546.74	236.426
1550.86	348.391
1554.98	310.184
1559.09	226.481
1563.2	81.5781
1567.31	63.2383
1571.41	0
