Measurement: Raman, 514 nm, depolarized, Raman Data Processed
Mineral: Thomsonite-Ca
Rruff sample: R050103
Ideal chemistry: NaCa_2_(Al_5_Si_5_)O_20_6H_2_O
Locality: Seeberg, Bohemia, Czech Republic
Source: Rock Currier
Description: Colorless prismatic crystals
Measured chemistry: Na_1.00_(Ca_0.92_Sr_0.08_)_2_(Al_5.00_Si_5.00_)O_20_Â·6H_2_O
Pin_id: M00072
Orientation: Laser parallel to a* (1 0 0). Fiducial mark perpendicular to laser is parallel to b [0 1 0]
Raman shift (cm-1)	intensity
93.48	0
98.416	585.268
103.349	1196.25
108.28	3058.64
113.208	5819.33
118.134	7413.92
123.058	2530.19
127.979	622.682
132.898	147.41
137.814	97.1777
142.728	943.426
147.639	2341.9
152.549	3866.19
157.455	4697.75
162.359	5215.4
167.261	5391.62
172.161	7202.89
177.058	8952.41
181.952	7356.59
186.845	4866.46
191.734	4003.72
196.622	3659.75
201.507	2853.08
206.389	2066.25
211.269	1839.49
216.147	2221
221.022	2166.66
225.895	1321.57
230.765	241.969
235.633	181.158
240.498	127.779
245.361	41.0215
250.222	152.766
255.08	78.6699
259.936	13.6035
264.789	351.203
269.64	109.391
274.488	19.1855
279.334	529.074
284.178	916.498
289.019	1481.34
293.857	2100.96
298.693	2713.02
303.527	2522.1
308.358	2044.4
313.187	1532.4
318.013	1432.37
322.837	1650.57
327.659	2017.64
332.478	2320.91
337.294	3010.11
342.108	3190.96
346.92	2857.48
351.729	1912.69
356.535	981.652
361.34	398.342
366.141	202.676
370.94	182.523
375.737	508.744
380.531	299.981
385.323	509.586
390.113	752.207
394.9	688.477
399.684	484.883
404.466	86.2129
409.245	111.65
414.022	312.164
418.797	517.615
423.569	1313.74
428.338	2644.91
433.105	4656.07
437.87	6697.47
442.632	6035.91
447.391	3726.48
452.149	2004.24
456.903	1608.47
461.655	2437.82
466.405	4497.64
471.152	5962.06
475.897	4302.34
480.639	2697.36
485.378	2656.22
490.116	3282.03
494.85	3061.22
499.582	2068.28
504.312	1440.37
509.039	1710.75
513.764	2847.64
518.486	5522.89
523.206	11899.6
527.923	22182.3
532.638	31711.6
537.35	28998.7
542.059	17996.8
546.766	9903.14
551.471	5700.01
556.173	3292.62
560.873	1968.92
565.57	1662.6
570.264	1076.19
574.957	687.508
579.646	654.447
584.333	319.023
589.018	210.252
593.7	26.8672
598.379	282.994
603.056	191.848
607.73	182.789
612.402	81.4062
617.072	93.8848
621.739	169.637
626.403	412.838
631.065	25.8164
635.724	85.4961
640.381	7.2207
645.035	292.795
649.687	84.6894
654.336	195.639
658.983	12.4062
663.627	141.014
668.268	116.731
672.907	141.885
677.544	199.269
682.178	112.641
686.809	331.926
691.438	813.203
696.065	743.281
700.688	790.037
705.31	863.08
709.929	664.414
714.545	943.43
719.158	692.904
723.77	486.252
728.378	582.875
732.984	549.519
737.588	377.881
742.189	278.289
746.787	169.312
751.383	123.484
755.976	6.63672
760.567	411.514
765.155	497.334
769.741	674.703
774.324	692.604
778.904	326.897
783.482	434.293
788.058	58.5508
792.631	159.644
797.201	245.416
801.769	134.139
806.334	136.783
810.897	98.1328
815.457	16.3613
820.014	44.2852
824.569	38.3418
829.122	16.7617
833.671	16.8203
838.219	70.3477
842.763	225.736
847.306	154.352
851.845	118.328
856.382	234.795
860.917	318.711
865.448	121.461
869.978	111.92
874.505	208.315
879.029	64.8125
883.55	87.2305
888.069	70.9922
892.586	227.023
897.1	114.549
901.611	181.496
906.12	132.008
910.626	656.686
915.129	688.859
919.63	1353.42
924.129	1699.38
928.625	1857.69
933.118	2161.25
937.609	1900.52
942.097	1405.96
946.582	1434.64
951.065	1260.77
955.546	1527.28
960.023	1586.68
964.499	1893.08
968.971	1655.35
973.441	2138.16
977.909	2590.7
982.374	3562.57
986.836	4091.6
991.295	3637.72
995.753	3025.01
1000.21	2455.41
1004.66	1762.59
1009.11	1546.69
1013.55	1472.62
1018	1354.05
1022.44	1308.7
1026.88	835.449
1031.32	714.164
1035.75	642.644
1040.18	396.859
1044.61	587.551
1049.04	1203.39
1053.46	1454.04
1057.88	1424.44
1062.3	1948.27
1066.71	2353.52
1071.13	2342.25
1075.54	2039.69
1079.94	2109.4
1084.35	1839.75
1088.75	1373.65
1093.15	621.238
1097.55	588.5
1101.94	508.438
1106.34	111.07
1110.73	146.406
1115.11	348.356
1119.5	315.875
1123.88	176.359
1128.26	163.391
1132.63	98.0469
1137.01	28.5352
1141.38	58.5078
1145.75	55.0117
1150.12	246.113
1154.48	82.543
1158.84	183.41
1163.2	245.812
1167.55	126.617
1171.91	185.863
1176.26	476.945
1180.61	101.699
1184.95	83.1914
1189.29	192.43
1193.63	210.484
1197.97	262.383
1202.31	4.86719
1206.64	72.7383
1210.97	511.223
1215.29	456.609
1219.62	153.906
1223.94	201.129
1228.26	568.285
1232.57	490.391
1236.89	416.773
1241.2	509.918
1245.51	371.996
1249.81	133.316
1254.12	499.981
1258.42	258.09
1262.72	447.586
1267.01	566.348
1271.3	498.106
1275.59	389.594
1279.88	584.527
1284.17	289.988
1288.45	351.07
1292.73	362.769
1297.01	634.168
1301.28	386.672
1305.55	523.777
1309.82	707.523
1314.09	308.242
1318.35	674.074
1322.61	725.316
1326.87	412.852
1331.13	539.578
1335.38	439.641
1339.63	332.184
1343.88	383.09
1348.12	173.398
1352.37	404.121
1356.61	464.277
1360.85	539.883
1365.08	135.961
1369.31	477.527
1373.54	372.781
1377.77	521.473
1381.99	437.125
1386.22	455.769
1390.43	175.168
1394.65	91.707
1398.87	246.445
1403.08	178.918
1407.29	214.324
1411.49	5.17578
1415.69	252.934
1419.89	216.031
1424.09	213.371
1428.29	347.133
1432.48	239.738
1436.67	366.988
1440.86	605.277
1445.04	518.188
1449.23	363.422
1453.4	444.625
1457.58	692.719
1461.76	654.723
1465.93	455.68
1470.1	414.617
1474.26	421.578
1478.43	273.559
1482.59	376.5
1486.75	448.43
1490.9	168.684
1495.06	266.379
1499.21	81.0195
1503.35	83.8281
1507.5	239.449
1511.64	82.2344
1515.78	207.648
1519.92	290.199
1524.05	124.492
1528.18	308.59
1532.31	12.3438
1536.44	211.637
1540.56	202.914
1544.69	89.7344
1548.8	344.184
1552.92	64.7539
1557.03	310.492
1561.14	390.754
1565.25	552.5
1569.36	298.582
