Measurement: Raman, 514 nm, depolarized, Raman Data Processed
Mineral: Thomsonite-Ca
Rruff sample: R050091
Ideal chemistry: NaCa_2_(Al_5_Si_5_)O_20_6H_2_O
Locality: Amudikha River, near Mirny, Yakutia, Siberia, Russia
Source: Rock Currier
Description: Radial groups of colorless bladed crystals
Measured chemistry: (Na_0.94_[box]_0.06_)_Σ=1_(Ca_1.71_Na_0.29_)_Σ=2_(Si_5.35_Al_4.65_)O_20_·7.09H_2_O
Pin_id: L00456
Orientation: Laser parallel to a* (1 0 0). Fiducial mark perpendicular to laser is parallel to b [0 1 0]
Raman shift (cm-1)	intensity
136.199	0
140.355	11.333
144.509	240.011
148.66	864.125
152.81	1892.01
156.958	2368.06
161.105	2480.98
165.249	2387.02
169.391	2454.7
173.531	3273.36
177.669	5180.56
181.806	5506.14
185.94	3625.76
190.073	2274.7
194.204	2137.45
198.332	2034.68
202.459	1695.61
206.584	1502.43
210.707	1446.01
214.828	1371.82
218.947	1617.73
223.064	1685.11
227.179	1292.59
231.293	670.84
235.404	208.441
239.514	181.003
243.621	278.177
247.727	90.692
251.831	30.125
255.933	31.213
260.033	16.218
264.131	142.235
268.227	184.187
272.321	118.751
276.413	124.977
280.504	17.482
284.592	259.873
288.679	579.475
292.764	915.653
296.847	1036.82
300.928	1401.54
305.007	1734
309.084	1630.99
313.159	1125.85
317.233	975.012
321.304	1073.16
325.374	1072.09
329.442	1209.76
333.508	1545.97
337.572	1999.46
341.634	2281.29
345.694	2169.75
349.753	2019.05
353.809	1429.72
357.864	870.624
361.916	528.285
365.967	321.084
370.016	198.568
374.064	258.449
378.109	313.109
382.152	287.773
386.194	345.434
390.233	462.074
394.271	666.415
398.307	644.919
402.341	396.799
406.374	287.919
410.404	267.099
414.433	383.46
418.459	629.021
422.484	819.474
426.507	1056.68
430.528	1785.61
434.547	2945.56
438.565	4390.09
442.58	5004.16
446.594	4120.41
450.606	2900.96
454.616	1923.22
458.624	1361.66
462.631	1453.18
466.635	2250.13
470.638	3941.58
474.639	4163.61
478.638	2786.55
482.635	2010.05
486.63	2017.14
490.624	2309.72
494.615	2607.6
498.605	2206.48
502.593	1632.78
506.579	1241
510.564	1273.16
514.546	1673.96
518.527	2682.14
522.506	4510.08
526.483	7978.27
530.458	14330.7
534.431	22323.3
538.403	23507.4
542.373	16742.1
546.341	10077
550.307	6157.44
554.271	3984.46
558.234	2695.65
562.195	1918
566.154	1375.71
570.111	1082.4
574.066	909.46
578.019	705.147
581.971	500.214
585.921	360.828
589.869	323.178
593.815	269.288
597.76	215.102
601.703	289.37
605.644	281.865
609.583	282.49
613.52	129.206
617.455	29.004
621.389	30.117
625.321	0.823
629.251	12.839
633.18	12.073
637.106	65.704
641.031	72.47
644.954	30.05
648.875	41.263
652.795	35.59
656.712	47.718
660.628	49.678
664.542	32.489
668.455	40.979
672.365	89.248
676.274	83.176
680.181	58.059
684.086	206.274
687.99	284.093
691.891	377.622
695.791	450.486
699.689	475.918
703.586	563.007
707.48	584.081
711.373	583.505
715.264	509.194
719.154	532.694
723.041	463.002
726.927	503.993
730.811	412.838
734.693	357.643
738.574	148.448
742.453	177.18
746.33	193.875
750.205	222.522
754.079	124.111
757.95	147.634
761.82	75.083
765.689	223.458
769.555	359.754
773.42	374.936
777.283	315.489
781.144	249.517
785.004	188.2
788.862	219.765
792.718	66.671
796.572	50.065
800.425	16.308
804.276	18.056
808.125	37.489
811.972	15.222
815.818	18.479
819.662	43.651
823.504	45.592
827.345	20.441
831.183	8.916
835.02	8.646
838.856	9.08
842.689	17.065
846.521	15.724
850.351	25.315
854.18	69.718
858.006	43.935
861.831	0.009
865.655	12.052
869.476	17.724
873.296	74.377
877.114	110.93
880.93	113.361
884.745	73.705
888.558	68.951
892.369	182.106
896.179	172.162
899.987	233.121
903.793	256.009
907.597	266.787
911.4	473.493
915.201	647.106
919.001	845.629
922.798	1084.07
926.594	1243.44
930.388	1330.74
934.181	1286.99
937.972	1312.16
941.761	1344.24
945.548	1294.99
949.334	1146.82
953.118	1071.7
956.901	1135.59
960.681	1354.93
964.46	1544.73
968.238	1572.76
972.013	1697.08
975.787	1817.4
979.56	2027.56
983.33	2502.26
987.099	3105.34
990.866	3332.07
994.632	3024.81
998.396	2406.23
1002.16	1938.83
1005.92	1562.95
1009.68	1480.06
1013.43	1450.09
1017.19	1434.87
1020.94	1315.12
1024.7	1059.91
1028.45	799.121
1032.19	709.608
1035.94	739.087
1039.69	786.953
1043.43	835.603
1047.17	841.439
1050.91	856.321
1054.65	1069.68
1058.39	1330.41
1062.13	1587.31
1065.86	1838.23
1069.59	1943.95
1073.32	1916.41
1077.05	1710.49
1080.78	1531.02
1084.5	1424.7
1088.23	1186.51
1091.95	1011.6
1095.67	817.516
1099.39	655.908
1103.11	452.702
1106.82	305.697
1110.54	264.014
1114.25	219.033
1117.96	214.146
1121.67	182.386
1125.38	123.569
1129.08	114.983
1132.79	76.531
1136.49	35.289
1140.19	33.039
1143.89	12.905
1147.59	178.196
1151.28	114.933
1154.98	93.482
1158.67	58
1162.36	37.919
1166.05	9.286
1169.74	32.822
1173.43	9.822
1177.11	165.483
1180.79	118.551
1184.47	7.309
1188.15	60.408
1191.83	2.468
1195.51	10.877
1199.18	58.611
1202.86	42.195
1206.53	25.411
1210.2	87.696
1213.87	58.306
1217.54	14.708
1221.2	37.779
1224.86	16.481
1228.53	101.717
1232.19	152.653
1235.85	157.735
1239.5	147.665
1243.16	132.417
1246.81	62.976
1250.46	36.916
1254.12	6.427
1257.76	73.871
1261.41	122.375
1265.06	107.772
1268.7	137.425
1272.34	136.138
1275.99	69.229
1279.62	12.378
1283.26	5.62
1286.9	29.985
1290.53	9.754
1294.17	142.707
1297.8	149.268
1301.43	120.716
1305.06	148.945
1308.68	60.661
1312.31	68.474
1315.93	95.247
1319.56	81.411
1323.18	36.851
1326.8	105.157
1330.41	118.395
1334.03	86.819
1337.64	84.632
1341.26	66.255
1344.87	98.751
1348.47	78.574
1352.08	56.684
1355.69	26.798
1359.29	42.702
1362.9	83.856
1366.5	159.371
1370.1	167.879
1373.7	123.629
1377.29	14.971
1380.89	22.233
1384.48	36.89
1388.08	93.129
1391.67	16.411
1395.26	72.863
1398.84	116.165
1402.43	163.177
1406.01	164.622
1409.6	138.675
1413.18	226.02
1416.76	134.673
1420.34	38.311
1423.91	55.397
1427.49	11.012
1431.06	84.67
1434.63	85.361
1438.2	139.451
1441.77	195.254
1445.34	223.826
1448.9	206.989
1452.47	176.598
1456.03	177.574
1459.59	479.596
1463.15	99.17
1466.71	56.98
1470.27	42.557
1473.82	113.608
1477.37	98.283
1480.93	141.954
1484.48	211.566
1488.03	145.016
1491.57	218.317
1495.12	135.322
1498.66	80.346
1502.2	56.51
1505.75	7.594
1509.29	5.497
1512.82	18.132
1516.36	13.825
1519.89	27.273
