Measurement: Raman, 514 nm, depolarized, Raman Data Processed
Mineral: Thomsonite-Ca
Rruff sample: R050091
Ideal chemistry: NaCa_2_(Al_5_Si_5_)O_20_6H_2_O
Locality: Amudikha River, near Mirny, Yakutia, Siberia, Russia
Source: Rock Currier
Description: Radial groups of colorless bladed crystals
Measured chemistry: (Na_0.94_[box]_0.06_)_Σ=1_(Ca_1.71_Na_0.29_)_Σ=2_(Si_5.35_Al_4.65_)O_20_·7.09H_2_O
Pin_id: M00227
Orientation: Laser parallel to c* (0 0 1). Fiducial mark perpendicular to laser is parallel to a [1 0 0]
Raman shift (cm-1)	intensity
68.952	0
73.144	708.046
77.333	2933.43
81.521	4320.61
85.706	4427.48
89.89	3910.39
94.071	4317.74
98.251	5547.42
102.428	6587.11
106.604	7681.36
110.777	10021.2
114.949	11530.7
119.119	10579
123.286	6599.24
127.452	3752.85
131.615	1790.79
135.777	1044.14
139.937	1089.17
144.094	1738.77
148.25	2101.69
152.403	1981.79
156.555	2162.76
160.705	2815.97
164.853	4330.68
168.998	6988.23
173.142	11756.4
177.284	18047.4
181.424	19289.5
185.562	13716
189.698	9087.11
193.831	6790.69
197.963	5204.06
202.093	3714.85
206.221	2908.99
210.347	3333.02
214.472	5121.74
218.594	7950.01
222.714	8994.77
226.832	8055.04
230.948	6642.49
235.063	3188.64
239.175	810.676
243.286	148.665
247.394	304.11
251.501	100.775
255.605	907.044
259.708	1082.37
263.808	256.743
267.907	323.718
272.004	442.763
276.099	516.398
280.192	355.868
284.283	247.646
288.372	230.774
292.459	167.576
296.544	13.935
300.627	171.938
304.709	163.741
308.788	7.361
312.865	70.354
316.941	2.539
321.015	179.84
325.086	389.24
329.156	676.574
333.224	1109.84
337.29	1858.59
341.354	2504.03
345.416	2811.74
349.476	2699.47
353.534	2428.8
357.591	2342.35
361.645	2395.5
365.698	1740.22
369.748	1192.57
373.797	1144.55
377.844	1318.16
381.889	896.412
385.932	582.31
389.973	471.838
394.012	393.92
398.049	461.495
402.084	512.979
406.118	456.989
410.15	610.952
414.179	972.915
418.207	1498.25
422.233	2238.97
426.257	3561.05
430.279	5361.32
434.299	7450.17
438.318	10727.4
442.334	12257.8
446.349	10819.1
450.361	7878.75
454.372	5572.04
458.381	4792.85
462.388	5385.37
466.394	8286.12
470.397	13830.3
474.398	16278.3
478.398	11629.3
482.396	7445.49
486.391	6361.6
490.385	6500.7
494.377	6820.39
498.368	6002.66
502.356	4357.48
506.342	3164.57
510.327	3038.73
514.31	3529.02
518.291	4892.53
522.27	7998.34
526.247	14584.3
530.222	26372.4
534.196	40378.6
538.167	45296.8
542.137	35139.1
546.105	22735.3
550.071	14292
554.035	9202.4
557.998	6204.82
561.958	4417.84
565.917	3300.92
569.874	2507.35
573.829	1997.57
577.782	1527.9
581.733	1055.31
585.683	937.819
589.63	878.692
593.576	721.527
597.52	923.686
601.462	1342.25
605.402	1875.97
609.341	1595.61
613.277	1036.99
617.212	530.064
621.145	438.548
625.076	328.262
629.006	1.625
632.933	3.068
636.859	5.516
640.783	105.387
644.705	56.334
648.625	57.824
652.543	41.488
656.46	20.142
660.375	32.251
664.288	145.14
668.199	160.888
672.108	438.864
676.016	491.694
679.921	613.559
683.825	677.886
687.727	979.922
691.628	1191.48
695.526	1468.76
699.423	1619.66
703.318	1684.68
707.211	1535.55
711.102	1317.56
714.992	1440.79
718.879	1261.03
722.765	1201.45
726.649	1109.97
730.532	820.528
734.412	691.101
738.291	439.688
742.168	415.287
746.043	247.89
749.916	135.484
753.788	128.051
757.658	116.568
761.526	38.017
765.392	118.378
769.257	415.642
773.119	600.793
776.98	437.822
780.839	389.722
784.697	123.434
788.552	134.02
792.406	110.309
796.258	13.193
800.108	73.553
803.957	60.686
807.804	181.583
811.649	137.865
815.492	133.895
819.333	7.681
823.173	70.161
827.011	78.217
830.847	33.068
834.681	27.644
838.514	38.171
842.345	102.573
846.174	20.834
850.001	69.921
853.827	227.799
857.651	241.468
861.473	222.956
865.293	195.244
869.112	353.374
872.928	246.275
876.744	579.943
880.557	462.391
884.369	492.659
888.178	548.713
891.987	592.553
895.793	761.168
899.598	879.547
903.401	951.697
907.202	1268.61
911.001	2003.29
914.799	2509.7
918.595	2983.9
922.389	3283.86
926.182	3806.59
929.972	4153.08
933.761	4435.34
937.549	4562.36
941.334	4111.15
945.118	3956.66
948.9	3816.22
952.681	3729.77
956.459	3684.6
960.236	3765.53
964.012	3836.81
967.785	3817.14
971.557	3861.24
975.327	4263.72
979.095	4680.32
982.862	5287.4
986.627	5645.95
990.39	5801.69
994.152	5490.08
997.912	4765.3
1001.67	3974
1005.43	3454.68
1009.18	2958.52
1012.93	2624.24
1016.68	2498.96
1020.43	2215.57
1024.18	1779.47
1027.93	1301.51
1031.67	1060.67
1035.42	905.33
1039.16	933.322
1042.9	1023.65
1046.63	1075.72
1050.37	1007.93
1054.11	1405.34
1057.84	1426.69
1061.57	1747.56
1065.3	1844.41
1069.03	2001.79
1072.75	2063.37
1076.47	2157.66
1080.2	2179.25
1083.92	2187.46
1087.64	1904.88
1091.36	1501.76
1095.07	1155.6
1098.79	1080.43
1102.5	747.297
1106.21	568.348
1109.92	486.452
1113.62	353.407
1117.33	238.597
1121.04	237.292
1124.74	262.757
1128.44	74.61
1132.14	133.563
1135.83	34.649
1139.53	117.247
1143.22	41.411
1146.92	81.146
1150.61	94.739
1154.3	6.694
1157.98	57.731
1161.67	35.639
1165.35	2.384
1169.04	118.686
1172.72	111.074
1176.4	16.541
1180.07	66.075
1183.75	107.496
1187.42	33.019
1191.1	8.78
1194.77	69.531
1198.44	3.835
1202.1	131.49
1205.77	62.659
1209.43	123.281
1213.1	54.64
1216.76	45.562
1220.42	86.029
1224.07	55.896
1227.73	92.738
1231.38	149.443
1235.04	80.604
1238.69	72.305
1242.34	79.786
1245.99	153.782
1249.63	79.891
1253.28	128.268
1256.92	80.881
1260.56	88.706
1264.2	57.612
1267.84	42.793
1271.48	114.594
1275.11	45.211
1278.74	119.829
1282.38	24.399
1286.01	49.194
1289.63	105.961
1293.26	154.427
1296.89	142.709
1300.51	33.784
1304.13	10.332
1307.75	38.008
1311.37	72.108
1314.99	64.87
1318.6	38.454
1322.22	3.644
1325.83	9.507
1329.44	78.664
1333.05	48.14
1336.66	60.709
1340.26	70.532
1343.87	52.919
1347.47	1.155
1351.07	30.812
1354.67	22.492
1358.27	3.436
1361.86	52.18
1365.46	87.858
1369.05	112.752
1372.64	94.062
1376.23	78.918
1379.82	86.205
1383.41	70.802
1386.99	108.178
1390.57	90.854
1394.16	45.682
1397.74	44.746
1401.32	138.769
1404.89	203.564
1408.47	199.466
1412.04	269.304
1415.61	119.018
1419.18	162.812
1422.75	23.37
1426.32	129.052
1429.89	225.915
1433.45	158.517
1437.01	250.172
1440.58	339.405
1444.13	352.908
1447.69	363.822
1451.25	495.827
1454.81	420.942
1458.36	359.926
1461.91	367.116
1465.46	315.389
1469.01	301.461
1472.56	218.593
1476.1	261.157
1479.64	251.007
1483.19	310.637
1486.73	173.474
1490.27	221.844
1493.81	123.434
1497.34	179.576
1500.88	95.042
1504.41	95.171
1507.94	116.104
1511.47	14.543
1515	64.938
1518.53	201.588
1522.05	0.433
