Measurement: Raman, 514 nm, depolarized, Raman Data Processed
Mineral: Thomsonite-Ca
Rruff sample: R050103
Ideal chemistry: NaCa_2_(Al_5_Si_5_)O_20_6H_2_O
Locality: Seeberg, Bohemia, Czech Republic
Source: Rock Currier
Description: Colorless prismatic crystals
Measured chemistry: Na_1.00_(Ca_0.92_Sr_0.08_)_2_(Al_5.00_Si_5.00_)O_20_Â·6H_2_O
Pin_id: L00148
Orientation: Laser parallel to -b* (0 -1 0). Fiducial mark perpendicular to laser is parallel to -c [0 0 -1]
Raman shift (cm-1)	intensity
120.508	0
124.675	475.018
128.84	592.64
133.003	270.813
137.164	35.674
141.323	46.479
145.48	334.659
149.635	821.445
153.788	1569.81
157.939	2506.59
162.088	2858.24
166.235	3763.78
170.38	4714.59
174.523	6423.24
178.664	9203.3
182.803	9339.89
186.94	6378.57
191.076	3898.89
195.209	3025.04
199.34	2772.52
203.47	2012.35
207.597	1465.99
211.722	1525.6
215.846	2227.4
219.967	3280.01
224.087	3043.15
228.204	1886.57
232.32	1000.07
236.434	312.464
240.545	26.553
244.655	36.248
248.763	68.312
252.869	301.443
256.973	776.27
261.075	1080.86
265.175	683.858
269.273	233.519
273.369	76.3
277.463	156.265
281.556	43.489
285.646	225.2
289.734	20.506
293.821	181.598
297.905	459.086
301.988	879.547
306.069	1372.8
310.147	1716.4
314.224	1438.9
318.299	1310.24
322.372	1630.33
326.443	1759.18
330.512	1776.68
334.579	2102.94
338.645	2568.14
342.708	3022.35
346.769	2545.04
350.829	2045.48
354.887	1745.2
358.942	1414.54
362.996	1262.42
367.048	1057.82
371.098	511.58
375.146	504.872
379.192	617.99
383.236	590.94
387.279	643.715
391.319	656.31
395.358	448.72
399.394	127.058
403.429	62.304
407.462	30.493
411.493	5.794
415.522	104.255
419.549	393.72
423.575	774.551
427.598	1324.92
431.619	1990.05
435.639	3235.78
439.657	5029.95
443.673	5863.71
447.687	4874.63
451.699	3018.43
455.709	2046.22
459.717	1590.71
463.724	1649.28
467.728	2357.74
471.731	4145.93
475.732	4693.95
479.731	3122.4
483.728	2100.99
487.723	1768.23
491.716	1925.4
495.708	1962.37
499.697	1619.21
503.685	1367.32
507.671	1397.82
511.655	1466.62
515.637	2215.31
519.617	3114.17
523.596	5126.49
527.572	9295.23
531.547	16882
535.52	25537.8
539.491	25274.3
543.46	18171
547.427	11707.7
551.393	6974.36
555.356	4710.35
559.318	3133.84
563.278	2304.94
567.236	1775.08
571.192	1505.68
575.147	1078.11
579.099	753.173
583.05	650.778
586.999	546.604
590.946	444.229
594.891	393.763
598.834	312.054
602.776	630.868
606.715	770.207
610.653	599.986
614.589	299.959
618.523	310.037
622.456	260.318
626.386	180.545
630.315	160.564
634.242	100.575
638.167	140.808
642.09	140.956
646.012	51.006
649.931	93.008
653.849	143.494
657.765	74.479
661.679	16.262
665.592	91.438
669.502	104.823
673.411	47.762
677.318	117.803
681.223	123.142
685.126	45.596
689.028	129.339
692.927	248.101
696.825	506.055
700.721	483.904
704.616	413.277
708.508	570.883
712.399	538.444
716.288	925.983
720.175	693.54
724.06	731.203
727.944	629.077
731.825	416.713
735.705	474.453
739.584	532.197
743.46	439.698
747.334	407.414
751.207	524.789
755.078	452.095
758.947	399.323
762.815	316.466
766.68	263.517
770.544	140.473
774.406	117.326
778.267	244.076
782.125	340.721
785.982	187.265
789.837	93.615
793.69	109.19
797.542	174.28
801.391	100.276
805.239	146.273
809.085	132.043
812.93	127.604
816.772	120.742
820.613	88.11
824.452	139.515
828.29	104.82
832.125	80.588
835.959	82.498
839.791	68.496
843.621	181.634
847.45	124.396
851.277	197.528
855.102	19.369
858.925	303.642
862.746	416.601
866.566	339.532
870.384	322.466
874.2	55.421
878.015	68.405
881.828	141.341
885.639	104.223
889.448	167.151
893.256	140.02
897.061	2.938
900.865	175.867
904.668	188.762
908.468	331.609
912.267	414.41
916.064	407.162
919.86	359.865
923.653	502.486
927.445	654.966
931.236	1007.44
935.024	1099.79
938.811	1202.31
942.596	1353.89
946.379	1576.85
950.161	1469.27
953.94	1631.35
957.719	1751.85
961.495	2093.58
965.27	1984.81
969.043	2077.78
972.814	2294.87
976.583	2440.15
980.351	2724.83
984.117	3215.05
987.882	3661.08
991.644	3810.99
995.405	3392.57
999.165	2887.34
1002.92	2586.79
1006.68	1931.06
1010.43	1704.6
1014.18	1438.44
1017.93	1537.47
1021.68	1382.2
1025.43	1306.94
1029.18	1110.95
1032.92	984.946
1036.66	656.282
1040.4	689.501
1044.14	668.646
1047.88	918.68
1051.62	1304.53
1055.35	1398.12
1059.08	1611.71
1062.81	1745.27
1066.54	1728.68
1070.27	2212.14
1073.99	2195.5
1077.72	2128.84
1081.44	1962.78
1085.16	1587.87
1088.88	1111.27
1092.59	1154.71
1096.31	748.199
1100.02	641.723
1103.73	695.217
1107.44	568.586
1111.15	491.877
1114.86	305.184
1118.57	258.732
1122.27	182.33
1125.97	225.635
1129.67	348.881
1133.37	342.197
1137.07	295.301
1140.76	179.312
1144.45	32.992
1148.15	119.949
1151.84	153.143
1155.53	197.309
1159.21	130.586
1162.9	283.227
1166.58	75.701
1170.26	41.949
1173.94	50.221
1177.62	32.273
1181.3	183.986
1184.97	185.523
1188.65	206.939
1192.32	179.51
1195.99	7.393
1199.66	163.713
1203.33	64.457
1206.99	64.145
1210.65	193.588
1214.32	205.455
1217.98	260.1
1221.64	364.754
1225.29	49.408
1228.95	4.1
1232.6	338.826
1236.26	203.598
1239.91	228.412
1243.56	513
1247.2	457.494
1250.85	409.004
1254.49	368.613
1258.13	330.336
1261.78	224.645
1265.41	67.67
1269.05	277.639
1272.69	486.291
1276.32	584.736
1279.95	620.043
1283.59	399.076
1287.21	218.299
1290.84	217.479
1294.47	80.877
1298.09	1.498
1301.72	155.053
1305.34	211.229
1308.96	187.42
1312.58	482.066
1316.19	569.398
1319.81	497.85
1323.42	363.633
1327.03	339.229
1330.64	94.846
1334.25	9.254
1337.86	122.703
1341.46	266.41
1345.07	372.15
1348.67	386.35
1352.27	243.951
1355.87	0
