Measurement: Raman, 514 nm, depolarized, Raman Data Processed
Mineral: Thomsonite-Ca
Rruff sample: R050091
Ideal chemistry: NaCa_2_(Al_5_Si_5_)O_20_6H_2_O
Locality: Amudikha River, near Mirny, Yakutia, Siberia, Russia
Source: Rock Currier
Description: Radial groups of colorless bladed crystals
Measured chemistry: (Na_0.94_[box]_0.06_)_Σ=1_(Ca_1.71_Na_0.29_)_Σ=2_(Si_5.35_Al_4.65_)O_20_·7.09H_2_O
Pin_id: L00326
Orientation: Laser parallel to b* (0 1 0). Fiducial mark perpendicular to laser is parallel to c [0 0 1]
Raman shift (cm-1)	intensity
52.937	0
57.132	211.681
61.325	65.158
65.515	162.536
69.704	341.806
73.891	379.934
78.076	222.634
82.26	67.998
86.441	97.887
90.62	8.791
94.797	218.44
98.973	555.26
103.146	844.604
107.318	1169.44
111.487	1713.25
115.655	2827.2
119.821	3036.22
123.984	2503.69
128.146	2409.66
132.306	1932.94
136.464	1722.48
140.62	1853.87
144.774	2263.87
148.927	2934.93
153.077	3805.88
157.226	4256.69
161.372	4757.81
165.517	5684.35
169.659	6677.09
173.8	8699.26
177.939	11043.5
182.076	10444.1
186.211	6974.04
190.344	4699.12
194.475	3779.29
198.605	3263.42
202.732	2169.52
206.858	1454.65
210.981	1439.84
215.103	2176.08
219.223	3212.29
223.341	2999.83
227.457	1811.39
231.571	1079.73
235.684	303.391
239.794	43.489
243.902	96.059
248.009	48.225
252.114	254.891
256.217	848.557
260.318	1047.85
264.417	592.882
268.514	148.028
272.609	106.183
276.703	170.145
280.794	90.13
284.884	34.964
288.972	56.628
293.058	247.926
297.142	613.122
301.224	1024.36
305.304	1490.73
309.383	1651.17
313.46	1413.68
317.534	1448.67
321.607	1593.62
325.678	1700.79
329.747	1815.2
333.815	2171.16
337.88	2904.71
341.944	3255.65
346.005	2707.26
350.065	2080.58
354.123	1739.57
358.179	1542.2
362.234	1429.45
366.286	1058.34
370.337	673.881
374.386	784.059
378.432	824.875
382.478	808.287
386.521	885.832
390.562	852.526
394.602	615.297
398.639	460.072
402.675	305.799
406.709	233.271
410.742	201.446
414.772	358.711
418.8	684.685
422.827	1063.2
426.852	1671.28
430.875	2319.91
434.896	3603.32
438.916	5253.66
442.933	6149.56
446.949	5220.22
450.963	3889.35
454.975	2635.16
458.985	2048.24
462.994	2014.83
467	2964.09
471.005	4847.15
475.008	5054.58
479.009	3380.76
483.009	2347.28
487.006	2034.36
491.002	2161.83
494.996	2247.47
498.988	1938.44
502.978	1557.02
506.967	1547.46
510.953	1812.52
514.938	2317.15
518.921	3600.36
522.903	5924.28
526.882	10401.2
530.86	18494.8
534.836	27088.4
538.81	27033.3
542.782	19268.4
546.753	11973.3
550.721	7578.42
554.688	4702.74
558.653	3294.93
562.617	2447.57
566.578	1766.6
570.538	1371.43
574.496	1109.49
578.452	851.996
582.407	637.181
586.359	478.427
590.31	402.812
594.259	324.536
598.206	502.98
602.152	692.206
606.096	867.052
610.038	751.364
613.978	429.932
617.916	254.672
621.853	179.504
625.788	79.389
629.721	54.321
633.652	39.29
637.582	16.281
641.51	17.727
645.436	28.743
649.36	56.485
653.282	72.189
657.203	48.484
661.122	58.719
665.039	69.49
668.955	27.194
672.869	55.247
676.781	93.856
680.691	143.682
684.599	212.746
688.506	286.884
692.411	411.346
696.314	557.241
700.216	677.091
704.115	683.276
708.013	687.541
711.91	740.381
715.804	767.708
719.697	770.956
723.588	847.928
727.477	782.102
731.365	794.525
735.25	745.911
739.134	657.044
743.017	670.062
746.897	668.98
750.776	669.828
754.653	618.598
758.529	609.276
762.402	542.852
766.274	504.896
770.144	377.27
774.013	455.191
777.88	333.725
781.745	248.028
785.608	260.803
789.47	225.851
793.329	213.782
797.188	173.654
801.044	117.802
804.899	79.554
808.752	41.254
812.603	41.085
816.452	37.606
820.3	23.887
824.146	48.377
827.991	37.1
831.834	4.125
835.675	67.676
839.514	33.856
843.352	38.485
847.187	5.236
851.022	13.64
854.854	50.274
858.685	27.707
862.514	33.963
866.341	56.04
870.167	21.988
873.991	37.792
877.813	13.444
881.634	42.923
885.453	91.271
889.27	78.502
893.086	98.625
896.9	130.635
900.712	112.535
904.522	174.33
908.331	199.015
912.138	278.591
915.944	343.068
919.747	468.442
923.549	572.709
927.35	732.885
931.148	837.96
934.945	1030.95
938.741	1143.86
942.534	1312.68
946.326	1424.43
950.117	1518.12
953.905	1705.65
957.692	1744.78
961.478	2048.59
965.261	2372.29
969.043	2403.73
972.823	2470.29
976.602	2678.04
980.379	2956.05
984.154	3377.56
987.928	3809.15
991.7	3939.71
995.47	3714.91
999.239	3331.12
1003.01	2729.85
1006.77	2301.31
1010.53	1996.51
1014.3	1752.99
1018.06	1586.11
1021.82	1428.07
1025.57	1126.84
1029.33	902.11
1033.08	723.337
1036.83	724.964
1040.59	725.881
1044.33	766.871
1048.08	869.607
1051.83	973.227
1055.57	1190.23
1059.31	1418.08
1063.05	1784.58
1066.79	2077.82
1070.53	2207.66
1074.27	2252.15
1078	2051.31
1081.73	1805.25
1085.46	1550.95
1089.19	1253.41
1092.92	1088.4
1096.64	936.402
1100.37	815.461
1104.09	643.734
1107.81	518.824
1111.53	390.954
1115.25	304.271
1118.97	254.732
1122.68	238.078
1126.39	187.572
1130.1	144.187
1133.81	105.448
1137.52	55.582
1141.23	50.721
1144.93	32.832
1148.64	30.555
1152.34	48.591
1156.04	57.704
1159.74	31.383
1163.43	46.989
1167.13	1.75
1170.82	23.794
1174.51	17.303
1178.2	19.548
1181.89	27.605
1185.58	16.299
1189.26	34.221
1192.95	18.711
1196.63	3.43
1200.31	8.015
1203.99	1.24
1207.67	8.381
1211.34	9.464
1215.02	28.821
1218.69	19.759
1222.36	7.419
1226.03	8.774
1229.7	31.983
1233.36	10.242
1237.03	30.341
1240.69	31.079
1244.35	69.634
1248.01	55.348
1251.67	4.823
1255.33	5.273
1258.98	9.767
1262.64	0.223
1266.29	45.685
1269.94	26.916
1273.59	28.117
1277.23	10.172
1280.88	2.039
1284.53	6.845
1288.17	17.835
1291.81	0.279
1295.45	0.851
1299.09	12.525
1302.72	19.446
1306.36	23.605
1309.99	31.181
1313.62	34.619
1317.25	22.563
1320.88	23.113
1324.51	2.723
1328.13	26.463
1331.75	4.841
1335.38	27.799
1339	52.505
1342.62	38.394
1346.23	30.36
1349.85	29.027
1353.46	52.614
1357.08	23.163
1360.69	38.398
1364.3	74.188
1367.9	82.421
1371.51	14.511
1375.12	50.603
1378.72	61.132
1382.32	84.223
1385.92	69.377
1389.52	29.076
1393.12	73.78
1396.71	87.82
1400.31	44.232
1403.9	69.58
1407.49	45.921
1411.08	102.504
1414.67	60.705
1418.25	104.202
1421.84	55.034
1425.42	65.063
1429	72.068
1432.58	18.808
1436.16	10.266
1439.74	8.129
1443.32	3.991
1446.89	34.616
1450.46	29.48
1454.03	60.805
1457.6	57.667
1461.17	92.154
1464.74	78.488
1468.3	8.073
1471.87	18.997
1475.43	20.142
1478.99	12.814
1482.55	19.37
1486.1	39.218
1489.66	55.566
1493.21	53.008
1496.77	38.378
1500.32	73.893
1503.87	66.009
1507.41	40.295
1510.96	63.31
1514.51	21.53
1518.05	19.138
1521.59	1.125
1525.13	0
