Measurement: Raman, 514 nm, depolarized, Raman Data Processed
Mineral: Thomsonite-Ca
Rruff sample: R050103
Ideal chemistry: NaCa_2_(Al_5_Si_5_)O_20_6H_2_O
Locality: Seeberg, Bohemia, Czech Republic
Source: Rock Currier
Description: Colorless prismatic crystals
Measured chemistry: Na_1.00_(Ca_0.92_Sr_0.08_)_2_(Al_5.00_Si_5.00_)O_20_Â·6H_2_O
Pin_id: L00246
Orientation: Laser parallel to c* (0 0 1). Fiducial mark perpendicular to laser is parallel to -a [-1 0 0]
Raman shift (cm-1)	intensity
93.48	0
98.416	1539.72
103.349	3735.18
108.28	6178.27
113.208	9694.83
118.134	9637.28
123.058	6044.9
127.979	2737.2
132.898	296.01
137.814	223.627
142.728	166.815
147.639	869.279
152.549	886.269
157.455	750.708
162.359	1927.64
167.261	4225.08
172.161	9075.59
177.058	17723.8
181.952	19183
186.845	11061.7
191.734	6641.07
196.622	5623.05
201.507	3838.93
206.389	2533.91
211.269	3540.02
216.147	6424.19
221.022	9666
225.895	8246.52
230.765	7568.75
235.633	2540.84
240.498	266.431
245.361	319.317
250.222	144.991
255.08	1170.52
259.936	1591.56
264.789	242.31
269.64	3.29492
274.488	119.023
279.334	138.711
284.178	82.8428
289.019	60.9199
293.857	93.4023
298.693	430.034
303.527	453.562
308.358	175.392
313.187	170.56
318.013	77.9336
322.837	377.225
327.659	808.077
332.478	1056.42
337.294	1791.03
342.108	2733.51
346.92	2678.34
351.729	2484.14
356.535	2346.28
361.34	2449.87
366.141	1912.07
370.94	1082.97
375.737	1338.6
380.531	1001.1
385.323	541.612
390.113	120.559
394.9	112.456
399.684	11.2588
404.466	13.1123
409.245	61.1465
414.022	434.927
418.797	693.365
423.569	1780.03
428.338	3775.82
433.105	5976.88
437.87	9781.11
442.632	10929
447.391	7519.75
452.149	4486.79
456.903	3560.3
461.655	4245.28
466.405	7970.25
471.152	15007.1
475.897	13473.6
480.639	7049.33
485.378	5467.91
490.116	5682.46
494.85	6129.76
499.582	4385.2
504.312	2572.28
509.039	2180.14
513.764	2786.67
518.486	4879.77
523.206	9375.01
527.923	20139
532.638	37806.5
537.35	43303.8
542.059	29115.3
546.766	16457
551.471	9368.59
556.173	5471.24
560.873	3560.89
565.57	2539.53
570.264	1758.19
574.957	1499.5
579.646	980.686
584.333	761.287
589.018	460.897
593.7	481.578
598.379	856.732
603.056	1605.5
607.73	1454.65
612.402	550.857
617.072	394.004
621.739	287.363
626.403	8.25977
631.065	53.002
635.724	113.549
640.381	129.109
645.035	40.0938
649.687	20.707
654.336	34.627
658.983	32.7598
663.627	21.7109
668.268	170.133
672.907	341.727
677.544	360.164
682.178	437.326
686.809	719.693
691.438	1207.07
696.065	1398.96
700.688	1702.57
705.31	1443.04
709.929	1370.38
714.545	1402.95
719.158	1438.33
723.77	1150.34
728.378	1161.98
732.984	792.271
737.588	475.625
742.189	298.588
746.787	347.973
751.383	314.568
755.976	329.658
760.567	304.453
765.155	416.31
769.741	608.158
774.324	810.231
778.904	611.797
783.482	206.1
788.058	86.3242
792.631	111.934
797.201	121.012
801.769	171.627
806.334	96.832
810.897	24.877
815.457	61.1895
820.014	88.3984
824.569	10.25
829.122	87.9883
833.671	79
838.219	43.2695
842.763	118.582
847.306	72.293
851.845	137.164
856.382	281.412
860.917	227.361
865.448	314.025
869.978	1.33789
874.505	237.238
879.029	114.982
883.55	217.344
888.069	125.518
892.586	446.672
897.1	555.287
901.611	791.852
906.12	981.949
910.626	1542.61
915.129	2156.05
919.63	2692.3
924.129	3121.46
928.625	3849.2
933.118	4309.69
937.609	4442.05
942.097	3854.45
946.582	3516.78
951.065	3511.76
955.546	3294.85
960.023	3127.94
964.499	3199.94
968.971	3207.37
973.441	3495.31
977.909	3968.93
982.374	4999.99
986.836	5314.07
991.295	5036.99
995.753	4157.57
1000.21	3327.97
1004.66	2517.18
1009.11	2162.19
1013.55	2013.62
1018	1721.53
1022.44	1336.28
1026.88	1119.62
1031.32	628.844
1035.75	558.508
1040.18	519.805
1044.61	747.918
1049.04	852.041
1053.46	1185.39
1057.88	1085.82
1062.3	1576.18
1066.71	1732.79
1071.13	1687.51
1075.54	1858.95
1079.94	1958.37
1084.35	1569.03
1088.75	1458.21
1093.15	927.676
1097.55	791.398
1101.94	517.857
1106.34	388.266
1110.73	238.207
1115.11	553.82
1119.5	955.186
1123.88	986.092
1128.26	254.457
1132.63	179.197
1137.01	135.336
1141.38	82.5606
1145.75	20.0859
1150.12	192.519
1154.48	33.0566
1158.84	51.4941
1163.2	6.99023
1167.55	19.3457
1171.91	56.2754
1176.26	43.082
1180.61	41.2188
1184.95	165.486
1189.29	37.6406
1193.63	37.5547
1197.97	19.873
1202.31	126.857
1206.64	64.9746
1210.97	127.498
1215.29	14.7207
1219.62	263.266
1223.94	283.375
1228.26	197.053
1232.57	333.316
1236.89	306.164
1241.2	310.518
1245.51	299.562
1249.81	393.221
1254.12	379.502
1258.42	311.299
1262.72	398.377
1267.01	326.18
1271.3	417.611
1275.59	278.957
1279.88	409.18
1284.17	212.56
1288.45	518.439
1292.73	294.988
1297.01	225.438
1301.28	331.346
1305.55	585.537
1309.82	237.402
1314.09	272.856
1318.35	494.275
1322.61	275.66
1326.87	380.867
1331.13	247.838
1335.38	241.383
1339.63	605.106
1343.88	436.56
1348.12	456.764
1352.37	332.248
1356.61	204.961
1360.85	423.797
1365.08	332.598
1369.31	238.752
1373.54	358.078
1377.77	341.619
1381.99	180.369
1386.22	235.346
1390.43	139.631
1394.65	191.289
1398.87	180.523
1403.08	228.967
1407.29	183.406
1411.49	298.357
1415.69	73.9473
1419.89	114.465
1424.09	259.629
1428.29	228.607
1432.48	418.463
1436.67	379.617
1440.86	499.75
1445.04	333.668
1449.23	619.404
1453.4	317.799
1457.58	513.764
1461.76	430.541
1465.93	237.871
1470.1	362.803
1474.26	364.377
1478.43	140.633
1482.59	277.623
1486.75	183.367
1490.9	328.875
1495.06	65.1191
1499.21	158.736
1503.35	322.84
1507.5	275.205
1511.64	212.322
1515.78	140.764
1519.92	100.787
1524.05	170.973
1528.18	131.06
1532.31	12.6094
1536.44	199.779
1540.56	199.955
1544.69	60.6465
1548.8	298.385
1552.92	453.971
1557.03	33.6348
1561.14	244.744
1565.25	100.195
1569.36	6494.57
