Measurement: Raman, 514 nm, depolarized, Raman Data Processed
Mineral: Tilleyite
Rruff sample: R050227
Ideal chemistry: Ca_5_Si_2_O_7_(CO_3_)_2_
Locality: Crestmore Quarry, Riverside County, California, USA
Source: Marcus Origlieri
Description: Aggregate of colorless subhedral crystals
Pin_id: L00359
Orientation: Laser parallel to (1 0 1). Fiducial mark perpendicular to laser is parallel to b [0 1 0]
Raman shift (cm-1)	intensity
95.948	0
100.883	216.06
105.815	904.832
110.744	2393.73
115.671	1717.59
120.596	1980.48
125.519	1863.31
130.439	1003.69
135.356	1121.74
140.271	1775.98
145.184	2305.9
150.094	1925.44
155.002	2130.44
159.908	2429.1
164.811	822.446
169.711	92.8926
174.61	265.89
179.505	574.46
184.399	330.083
189.29	449.958
194.178	989.038
199.064	1232.39
203.948	613.535
208.829	15.2646
213.708	199.394
218.585	166.039
223.459	151.399
228.33	325.744
233.199	322.443
238.066	398.968
242.93	236.774
247.792	426.941
252.651	917.338
257.508	1364.93
262.363	1905.3
267.215	1353.74
272.064	1369.26
276.912	1669.14
281.756	2330.53
286.598	2659.76
291.438	2594.67
296.276	2694.52
301.111	4302.82
305.943	3810.13
310.773	1924.26
315.601	1641.24
320.426	1388.41
325.248	861.23
330.068	510.737
334.886	440.04
339.701	611.061
344.514	865.033
349.324	1547.54
354.132	2326.79
358.938	1754.3
363.741	1071.97
368.541	904.162
373.339	617.975
378.135	266.451
382.928	98.5918
387.718	47.3945
392.506	440.035
397.292	399.522
402.075	382.769
406.856	149.742
411.634	134.381
416.41	60.6016
421.183	267.338
425.954	149.141
430.722	87.5195
435.488	13.3047
440.251	100.254
445.012	112.199
449.77	36.5566
454.526	120.18
459.28	149.109
464.03	14.5742
468.779	49.1426
473.525	77.2617
478.268	311.615
483.009	306.918
487.747	333.748
492.483	260.453
497.217	388.637
501.948	246.592
506.676	641.314
511.402	485.717
516.125	474.691
520.846	569.389
525.565	761.58
530.281	833.465
534.994	676.594
539.705	717.318
544.413	709.299
549.119	855.578
553.822	481.639
558.523	556.424
563.222	386.594
567.917	467.527
572.611	262.18
577.302	106.098
581.99	146.994
586.676	209.512
591.359	96.6289
596.04	263.025
600.718	112.797
605.394	108.736
610.067	182.723
614.737	64.7559
619.406	285.742
624.071	86.8223
628.734	318.17
633.395	521.877
638.053	1367.72
642.708	3264.14
647.361	5194.11
652.012	3035.78
656.66	1065.92
661.305	830.387
665.948	404.398
670.588	391.59
675.226	432.82
679.861	302.135
684.494	256.477
689.124	233.588
693.752	614.303
698.377	796.373
702.999	766.635
707.619	411.551
712.237	505.25
716.852	924.586
721.464	641.481
726.074	357.678
730.681	256.99
735.286	108.904
739.888	284.092
744.488	130.92
749.085	387.492
753.68	255.891
758.272	210.326
762.861	96.5859
767.448	55.4336
772.033	10.7891
776.614	18.4922
781.194	48.3633
785.77	44.4902
790.345	71.9434
794.916	66.2051
799.485	137.615
804.052	117.041
808.616	121.99
813.177	155.217
817.736	245.055
822.292	223.635
826.846	373.065
831.397	413.277
835.945	510.289
840.491	644.111
845.035	315.777
849.576	201.295
854.114	493.693
858.65	304
863.183	243.246
867.713	415.049
872.241	183.551
876.767	5.92188
881.29	216.481
885.81	181.273
890.328	537.424
894.843	1221.16
899.356	2970.18
903.866	9094.87
908.373	17478.5
912.878	5302.48
917.38	1563.97
921.88	971.947
926.377	798.697
930.872	1073.63
935.364	632.434
939.853	292.963
944.34	254.672
948.824	822.523
953.306	928.426
957.785	481.85
962.261	226.045
966.735	184.207
971.207	165.643
975.675	270.191
980.141	660.861
984.605	653.666
989.066	220.602
993.524	398.666
997.98	208.84
1002.43	981.234
1006.88	1053.23
1011.33	1359.05
1015.78	982.346
1020.22	214.926
1024.66	176.809
1029.1	359.098
1033.53	531.59
1037.97	242.143
1042.4	311.875
1046.82	87.8809
1051.25	68.9414
1055.67	82.5879
1060.09	248.035
1064.51	332.969
1068.92	504.58
1073.33	1622.31
1077.74	7939.29
1082.15	15556.8
1086.55	3962.16
1090.95	9597.59
1095.35	18477.1
1099.75	1909.67
1104.14	315.32
1108.53	310.041
1112.92	443.85
1117.31	377.326
1121.69	817.268
1126.07	506.471
1130.45	203.803
1134.82	127.262
1139.19	54.7422
1143.57	141.135
1147.93	115.738
1152.3	10.1016
1156.66	81.543
1161.02	223.844
1165.38	238.062
1169.73	58.1836
1174.08	131.371
1178.43	43.9336
1182.78	264.418
1187.12	99.8516
1191.46	136.078
1195.8	216.152
1200.14	98.1719
1204.47	226.152
1208.8	376.098
1213.13	195.965
1217.46	66.7578
1221.78	402.5
1226.1	300.324
1230.42	678.176
1234.73	182.023
1239.04	622.879
1243.35	12.375
1247.66	271.481
1251.97	478.457
1256.27	540.785
1260.57	468.309
1264.86	554.856
1269.16	723.859
1273.45	261.832
1277.74	406.18
1282.03	374.664
1286.31	581.375
1290.59	154.406
1294.87	308.066
1299.14	444.801
1303.42	405.559
1307.69	361.223
1311.95	393.07
1316.22	346.519
1320.48	275.269
1324.74	305.797
1329	412.973
1333.26	489.133
1337.51	372.289
1341.76	578.144
1346	342.262
1350.25	319.555
1354.49	457.672
1358.73	271.227
1362.96	272.215
1367.2	159.676
1371.43	66.7812
1375.66	46.9062
1379.88	158.035
1384.11	66.8711
1388.33	95.1875
1392.54	38.2422
1396.76	197.269
1400.97	188.352
1405.18	228.602
1409.39	475.512
1413.59	314.172
1417.8	287.816
1421.99	363.152
1426.19	631.562
1430.38	577.867
1434.58	699.348
1438.77	529.894
1442.95	570.398
1447.13	551.637
1451.32	784.203
1455.49	591.391
1459.67	480.656
1463.84	612.809
1468.01	603.59
1472.18	118.035
1476.35	211.688
1480.51	50.9805
1484.67	119.426
1488.83	19.2617
1492.98	278.527
1497.13	436.875
1501.28	1253.18
1505.43	963.492
1509.57	376.066
1513.71	306.961
1517.85	433.363
1521.99	244.305
1526.12	293.836
1530.25	262.148
1534.38	254.856
1538.5	37.2539
1542.62	123.934
1546.74	286.078
1550.86	443.781
1554.98	354.484
1559.09	225.352
1563.2	88.6094
1567.31	114.879
1571.41	0
