Measurement: Raman, 514 nm, depolarized, Raman Data Processed
Mineral: Tilleyite
Rruff sample: R050227
Ideal chemistry: Ca_5_Si_2_O_7_(CO_3_)_2_
Locality: Crestmore Quarry, Riverside County, California, USA
Source: Marcus Origlieri
Description: Aggregate of colorless subhedral crystals
Pin_id: L00383
Orientation: Laser parallel to a* (1 0 0). Fiducial mark perpendicular to laser is parallel to b [0 1 0]
Raman shift (cm-1)	intensity
95.948	0
100.883	568.854
105.815	689.021
110.744	1642.77
115.671	1848.54
120.596	1715.65
125.519	1559.32
130.439	524.756
135.356	645.463
140.271	1175.05
145.184	1724.57
150.094	2153.7
155.002	1912.54
159.908	2000.38
164.811	647.865
169.711	153.172
174.61	65.8457
179.505	153.947
184.399	213.103
189.29	387.303
194.178	766.09
199.064	1038.62
203.948	544.531
208.829	16.0723
213.708	46.6523
218.585	35.5117
223.459	15.2148
228.33	229.803
233.199	185.244
238.066	41.9629
242.93	396.09
247.792	804.783
252.651	1690.07
257.508	1633.26
262.363	1879.58
267.215	1822.26
272.064	2280.66
276.912	3033.11
281.756	3646.4
286.598	3886.34
291.438	4352.66
296.276	4493.3
301.111	4598.49
305.943	4207.69
310.773	2893
315.601	2229.98
320.426	1757.15
325.248	1205.86
330.068	616.314
334.886	655.754
339.701	822.332
344.514	1266.9
349.324	1773.75
354.132	2121.97
358.938	1642.75
363.741	1197.16
368.541	614.977
373.339	450.213
378.135	197.346
382.928	238.668
387.718	705.699
392.506	628.232
397.292	744.238
402.075	645.738
406.856	330.65
411.634	183.857
416.41	311.283
421.183	317.254
425.954	396.766
430.722	112.207
435.488	197.797
440.251	93.1328
445.012	23.1719
449.77	70.4336
454.526	34.0078
459.28	55.3438
464.03	126.367
468.779	27.9551
473.525	128.994
478.268	124.492
483.009	313.555
487.747	99.0117
492.483	427.715
497.217	76.2812
501.948	182.094
506.676	430.162
511.402	533.051
516.125	576.363
520.846	990.07
525.565	1109.64
530.281	1305.55
534.994	937.356
539.705	1368.13
544.413	1531.73
549.119	1540.28
553.822	1020.39
558.523	707.609
563.222	249.723
567.917	395.504
572.611	267.773
577.302	349.455
581.99	366.568
586.676	406.67
591.359	390.391
596.04	265.4
600.718	366.789
605.394	359.574
610.067	650.178
614.737	966.383
619.406	1548.25
624.071	1657.51
628.734	1387.11
633.395	1797.64
638.053	3632.45
642.708	5650.15
647.361	6548.74
652.012	4557.52
656.66	1895.31
661.305	883.141
665.948	450.508
670.588	227.543
675.226	14.791
679.861	112.629
684.494	95.1934
689.124	43.082
693.752	560.672
698.377	929.875
702.999	569.811
707.619	218.227
712.237	679.623
716.852	1077.59
721.464	805.654
726.074	307.09
730.681	106.381
735.286	0.642578
739.888	71.9766
744.488	88.9199
749.085	50.1582
753.68	55.6641
758.272	36.4375
762.861	157.486
767.448	43.168
772.033	60.6016
776.614	54.8164
781.194	105.982
785.77	239.018
790.345	369.019
794.916	214.904
799.485	179.67
804.052	127.238
808.616	205.578
813.177	194.019
817.736	360.781
822.292	225.973
826.846	341.688
831.397	635.945
835.945	831.211
840.491	945.523
845.035	717.879
849.576	832.301
854.114	1202.81
858.65	1158.39
863.183	902.668
867.713	1032.32
872.241	805.75
876.767	443.289
881.29	664.391
885.81	900.18
890.328	1276.07
894.843	2332.4
899.356	6858.74
903.866	16659.5
908.373	19481.1
912.878	8460.51
917.38	2130.32
921.88	1130.49
926.377	1172.26
930.872	1155.07
935.364	499.543
939.853	321.191
944.34	708.5
948.824	1079.74
953.306	986.398
957.785	404.695
962.261	205.391
966.735	113.422
971.207	32.7891
975.675	205.484
980.141	489.516
984.605	564.879
989.066	101.582
993.524	45.375
997.98	640.973
1002.43	975.812
1006.88	1599.96
1011.33	1998.53
1015.78	1258.76
1020.22	964.148
1024.66	570.312
1029.1	415.32
1033.53	408.816
1037.97	132.664
1042.4	141.312
1046.82	62.125
1051.25	52.1719
1055.67	129.008
1060.09	26.125
1064.51	365.582
1068.92	538.598
1073.33	3325.18
1077.74	13895.5
1082.15	17483.5
1086.55	7698.96
1090.95	18404.7
1095.35	20139.5
1099.75	3408.68
1104.14	739.102
1108.53	643.762
1112.92	211.559
1117.31	167.621
1121.69	355.566
1126.07	122.152
1130.45	6.43359
1134.82	484.797
1139.19	126.25
1143.57	128.25
1147.93	115.957
1152.3	102.812
1156.66	67.293
1161.02	350.535
1165.38	322.801
1169.73	418.094
1174.08	405.379
1178.43	84.3828
1182.78	162.266
1187.12	267.027
1191.46	20.0117
1195.8	7.28125
1200.14	256.316
1204.47	236.863
1208.8	135.137
1213.13	190.516
1217.46	97.9805
1221.78	347.762
1226.1	326.961
1230.42	322.539
1234.73	837.691
1239.04	585.031
1243.35	644.191
1247.66	453.5
1251.97	535.43
1256.27	361.195
1260.57	700.82
1264.86	874.356
1269.16	1103.02
1273.45	1108.87
1277.74	935.723
1282.03	612.859
1286.31	698.094
1290.59	715.969
1294.87	934.215
1299.14	578.609
1303.42	987.566
1307.69	1053.52
1311.95	886.934
1316.22	1213.06
1320.48	798.793
1324.74	683.547
1329	562.285
1333.26	431.82
1337.51	12.3203
1341.76	408.551
1346	467.875
1350.25	318.258
1354.49	222.441
1358.73	55.3789
1362.96	260.731
1367.2	324.422
1371.43	20.2617
1375.66	367.945
1379.88	340.492
1384.11	422.332
1388.33	403.922
1392.54	171.223
1396.76	194.211
1400.97	354.91
1405.18	248.402
1409.39	323.406
1413.59	274.617
1417.8	505.816
1421.99	136.625
1426.19	546.766
1430.38	1075.03
1434.58	1387.96
1438.77	1379.28
1442.95	1769.48
1447.13	1596.48
1451.32	2291.35
1455.49	2172.16
1459.67	1585.23
1463.84	1360.66
1468.01	903.445
1472.18	837.891
1476.35	613.684
1480.51	663.879
1484.67	449.699
1488.83	203.133
1492.98	313.961
1497.13	371.039
1501.28	544.684
1505.43	208.559
1509.57	138.367
1513.71	569.066
1517.85	6.32812
1521.99	332.672
1526.12	122.676
1530.25	440.176
1534.38	416.18
1538.5	178.769
1542.62	532.551
1546.74	224.609
1550.86	352.176
1554.98	327.375
1559.09	158.941
1563.2	137.516
1567.31	251.481
1571.41	0
