Measurement: Raman, 514 nm, depolarized, Raman Data Processed
Mineral: Tilleyite
Rruff sample: R050227
Ideal chemistry: Ca_5_Si_2_O_7_(CO_3_)_2_
Locality: Crestmore Quarry, Riverside County, California, USA
Source: Marcus Origlieri
Description: Aggregate of colorless subhedral crystals
Pin_id: L00225
Orientation: Laser parallel to c* (0 0 1). Fiducial mark perpendicular to laser is parallel to a [1 0 0]
Raman shift (cm-1)	intensity
79.895	0
84.837	258.874
89.777	1666.82
94.714	2945.07
99.649	2192.58
104.582	3002.75
109.512	5033.13
114.44	4425.37
119.365	5778.09
124.288	3799.15
129.209	1971.04
134.127	1895.59
139.043	3391.88
143.956	4419.4
148.867	4739.05
153.775	6103.27
158.681	5290.24
163.585	1811.53
168.486	338.207
173.385	485.488
178.282	1146.26
183.176	881.309
188.067	984.775
192.956	1860.15
197.843	2015.26
202.727	1161.41
207.609	132.481
212.489	334.949
217.366	404.318
222.24	36.7515
227.112	512.189
231.982	771.366
236.849	725.069
241.714	754.794
246.577	1153.02
251.437	1868.26
256.294	2708.62
261.149	3158.46
266.002	2897.05
270.852	4299.13
275.7	6374.56
280.545	7729.91
285.388	7526.03
290.229	6753.47
295.067	6779.29
299.902	8116.49
304.735	6093.53
309.566	4135.06
314.394	3562.69
319.22	2921.27
324.043	2074.02
328.864	1328.16
333.682	860.178
338.498	1256.71
343.311	1970.4
348.122	3007.14
352.931	4092.1
357.737	3523.91
362.54	2599.8
367.341	2077.25
372.14	1192.59
376.936	598.414
381.73	153.808
386.521	421.353
391.31	671.988
396.096	901.615
400.88	744.154
405.661	350.542
410.44	238.724
415.216	168.654
419.99	405.291
424.761	398.591
429.53	170.028
434.297	24.5347
439.061	37.8555
443.822	118.632
448.581	20.6626
453.337	139.986
458.091	111.885
462.843	59.6484
467.592	111.892
472.338	46.2295
477.082	301.073
481.824	431.285
486.563	383.877
491.3	315.829
496.034	334.205
500.765	393.377
505.494	645.6
510.221	465.644
514.945	430.668
519.666	801.199
524.385	1349.61
529.102	1342.49
533.816	1074.67
538.527	1367.07
543.236	2023.8
547.943	1858.8
552.647	1298.92
557.348	875.171
562.047	536.532
566.744	375.001
571.438	321.546
576.129	363.786
580.818	223.203
585.504	163.174
590.188	135.494
594.87	84.3496
599.549	130.863
604.225	89.4502
608.899	230.749
613.57	217.739
618.239	292.78
622.905	453.01
627.569	749.223
632.23	1342.62
636.889	3224.89
641.545	7405.12
646.198	10306
650.849	6190.43
655.498	3100.03
660.144	2035.57
664.787	1674.18
669.428	1496.41
674.067	998.782
678.703	812.516
683.336	734.638
687.967	1023.94
692.595	1704.19
697.221	2296.77
701.844	2156.7
706.465	1359.86
711.083	2386.72
715.698	2755.45
720.311	2098.49
724.922	766.335
729.53	192.92
734.135	136.676
738.738	79.6475
743.338	68.7563
747.936	70.8584
752.531	85.2061
757.124	10.3394
761.714	68.5332
766.302	27.8755
770.887	43.2847
775.469	22.8364
780.049	58.4023
784.626	41.4868
789.201	38.9277
793.773	49.167
798.343	36.1152
802.91	79.3936
807.475	18.4468
812.037	16.4214
816.596	70.8462
821.153	40.105
825.707	152.675
830.259	411.032
834.808	997.19
839.355	926.167
843.899	441.976
848.441	117.651
852.98	91.2383
857.516	142.761
862.05	298.236
866.581	578.696
871.11	320.187
875.636	196.171
880.159	375.994
884.68	667.752
889.199	1199.74
893.714	2864.92
898.228	7683.82
902.738	25009.2
907.246	35308.7
911.752	12660.5
916.255	3256.62
920.755	1780.23
925.253	1894.08
929.748	1565.81
934.241	1133.5
938.731	679.462
943.218	690.094
947.703	1388.51
952.186	1837.09
956.665	779.731
961.142	218
965.617	309.49
970.089	350.109
974.558	741.862
979.025	1260.74
983.489	1192.78
987.951	1135.59
992.41	850.438
996.866	632.977
1001.32	1268.77
1005.77	2638.24
1010.22	3990.39
1014.67	2861.52
1019.11	1310.13
1023.55	770.548
1027.99	759.186
1032.42	887.576
1036.86	630.093
1041.29	340.387
1045.72	448.149
1050.14	443.148
1054.56	458.269
1058.98	693.602
1063.4	886.912
1067.82	1461.12
1072.23	3584.09
1076.64	21481.3
1081.05	37026.5
1085.45	23850.2
1089.85	30764.2
1094.25	39316.6
1098.65	6138.91
1103.04	1251.63
1107.43	496.828
1111.82	262.959
1116.21	232.359
1120.59	159.125
1124.97	123.129
1129.35	33.6748
1133.73	21.1973
1138.1	179.876
1142.47	150.959
1146.84	25.8057
1151.21	5.55762
1155.57	57.4072
1159.93	136.199
1164.29	34.2695
1168.64	11.1357
1172.99	59.5762
1177.34	71.0898
1181.69	120.361
1186.04	69.7891
1190.38	6.36426
1194.72	158.824
1199.05	85.7715
1203.39	49.0361
1207.72	56.4316
1212.05	2.16113
1216.37	211.565
1220.7	149.043
1225.02	169.066
1229.34	179.746
1233.65	128.431
1237.97	172.519
1242.28	3.86328
1246.59	424.858
1250.89	146.3
1255.19	357.716
1259.49	181.572
1263.79	213.385
1268.09	201.358
1272.38	186.413
1276.67	170.234
1280.95	112.292
1285.24	142.226
1289.52	66.0967
1293.8	197.776
1298.08	319.987
1302.35	106.882
1306.62	45.5508
1310.89	55.3428
1315.15	118.791
1319.42	134.722
1323.68	139.17
1327.94	96.2363
1332.19	174.669
1336.44	127.265
1340.69	70.0889
1344.94	83.9932
1349.19	142.698
1353.43	75.5195
1357.67	64.8711
1361.9	98.8965
1366.14	160.084
1370.37	17.0273
1374.6	173.635
1378.83	98.8975
1383.05	74.0293
1387.27	135.665
1391.49	164.558
1395.7	85.9736
1399.92	26.8232
1404.13	113.964
1408.34	555.144
1412.54	821.214
1416.74	539.941
1420.94	490.643
1425.14	1018.6
1429.34	1121.67
1433.53	1171.53
1437.72	553.526
1441.9	3.56152
1446.09	89.1348
1450.27	53.8008
1454.45	141.717
1458.63	203.184
1462.8	58.3652
1466.97	42.8887
1471.14	104.803
1475.31	121.773
1479.47	72.4668
1483.63	154.551
1487.79	177.277
1491.94	452.875
1496.09	1129.83
1500.24	3465.23
1504.39	1303.34
1508.54	707.676
1512.68	724.148
1516.82	739.916
1520.95	401.178
1525.09	388.336
1529.22	117.672
1533.35	134.654
1537.47	92.4121
1541.6	247.518
1545.72	171.475
1549.83	70.4082
1553.95	162.373
1558.06	236.264
1562.17	1.37891
1566.28	197.998
1570.38	278.603
