Measurement: Raman, 514 nm, depolarized, Raman Data Processed
Mineral: Tilleyite
Rruff sample: R050227
Ideal chemistry: Ca_5_Si_2_O_7_(CO_3_)_2_
Locality: Crestmore Quarry, Riverside County, California, USA
Source: Marcus Origlieri
Description: Aggregate of colorless subhedral crystals
Pin_id: L00528
Orientation: Laser parallel to b* (0 1 0). Fiducial mark perpendicular to laser is parallel to -c [0 0 -1]
Raman shift (cm-1)	intensity
127.979	0
132.898	172.443
137.814	392.812
142.728	1162.61
147.639	1677.58
152.549	2445.95
157.455	2425.51
162.359	990.076
167.261	15.9971
172.161	57.7793
177.058	788.782
181.952	740.467
186.845	609.317
191.734	711.764
196.622	1011.7
201.507	893.248
206.389	566.453
211.269	128.691
216.147	71.7949
221.022	49.4522
225.895	142.627
230.765	332.463
235.633	411.848
240.498	548.021
245.361	648.047
250.222	912.393
255.08	1279.88
259.936	2224.13
264.789	2160.5
269.64	3148.91
274.488	5011
279.334	6759.12
284.178	6601.58
289.019	5170.21
293.857	4495.29
298.693	4555.08
303.527	3593.9
308.358	2129.24
313.187	1455.11
318.013	1211.29
322.837	857.279
327.659	737.215
332.478	501.051
337.294	608.555
342.108	789.24
346.92	1291.81
351.729	1757.79
356.535	1952.66
361.34	1539.48
366.141	997.555
370.94	587.137
375.737	366.572
380.531	82.7031
385.323	7.51367
390.113	274.947
394.9	521.062
399.684	593.875
404.466	472.318
409.245	234.365
414.022	558.197
418.797	408.982
423.569	654.33
428.338	511.31
433.105	257.908
437.87	148.691
442.632	281.008
447.391	24.7598
452.149	222.731
456.903	67.9531
461.655	56.3574
466.405	249.498
471.152	13.2988
475.897	102.438
480.639	413.322
485.378	423.631
490.116	384.004
494.85	12.3496
499.582	323.555
504.312	500.332
509.039	333.75
513.764	317.795
518.486	636.398
523.206	766.225
527.923	1081.33
532.638	888.779
537.35	667.297
542.059	1403.37
546.766	1540.94
551.471	852.1
556.173	415.779
560.873	208.949
565.57	139.59
570.264	184.641
574.957	43.0645
579.646	246.766
584.333	186.496
589.018	139.527
593.7	212.478
598.379	68.3848
603.056	159.566
607.73	77.8731
612.402	94.4727
617.072	251.551
621.739	425.506
626.403	559.887
631.065	1174.88
635.724	1806
640.381	3712.94
645.035	5418.78
649.687	4458.49
654.336	2720.52
658.983	2072.24
663.627	1455.47
668.268	1070.82
672.907	904.393
677.544	545.953
682.178	693.449
686.809	358.887
691.438	690.463
696.065	1250.65
700.688	1152.71
705.31	1186.05
709.929	1776.72
714.545	2718.52
719.158	1914.9
723.77	746.41
728.378	176.691
732.984	219.981
737.588	34.7891
742.189	829.119
746.787	14.0723
751.383	59.5254
755.976	134.147
760.567	56.3711
765.155	180.176
769.741	88.5566
774.324	50.1074
778.904	177.041
783.482	192.527
788.058	125.346
792.631	136.533
797.201	35.1152
801.769	98.1562
806.334	153.916
810.897	10.2598
815.457	202.902
820.014	231.309
824.569	243.51
829.122	145.398
833.671	518.113
838.219	490.697
842.763	58.168
847.306	363.566
851.845	60.7852
856.382	94.0625
860.917	110.93
865.448	399.555
869.978	252.65
874.505	255.283
879.029	194.242
883.55	334.144
888.069	637.314
892.586	1218.1
897.1	3741.96
901.611	11096.9
906.12	17447.5
910.626	9150.63
915.129	2263.84
919.63	1255.66
924.129	775.197
928.625	960.326
933.118	693.061
937.609	514.668
942.097	433.656
946.582	475.434
951.065	515.277
955.546	634.231
960.023	47.9961
964.499	584.365
968.971	996.898
973.441	917.627
977.909	607.537
982.374	1321.66
986.836	2251.57
991.295	2560.83
995.753	972.445
1000.21	750.686
1004.66	1296.1
1009.11	1517.86
1013.55	929.668
1018	638.164
1022.44	670.668
1026.88	248.508
1031.32	607.586
1035.75	410.394
1040.18	328.188
1044.61	435.512
1049.04	96.8594
1053.46	212.449
1057.88	466.523
1062.3	375.926
1066.71	991.332
1071.13	1902.23
1075.54	5784.44
1079.94	19816
1084.35	27090.9
1088.75	22591.4
1093.15	21406.6
1097.55	5931.99
1101.94	1048.1
1106.34	442.719
1110.73	146.559
1115.11	155.523
1119.5	156.988
1123.88	174.508
1128.26	84.4297
1132.63	69.4609
1137.01	85.7227
1141.38	32.8516
1145.75	79.0938
1150.12	10.6523
1154.48	203.062
1158.84	199.445
1163.2	106.988
1167.55	117.262
1171.91	40.3438
1176.26	181.859
1180.61	397.992
1184.95	27.8711
1189.29	193.898
1193.63	250.922
1197.97	158.41
1202.31	6.21094
1206.64	391.91
1210.97	238.957
1215.29	105.055
1219.62	234.988
1223.94	320.84
1228.26	8.33594
1232.57	309.008
1236.89	179.523
1241.2	296.621
1245.51	55.9688
1249.81	237.34
1254.12	269.75
1258.42	210.055
1262.72	196.496
1267.01	514.559
1271.3	11.3906
1275.59	280.59
1279.88	145.629
1284.17	282.566
1288.45	398.695
1292.73	137.59
1297.01	290.914
1301.28	76.5898
1305.55	243.391
1309.82	138.082
1314.09	386.301
1318.35	335.887
1322.61	387.414
1326.87	84.5703
1331.13	210.289
1335.38	133.797
1339.63	3.03516
1343.88	290.633
1348.12	11.3789
1352.37	131.664
1356.61	312.008
1360.85	243.176
1365.08	126.43
1369.31	122.875
1373.54	144.055
1377.77	234.352
1381.99	322.172
1386.22	382.469
1390.43	292.652
1394.65	80.2852
1398.87	99.7383
1403.08	244.039
1407.29	243.832
1411.49	612.637
1415.69	610.926
1419.89	551.449
1424.09	487.691
1428.29	759.152
1432.48	1026.99
1436.67	786.356
1440.86	250.512
1445.04	239.5
1449.23	82.5977
1453.4	311.664
1457.58	254.961
1461.76	30.0938
1465.93	39.7109
1470.1	58.0859
1474.26	452.609
1478.43	11.3008
1482.59	39.7539
1486.75	256.098
1490.9	545.34
1495.06	176.648
1499.21	916.84
1503.35	698.051
1507.5	453.793
1511.64	521.648
1515.78	293.527
1519.92	561.996
1524.05	311.449
1528.18	157.457
1532.31	309.129
1536.44	417.891
1540.56	251.391
1544.69	248.609
1548.8	385.043
1552.92	348.527
1557.03	249.805
1561.14	371.207
1565.25	302.602
1569.36	1.74609
