Measurement: Raman, 514 nm, depolarized, Raman Data Processed
Mineral: Titanite
Rruff sample: R050114
Ideal chemistry: CaTi^4+^SiO_5_
Locality: Isthak Valley Iskardu, Northern Areas Gilgit, Pakistan
Source: Syed Shah
Description: Yellowish-brown fragment
Measured chemistry: (Ca_0.99_Na_0.01_)(Ti_0.96_Al_0.03_Fe^3+^_0.01_)Si_1.00_O_4_(O_0.95_F_0.05_)
Pin_id: L00085
Orientation: Laser parallel to a* (1 0 0). Fiducial mark perpendicular to laser is parallel to -b [0 -1 0]
Raman shift (cm-1)	intensity
91.065	0
95.269	84.99
99.471	27.355
103.67	2.766
107.868	399.341
112.063	975.631
116.256	679.821
120.447	858.484
124.636	1375.48
128.822	1930.34
133.006	2435.56
137.188	3605.19
141.368	5937.5
145.545	6018.72
149.72	5861.89
153.893	8245.38
158.064	12647.7
162.233	14947.7
166.399	12635.8
170.563	10188.1
174.725	9626.86
178.885	9824.97
183.043	10012.4
187.198	9650.74
191.351	9932.34
195.502	10583.4
199.651	11740.3
203.797	13330.2
207.942	13652.8
212.084	13256.8
216.224	13272.2
220.362	13879.1
224.497	15077.4
228.631	15657
232.762	15988.1
236.891	16040.4
241.018	16718.1
245.143	18964.6
249.265	22110
253.386	22441.3
257.504	20706.4
261.62	16240.6
265.734	12191.8
269.845	9551.13
273.955	8499.34
278.062	8793.16
282.167	10241.5
286.27	12648.5
290.371	13741.4
294.47	10316.3
298.567	6603.03
302.661	5794.7
306.753	7066.41
310.843	11086.1
314.931	18734.1
319.017	19976.9
323.101	14538.5
327.182	11671.3
331.261	11065.2
335.339	9890.14
339.414	8035.83
343.487	6682.33
347.557	7209.64
351.626	7537.78
355.693	5896.7
359.757	4076.33
363.819	3166.54
367.879	2301.3
371.937	1562.57
375.993	802.327
380.047	143.555
384.099	232.852
388.148	208.295
392.196	211.771
396.241	309.414
400.284	223.366
404.325	169.952
408.364	1043.47
412.401	3086.23
416.435	7196.33
420.468	13496.9
424.498	16608.6
428.527	12801.4
432.553	6905.11
436.577	3329.69
440.599	1399.02
444.619	338.057
448.637	240.379
452.653	509.514
456.667	512.398
460.678	172.952
464.688	40.113
468.695	86.622
472.701	220.507
476.704	66.843
480.705	796.252
484.704	1879.12
488.701	2587.43
492.696	3192.21
496.689	3516.43
500.68	3341.11
504.668	3236.24
508.655	3121.8
512.639	3417.81
516.622	3874.25
520.602	4701.13
524.581	5168.43
528.557	6076.17
532.531	7384.33
536.503	8492.92
540.473	9141.95
544.441	8707.45
548.407	7932.97
552.371	6549.25
556.333	4826.94
560.293	4224.25
564.251	5348.55
568.206	8320.93
572.16	11463.9
576.112	14617.4
580.061	18401.4
584.009	23186.1
587.954	28941.2
591.897	34766.9
595.839	40293.2
599.778	45539.9
603.716	47480.2
607.651	47156.5
611.584	43254.3
615.515	38208.4
619.444	32782.3
623.372	28775
627.297	25272.4
631.22	22066.2
635.141	19195.2
639.06	17179.9
642.977	15156.1
646.892	13823.8
650.805	12202.5
654.716	10602
658.625	9622.01
662.532	8852.64
666.437	7943.85
670.34	7255.62
674.241	6317.95
678.139	5790.84
682.036	5274.28
685.931	4728.27
689.824	4282.81
693.715	3767.88
697.604	3389.49
701.491	3237.83
705.376	2763.22
709.259	2462.57
713.139	2185.07
717.018	1921.74
720.895	1665.21
724.77	1430.15
728.643	1178.54
732.514	1069.37
736.383	908.634
740.25	733.316
744.115	698.404
747.978	443.886
751.839	209.75
755.698	74.981
759.555	62.466
763.41	144.563
767.263	197.898
771.114	223.246
774.964	265.982
778.811	164.548
782.656	7.173
786.499	213.137
790.341	381.036
794.18	625.538
798.017	818.506
801.853	1156.12
805.686	1355.27
809.518	1638.23
813.347	1837.45
817.175	2160.66
821.001	2466.88
824.824	2763.11
828.646	3204.36
832.466	3483.64
836.284	3809.02
840.1	4579.5
843.914	5754.03
847.726	7353.53
851.536	9232.9
855.344	11022.1
859.15	12831.1
862.954	15629.8
866.756	20458.3
870.557	25036.5
874.355	26634.5
878.152	26042.1
881.946	25989.4
885.739	25796.3
889.53	21872.9
893.318	15389.1
897.105	10275
900.89	7260.48
904.673	6203.54
908.454	5781.2
912.234	5159.66
916.011	3516.41
919.786	2050.12
923.56	992.331
927.331	440.13
931.101	117.099
934.868	78.551
938.634	130.489
942.398	215.231
946.16	245.559
949.92	118.684
953.678	59.914
957.435	382.361
961.189	683.368
964.941	1328.24
968.692	2046.33
972.441	2635.72
976.187	2897.4
979.932	2654.07
983.675	2356.86
987.416	2290.03
991.155	2232.48
994.893	2341.52
998.628	2241.11
1002.36	2058.79
1006.09	2098.07
1009.82	2173.78
1013.55	2440.91
1017.28	2710.47
1021	3150.46
1024.72	3508.88
1028.44	3796.74
1032.16	3940.03
1035.88	3934.76
1039.59	3516.94
1043.31	2977.56
1047.02	2356.63
1050.73	1907.15
1054.43	1552.13
1058.14	1224.57
1061.84	997.523
1065.54	839.121
1069.24	755.542
1072.94	856.797
1076.64	1377.62
1080.33	2116.6
1084.03	2977.59
1087.71	3144.84
1091.4	2666.42
1095.09	1637.87
1098.78	779.725
1102.46	361.626
1106.14	230.626
1109.82	152.332
1113.5	130.383
1117.17	4.907
1120.85	29.586
1124.52	44.678
1128.19	47.229
1131.86	74.315
1135.52	46.075
1139.19	98.428
1142.85	23.608
1146.51	124.297
1150.17	362.76
1153.83	827.045
1157.48	1605.73
1161.14	2630.11
1164.79	4149.89
1168.44	6800.51
1172.09	10715
1175.73	13150.3
1179.38	11625.4
1183.02	8630.42
1186.66	7047.3
1190.3	7185.05
1193.94	7824.67
1197.58	7699.19
1201.21	6744.59
1204.84	6148.9
1208.47	5984.11
1212.1	5599.24
1215.72	5089.31
1219.35	5134.31
1222.97	5514.27
1226.59	6050.31
1230.21	6609.12
1233.83	6873.56
1237.45	6697.77
1241.06	6679.82
1244.67	6307.26
1248.28	5531.35
1251.89	4676.84
1255.5	3956.96
1259.1	3191.97
1262.7	2780.74
1266.31	2489.12
1269.9	2259.95
1273.5	2095.93
1277.1	2097.82
1280.69	2323.19
1284.29	2675
1287.88	3191.97
1291.46	3849.49
1295.05	4401.2
1298.64	4721.29
1302.22	4677.85
1305.8	4426.56
1309.38	4089.75
1312.96	3892.86
1316.54	3645.95
1320.11	3177
1323.68	2630.97
1327.25	2092.82
1330.82	1721.49
1334.39	1439.01
1337.96	1252.52
1341.52	1184.03
1345.08	1042.55
1348.64	930.158
1352.2	749.948
1355.76	568.318
1359.31	448.009
1362.87	277.169
1366.42	128.573
1369.97	36.071
1373.52	53.927
1377.06	53.71
1380.61	82.905
1384.15	76.002
1387.69	29.719
1391.23	16.647
1394.77	21.501
1398.3	49.228
1401.84	89.074
1405.37	192.079
1408.9	257.342
1412.43	353.907
1415.96	488.822
1419.48	720.155
1423.01	878.974
1426.53	1197.33
1430.05	1483.25
1433.57	1706.69
1437.08	1921.36
1440.6	2037.37
1444.11	1960.36
1447.62	1901.95
1451.13	1684.88
1454.64	1650.69
1458.15	1396.74
1461.65	1222.4
1465.16	1037.78
1468.66	769.544
1472.16	599.509
1475.65	350.953
1479.15	249.989
1482.64	144.115
1486.14	72.689
1489.63	63.877
1493.12	9.726
1496.61	2.767
1500.09	0
