Measurement: Raman, 514 nm, depolarized, Raman Data Processed
Mineral: Titanite
Rruff sample: R050124
Ideal chemistry: CaTi^4+^SiO_5_
Locality: Capelinha, Minas Gerais, Brazil
Source: Carlos and Paulo Vasconcelos
Description: Yellow tabular crystal
Measured chemistry: Ca_1.00_(Ti_0.93_Al_0.05_Fe^3+^_0.02_)Si_1.00_O_4_(O)_1.00_
Pin_id: M00222
Orientation: Laser parallel to -b* (0 -1 0). Fiducial mark perpendicular to laser is parallel to -c [0 0 -1]
Raman shift (cm-1)	intensity
98.37	0
102.55	27.245
106.729	456.899
110.905	876.188
115.079	1139.28
119.251	656.94
123.422	70.295
127.59	443.469
131.756	866.249
135.92	971.407
140.082	1091.08
144.242	1814.23
148.4	1472.92
152.556	1472.33
156.71	4629.44
160.862	11182.2
165.012	13739.3
169.16	9799.44
173.306	6689.61
177.449	7057.86
181.591	8393.06
185.731	8689.03
189.869	7548.08
194.005	8281.87
198.139	9891.4
202.271	10237.7
206.4	12421.3
210.528	14662.5
214.654	14501.6
218.778	13658.8
222.9	15764.3
227.019	17568
231.137	16970
235.253	16170.3
239.367	16609
243.479	18805.3
247.589	23176.9
251.697	28551.9
255.803	32832.1
259.906	29464.6
264.008	21179.8
268.108	15546.3
272.206	12053.6
276.302	9825.95
280.396	8391.63
284.488	9170.63
288.578	10527.8
292.666	9229.25
296.753	7244.06
300.837	10309.9
304.919	13466.5
308.999	13173.5
313.077	14380.5
317.154	16797.5
321.228	14824.4
325.3	12090.9
329.371	12677.1
333.439	15232.9
337.506	15058.2
341.57	11552.5
345.633	8905.46
349.693	7597.03
353.752	6597.36
357.809	5636.53
361.863	4854.59
365.916	4491.6
369.967	3817.58
374.016	2442.57
378.063	1199.6
382.108	436.657
386.151	137.455
390.192	248.494
394.231	795.756
398.269	1149.44
402.304	1181.62
406.337	1136.91
410.369	627.99
414.398	620.694
418.426	3143.17
422.452	5782.9
426.475	6210.41
430.497	5197.71
434.517	4744.75
438.535	4431.42
442.551	4277.67
446.565	4743.47
450.577	6178.83
454.588	8143.74
458.596	11968.1
462.602	18892.1
466.607	30235.5
470.61	29028.6
474.61	16281.5
478.609	8364.16
482.606	5066.69
486.601	3569.16
490.594	2860.65
494.585	2585.22
498.575	2891.92
502.562	3294.68
506.548	3572.51
510.531	3545.33
514.513	4668.12
518.493	5650.92
522.47	6943.67
526.446	7616.32
530.421	9468.81
534.393	12841.1
538.363	16493.1
542.331	18476.7
546.298	18494.1
550.263	18511.1
554.225	18073.4
558.186	15260.3
562.145	12325.2
566.103	9104.46
570.058	6946.81
574.011	7890.52
577.963	8843.14
581.912	9856.4
585.86	13660.3
589.806	19464.9
593.75	26420.1
597.692	33546
601.632	39992.5
605.571	47240
609.507	52658.5
613.442	50747.8
617.375	43708.7
621.306	38011.1
625.235	33989.4
629.162	30460.7
633.087	25609.9
637.011	20863.1
640.932	17559.9
644.852	16348.2
648.77	14965.9
652.686	12957.1
656.6	11387.5
660.513	9868.87
664.423	9717.62
668.332	9120.36
672.239	7757.56
676.144	6459.08
680.047	5751.53
683.948	5703.25
687.848	5318.44
691.746	4689.87
695.641	3731.47
699.535	3347.58
703.427	3286.66
707.318	3009.19
711.206	2497.89
715.093	2061.96
718.978	1697.27
722.861	1660.76
726.742	1703.66
730.621	1520.23
734.499	989.276
738.374	687.711
742.248	741.526
746.12	659.719
749.99	562.259
753.859	271.111
757.725	14.736
761.59	58.708
765.453	157.371
769.314	154.184
773.174	0.919
777.031	117.577
780.887	208.901
784.741	32.542
788.593	4.284
792.443	107.957
796.291	280.681
800.138	323.856
803.983	224.298
807.826	120.012
811.667	166.539
815.507	141.608
819.344	146.126
823.18	106.622
827.014	29.298
830.847	85.242
834.677	83.062
838.506	58.663
842.333	172.614
846.158	283.147
849.981	692.875
853.803	1048.32
857.623	1234.46
861.441	1592.26
865.257	2292.68
869.071	3275.68
872.884	4084.17
876.695	3720.11
880.504	2978.42
884.311	2642.11
888.117	2132.01
891.92	1728.16
895.722	1512.55
899.523	1493.11
903.321	1616.23
907.118	2162.25
910.913	2924.45
914.706	2676.13
918.497	1866.85
922.287	1109.89
926.075	657.536
929.861	415.07
933.645	334.639
937.428	348.258
941.208	316.141
944.987	317.484
948.765	316.64
952.54	220.478
956.314	211.501
960.086	292.289
963.856	316.688
967.625	330.346
971.392	209.328
975.157	189.473
978.92	124.948
982.682	145.602
986.441	236.772
990.199	291.88
993.956	268.678
997.71	372.511
1001.46	629.01
1005.21	594.561
1008.96	711.205
1012.71	838.685
1016.46	886.561
1020.2	769.841
1023.94	599.007
1027.68	352.451
1031.42	197.306
1035.16	120.552
1038.9	140.149
1042.63	93.103
1046.36	24.617
1050.09	19.401
1053.82	6.386
1057.55	28.603
1061.27	91.118
1065	102.917
1068.72	143.138
1072.44	142.851
1076.16	180.224
1079.87	115.249
1083.59	209.157
1087.3	216.945
1091.01	272.01
1094.72	205.917
1098.43	109.587
1102.14	65.294
1105.84	46.838
1109.55	20.598
1113.25	93.049
1116.94	132.977
1120.64	103.801
1124.34	79.07
1128.03	4.609
1131.73	30.043
1135.42	39.84
1139.11	47.137
1142.8	135.289
1146.48	125.943
1150.16	86.751
1153.85	3.259
1157.53	77.464
1161.21	62.41
1164.88	41.106
1168.56	184.559
1172.23	212.787
1175.91	295.801
1179.58	314.24
1183.25	196.679
1186.91	183.652
1190.58	109.11
1194.24	91.897
1197.91	91.666
1201.57	191.401
1205.23	201.948
1208.88	173
1212.54	169.887
1216.19	171.293
1219.85	80.324
1223.5	130.983
1227.14	161.109
1230.79	132.223
1234.44	241.132
1238.08	238.81
1241.72	133.162
1245.37	83.811
1249	116.501
1252.64	108.522
1256.28	132.143
1259.91	136.838
1263.54	174.481
1267.17	241.327
1270.8	219.447
1274.43	185.511
1278.06	117.703
1281.68	35.083
1285.3	22.88
1288.92	103.404
1292.54	190.942
1296.16	221.99
1299.78	242.08
1303.39	183.941
1307	215.879
1310.61	125.708
1314.22	122.945
1317.83	104.113
1321.44	182.294
1325.04	129.393
1328.64	143.435
1332.24	141.365
1335.85	105.169
1339.44	92.717
1343.04	94.345
1346.63	9.816
1350.23	2.977
1353.82	15.916
1357.41	8.885
1360.99	48.893
1364.58	70.331
1368.17	52.765
1371.75	78.387
1375.33	11.512
1378.91	32.486
1382.49	45.427
1386.07	28.653
1389.64	79.955
1393.21	108.704
1396.79	149.49
1400.36	158.072
1403.92	116.312
1407.49	156.254
1411.06	161.308
1414.62	102.427
1418.18	36.602
1421.74	69.828
1425.3	21.774
1428.86	68.119
1432.42	197.166
1435.97	329.989
1439.52	471.502
1443.07	544.13
1446.62	608.957
1450.17	679.072
1453.72	607.381
1457.26	587.479
1460.81	488.952
1464.35	419.473
1467.89	333.774
1471.42	297.605
1474.96	334.919
1478.49	362.988
1482.03	354.329
1485.56	355.717
1489.09	272.425
1492.62	186.643
1496.15	86.659
1499.67	17.675
1503.2	5.197
1506.72	2.374
1510.24	9.369
1513.76	1.685
