Measurement: Raman, 514 nm, depolarized, Raman Data Processed
Mineral: Titanite
Rruff sample: R040033
Ideal chemistry: CaTi^4+^SiO_5_
Locality: Brazil
Source: University of Arizona Mineral Museum
Description: Green flattened wedge-shaped single crystals
Measured chemistry: (Ca_0.97_Fe^3+^_0.03_)_Σ=1_(Ti_0.97_Al_0.03_)_Σ=1_Si_1.00_O_5_; Fe^3+^ assigned for charge balance
Pin_id: L00086
Orientation: Laser parallel to a [1 0 0]. Fiducial mark perpendicular to laser is parallel to b* (0 1 0)
Raman shift (cm-1)	intensity
51.466	0
55.666	168.105
59.863	47.945
64.059	34.564
68.253	247.754
72.445	868.771
76.635	1751.67
80.823	2267.18
85.009	2355.32
89.193	2226.71
93.375	1668.62
97.554	1119.55
101.732	656.14
105.908	545.077
110.082	498.718
114.254	570.436
118.424	514.312
122.592	695.364
126.758	1038.75
130.922	1510.79
135.083	3381.58
139.243	8071.68
143.401	13285
147.557	8325.09
151.711	5070.55
155.863	6182.78
160.013	8280.02
164.161	8172.44
168.308	6574.17
172.452	5369.53
176.594	5082.5
180.734	5356.8
184.872	5250.69
189.008	5102.2
193.143	5367.65
197.275	6146.17
201.405	6889.65
205.534	7223.79
209.66	7074.59
213.784	7042.05
217.907	7684.92
222.027	8814.96
226.146	10486.7
230.263	13096.7
234.377	13734.4
238.49	10413.6
242.601	9683.79
246.709	10935.7
250.816	12356.1
254.921	12571.7
259.024	11304.2
263.125	9228.47
267.224	7548.39
271.321	6228.79
275.416	6032.56
279.51	6923.61
283.601	9552.05
287.69	14049.8
291.778	16375.1
295.863	13700.6
299.947	11062.5
304.029	11582.3
308.108	14366.8
312.186	21325.8
316.262	29001.5
320.336	24870.7
324.408	17211.5
328.478	14228
332.546	12397.9
336.612	10572.5
340.677	9886.39
344.739	12992.7
348.799	18274.4
352.858	17356.5
356.915	9994.98
360.969	5107.84
365.022	2731.09
369.073	1459.73
373.122	495.756
377.169	69.831
381.215	475.736
385.258	480.157
389.299	346.001
393.339	287.862
397.376	49.58
401.412	557.447
405.446	1531.02
409.478	3921.29
413.508	8688.23
417.536	16185.8
421.562	22400.1
425.586	19946.9
429.609	11663.4
433.629	5745.48
437.648	2718.19
441.665	744.709
445.68	137.831
449.693	734.636
453.704	787.718
457.713	103.147
461.721	1449.1
465.726	3703.08
469.73	5034.7
473.731	4383.93
477.731	4001.77
481.729	4113.26
485.725	4229.4
489.72	4282.21
493.712	4036.7
497.703	3561.9
501.691	2991.81
505.678	2375.44
509.663	2445.8
513.646	2589.9
517.627	2816.75
521.607	3149.35
525.584	3483.72
529.56	4415.87
533.534	5331.8
537.506	6288.48
541.476	6678.51
545.444	6412
549.41	5797.56
553.375	5187.46
557.337	5736.35
561.298	8181.11
565.257	11734.3
569.214	14532.6
573.17	15033.9
577.123	15302.1
581.075	17210.5
585.024	20669.8
588.972	25826.1
592.918	31708.5
596.863	38920.3
600.805	46382.4
604.746	52329
608.685	53507.6
612.621	50130.3
616.557	45853.1
620.49	39263.3
624.421	34458.8
628.351	28955.8
632.279	24693.1
636.205	21693
640.129	18633.8
644.051	15793.5
647.972	14081.2
651.89	12727.6
655.807	11061.3
659.722	10018.2
663.636	9082.2
667.547	7946.28
671.457	7185.48
675.365	6587.77
679.271	5900.15
683.175	5522.61
687.077	4703.16
690.978	4424.78
694.877	3883.51
698.774	3476.99
702.669	2906.78
706.562	2665.66
710.454	2188.52
714.344	1962.94
718.232	1748.44
722.118	1408.92
726.002	1289.36
729.885	1070.76
733.766	787.094
737.645	647.348
741.522	322.505
745.397	192.55
749.271	55.54
753.143	107.926
757.013	173.995
760.881	306.912
764.748	418.912
768.613	67.417
772.476	71.296
776.337	84.393
780.196	135.633
784.054	290.543
787.91	460.233
791.764	730.086
795.616	1201.76
799.467	1742.57
803.316	2641.56
807.163	3685.34
811.008	5126.84
814.851	6745.33
818.693	7856.15
822.533	8603.49
826.371	8611.23
830.208	9052.41
834.042	9798
837.875	11647.1
841.706	15186.7
845.536	20392.3
849.363	27773.4
853.189	35021.6
857.013	38809
860.836	39504.5
864.656	41746
868.475	48560.5
872.292	50833
876.108	44172.4
879.922	38087.8
883.733	34168.1
887.544	28844.3
891.352	21533.4
895.159	15101.3
898.964	11916
902.767	11032.1
906.568	12018.6
910.368	12519.4
914.166	10659
917.962	6630.43
921.757	3360.59
925.55	1721.1
929.341	826.228
933.13	384.161
936.918	88.31
940.703	93.299
944.488	202.473
948.27	257.655
952.051	122.994
955.83	37.622
959.607	180.751
963.383	338.048
967.156	755.671
970.928	1023.88
974.699	1257.31
978.468	1095.84
982.234	916.156
986	774.764
989.763	748.016
993.525	775.775
997.285	814.01
1001.04	997.986
1004.8	1164.55
1008.55	1404.16
1012.31	1496.82
1016.06	1562.85
1019.81	1769.26
1023.56	1894.03
1027.31	1791.16
1031.05	1758.65
1034.79	1721.49
1038.53	1550.68
1042.27	1388.22
1046.01	1039.1
1049.75	656.329
1053.48	453.91
1057.22	365.922
1060.95	235.528
1064.68	225.749
1068.4	191.656
1072.13	272.178
1075.86	521.131
1079.58	985.588
1083.3	1466.47
1087.02	2105.97
1090.74	2086.45
1094.45	1934.9
1098.17	1091.01
1101.88	495.982
1105.59	128.737
1109.3	38.667
1113.01	25.635
1116.71	19.059
1120.42	27
1124.12	16.154
1127.82	23.375
1131.52	23.33
1135.22	26.768
1138.91	54.751
1142.61	21.476
1146.3	69.073
1149.99	78.097
1153.68	255.597
1157.37	618.647
1161.06	1247.28
1164.74	1702.49
1168.42	2400.3
1172.1	3998.7
1175.78	6819.69
1179.46	8606.29
1183.14	7764.5
1186.81	5485.33
1190.48	4080.78
1194.15	4011.87
1197.83	4271.6
1201.49	4214.56
1205.16	3819.41
1208.82	4235.19
1212.49	4946.95
1216.15	4596.73
1219.81	3777.37
1223.46	3310.57
1227.12	3286.76
1230.78	3419.53
1234.43	3593.36
1238.08	3805.8
1241.73	4066.22
1245.38	4449.41
1249.03	4436.76
1252.67	3808.62
1256.31	2844.09
1259.95	2278.63
1263.6	1847.54
1267.23	1528.01
1270.87	1372.58
1274.51	1094.4
1278.14	1030.53
1281.77	978.721
1285.4	988.44
1289.03	1061.85
1292.66	1376.49
1296.28	1666.18
1299.91	1894.74
1303.53	2020.66
1307.15	1989.42
1310.77	1830.74
1314.38	1955.65
1318	2003.19
1321.61	1977.51
1325.23	1778.07
1328.84	1454.8
1332.45	1063.79
1336.06	813.661
1339.66	724.407
1343.27	518.008
1346.87	489.466
1350.47	406.851
1354.07	325.247
1357.67	222.701
1361.26	129.25
1364.86	58.332
1368.45	49.593
1372.04	58.583
1375.63	57.403
1379.22	56.2
1382.81	35.078
1386.39	30.704
1389.98	2.748
1393.56	18.263
1397.14	34.354
1400.72	41.406
1404.3	55.818
1407.87	49.918
1411.45	236.282
1415.02	198.698
1418.59	255.105
1422.16	345.559
1425.73	396.106
1429.29	507.776
1432.86	644.6
1436.42	779.62
1439.98	925.876
1443.54	1109.38
1447.1	1191.63
1450.66	1194.29
1454.21	1271.67
1457.77	1213.03
1461.32	1160.68
1464.87	1070.07
1468.42	939.689
1471.96	774.572
1475.51	630.572
1479.06	457.426
1482.6	373.752
1486.14	302.415
1489.68	171.624
1493.22	236.196
1496.75	67.255
1500.29	93.502
1503.82	31.934
1507.35	44.959
1510.88	45.108
1514.41	2.081
1517.94	7.444
1521.46	0
