Measurement: Raman, 514 nm, depolarized, Raman Data Processed
Mineral: Titanite
Rruff sample: R050124
Ideal chemistry: CaTi^4+^SiO_5_
Locality: Capelinha, Minas Gerais, Brazil
Source: Carlos and Paulo Vasconcelos
Description: Yellow tabular crystal
Measured chemistry: Ca_1.00_(Ti_0.93_Al_0.05_Fe^3+^_0.02_)Si_1.00_O_4_(O)_1.00_
Pin_id: M00070
Orientation: Laser parallel to (-1 0 -1). Fiducial mark perpendicular to laser is parallel to b [0 1 0]
Raman shift (cm-1)	intensity
122.032	0
126.201	58.392
130.367	127.079
134.532	78.416
138.695	856.735
142.856	5082.23
147.014	7046.97
151.171	2382.89
155.325	1660.02
159.478	3562.62
163.629	5001.52
167.777	4183.89
171.924	3276.84
176.068	2907.54
180.211	2734.11
184.351	3045.28
188.49	3224.23
192.626	3087.04
196.761	3256.73
200.893	4293.52
205.024	4768.27
209.152	4617.14
213.279	4738.66
217.403	4988.06
221.526	5455.85
225.646	6222.52
229.765	7648.36
233.881	9833.55
237.996	8548.23
242.108	6542.45
246.219	7366.24
250.328	9162.43
254.434	10235.2
258.539	10310.2
262.641	9389.57
266.742	7495.29
270.84	5631.12
274.937	4656.82
279.032	4862.19
283.125	5637.24
287.215	8498.67
291.304	12683
295.391	13228.6
299.476	9752.05
303.558	8329.09
307.639	9719.15
311.718	13581.5
315.795	22155.8
319.87	24401.5
323.943	17558.3
328.014	12586.1
332.083	10294.4
336.15	8713.32
340.215	7512.57
344.279	7542.09
348.34	9891.81
352.399	12301.7
356.457	9141.35
360.512	5110.7
364.565	2669.72
368.617	1360.44
372.666	737.849
376.714	284.865
380.76	267.749
384.803	519.659
388.845	373.128
392.885	104.007
396.923	264.093
400.959	275.461
404.993	404.258
409.025	1729.67
413.055	4066.84
417.084	8564.16
421.11	15108.6
425.134	17310.6
429.157	11721.8
433.177	5723.11
437.196	2684.47
441.213	1199.97
445.227	291.756
449.24	442.613
453.251	669.58
457.26	226.978
461.267	661.471
465.272	1890.09
469.276	3396.99
473.277	4214.15
477.276	3981.5
481.274	3678.99
485.27	3746.57
489.263	4354.23
493.255	4491.97
497.245	4119.81
501.233	3327.76
505.219	2695.82
509.203	2694.01
513.186	2972.34
517.166	2860.83
521.145	2919.49
525.121	3418.33
529.096	4027.39
533.069	4766.67
537.04	5403.98
541.009	6016.86
544.976	6740.45
548.941	6152.96
552.905	5513.18
556.866	4718.79
560.826	5521.8
564.784	8245.56
568.74	11238.4
572.694	11891.9
576.646	12175.9
580.596	13470.6
584.544	15836
588.491	18452.1
592.435	22809
596.378	28041.1
600.319	35391.8
604.258	41620.5
608.195	44726.9
612.131	45127.5
616.064	43325.1
619.995	38957
623.925	34449.4
627.853	29462.4
631.779	25227
635.703	21897.8
639.625	19378.4
643.546	16397.4
647.464	14147.8
651.381	12489.5
655.296	11632.5
659.209	10786.7
663.12	9372.11
667.029	8108.64
670.937	7406.24
674.842	7024.88
678.746	6564.53
682.648	5685.21
686.548	5026.9
690.447	4349.6
694.343	4243.34
698.238	3938.62
702.13	3306.05
706.021	2765.69
709.91	2207.35
713.798	2221
717.683	2226.64
721.567	1903.66
725.448	1351.69
729.328	1040.69
733.206	1050.67
737.083	1101.64
740.957	713.616
744.83	286.634
748.701	79.288
752.57	11.198
756.437	151.86
760.302	46.732
764.166	137.263
768.027	342.471
771.887	324.921
775.745	22.623
779.602	195.744
783.456	116.598
787.309	128.087
791.16	87.621
795.009	426.072
798.856	847.287
802.702	1182.46
806.545	1409.34
810.387	2223.51
814.227	3377.01
818.065	4537.33
821.902	5403.42
825.737	5476.14
829.569	5587.75
833.401	5992.4
837.23	7284.45
841.057	9406.91
844.883	12250.3
848.707	16123.6
852.529	20417.2
856.35	24651.2
860.168	26235.4
863.985	27349.8
867.8	30744.4
871.613	33549.2
875.425	30404
879.234	25459
883.042	21644.9
886.848	17481.2
890.653	12799
894.455	9023.28
898.256	7287.88
902.055	6974.56
905.852	8002.67
909.648	9515
913.442	8678.3
917.233	5913.87
921.024	3275.39
924.812	1690.71
928.599	1123.04
932.384	647.99
936.167	218.434
939.948	178.78
943.728	280.218
947.506	70.941
951.282	91.228
955.056	250.538
958.829	247.928
962.6	121.255
966.369	212.539
970.136	96.003
973.902	416.652
977.666	569.236
981.428	602.109
985.188	256.137
988.947	248.857
992.704	270.538
996.459	463.351
1000.21	916.199
1003.96	1067.88
1007.71	910.314
1011.46	732.25
1015.21	789.797
1018.95	967.569
1022.7	1223.55
1026.44	1199.88
1030.18	821.565
1033.91	330.572
1037.65	176.875
1041.39	104.438
1045.12	195.162
1048.85	382.994
1052.58	459.923
1056.31	154.803
1060.03	36.416
1063.76	67.669
1067.48	37.31
1071.2	322.635
1074.92	548.335
1078.63	753.341
1082.35	506.671
1086.06	439.418
1089.78	450.066
1093.49	347.253
1097.19	478.576
1100.9	638.628
1104.61	666.735
1108.31	354.051
1112.01	135.55
1115.71	46.954
1119.41	34.545
1123.11	98.06
1126.8	450.521
1130.5	643.683
1134.19	643.029
1137.88	369.078
1141.57	64.35
1145.25	39.841
1148.94	230.144
1152.62	503.051
1156.3	704.12
1159.98	935.793
1163.66	775.533
1167.34	709.431
1171.01	596.813
1174.68	1042.71
1178.36	1582.08
1182.02	1923.47
1185.69	1624.7
1189.36	1370.14
1193.02	1081.28
1196.69	893.95
1200.35	816.352
1204.01	680.886
1207.66	777.566
1211.32	1179.3
1214.98	1397.98
1218.63	1255.42
1222.28	995.828
1225.93	726.761
1229.58	746.351
1233.22	518.948
1236.87	718.041
1240.51	860.334
1244.15	1192.91
1247.79	1288.47
1251.43	1061.66
1255.07	742.301
1258.7	415.631
1262.33	241.678
1265.96	240.752
1269.59	109.812
1273.22	660.743
1276.85	704.996
1280.47	589.485
1284.1	555.854
1287.72	265.857
1291.34	166.696
1294.95	111.097
1298.57	237.594
1302.19	409.378
1305.8	514.755
1309.41	750.578
1313.02	765.247
1316.63	667.787
1320.23	606.966
1323.84	288.916
1327.44	147.642
1331.05	11.821
1334.64	188.523
1338.24	335.897
1341.84	544.455
1345.43	639.806
1349.03	549.422
1352.62	360.317
1356.21	153.662
1359.8	97.659
1363.39	79.405
1366.97	33.118
1370.56	54.612
1374.14	396.404
1377.72	534.749
1381.3	612.305
1384.87	681.614
1388.45	483.802
1392.02	213.664
1395.6	44
1399.17	90.902
1402.74	55.486
1406.3	87.585
1409.87	385.486
1413.43	580.252
1417	806.836
1420.56	834.646
1424.12	781.966
1427.67	642.739
1431.23	397.038
1434.79	193.719
1438.34	248.914
1441.89	276.492
1445.44	484.767
1448.99	686.667
1452.54	972.702
1456.08	1105.19
1459.62	1170.48
1463.17	890.202
1466.71	762.499
1470.24	425.755
1473.78	212.444
1477.32	130.586
1480.85	63.783
1484.38	108.146
1487.91	284.762
1491.44	520.399
1494.97	723.948
1498.5	756.924
1502.02	879.469
1505.54	758.144
1509.07	646.942
1512.59	514.355
1516.1	258.754
