Measurement: Raman, 514 nm, depolarized, Raman Data Processed
Mineral: Titanite
Rruff sample: R050039
Ideal chemistry: CaTi^4+^SiO_5_
Locality: Kingman, Arizona, USA
Source: University of Arizona Mineral Museum
Description: Black fragment from a single crystal
Measured chemistry: (Ca_0.95_Y_0.05_)(Ti_0.85_Al_0.10_Fe^3+^_0.06_)Si_1.00_O_4_(O_0.93_F_0.07_)
Pin_id: L00539
Orientation: Laser parallel to c* (0 0 1). Fiducial mark perpendicular to laser is parallel to a [1 0 0]
Raman shift (cm-1)	intensity
124.092	0
128.263	4.207
132.432	42.441
136.599	29.045
140.764	341.463
144.927	396.607
149.088	1241
153.247	1714.72
157.404	2521.54
161.559	3038.28
165.711	3212.15
169.862	3339.24
174.011	3666.28
178.158	3901.35
182.303	4144.14
186.446	4575.68
190.587	5135.01
194.726	5174.6
198.862	6062.17
202.997	6352.95
207.13	7076.25
211.261	7589.19
215.39	8541.56
219.517	9154.36
223.642	9628.15
227.765	9673.18
231.886	8900.3
236.005	8946.06
240.122	8973.61
244.237	9529.01
248.35	9525.69
252.461	10091.8
256.57	9987.39
260.677	9032.3
264.782	7831.57
268.885	6512.56
272.986	5223.1
277.085	4203.14
281.182	3462.57
285.278	3441.37
289.371	3608.7
293.462	3722.12
297.552	4352.33
301.639	5186.19
305.724	5633.88
309.808	5937.15
313.889	6623.23
317.969	6961.67
322.046	7012.09
326.122	6904.19
330.196	6897.69
334.267	6544.39
338.337	5996.22
342.405	5451.3
346.471	5044.25
350.535	4970.89
354.597	4911.99
358.657	5004.03
362.715	4824.66
366.771	4455.62
370.825	3893.77
374.877	3001.75
378.928	1839.58
382.976	897.254
387.023	254.744
391.067	77.984
395.11	201.143
399.15	265.086
403.189	89.895
407.226	723.586
411.261	1577.69
415.294	2680.57
419.325	3832.78
423.354	4014.03
427.381	3923.51
431.406	3662.11
435.43	3170.08
439.451	2957.44
443.471	2764.18
447.488	2700.31
451.504	3405.88
455.518	3901.27
459.53	4886.5
463.54	5061.48
467.548	5846.17
471.554	5410.47
475.558	4754.35
479.561	3737.8
483.561	2700.82
487.559	1553.38
491.556	705.467
495.551	12.963
499.544	361.785
503.535	555.949
507.524	653.17
511.511	674.826
515.496	500.838
519.48	230.234
523.461	228.021
527.441	715.287
531.418	1182
535.394	1698.18
539.368	2183.83
543.34	2638.95
547.311	2843.55
551.279	2751.22
555.245	2762.89
559.21	2243.95
563.173	2257.35
567.133	2399.58
571.092	2921.39
575.049	4022.8
579.005	5333.82
582.958	6224.47
586.909	7394.76
590.859	8434.72
594.807	9304.38
598.753	10413.7
602.697	11272.8
606.639	12251.6
610.579	12770.1
614.518	13098.4
618.454	13466.4
622.389	13954.2
626.322	14431.9
630.253	14380.5
634.182	14540.5
638.109	14495.8
642.035	14505.2
645.958	14310.2
649.88	14192.2
653.8	13782.2
657.718	13687.1
661.634	12930.2
665.549	12295.9
669.461	11776.9
673.372	11266.7
677.281	10680.3
681.188	10075.1
685.093	9988.16
688.997	9172.4
692.898	8876.93
696.798	8311.79
700.696	8146.97
704.592	7842.47
708.486	7208.36
712.378	6844.85
716.269	6482.24
720.158	6021.89
724.045	5649.06
727.93	4918.01
731.813	4817.31
735.694	4316.97
739.574	3956.98
743.452	3647.35
747.328	3198.07
751.202	2959.15
755.075	2650.58
758.945	1972.37
762.814	1534.52
766.681	1747.02
770.546	1529.35
774.409	1263.07
778.271	1089.33
782.131	823.711
785.989	1090.97
789.845	958.816
793.699	976.257
797.552	736.567
801.402	618.331
805.251	255.304
809.098	120.283
812.944	36.081
816.787	33.611
820.629	13.115
824.469	85.384
828.307	7.921
832.144	212.801
835.978	328.854
839.811	745.285
843.642	1091.83
847.472	1398.35
851.299	2084.8
855.125	3011.17
858.949	4247.44
862.771	5303.6
866.591	6919.64
870.41	8535.53
874.227	10411.3
878.042	11666.8
881.855	12482.1
885.667	12987.3
889.476	12982.2
893.284	12236.8
897.09	11341.2
900.895	9325.35
904.698	7769.2
908.499	6272.76
912.298	4956.01
916.095	3658.94
919.891	2671.54
923.685	1353.78
927.477	725.663
931.267	82.864
935.056	522.624
938.843	495.478
942.628	432.188
946.411	492.995
950.193	96.902
953.973	527.865
957.751	1003.39
961.527	1669.66
965.302	2552.99
969.075	3453.27
972.846	4263.99
976.615	4807.33
980.383	5107.4
984.149	5059.94
987.913	5321.14
991.675	5377.64
995.436	5299.62
999.195	5217.63
1002.95	4944.98
1006.71	5031.68
1010.46	5087.71
1014.21	5363.07
1017.96	5317.78
1021.71	5431.82
1025.46	5685.2
1029.2	5787.92
1032.95	6089.98
1036.69	6111.38
1040.43	6182.12
1044.17	5632.2
1047.9	5391.64
1051.64	4770.41
1055.37	4238.54
1059.1	3606.03
1062.83	3092.86
1066.56	2509.05
1070.29	2274.58
1074.01	2039.47
1077.73	2173.7
1081.46	2409.2
1085.17	2563.49
1088.89	2433.97
1092.61	2045.95
1096.32	1540.4
1100.04	980.495
1103.75	331.571
1107.46	300.82
1111.16	221.175
1114.87	111.402
1118.57	68.646
1122.28	21.049
1125.98	130.705
1129.67	230.029
1133.37	321.754
1137.07	134.562
1140.76	52
1144.45	428.248
1148.14	914.315
1151.83	1520.25
1155.52	2336.03
1159.21	3481.67
1162.89	4507.16
1166.57	6032.52
1170.25	7467.74
1173.93	9132.85
1177.61	9717.83
1181.28	9732.68
1184.96	9077.39
1188.63	8821.94
1192.3	8556.38
1195.97	8372.74
1199.64	8604.89
1203.3	8558.84
1206.97	8352.53
1210.63	7895.92
1214.29	7468.94
1217.95	7241.51
1221.6	7683.55
1225.26	8414.97
1228.91	9055.77
1232.57	10186.4
1236.21	11249.5
1239.86	11915.3
1243.51	11995.6
1247.16	11718.6
1250.8	11121.9
1254.44	10213.8
1258.08	9242.06
1261.72	8135.94
1265.36	7387.12
1268.99	6929.36
1272.63	6372.74
1276.26	5882.63
1279.89	5717.2
1283.52	5698.04
1287.15	5947.3
1290.77	6550.52
1294.4	7057.65
1298.02	7351.35
1301.64	7935.79
1305.26	8078.86
1308.88	8235.79
1312.49	8544.41
1316.11	8477.57
1319.72	8279.71
1323.33	8071.51
1326.94	7720.75
1330.55	7309.42
1334.15	6609.7
1337.76	6269.8
1341.36	5595.34
1344.96	4825.92
1348.56	4202.27
1352.16	3775.91
1355.75	3253.44
1359.35	2713.92
1362.94	2408
1366.53	1984.58
1370.12	1412.57
1373.71	1018.37
1377.3	628.784
1380.88	502.265
1384.46	232.395
1388.05	140.126
1391.63	94.962
1395.2	46.605
1398.78	63.111
1402.36	33.621
1405.93	19.233
1409.5	100.622
1413.07	9.445
1416.64	69.241
1420.21	8.075
1423.78	7.979
1427.34	3.006
1430.9	163.913
1434.46	158.802
1438.02	366.33
1441.58	299.306
1445.13	301.049
1448.69	342.376
1452.24	395.451
1455.79	340.55
1459.34	352.856
1462.89	251.044
1466.44	182.891
1469.98	106.854
1473.53	155.107
1477.07	126.094
1480.61	230.296
1484.14	79.508
1487.68	176.742
1491.22	168.114
1494.75	166.651
1498.28	312.977
1501.81	149.631
1505.34	171.68
1508.87	197.104
1512.4	269.756
1515.92	7.771
1519.44	1.092
