Measurement: Raman, 514 nm, depolarized, Raman Data Processed
Mineral: Titanite
Rruff sample: R040033
Ideal chemistry: CaTi^4+^SiO_5_
Locality: Brazil
Source: University of Arizona Mineral Museum
Description: Green flattened wedge-shaped single crystals
Measured chemistry: (Ca_0.97_Fe^3+^_0.03_)_Σ=1_(Ti_0.97_Al_0.03_)_Σ=1_Si_1.00_O_5_; Fe^3+^ assigned for charge balance
Pin_id: L00395
Orientation: Laser parallel to [-1 0 -1]. Fiducial mark perpendicular to laser is parallel to -b* (0 -1 0)
Raman shift (cm-1)	intensity
51.466	0
55.666	303.712
59.863	117.945
64.059	104.064
68.253	123.438
72.445	970.565
76.635	2024.76
80.823	2621.61
85.009	2629.73
89.193	2493
93.375	2440.89
97.554	2207.64
101.732	2314.17
105.908	2585.11
110.082	2720.61
114.254	2919.71
118.424	3112.43
122.592	3575.84
126.758	4524.03
130.922	4998.9
135.083	5359.47
139.243	6088.07
143.401	7173.83
147.557	6698.1
151.711	7595.34
155.863	12243.7
160.013	17769.1
164.161	17862.1
168.308	14871
172.452	13643.9
176.594	14076.1
180.734	15460.5
184.872	15641.4
189.008	14856.6
193.143	15250.2
197.275	15688.2
201.405	16921.6
205.534	18836.3
209.66	19365.3
213.784	18287.6
217.907	18498.7
222.027	19410.1
226.146	20090.7
230.263	20846.6
234.377	20796.1
238.49	21964.4
242.601	24960.8
246.709	30676.3
250.816	35761.3
254.921	37288.9
259.024	32911.9
263.125	25017.9
267.224	18767.6
271.321	15084.8
275.416	13543.1
279.51	13625.5
283.601	14442.7
287.69	15705.6
291.778	13834
295.863	10271
299.947	11296.3
304.029	12932.9
308.108	13198.9
312.186	14659.9
316.262	16448.7
320.336	14551.2
324.408	13463.8
328.478	14345.3
332.546	15631
336.612	15225.4
340.677	12811.5
344.739	10408.4
348.799	8770.02
352.858	7440.34
356.915	6511.37
360.969	5791.1
365.022	5133.53
369.073	4263.64
373.122	3281.43
377.169	2054.88
381.215	686.07
385.258	73.65
389.299	382.709
393.339	881.723
397.376	1429.81
401.412	1606.23
405.446	1319.86
409.478	526.583
413.508	1200.88
417.536	4337.22
421.562	7399.52
425.586	7108.77
429.609	4783.93
433.629	3315.98
437.648	2778.92
441.665	2420.73
445.68	2491.39
449.693	2918.91
453.704	4316.27
457.713	7430.52
461.721	12237.8
465.726	16735.1
469.73	14460.6
473.731	7646.35
477.731	3373.43
481.729	1715.99
485.725	1202.01
489.72	1345.52
493.712	1521.55
497.703	1632.02
501.691	1798.79
505.678	1974.69
509.663	2609.61
513.646	3201.45
517.627	3964.22
521.607	4909.89
525.584	6208.43
529.56	8431.82
533.534	10875.1
537.506	13334.1
541.476	15001
545.444	15289.6
549.41	14406.7
553.375	12084.4
557.337	9416.52
561.298	6766.55
565.257	4870.43
569.214	4201.52
573.17	5428.58
577.123	7661.92
581.075	10925.6
585.024	15721.6
588.972	21835.9
592.918	28415.5
596.863	37294.4
600.805	46441.5
604.746	54105
608.685	56890.7
612.621	54660.7
616.557	50063.9
620.49	43145.7
624.421	37785.9
628.351	31662.1
632.279	27327.8
636.205	23652
640.129	20300.9
644.051	17740.1
647.972	15534.8
651.89	14200.6
655.807	12503.4
659.722	11334.9
663.636	10233.5
667.547	9003.93
671.457	8164.3
675.365	7368.88
679.271	6687.08
683.175	6143.96
687.077	5259.64
690.978	4910
694.877	4302
698.774	3955.63
702.669	3305.9
706.562	3051.22
710.454	2656.57
714.344	2428.1
718.232	2194.64
722.118	1856.27
726.002	1619.05
729.885	1403.03
733.766	1172.44
737.645	1005.26
741.522	733.471
745.397	515.055
749.271	388.973
753.143	211.442
757.013	77.677
760.881	17.397
764.748	9.431
768.613	43.699
772.476	159.718
776.337	144.862
780.196	158.909
784.054	171.853
787.91	199.046
791.764	243.803
795.616	235.462
799.467	188.66
803.316	199.504
807.163	187.338
811.008	44.266
814.851	30.028
818.693	73.483
822.533	87.953
826.371	144.94
830.208	108.569
834.042	158.262
837.875	264.423
841.706	316.166
845.536	542.484
849.363	832.359
853.189	1029.77
857.013	1194.7
860.836	1323.12
864.656	1667.99
868.475	2265.27
872.292	2639.88
876.108	2550.78
879.922	2694.89
883.733	2772.86
887.544	2250.36
891.352	1462.48
895.159	879.363
898.964	687.396
902.767	764.074
906.568	1236.06
910.368	1629.98
914.166	1716.4
917.962	1203
921.757	699.122
925.55	414.241
929.341	304.118
933.13	194.54
936.918	155.075
940.703	140.635
944.488	82.575
948.27	153.946
952.051	123.648
955.83	168.347
959.607	217.663
963.383	192.17
967.156	158.419
970.928	218.653
974.699	283.42
978.468	321.44
982.234	365.529
986	373.965
989.763	416.497
993.525	416.357
997.285	472.413
1001.04	562.71
1004.8	642.173
1008.55	835.585
1012.31	937.12
1016.06	841.689
1019.81	822.37
1023.56	701.195
1027.31	529.286
1031.05	313.664
1034.79	240.326
1038.53	147.271
1042.27	117.453
1046.01	60.86
1049.75	91.499
1053.48	107.389
1057.22	90.57
1060.95	132.963
1064.68	190.696
1068.4	215.792
1072.13	225.296
1075.86	251.699
1079.58	196.66
1083.3	180.957
1087.02	76.966
1090.74	75.136
1094.45	76.55
1098.17	54.713
1101.88	15.09
1105.59	2.734
1109.3	23.304
1113.01	4.999
1116.71	32.93
1120.42	20.925
1124.12	9.546
1127.82	15.37
1131.52	34.113
1135.22	44.997
1138.91	56.884
1142.61	53.39
1146.3	54.391
1149.99	59.012
1153.68	66.661
1157.37	87.029
1161.06	82.065
1164.74	115.806
1168.42	122.204
1172.1	143.492
1175.78	196.231
1179.46	202.607
1183.14	197.289
1186.81	170.879
1190.48	164.192
1194.15	145.105
1197.83	106.032
1201.49	162.92
1205.16	120.161
1208.82	107.888
1212.49	114.366
1216.15	112.288
1219.81	107.322
1223.46	90.777
1227.12	104.85
1230.78	99.15
1234.43	72.645
1238.08	68.271
1241.73	54.468
1245.38	101.405
1249.03	47.432
1252.67	32.257
1256.31	41.459
1259.95	25.24
1263.6	2.01
1267.23	7.936
1270.87	10.977
1274.51	3.892
1278.14	12.512
1281.77	11.091
1285.4	38.859
1289.03	18.235
1292.66	10.391
1296.28	2.396
1299.91	16.19
1303.53	28.219
1307.15	19.177
1310.77	27.417
1314.38	9.609
1318	63.792
1321.61	70.884
1325.23	29.882
1328.84	12.805
1332.45	35.681
1336.06	41.538
1339.66	8.381
1343.27	12.211
1346.87	36.031
1350.47	36.856
1354.07	65.679
1357.67	22.49
1361.26	1.402
1364.86	1.206
1368.45	14.931
1372.04	11.613
1375.63	16.649
1379.22	18.009
1382.81	6.554
1386.39	32.65
1389.98	7.367
1393.56	7.052
1397.14	11.087
1400.72	21.362
1404.3	21.726
1407.87	0.049
1411.45	44.42
1415.02	25.198
1418.59	72.042
1422.16	25.18
1425.73	39.381
1429.29	17.222
1432.86	50.529
1436.42	64.461
1439.98	73.218
1443.54	118.815
1447.1	52.562
1450.66	143.4
1454.21	82.155
1457.77	93.071
1461.32	70.872
1464.87	70.297
1468.42	60.643
1471.96	22.083
1475.51	46.368
1479.06	41.639
1482.6	60.68
1486.14	44.934
1489.68	57.33
1493.22	14.082
1496.75	50.286
1500.29	6.663
1503.82	21.405
1507.35	41.641
1510.88	27.191
1514.41	0.776
1517.94	1.93
