Measurement: Raman, 514 nm, depolarized, Raman Data Processed
Mineral: Titanite
Rruff sample: R040033
Ideal chemistry: CaTi^4+^SiO_5_
Locality: Brazil
Source: University of Arizona Mineral Museum
Description: Green flattened wedge-shaped single crystals
Measured chemistry: (Ca_0.97_Fe^3+^_0.03_)_Σ=1_(Ti_0.97_Al_0.03_)_Σ=1_Si_1.00_O_5_; Fe^3+^ assigned for charge balance
Pin_id: L00108
Orientation: Laser parallel to c [0 0 1]. Fiducial mark perpendicular to laser is parallel to b* (0 1 0)
Raman shift (cm-1)	intensity
51.466	0
55.666	376.662
59.863	40.048
64.059	77.63
68.253	619.124
72.445	1993.53
76.635	3571.65
80.823	4295.97
85.009	4620.27
89.193	4937.59
93.375	5205.26
97.554	5409.44
101.732	5861.72
105.908	6379.23
110.082	6814.88
114.254	6871.95
118.424	6654.74
122.592	6903.21
126.758	7343.75
130.922	7244.08
135.083	7018
139.243	7123.57
143.401	7442.23
147.557	7589.78
151.711	9570.52
155.863	14490.5
160.013	19194.9
164.161	19053
168.308	15862.5
172.452	13674.3
176.594	12804.9
180.734	13085.1
184.872	12905.1
189.008	13082.9
193.143	14089.4
197.275	15428.6
201.405	17344.5
205.534	19553.1
209.66	20679.3
213.784	20933.2
217.907	21982.7
222.027	23463.3
226.146	24294.5
230.263	24428.1
234.377	23912.4
238.49	23981.6
242.601	26499.4
246.709	30548.8
250.816	33300.5
254.921	32515.6
259.024	27740
263.125	22148.2
267.224	17240.8
271.321	13634.4
275.416	11572.7
279.51	10297.5
283.601	9990.49
287.69	9839.57
291.778	9112.57
295.863	9847.35
299.947	12580.8
304.029	15187.8
308.108	17388.3
312.186	19131.9
316.262	19724.5
320.336	17322.8
324.408	15523
328.478	15912
332.546	16578.8
336.612	15676.5
340.677	12893
344.739	10284.3
348.799	8461.51
352.858	7262.5
356.915	6418.3
360.969	5600.9
365.022	4621.27
369.073	3219.42
373.122	1898.32
377.169	645.96
381.215	199.625
385.258	475.821
389.299	716.694
393.339	1258.59
397.376	1575.02
401.412	1636.67
405.446	1337.72
409.478	237.594
413.508	1835.7
417.536	5138.14
421.562	8196.68
425.586	8350.3
429.609	6115.95
433.629	4757.62
437.648	4552.28
441.665	4296.91
445.68	4782.5
449.693	5738.08
453.704	8134.73
457.713	12835.5
461.721	19907.6
465.726	25883.1
469.73	23485
473.731	14290.3
477.731	7469.14
481.729	4000.49
485.725	2554.38
489.72	2408.81
493.712	2414.87
497.703	2690.57
501.691	2872.95
505.678	3114.93
509.663	3736.36
513.646	4583
517.627	5441.65
521.607	6632.25
525.584	8227.77
529.56	10807.2
533.534	13993.6
537.506	16858.9
541.476	19250.3
545.444	20322.9
549.41	20285.2
553.375	18050.6
557.337	14684.8
561.298	11409.3
565.257	8309.39
569.214	6192.64
573.17	6791.42
577.123	9064.75
581.075	12945.6
585.024	18332
588.972	25279.9
592.918	32242.2
596.863	40394
600.805	47725.3
604.746	52966.1
608.685	53458.3
612.621	49878.4
616.557	45763.1
620.49	39688.6
624.421	35311.6
628.351	29820
632.279	26176.4
636.205	23169.9
640.129	19960
644.051	17440
647.972	15541.8
651.89	14398.2
655.807	12428.8
659.722	11483.1
663.636	10423.9
667.547	9199.64
671.457	8464.83
675.365	7746.1
679.271	6891.62
683.175	6367.86
687.077	5523.81
690.978	5047.42
694.877	4548.69
698.774	4022.99
702.669	3504.35
706.562	3241.98
710.454	2621.47
714.344	2414.88
718.232	2170.74
722.118	1855.75
726.002	1673.68
729.885	1441.41
733.766	1227.51
737.645	971.92
741.522	720.611
745.397	595.553
749.271	399.722
753.143	259.088
757.013	116.621
760.881	75.722
764.748	116.106
768.613	113.768
772.476	197.605
776.337	132.688
780.196	187.392
784.054	194.741
787.91	171.028
791.764	186.47
795.616	153.895
799.467	188.026
803.316	130.28
807.163	188.965
811.008	174.766
814.851	162.229
818.693	5.954
822.533	145.234
826.371	223.675
830.208	418.535
834.042	531.885
837.875	835.699
841.706	1213.95
845.536	1657.61
849.363	2380.66
853.189	2987.07
857.013	3362.8
860.836	3221.81
864.656	3062.05
868.475	3285.44
872.292	3225.92
876.108	2632.41
879.922	2231.87
883.733	2146.25
887.544	1936.27
891.352	1579.72
895.159	1273.06
898.964	1245.39
902.767	1428.38
906.568	1979.81
910.368	2566.35
914.166	2520.82
917.962	1781.85
921.757	1093.54
925.55	694.553
929.341	413.628
933.13	346.692
936.918	226.034
940.703	185.907
944.488	149.019
948.27	137.667
952.051	150.453
955.83	251.5
959.607	273.54
963.383	337.663
967.156	402.919
970.928	465.833
974.699	578.773
978.468	650.844
982.234	779.531
986	849.545
989.763	1044
993.525	1089.62
997.285	1158.89
1001.04	1034.91
1004.8	1257.74
1008.55	1405.79
1012.31	1549.49
1016.06	1529.46
1019.81	1495.22
1023.56	1379.15
1027.31	1125.27
1031.05	817.585
1034.79	604.103
1038.53	488.843
1042.27	451.816
1046.01	325.034
1049.75	236.487
1053.48	207.166
1057.22	177.01
1060.95	174.206
1064.68	162.973
1068.4	164.165
1072.13	153.586
1075.86	187.359
1079.58	239.103
1083.3	271.478
1087.02	312.932
1090.74	308.844
1094.45	251.762
1098.17	147.14
1101.88	81.63
1105.59	4.938
1109.3	3.285
1113.01	6.939
1116.71	27.768
1120.42	11.69
1124.12	19.617
1127.82	29.257
1131.52	14.35
1135.22	22.885
1138.91	1.841
1142.61	2.187
1146.3	12.904
1149.99	46.016
1153.68	0.601
1157.37	64.87
1161.06	91.846
1164.74	182.557
1168.42	237.031
1172.1	379.277
1175.78	693.304
1179.46	881.123
1183.14	798.743
1186.81	543.173
1190.48	435.419
1194.15	449.857
1197.83	482.035
1201.49	484.483
1205.16	494.133
1208.82	564.598
1212.49	584.936
1216.15	547.4
1219.81	444.545
1223.46	374.623
1227.12	396.243
1230.78	430.77
1234.43	451.236
1238.08	496.482
1241.73	587.519
1245.38	655.541
1249.03	636.232
1252.67	566.619
1256.31	423.54
1259.95	345.154
1263.6	267.115
1267.23	222.451
1270.87	179.468
1274.51	171.355
1278.14	145.964
1281.77	135.979
1285.4	115.62
1289.03	141.514
1292.66	175.397
1296.28	218.244
1299.91	219.522
1303.53	277.192
1307.15	250.12
1310.77	302.97
1314.38	295.717
1318	310.265
1321.61	314.69
1325.23	322.95
1328.84	296.074
1332.45	207.148
1336.06	171.146
1339.66	169.972
1343.27	140.732
1346.87	141.455
1350.47	125.058
1354.07	127.668
1357.67	100.735
1361.26	86.274
1364.86	55.706
1368.45	47.095
1372.04	17.321
1375.63	0.398
1379.22	3.57
1382.81	17.249
1386.39	19.353
1389.98	12.101
1393.56	9.292
1397.14	11.132
1400.72	5.558
1404.3	10.173
1407.87	13.01
1411.45	21.939
1415.02	22.938
1418.59	21.956
1422.16	24.953
1425.73	17.95
1429.29	18.966
1432.86	43.021
1436.42	53.136
1439.98	68.328
1443.54	62.598
1447.1	66.499
1450.66	63.292
1454.21	90.513
1457.77	58.241
1461.32	46.476
1464.87	47.301
1468.42	74.021
1471.96	23.693
1475.51	21.861
1479.06	54.403
1482.6	34.375
1486.14	16.556
1489.68	25.034
1493.22	18.313
1496.75	3.649
1500.29	7.961
1503.82	32.893
1507.35	30.802
1510.88	6.322
1514.41	0.789
1517.94	41.516
1521.46	22.785
