Measurement: Raman, 514 nm, depolarized, Raman Data Processed
Mineral: Titanite
Rruff sample: R050114
Ideal chemistry: CaTi^4+^SiO_5_
Locality: Isthak Valley Iskardu, Northern Areas Gilgit, Pakistan
Source: Syed Shah
Description: Yellowish-brown fragment
Measured chemistry: (Ca_0.99_Na_0.01_)(Ti_0.96_Al_0.03_Fe^3+^_0.01_)Si_1.00_O_4_(O_0.95_F_0.05_)
Pin_id: L00350
Orientation: Laser parallel to (1 0 1). Fiducial mark perpendicular to laser is parallel to b [0 1 0]
Raman shift (cm-1)	intensity
119.556	0
123.72	13.506
127.882	335.23
132.041	380.16
136.199	45.002
140.355	296.945
144.509	1364.31
148.66	1501.35
152.81	3179.1
156.958	8550.7
161.105	15920.1
165.249	18142.2
169.391	14305.8
173.531	10804.8
177.669	10125.3
181.806	10904.4
185.94	11510.5
190.073	11378
194.204	12174.2
198.332	13566.4
202.459	16414.7
206.584	19340.3
210.707	20736.8
214.828	20307.2
218.947	21223.2
223.064	22185.8
227.179	23785.8
231.293	25083.5
235.404	24609.3
239.514	24263.4
243.621	26685.8
247.727	32356.4
251.831	36199
255.933	36135.5
260.033	32741.3
264.131	25177.4
268.227	17982
272.321	13473.9
276.413	11425.1
280.504	10974.9
284.592	10791.2
288.679	11246.2
292.764	9715.14
296.847	7418.42
300.928	8809.6
305.007	11167.2
309.084	11869.4
313.159	13195.1
317.233	15313.5
321.304	15734
325.374	14835.9
329.442	15658.6
333.508	16941.8
337.572	16535.3
341.634	14218.8
345.694	10842.2
349.753	8715.35
353.809	7588.03
357.864	7059.27
361.916	6418.61
365.967	5516.18
370.016	4732.16
374.064	3706.68
378.109	2219.83
382.152	545.657
386.194	194.084
390.233	397.551
394.271	935.583
398.307	1585.33
402.341	1707.94
406.374	1386.78
410.404	688.256
414.433	790.375
418.459	3806.32
422.484	8512.24
426.507	10636.5
430.528	8212.58
434.547	5697.63
438.565	4852.47
442.58	4647.13
446.594	4911.67
450.606	5546.27
454.616	7850.98
458.624	11735.8
462.631	17380.6
466.635	23195.6
470.638	25280.7
474.639	17915.9
478.638	9561.13
482.635	5126.27
486.63	3501.15
490.624	3455.64
494.615	3709.65
498.605	3963.1
502.593	4296.02
506.579	4678.28
510.564	5569.86
514.546	6480.79
518.527	7471.11
522.506	9110.8
526.483	11229.9
530.458	13578.4
534.431	16316.3
538.403	19273.7
542.373	21647.5
546.341	22902.3
550.307	22313.5
554.271	19281
558.234	15799.3
562.195	12548.1
566.154	9289.52
570.111	7036.79
574.066	7970.62
578.019	11376.1
581.971	16357.8
585.921	22838.5
589.869	30215.5
593.815	38543.3
597.76	47361.8
601.703	55261
605.644	56692.5
609.583	55408.7
613.52	51254.4
617.455	45719.7
621.389	39368.2
625.321	34056.9
629.251	29195.9
633.18	25653.7
637.106	22699.2
641.031	19971.5
644.954	17434.9
648.875	15439
652.795	14109.9
656.712	12710.9
660.628	11558.6
664.542	10152.6
668.455	9057.17
672.365	8384.96
676.274	7651.31
680.181	6867.19
684.086	6053.64
687.99	5429.96
691.891	4915.23
695.791	4540.13
699.689	3925.48
703.586	3397.88
707.48	3103.48
711.373	2749.19
715.264	2434.25
719.154	2083.59
723.041	1728.26
726.927	1470.37
730.811	1248.66
734.693	1221.37
738.574	974.38
742.453	655.662
746.33	570.191
750.205	353.941
754.079	304.883
757.95	176.991
761.82	111.812
765.689	313.681
769.555	296.059
773.42	298.219
777.283	246.682
781.144	362.59
785.004	374.605
788.862	294.647
792.718	198.777
796.572	108.323
800.425	3.525
804.276	36.051
808.125	20.08
811.972	5.123
815.818	116.999
819.662	166.25
823.504	138.052
827.345	101.35
831.183	167.136
835.02	253.487
838.856	318.392
842.689	453.859
846.521	627.9
850.351	745.522
854.18	994.687
858.006	1351.35
861.831	1706.45
865.655	2252.93
869.476	3116.71
873.296	3770.72
877.114	3923.88
880.93	4027.11
884.745	4311.35
888.558	4317.59
892.369	3577.81
896.179	2456
899.987	1834.14
903.793	1867.22
907.597	2388.22
911.4	3418.14
915.201	3654.75
919.001	2663.26
922.798	1640.54
926.594	892.303
930.388	523.832
934.181	230.649
937.972	42.676
941.761	28.572
945.548	69.754
949.334	54.301
953.118	51.681
956.901	91.801
960.681	183.276
964.46	363.248
968.238	653.961
972.013	1002.32
975.787	1328.74
979.56	1424.84
983.33	1329.7
987.099	1412.95
990.866	1540.95
994.632	1723.85
998.396	1690.8
1002.16	1617.99
1005.92	1539.55
1009.68	1692.22
1013.43	1763.18
1017.19	1870.06
1020.94	1901.09
1024.7	2132.27
1028.45	2090.62
1032.19	2071.15
1035.94	1983.42
1039.69	1888.79
1043.43	1664.93
1047.17	1462.29
1050.91	1217.9
1054.65	921.767
1058.39	776.906
1062.13	655.331
1065.86	600.11
1069.59	523.34
1073.32	458.227
1077.05	490.897
1080.78	538.321
1084.5	632.583
1088.23	755.399
1091.95	808.883
1095.67	628.65
1099.39	492.687
1103.11	346.121
1106.82	246.131
1110.54	187.913
1114.25	146.525
1117.96	124.001
1121.67	80.188
1125.38	45.048
1129.08	8.223
1132.79	12.17
1136.49	4.364
1140.19	73.948
1143.89	31.012
1147.59	59.49
1151.28	8.595
1154.98	57.338
1158.67	195.777
1162.36	438.97
1166.05	660.948
1169.74	1093.72
1173.43	1861.31
1177.11	2885.71
1180.79	3503.93
1184.47	3007.98
1188.15	2187.88
1191.83	1840.62
1195.51	1860.23
1199.18	2079.71
1202.86	1904.07
1206.53	1740.34
1210.2	1684.51
1213.87	1638.6
1217.54	1548.92
1221.2	1481.59
1224.86	1554.08
1228.53	1812.28
1232.19	2009.1
1235.85	2263.34
1239.5	2418.53
1243.16	2544.45
1246.81	2501.92
1250.46	2415.87
1254.12	2099.42
1257.76	1727.76
1261.41	1399.58
1265.06	1160.54
1268.7	1127.24
1272.34	1061.55
1275.99	947.015
1279.62	914.306
1283.26	933.205
1286.9	996.95
1290.53	1136.57
1294.17	1357.26
1297.8	1625.42
1301.43	1866.66
1305.06	2016.31
1308.68	1997.45
1312.31	1943.59
1315.93	1863.65
1319.56	1755.43
1323.18	1611.8
1326.8	1344.89
1330.41	1191.81
1334.03	1040.64
1337.64	928.433
1341.26	910.368
1344.87	960.392
1348.47	866.841
1352.08	831.623
1355.69	716.354
1359.29	584.937
1362.9	419.557
1366.5	319.955
1370.1	242.69
1373.7	165.592
1377.29	111.556
1380.89	74.124
1384.48	74.799
1388.08	10.39
1391.67	10.309
1395.26	25.337
1398.84	39.521
1402.43	58.683
1406.01	12.625
1409.6	33.167
1413.18	3.403
1416.76	66.474
1420.34	63.347
1423.91	64.228
1427.49	135.169
1431.06	124.203
1434.63	185.339
1438.2	216.57
1441.77	305.888
1445.34	345.329
1448.9	412.022
1452.47	403.286
1456.03	445.892
1459.59	384.292
1463.15	320.721
1466.71	246.747
1470.27	218.953
1473.82	156.555
1477.37	89.944
1480.93	73.597
1484.48	49.437
1488.03	47.852
1491.57	51.123
1495.12	22.009
1498.66	79.495
1502.2	57.854
1505.75	53.071
1509.29	45.774
1512.82	64.944
1516.36	13.71
1519.89	8.957
