Measurement: Raman, 514 nm, depolarized, Raman Data Processed
Mineral: Titanite
Rruff sample: R050124
Ideal chemistry: CaTi^4+^SiO_5_
Locality: Capelinha, Minas Gerais, Brazil
Source: Carlos and Paulo Vasconcelos
Description: Yellow tabular crystal
Measured chemistry: Ca_1.00_(Ti_0.93_Al_0.05_Fe^3+^_0.02_)Si_1.00_O_4_(O)_1.00_
Pin_id: M00396
Orientation: Laser parallel to -a* (-1 0 0). Fiducial mark perpendicular to laser is parallel to -b [0 -1 0]
Raman shift (cm-1)	intensity
148.691	0
152.858	73.896
157.024	3697.52
161.187	6750.8
165.348	5125.43
169.507	2433
173.664	1775.09
177.819	2135.21
181.971	2992.94
186.122	2953.91
190.271	2573.63
194.417	2423.59
198.562	3306.79
202.704	4329.27
206.844	4878.86
210.983	4178.1
215.119	4102.05
219.253	4578.22
223.385	5104.38
227.515	6108.4
231.643	7255
235.769	7702.63
239.893	7563.95
244.014	10331.1
248.134	14155.2
252.252	17106.8
256.367	17486.3
260.481	14393.8
264.592	9763.23
268.702	6762.1
272.809	5576.68
276.915	6149.91
281.018	7936.3
285.119	11242.2
289.218	15347.6
293.316	13561.9
297.411	7524.67
301.504	4987.95
305.595	5709.76
309.684	9792.35
313.771	18706.3
317.856	22521.2
321.939	15185.6
326.02	10409.7
330.099	9150.11
334.176	8294.78
338.251	6962.31
342.323	5871.74
346.394	5903.43
350.463	6163.41
354.53	4784.5
358.594	3255.25
362.657	2305.41
366.718	1540.81
370.777	1051.33
374.833	712.602
378.888	30.114
382.941	655.628
386.992	714.972
391.04	700.399
395.087	800.169
399.132	737.425
403.174	210.731
407.215	1026.22
411.254	3495.43
415.29	8180.96
419.325	15864.8
423.358	19957.1
427.389	14907.6
431.417	8132.93
435.444	4190.71
439.469	2203.19
443.492	1089.16
447.512	341.148
451.531	103.146
455.548	137.293
459.563	67.515
463.576	202.043
467.587	256.091
471.596	537.532
475.603	1140.96
479.608	2047.96
483.611	2862.26
487.612	3482.66
491.611	4052.05
495.608	4270.34
499.603	3897.52
503.596	3613.53
507.587	3628.39
511.577	4092.07
515.564	4294.58
519.549	4605.93
523.533	5296.13
527.514	5975.2
531.493	7253.15
535.471	8240.01
539.447	9248.99
543.42	9307.77
547.392	8667.62
551.362	7037.15
555.329	5333.95
559.295	4641
563.259	5498.97
567.221	7951.74
571.181	10121.9
575.139	11701.6
579.095	14231
583.049	17410
587.002	21798.7
590.952	26847.2
594.9	33565.5
598.847	42343.8
602.792	50272.4
606.734	55450.8
610.675	54955.6
614.614	51221
618.55	46061
622.485	41558.4
626.418	35207.5
630.349	29889.7
634.279	25497.3
638.206	22486.4
642.131	19592.5
646.055	17326.4
649.976	15201.2
653.896	13646.6
657.814	12682.6
661.729	11419.3
665.643	10066.5
669.555	8824.34
673.465	8202.72
677.373	7661.71
681.28	6841.33
685.184	6091.6
689.087	5352.54
692.987	4854.16
696.886	4556.61
700.783	4200.99
704.677	3578.15
708.57	2948.31
712.462	2701.71
716.351	2598.48
720.238	2287.96
724.124	1940.76
728.007	1523.37
731.889	1473.8
735.769	1187.07
739.647	991.207
743.523	795.245
747.397	333.224
751.269	142.175
755.139	207.127
759.008	87.105
762.875	37.875
766.739	107.457
770.602	258.207
774.463	139.2
778.323	35.404
782.18	35.898
786.035	78.503
789.889	206.062
793.741	70.245
797.591	168.547
801.439	498.225
805.285	621.419
809.129	936.996
812.971	1413.31
816.812	2055.64
820.651	2444.15
824.488	2689.84
828.323	2903.66
832.156	3001.09
835.987	3396.02
839.817	4302.24
843.644	5778.89
847.47	6965.97
851.294	8813.46
855.116	10551.3
858.936	12449.5
862.755	14988
866.571	19286.8
870.386	22995.6
874.199	22434.6
878.01	19833.7
881.82	17903.1
885.627	15673.7
889.433	11826.7
893.236	7819.51
897.038	5328.95
900.838	4340.29
904.637	4431.93
908.433	5194.94
912.228	5219.15
916.021	3388.91
919.812	1861.38
923.601	848.237
927.388	447.124
931.174	164.728
934.958	72.347
938.739	111.161
942.52	247.584
946.298	303.677
950.074	123.812
953.849	28.223
957.622	204.144
961.393	139.701
965.162	61.458
968.93	198.935
972.696	164.172
976.459	340.42
980.222	392.053
983.982	348.749
987.74	266.831
991.497	335.408
995.252	385.937
999.005	494.387
1002.76	709.181
1006.51	832.558
1010.25	911.777
1014	834.645
1017.74	810.894
1021.49	879.516
1025.23	852.504
1028.96	696.852
1032.7	483.546
1036.44	370.559
1040.17	206.828
1043.9	76.321
1047.63	148.925
1051.36	207.598
1055.09	244.294
1058.81	151.971
1062.54	130.53
1066.26	106.151
1069.97	220.94
1073.69	350.05
1077.41	455.512
1081.12	520.059
1084.84	522.001
1088.55	379.295
1092.25	285.516
1095.96	254.046
1099.67	209.372
1103.37	214.914
1107.07	289.71
1110.77	138.994
1114.47	79.768
1118.16	29.589
1121.86	85.011
1125.55	122.34
1129.24	120.412
1132.93	267.871
1136.62	251.828
1140.31	218.507
1143.99	165.888
1147.67	119.3
1151.35	133.048
1155.03	256.294
1158.71	489.051
1162.39	507.335
1166.06	539.158
1169.73	666.524
1173.4	862.443
1177.07	1119.92
1180.74	1278.82
1184.4	1092.67
1188.07	942.362
1191.73	750.612
1195.39	780.471
1199.05	680.529
1202.7	523.076
1206.36	553.551
1210.01	609.608
1213.66	693.486
1217.31	610.946
1220.96	626.718
1224.6	627.148
1228.25	546.848
1231.89	437.716
1235.53	478.142
1239.17	521.312
1242.81	617.745
1246.44	695.15
1250.08	750.936
1253.71	676.927
1257.34	444.345
1260.97	238.182
1264.6	121.138
1268.22	181.848
1271.85	123.253
1275.47	199.798
1279.09	297.026
1282.71	248.621
1286.33	242.988
1289.94	256.63
1293.56	216.568
1297.17	270.84
1300.78	221.237
1304.39	266.52
1307.99	354.981
1311.6	464.158
1315.2	491.199
1318.8	535.125
1322.4	419.834
1326	292.438
1329.6	132.93
1333.19	114.354
1336.79	55.723
1340.38	64.083
1343.97	181.493
1347.56	220.982
1351.14	212.608
1354.73	225.43
1358.31	84.517
1361.89	10.558
1365.47	14.735
1369.05	118.242
1372.63	91.527
1376.2	65.787
1379.78	168.159
1383.35	223.341
1386.92	236.546
1390.49	248.898
1394.05	156.16
1397.62	69.761
1401.18	0.766
1404.74	53.395
1408.3	15.632
1411.86	118.742
1415.42	165.935
1418.97	301.242
1422.53	439.701
1426.08	355.347
1429.63	409.449
1433.18	237.521
1436.72	243.186
1440.27	231.823
1443.81	265.164
1447.36	322.618
1450.89	355.899
1454.43	434.826
1457.97	536.508
1461.51	555.567
1465.04	582.278
1468.57	484.482
1472.1	448.753
1475.63	298.482
1479.16	115.558
1482.68	119.588
1486.21	49.228
1489.73	129.329
1493.25	212.561
1496.77	232.284
1500.29	211.423
1503.8	346.487
1507.32	393.897
1510.83	421.061
1514.34	201.124
