Measurement: Raman, 514 nm, depolarized, Raman Data Processed
Mineral: Titanite
Rruff sample: R050124
Ideal chemistry: CaTi^4+^SiO_5_
Locality: Capelinha, Minas Gerais, Brazil
Source: Carlos and Paulo Vasconcelos
Description: Yellow tabular crystal
Measured chemistry: Ca_1.00_(Ti_0.93_Al_0.05_Fe^3+^_0.02_)Si_1.00_O_4_(O)_1.00_
Pin_id: M00259
Orientation: Laser parallel to c* (0 0 1). Fiducial mark perpendicular to laser is parallel to a [1 0 0]
Raman shift (cm-1)	intensity
148.691	0
152.858	2.457
157.024	3142.45
161.187	7458.76
165.348	6569.97
169.507	3320.92
173.664	2053.51
177.819	2351.71
181.971	2870.51
186.122	2893.26
190.271	2857.59
194.417	3386.73
198.562	4471.57
202.704	6217.25
206.844	8530.82
210.983	8950.95
215.119	9344.04
219.253	10433.7
223.385	11912.1
227.515	12682.5
231.643	12997.1
235.769	12928.2
239.893	12860.6
244.014	15727.1
248.134	20929.4
252.252	25278.3
256.367	25544.3
260.481	21137.6
264.592	14874.7
268.702	9974.89
272.809	7355.94
276.915	6691.04
281.018	6868.06
285.119	7218.92
289.218	7161.57
293.316	5474.14
297.411	5445.62
301.504	8485.19
305.595	10222.9
309.684	11028.7
313.771	12983.2
317.856	13822.5
321.939	11977.1
326.02	11254.3
330.099	12830
334.176	14131.5
338.251	12816.9
342.323	10125.1
346.394	7915.15
350.463	6206.08
354.53	5217.19
358.594	4708.06
362.657	4358.4
366.718	3548.01
370.777	2687.76
374.833	1707.3
378.888	641.568
382.941	180.465
386.992	487.754
391.04	684.724
395.087	1127.84
399.132	1564.06
403.174	1437.08
407.215	1168.67
411.254	139.968
415.29	1485.17
419.325	4261.34
423.358	6769.72
427.389	6563.3
431.417	5242.56
435.444	4428.55
439.469	4433.14
443.492	4801.47
447.512	5273.55
451.531	6597.03
455.548	9239.92
459.563	14352.3
463.576	21974
467.587	28835.4
471.596	23596.3
475.603	13947.1
479.608	7947.84
483.611	4987.37
487.612	3882.45
491.611	3542.04
495.608	3689.03
499.603	3790.33
503.596	3857.81
507.587	4119.35
511.577	4676.95
515.564	5485.66
519.549	6373.45
523.533	7386.3
527.514	8838.14
531.493	11138.9
535.471	13858.5
539.447	16412.5
543.42	18385.1
547.392	19574.7
551.362	19366.1
555.329	17043
559.295	13870.4
563.259	11158.4
567.221	7944.84
571.181	5930.85
575.139	6019.65
579.095	7931.28
583.049	10852.8
587.002	15264.1
590.952	20535.4
594.9	26726.7
598.847	34378.1
602.792	41829.9
606.734	48302
610.675	49144.5
614.614	46657.5
618.55	42081
622.485	38227
626.418	33496.4
630.349	28723.6
634.279	24397.7
638.206	20882.4
642.131	18639.3
646.055	16553.4
649.976	14497.3
653.896	12980.3
657.814	11956.6
661.729	10728.5
665.643	9918.86
669.555	8695.61
673.465	7889.8
677.373	7171.85
681.28	6497.86
685.184	6026.27
689.087	5186.7
692.987	4629.59
696.886	4202.35
700.783	4007.14
704.677	3650.08
708.57	3095.67
712.462	2620.79
716.351	2386.58
720.238	2120.55
724.124	1951.34
728.007	1625.71
731.889	1449.8
735.769	1170.77
739.647	1050.99
743.523	856.632
747.397	687.942
751.269	488.394
755.139	314.16
759.008	251.223
762.875	169.565
766.739	139.16
770.602	2.026
774.463	34.029
778.323	66.271
782.18	60.714
786.035	93.451
789.889	187.677
793.741	244.054
797.591	228.56
801.439	191.192
805.285	175.96
809.129	141.232
812.971	158.137
816.812	102.201
820.651	108.765
824.488	76.605
828.323	26.517
832.156	55.203
835.987	67.604
839.817	43.342
843.644	189.909
847.47	314.274
851.294	445.448
855.116	604.412
858.936	685.127
862.755	865.551
866.571	1107.63
870.386	1305.29
874.199	1169.45
878.01	739.048
881.82	396.007
885.627	263.932
889.433	254.024
893.236	305.844
897.038	426.32
900.838	692.403
904.637	1257.19
908.433	2185.69
912.228	2807.85
916.021	2418.68
919.812	1477
923.601	806.977
927.388	476.346
931.174	327.661
934.958	272.219
938.739	197.903
942.52	136.938
946.298	135.972
950.074	146.694
953.849	180.397
957.622	227.057
961.393	253.151
965.162	286.887
968.93	301.239
972.696	319.708
976.459	386.557
980.222	469.489
983.982	518.946
987.74	591.736
991.497	690.216
995.252	692.171
999.005	667.288
1002.76	698.898
1006.51	831.646
1010.25	942.631
1014	965.875
1017.74	897.282
1021.49	774.825
1025.23	625.494
1028.96	481.523
1032.7	270.874
1036.44	191.635
1040.17	144.766
1043.9	89.59
1047.63	56.977
1051.36	40.078
1055.09	78.549
1058.81	67.378
1062.54	70.567
1066.26	98.133
1069.97	104.104
1073.69	135.511
1077.41	115.037
1081.12	102.839
1084.84	92.75
1088.55	99.52
1092.25	88.007
1095.96	37.413
1099.67	1.602
1103.37	2.728
1107.07	5.983
1110.77	1.196
1114.47	9.902
1118.16	17.318
1121.86	17.652
1125.55	20.955
1129.24	13.379
1132.93	28.304
1136.62	10.964
1140.31	21.502
1143.99	27.733
1147.67	36.638
1151.35	36.025
1155.03	53.106
1158.71	44.867
1162.39	71.396
1166.06	82.666
1169.73	109.594
1173.4	168.292
1177.07	144.768
1180.74	175.947
1184.4	140.048
1188.07	126.229
1191.73	103.794
1195.39	106.704
1199.05	126.096
1202.7	94.736
1206.36	91.146
1210.01	104.134
1213.66	86.627
1217.31	77.696
1220.96	85.119
1224.6	85.476
1228.25	82.989
1231.89	77.471
1235.53	90.817
1239.17	81.73
1242.81	65.352
1246.44	104.06
1250.08	83.133
1253.71	79.895
1257.34	56.127
1260.97	37.178
1264.6	45.036
1268.22	14.717
1271.85	29.945
1275.47	17.665
1279.09	33.72
1282.71	10.618
1286.33	12.588
1289.94	26.386
1293.56	27.297
1297.17	31.292
1300.78	31.354
1304.39	30.336
1307.99	22.453
1311.6	41.601
1315.2	50.867
1318.8	73.169
1322.4	71.343
1326	53.419
1329.6	36.425
1333.19	26.374
1336.79	18.272
1340.38	31.123
1343.97	22.933
1347.56	23.705
1351.14	33.442
1354.73	31.161
1358.31	22.853
1361.89	9.982
1365.47	25.635
1369.05	9.219
1372.63	9.306
1376.2	0.02
1379.78	3.305
1383.35	8.205
1386.92	1.338
1390.49	21.061
1394.05	9.11
1397.62	12.953
1401.18	2.323
1404.74	0.004
1408.3	6.765
1411.86	4.926
1415.42	5.09
1418.97	26.416
1422.53	24.771
1426.08	24.104
1429.63	40.093
1433.18	58.291
1436.72	42.306
1440.27	45.114
1443.81	43.571
1447.36	42.138
1450.89	36.52
1454.43	60.482
1457.97	44.639
1461.51	31.93
1465.04	48.001
1468.57	33.365
1472.1	23.295
1475.63	28.816
1479.16	42.633
1482.68	29.613
1486.21	16.299
1489.73	25.078
1493.25	14.351
1496.77	16.765
1500.29	23.221
1503.8	24.923
1507.32	29.027
1510.83	33.379
1514.34	9.938
1517.85	14.972
