Measurement: Raman, 514 nm, depolarized, Raman Data Processed
Mineral: Titanite
Rruff sample: R050039
Ideal chemistry: CaTi^4+^SiO_5_
Locality: Kingman, Arizona, USA
Source: University of Arizona Mineral Museum
Description: Black fragment from a single crystal
Measured chemistry: (Ca_0.95_Y_0.05_)(Ti_0.85_Al_0.10_Fe^3+^_0.06_)Si_1.00_O_4_(O_0.93_F_0.07_)
Pin_id: L00107
Orientation: Laser parallel to (-1 0 -1). Fiducial mark perpendicular to laser is parallel to b [0 1 0]
Raman shift (cm-1)	intensity
123.72	0
127.882	123.416
132.041	105.451
136.199	190.227
140.355	317.133
144.509	620.844
148.66	996.777
152.81	1544.59
156.958	1547.96
161.105	1932.95
165.249	2296.08
169.391	2073.85
173.531	2432.91
177.669	2951.33
181.806	3008.99
185.94	3216.85
190.073	3634.21
194.204	4319.44
198.332	4341.22
202.459	5258.46
206.584	5820.16
210.707	6612.42
214.828	7064.68
218.947	7748.12
223.064	8333.23
227.179	8460.35
231.293	7971.86
235.404	7342.8
239.514	7825.19
243.621	8427.03
247.727	8793.44
251.831	9020.24
255.933	9246.73
260.033	8562.95
264.131	7488.9
268.227	6714.57
272.321	5769.92
276.413	4604.9
280.504	4239.46
284.592	3963.58
288.679	3733.57
292.764	3762.64
296.847	4174.56
300.928	4527.09
305.007	5374.56
309.084	5696.03
313.159	6400.85
317.233	6888.49
321.304	6888.56
325.374	6531.27
329.442	5967.48
333.508	5467.97
337.572	4914.17
341.634	4489.36
345.694	4069.85
349.753	4388.35
353.809	4468.2
357.864	4376.46
361.916	4991.46
365.967	4517.15
370.016	4083.97
374.064	3605.91
378.109	3307.61
382.152	2859.33
386.194	2521.03
390.233	2522.69
394.271	2494.23
398.307	2575.55
402.341	2756.48
406.374	3376.89
410.404	4036.68
414.433	5395.81
418.459	5634.29
422.484	5572.1
426.507	4929.25
430.528	4315.73
434.547	3301.53
438.565	2526.66
442.58	1911.11
446.594	1534.89
450.606	1298.06
454.616	1331.11
458.624	1294.09
462.631	1496.9
466.635	1249.42
470.638	1271.61
474.639	713.418
478.638	524.834
482.635	535.836
486.63	346.395
490.624	53.594
494.615	164.779
498.605	348.059
502.593	504.531
506.579	664.969
510.564	569.662
514.546	528.471
518.527	521.225
522.506	257.27
526.483	5.574
530.458	224.699
534.431	674.289
538.403	563.322
542.373	611.809
546.341	869.748
550.307	1017.15
554.271	614.016
558.234	930.363
562.195	1186.2
566.154	2161.53
570.111	3466.39
574.066	4710.76
578.019	5934.69
581.971	6778.18
585.921	7161.25
589.869	7893.91
593.815	8206.18
597.76	8608.07
601.703	9349.61
605.644	9590.82
609.583	10151.7
613.52	10272.3
617.455	10302.5
621.389	10342.5
625.321	10952.9
629.251	10934.3
633.18	10637.3
637.106	10651.9
641.031	10567.9
644.954	10543.9
648.875	10639
652.795	10082.8
656.712	9777.71
660.628	9696.47
664.542	9140.78
668.455	8574.15
672.365	7713.65
676.274	7543.42
680.181	7063.28
684.086	6822.29
687.99	6691.5
691.891	5949.45
695.791	5797.84
699.689	5366.68
703.586	5125.98
707.48	5205.75
711.373	4765.98
715.264	4376.71
719.154	3997.92
723.041	3839.64
726.927	3361.85
730.811	2874.58
734.693	2867.83
738.574	2721.6
742.453	2215.9
746.33	2370.73
750.205	1996.1
754.079	1562.01
757.95	1608.46
761.82	1175.46
765.689	993.017
769.555	1201.12
773.42	979.781
777.283	1101.56
781.144	994.447
785.004	1079.95
788.862	1190.76
792.718	1117.72
796.572	1125.46
800.425	969.384
804.276	932.148
808.125	954.784
811.972	848.69
815.818	784.566
819.662	642.852
823.504	753.674
827.345	957.08
831.183	1062.85
835.02	1360.31
838.856	1548.76
842.689	2347.66
846.521	2906.71
850.351	3325.88
854.18	4275.15
858.006	5484.51
861.831	7043.94
865.655	8613.43
869.476	10643
873.296	11862.5
877.114	13662.1
880.93	13901.6
884.745	13641.2
888.558	13320.7
892.369	12860.1
896.179	11259.5
899.987	8918.76
903.793	7277.92
907.597	5246.96
911.4	4165.86
915.201	2884.59
919.001	1733.15
922.798	921.516
926.594	39.667
930.388	192.73
934.181	657.144
937.972	744.991
941.761	546.903
945.548	392.651
949.334	38.443
953.118	358.293
956.901	1278.74
960.681	2362.34
964.46	3369.34
968.238	4263.81
972.013	5565.58
975.787	6234.12
979.56	6232.65
983.33	6083.76
987.099	5909.48
990.866	5756.54
994.632	5541.17
998.396	5275.09
1002.16	5208.35
1005.92	4690.94
1009.68	4872.85
1013.43	5054.08
1017.19	5414.62
1020.94	5294.48
1024.7	5733.64
1028.45	6072.1
1032.19	6679.85
1035.94	6886.9
1039.69	7253.23
1043.43	6918.85
1047.17	6533.75
1050.91	5767.93
1054.65	4931.38
1058.39	4434.11
1062.13	3726.12
1065.86	3237.41
1069.59	2987.97
1073.32	2697.81
1077.05	2734.46
1080.78	2855.01
1084.5	2899.72
1088.23	2915.43
1091.95	2243.96
1095.67	1673.83
1099.39	1070.39
1103.11	479.499
1106.82	65.828
1110.54	62.079
1114.25	82.032
1117.96	136.874
1121.67	162.916
1125.38	190.351
1129.08	189.29
1132.79	19.619
1136.49	89.254
1140.19	367.729
1143.89	965.925
1147.59	1913.86
1151.28	2931.53
1154.98	4118.94
1158.67	5656.05
1162.36	7602.87
1166.05	9239.38
1169.74	11495.6
1173.43	13491.5
1177.11	14167.2
1180.79	14122.5
1184.47	13307.5
1188.15	12272.3
1191.83	11836.7
1195.51	11350.9
1199.18	11574.8
1202.86	10908.4
1206.53	10532
1210.2	9975.4
1213.87	9528.76
1217.54	9022.06
1221.2	9095.32
1224.86	9988.56
1228.53	11122.4
1232.19	11907.6
1235.85	12690.7
1239.5	13190.6
1243.16	13456.2
1246.81	12690.7
1250.46	12001.6
1254.12	10919.3
1257.76	10238.1
1261.41	8931.63
1265.06	8108.85
1268.7	7688.14
1272.34	6907.87
1275.99	6408.85
1279.62	6237.5
1283.26	6332.86
1286.9	6775.25
1290.53	7118.57
1294.17	7951.35
1297.8	8583.05
1301.43	8882.73
1305.06	9450.61
1308.68	9557.54
1312.31	9444.01
1315.93	9159.93
1319.56	8855.06
1323.18	8349.24
1326.8	7642.67
1330.41	7095.55
1334.03	6487.93
1337.64	5710.72
1341.26	4862.45
1344.87	4224.91
1348.47	3433.4
1352.08	2897.55
1355.69	2312.17
1359.29	1847.29
1362.9	1412.86
1366.5	1187.95
1370.1	762.03
1373.7	514.311
1377.29	155.87
1380.89	140.93
1384.48	134.815
1388.08	77.138
1391.67	289.289
1395.26	91.291
1398.84	82.867
1402.43	126.228
1406.01	196.182
1409.6	327.259
1413.18	509.729
1416.76	613.821
1420.34	569.512
1423.91	796.092
1427.49	1093.55
1431.06	1201.32
1434.63	1581.94
1438.2	1647.03
1441.77	1520.6
1445.34	1585.95
1448.9	1401.35
1452.47	1208.01
1456.03	1193.94
1459.59	843.599
1463.15	764.491
1466.71	590.264
1470.27	438.213
1473.82	215.026
1477.37	268.277
1480.93	285.818
1484.48	281.809
1488.03	0
