Measurement: Raman, 514 nm, depolarized, Raman Data Processed
Mineral: Titanite
Rruff sample: R050039
Ideal chemistry: CaTi^4+^SiO_5_
Locality: Kingman, Arizona, USA
Source: University of Arizona Mineral Museum
Description: Black fragment from a single crystal
Measured chemistry: (Ca_0.95_Y_0.05_)(Ti_0.85_Al_0.10_Fe^3+^_0.06_)Si_1.00_O_4_(O_0.93_F_0.07_)
Pin_id: L00126
Orientation: Laser parallel to a* (1 0 0). Fiducial mark perpendicular to laser is parallel to b [0 1 0]
Raman shift (cm-1)	intensity
69.441	0
73.628	684.337
77.813	838.065
81.996	1486.87
86.178	2441.01
90.357	2779.06
94.534	2932.6
98.709	2918.8
102.883	2417.13
107.054	1619.14
111.223	1084.93
115.391	456.454
119.556	23.238
123.72	125.476
127.882	320.671
132.041	213.234
136.199	136.65
140.355	468.809
144.509	733.307
148.66	720.51
152.81	760.521
156.958	663.568
161.105	779.527
165.249	857.645
169.391	737.07
173.531	937.137
177.669	1287.78
181.806	1196.9
185.94	1373.87
190.073	1911.79
194.204	2251.05
198.332	2441.28
202.459	2992.34
206.584	3424.44
210.707	3585.54
214.828	4143.79
218.947	4773.49
223.064	5126.35
227.179	5111.56
231.293	4668.56
235.404	4257.86
239.514	4464.97
243.621	4512.94
247.727	4779.47
251.831	4869.67
255.933	4944.56
260.033	4853.91
264.131	4367.45
268.227	4225.98
272.321	3894.84
276.413	3504.52
280.504	3464.53
284.592	3397.68
288.679	2986.21
292.764	2945.89
296.847	3113.89
300.928	3313.61
305.007	3789.72
309.084	4383.76
313.159	4939.23
317.233	5214.28
321.304	5199.1
325.374	4864.12
329.442	4419.3
333.508	3934.6
337.572	3460.23
341.634	3097.54
345.694	3110.9
349.753	3378.97
353.809	3244.19
357.864	3345.36
361.916	3567.71
365.967	3313.34
370.016	3086.08
374.064	3117.38
378.109	2997.98
382.152	3119.22
386.194	3243.81
390.233	3456.82
394.271	3611.98
398.307	3617.04
402.341	3953.81
406.374	4403.7
410.404	4706.25
414.433	5398.3
418.459	5419.89
422.484	5231.03
426.507	4521.78
430.528	3852.21
434.547	3162.33
438.565	2232.13
442.58	1721.59
446.594	1290.75
450.606	799.992
454.616	500.53
458.624	299.163
462.631	258.735
466.635	62.152
470.638	286.263
474.639	244.189
478.638	461.681
482.635	748.771
486.63	705.473
490.624	551.786
494.615	597.709
498.605	303.232
502.593	108.327
506.579	52.881
510.564	223.271
514.546	221.008
518.527	270.598
522.506	301.841
526.483	144.951
530.458	179.766
534.431	46.192
538.403	164.069
542.373	243.241
546.341	53.779
550.307	75.361
554.271	92.228
558.234	489.363
562.195	1076.14
566.154	2112.58
570.111	3078.69
574.066	3664.48
578.019	4129.97
581.971	4285.15
585.921	4210.05
589.869	4264.67
593.815	4129.02
597.76	4213.12
601.703	4496.97
605.644	4430.57
609.583	4643.94
613.52	4547.09
617.455	4349.77
621.389	4420.78
625.321	4733.2
629.251	4592.73
633.18	4364.62
637.106	4448.95
641.031	4494.27
644.954	4320.19
648.875	4366.11
652.795	4071.91
656.712	3897.14
660.628	3930.04
664.542	3677.12
668.455	3433.63
672.365	3188.52
676.274	2966.84
680.181	2743.98
684.086	2559.78
687.99	2546.56
691.891	2075.45
695.791	2049.36
699.689	1875.1
703.586	1914.36
707.48	1821.93
711.373	1485.2
715.264	1462.35
719.154	1250.11
723.041	1298.19
726.927	1116.62
730.811	1006.85
734.693	824.527
738.574	584.018
742.453	693.877
746.33	546.749
750.205	494.726
754.079	335.729
757.95	387.124
761.82	238.918
765.689	151.117
769.555	293.726
773.42	246.752
777.283	310.217
781.144	234.604
785.004	494.117
788.862	570.797
792.718	672.161
796.572	780.098
800.425	798.74
804.276	924.896
808.125	1051.33
811.972	1048.16
815.818	1235.8
819.662	1374.37
823.504	1583.98
827.345	1815.19
831.183	2027.75
835.02	2651.29
838.856	3135.85
842.689	3801.34
846.521	4797.65
850.351	5584.77
854.18	6592.56
858.006	8211.08
861.831	9850.15
865.655	11889.6
869.476	14269.4
873.296	15499.3
877.114	17189.5
880.93	17690
884.745	17490.6
888.558	16741.4
892.369	16172.5
896.179	13903.7
899.987	11215.1
903.793	9186.67
907.597	6538.41
911.4	5120.31
915.201	3762.37
919.001	2334.57
922.798	1476.9
926.594	649.352
930.388	381.924
934.181	215.421
937.972	443.536
941.761	473.738
945.548	226.382
949.334	190.943
953.118	163.447
956.901	787.85
960.681	1613.46
964.46	2396.21
968.238	3261.09
972.013	4061.72
975.787	4599.47
979.56	4540.62
983.33	4404.95
987.099	4159.65
990.866	3954.05
994.632	3618.33
998.396	3402.5
1002.16	3156.53
1005.92	2680.41
1009.68	2924.14
1013.43	2887.7
1017.19	3171.1
1020.94	3284.32
1024.7	3657.36
1028.45	4080.22
1032.19	4722.9
1035.94	5075.38
1039.69	5227.68
1043.43	5159.77
1047.17	4731.67
1050.91	4283.37
1054.65	3554.87
1058.39	3406.16
1062.13	2837.24
1065.86	2598.12
1069.59	2338.78
1073.32	2579.23
1077.05	2609.48
1080.78	3079.53
1084.5	3324.16
1088.23	3214.43
1091.95	2590.72
1095.67	1760.49
1099.39	1060.99
1103.11	463.979
1106.82	145.201
1110.54	43.608
1114.25	172.95
1117.96	163.42
1121.67	214.97
1125.38	207.651
1129.08	51.481
1132.79	44.12
1136.49	299.643
1140.19	725.162
1143.89	1390.68
1147.59	2456.22
1151.28	3441.75
1154.98	4717.26
1158.67	6362.74
1162.36	8428.17
1166.05	10383.6
1169.74	12678.9
1173.43	14504.3
1177.11	14939.5
1180.79	14784.8
1184.47	13660
1188.15	12685.2
1191.83	12210.3
1195.51	11905.4
1199.18	11397
1202.86	11015.5
1206.53	10440.6
1210.2	9885.6
1213.87	9370.7
1217.54	8865.89
1221.2	8901.17
1224.86	9626.57
1228.53	10577.6
1232.19	11021.9
1235.85	11519.5
1239.5	11816.3
1243.16	11700.2
1246.81	11032.7
1250.46	10410.7
1254.12	9373.24
1257.76	8658.4
1261.41	7662.92
1265.06	6794.3
1268.7	6126.36
1272.34	5505.27
1275.99	5240.39
1279.62	5018.02
1283.26	5130.35
1286.9	5333
1290.53	5656.01
1294.17	6408.82
1297.8	6810.05
1301.43	6879.69
1305.06	7208.42
1308.68	7247.07
1312.31	6945.66
1315.93	6824.12
1319.56	6562.34
1323.18	6180.17
1326.8	5377.57
1330.41	5074.81
1334.03	4381.98
1337.64	3729.1
1341.26	3056.28
1344.87	2484.34
1348.47	2083.01
1352.08	1641.69
1355.69	1202.95
1359.29	1047.84
1362.9	703.128
1366.5	598.312
1370.1	282.062
1373.7	74.385
1377.29	249.067
1380.89	259.347
1384.48	191.93
1388.08	95.849
1391.67	131.081
1395.26	49.9
1398.84	159.163
1402.43	378.95
1406.01	439.388
1409.6	630.571
1413.18	812.651
1416.76	1065.78
1420.34	1010.1
1423.91	1355.66
1427.49	1682.48
1431.06	1840.27
1434.63	2066.17
1438.2	2257.25
1441.77	2063.27
1445.34	2113.38
1448.9	1987.82
1452.47	1746.64
1456.03	1800.48
1459.59	1387.41
1463.15	1194.61
1466.71	1080.57
1470.27	892.649
1473.82	669.309
1477.37	544.696
1480.93	504.202
1484.48	327.112
1488.03	222.106
1491.57	176.526
1495.12	0
