Measurement: Raman, 514 nm, depolarized, Raman Data Processed
Mineral: Titanite
Rruff sample: R050039
Ideal chemistry: CaTi^4+^SiO_5_
Locality: Kingman, Arizona, USA
Source: University of Arizona Mineral Museum
Description: Black fragment from a single crystal
Measured chemistry: (Ca_0.95_Y_0.05_)(Ti_0.85_Al_0.10_Fe^3+^_0.06_)Si_1.00_O_4_(O_0.93_F_0.07_)
Pin_id: L00457
Orientation: Laser parallel to -b* (0 -1 0). Fiducial mark perpendicular to laser is parallel to -c [0 0 -1]
Raman shift (cm-1)	intensity
80.327	0
84.529	4.295
88.728	438.686
92.926	928.277
97.121	1333.25
101.314	1961.63
105.505	2299.28
109.694	3034.02
113.881	3231
118.066	3120.53
122.249	2966.43
126.43	2942.7
130.608	3193.07
134.785	3263.81
138.959	3461.92
143.131	3837.16
147.301	4386.23
151.469	4750.92
155.635	5370.26
159.799	5633.6
163.961	5919.52
168.121	5788.31
172.278	6099.3
176.434	6364.52
180.587	6654.15
184.739	6921.09
188.888	7093.15
193.035	7501.18
197.18	7925.14
201.324	8714.94
205.465	9560.43
209.603	10261.6
213.74	11112.4
217.875	12037.1
222.008	12594.4
226.139	12471.5
230.267	12343.4
234.394	11688.4
238.518	11356.3
242.641	11172.8
246.761	11356
250.879	11239
254.996	10610.2
259.11	9968.43
263.222	9268.14
267.332	8357.36
271.44	7654.69
275.546	6779.12
279.65	6369.84
283.752	5906.24
287.852	5237.78
291.95	5034.02
296.046	5114.61
300.14	5069.26
304.231	5187.7
308.321	5359.71
312.409	5735.1
316.495	5893.65
320.578	5945.17
324.66	5789.46
328.739	5786.34
332.817	5455.73
336.892	5049.72
340.966	5058.12
345.037	4826.25
349.107	4836.8
353.174	4866.42
357.24	5243.32
361.303	5398.5
365.365	5251.39
369.424	4616.58
373.481	3588.79
377.537	2709.83
381.59	1272.09
385.642	695.387
389.691	119.574
393.738	4.557
397.784	119.744
401.827	116.59
405.868	403.486
409.908	981.193
413.945	1660.93
417.98	2282.67
422.014	2716.15
426.045	2791.18
430.075	2477.61
434.102	2155.34
438.127	2234.25
442.151	1904.24
446.172	1975.24
450.192	2508.9
454.209	2849.96
458.225	3123.54
462.238	3947.85
466.25	4102.85
470.259	3668.47
474.267	3424.66
478.273	2891.39
482.276	1928.59
486.278	1326.24
490.278	564.316
494.276	282.938
498.271	328.213
502.265	460.584
506.257	675.371
510.247	753.502
514.235	475.498
518.221	590.688
522.205	559.158
526.187	40.416
530.167	116.775
534.145	693.355
538.122	999.939
542.096	1106.58
546.068	1483.25
550.039	1689.97
554.007	1926.57
557.973	2298.43
561.938	2244.24
565.901	3001.02
569.861	4117.82
573.82	4704.6
577.777	5361.35
581.732	6128.05
585.685	6814.68
589.636	7181.24
593.585	7407.73
597.532	7924.14
601.477	8500.48
605.42	8866.75
609.361	9602.96
613.301	9569.1
617.238	10305.2
621.174	10241.1
625.108	10787
629.039	10632.8
632.969	11098.5
636.897	11334.1
640.823	11449.6
644.747	11379.3
648.669	11342.9
652.589	11178.3
656.508	10811.8
660.424	10530.6
664.339	10105.4
668.251	9698.31
672.162	9174.45
676.071	8767.99
679.978	8434
683.883	7427.56
687.786	7328.78
691.687	7431.82
695.586	7198.61
699.484	6425.77
703.379	6153.31
707.273	6331.22
711.165	5659.51
715.055	5128.24
718.943	4702.44
722.829	4435.26
726.713	4156.93
730.595	3737.34
734.476	3388.26
738.354	2869.88
742.231	2892.49
746.106	2566.3
749.978	2061.55
753.849	1748.27
757.719	1686.53
761.586	1545.93
765.451	1216.04
769.315	936.405
773.177	977.666
777.036	719.103
780.894	630.953
784.75	493.22
788.605	455.9
792.457	419.119
796.307	114.565
800.156	21.09
804.003	293.39
807.848	199.086
811.691	194.622
815.532	219.173
819.371	292.269
823.209	126.52
827.045	117.536
830.878	450.628
834.71	835.793
838.54	1352.61
842.369	1990.46
846.195	2768.87
850.02	4117.65
853.842	5663.17
857.663	7656.23
861.482	9796.01
865.299	12376.1
869.115	15156.5
872.928	17567.2
876.74	19808.2
880.55	21581.5
884.358	22419.5
888.164	22876.5
891.969	21903.4
895.771	20180.5
899.572	18365.6
903.371	15822.5
907.168	13011.8
910.963	10787.2
914.757	8102.49
918.548	5943.18
922.338	4445.97
926.126	3098
929.912	2019.44
933.697	1351.66
937.479	873.279
941.26	244.745
945.039	166.05
948.816	177.155
952.591	248.021
956.365	252.198
960.136	527.905
963.906	747.951
967.674	985.183
971.441	1326.28
975.205	1504.94
978.968	1532.59
982.729	1743.58
986.488	1493.57
990.245	1492.2
994	1430.19
997.754	1707.77
1001.51	1614.93
1005.26	1861.66
1009	1867.95
1012.75	1643.78
1016.5	1219.14
1020.24	1204.03
1023.98	868.422
1027.72	482.313
1031.46	325.653
1035.19	158.332
1038.93	39.849
1042.66	189.356
1046.39	210.764
1050.12	294.462
1053.85	390.81
1057.57	250.058
1061.29	111.836
1065.02	174.624
1068.74	600.164
1072.45	1345.12
1076.17	2189.6
1079.88	3173.67
1083.6	3997.41
1087.31	4281.14
1091.02	4184.85
1094.72	3457.88
1098.43	2749.66
1102.13	2420.97
1105.84	1652.99
1109.54	1236.14
1113.24	1069.08
1116.93	991.722
1120.63	834.155
1124.32	706.154
1128.01	787.538
1131.7	808.215
1135.39	948.198
1139.08	1197.52
1142.76	1516.18
1146.45	1834.2
1150.13	2461.58
1153.81	3508.31
1157.48	4504.4
1161.16	5799.82
1164.84	7094.56
1168.51	8368.58
1172.18	9371.86
1175.85	9804.12
1179.52	9732.54
1183.18	9185.1
1186.85	8283.08
1190.51	7717.99
1194.17	7260.19
1197.83	6980.03
1201.48	6566.69
1205.14	6045.72
1208.79	5699.88
1212.44	5348.48
1216.09	5125.36
1219.74	4899.98
1223.39	4779.06
1227.03	4829.48
1230.68	4853.69
1234.32	5041.63
1237.96	5146.16
1241.6	4966.14
1245.23	4942.48
1248.87	4640.35
1252.5	4214.99
1256.13	3719.39
1259.76	3029.17
1263.39	2535.31
1267.02	2157.93
1270.64	1816.15
1274.26	1701.2
1277.88	1516.45
1281.5	1662.5
1285.12	1558.65
1288.74	1464.72
1292.35	1580.45
1295.96	1585.76
1299.57	1780.41
1303.18	1953.99
1306.79	1995.21
1310.4	2103.41
1314	2108.86
1317.6	2162.39
1321.2	2134.45
1324.8	2025.3
1328.4	1915.15
1331.99	1764.09
1335.59	1582.59
1339.18	1502.82
1342.77	1374.16
1346.36	1177.29
1349.95	1034.24
1353.53	700.282
1357.12	538.085
1360.7	378.103
1364.28	180.674
1367.86	44.569
1371.44	81.394
1375.01	216.319
1378.59	91.072
1382.16	146.066
1385.73	105.375
1389.3	53.789
1392.87	108.891
1396.43	211.293
1399.99	220.258
1403.56	409.714
1407.12	553.604
1410.68	705.921
1414.23	1058.77
1417.79	1356.49
1421.34	1744.36
1424.9	1872.6
1428.45	2181.37
1431.99	2390.58
1435.54	2595.87
1439.09	2515.28
1442.63	2607.6
1446.17	2530.64
1449.71	2389.22
1453.26	2124.29
1456.79	1914.33
1460.33	1669.34
1463.86	1475.19
1467.39	1217.02
1470.92	905.199
1474.45	631.164
1477.98	401.896
1481.51	168.554
1485.03	12.974
1488.56	13.799
1492.08	2.467
1495.6	103.695
1499.11	147.578
1502.63	96.518
1506.14	218.055
1509.66	121.314
1513.17	156.312
1516.68	0
