Measurement: Raman, 514 nm, depolarized, Raman Data Processed
Mineral: Titanite
Rruff sample: R050114
Ideal chemistry: CaTi^4+^SiO_5_
Locality: Isthak Valley Iskardu, Northern Areas Gilgit, Pakistan
Source: Syed Shah
Description: Yellowish-brown fragment
Measured chemistry: (Ca_0.99_Na_0.01_)(Ti_0.96_Al_0.03_Fe^3+^_0.01_)Si_1.00_O_4_(O_0.95_F_0.05_)
Pin_id: L00251
Orientation: Laser parallel to b* (0 1 0). Fiducial mark perpendicular to laser is parallel to -c [0 0 -1]
Raman shift (cm-1)	intensity
47.49	0
51.717	129.064
55.942	315.365
60.165	400.082
64.386	678.504
68.604	373.573
72.82	110.456
77.034	117.768
81.246	165.48
85.455	44.087
89.663	543.02
93.868	1654.66
98.07	3157.77
102.271	4683.38
106.469	6253.55
110.665	7382.85
114.859	8582.59
119.05	9400.54
123.24	10615.8
127.427	11697.6
131.612	11855.4
135.794	11686.5
139.975	12083.4
144.153	12738.2
148.329	13953
152.503	17703.2
156.674	23883.1
160.843	28363.1
165.011	26443.7
169.175	21915.1
173.338	19787.6
177.499	19441.3
181.657	19786.5
185.813	19693.1
189.967	19731.2
194.119	21280.9
198.268	23202.2
202.415	25505.2
206.561	27749.9
210.703	28496.4
214.844	28886.2
218.983	30089.1
223.119	31001.6
227.253	31907.4
231.385	31825.4
235.515	30863.7
239.643	31836.8
243.768	35707.8
247.891	39418
252.012	40328.5
256.131	37155.9
260.248	30286.3
264.363	23639.5
268.475	18965.3
272.585	16193.5
276.693	14413.9
280.799	13986.5
284.903	13741.1
289.005	13367.7
293.104	12236.2
297.201	13466.5
301.296	15718.6
305.389	16422.4
309.48	17307.8
313.569	18614.6
317.655	18402.6
321.74	16901.8
325.822	16982.4
329.902	18244.2
333.98	18577.3
338.056	16591.8
342.129	13497.7
346.201	10744.9
350.27	9223.47
354.337	8313.43
358.402	7744.78
362.465	6987.52
366.526	5991.66
370.585	4637.18
374.642	2894.1
378.696	1567.44
382.748	503.522
386.799	15.392
390.847	602.621
394.893	1112.53
398.936	1517.56
402.978	1536.32
407.018	1260.78
411.055	403.312
415.091	1482.51
419.124	4533.47
423.155	7363.53
427.184	7195.36
431.211	5568.95
435.236	4594.28
439.259	4701.35
443.28	5040.14
447.298	5870.67
451.315	7732.97
455.329	10987.2
459.341	17033.4
463.352	25511.9
467.36	31032.6
471.366	26045.5
475.37	15370.8
479.372	7658.39
483.371	3628.21
487.369	2240.22
491.365	1926.52
495.358	2091.1
499.35	2260.01
503.339	2631.36
507.326	3165.12
511.311	3921.25
515.295	4879.59
519.276	6099.95
523.255	7793.33
527.232	10026.3
531.207	13102.1
535.179	16599.6
539.15	19368.7
543.119	21429.3
547.086	22557.2
551.05	21234.2
555.013	18800.1
558.973	15511.3
562.932	12071.9
566.888	9030.79
570.842	7802.97
574.795	9397.7
578.745	12674.4
582.693	17713.2
586.639	24073.8
590.583	31676.4
594.525	39516.3
598.465	46567.3
602.403	50815.5
606.339	51526.3
610.273	48784.9
614.205	43805.6
618.135	38260.5
622.063	32704.1
625.989	28221.7
629.912	24715.8
633.834	21709.9
637.754	18873.8
641.671	16678.8
645.587	14835
649.501	12925.2
653.412	11866.4
657.322	10538.4
661.23	9545.32
665.135	8628.1
669.039	7704.2
672.94	6949.76
676.84	6351.11
680.738	5720.41
684.633	5044.28
688.527	4684.01
692.418	4022.65
696.308	3605.95
700.195	3145.86
704.081	2967.43
707.964	2656.21
711.846	2159.3
715.726	1943.74
719.603	1636.1
723.479	1415.07
727.352	1312.61
731.224	1025.88
735.094	798.418
738.961	656.177
742.827	570.124
746.691	508.228
750.552	371.457
754.412	147.768
758.27	12.882
762.125	60.581
765.979	118.514
769.831	180.021
773.681	238.535
777.529	211.953
781.375	234.304
785.219	235.854
789.06	180.237
792.901	123.204
796.739	150.744
800.575	183.731
804.409	112.622
808.241	118.635
812.071	137.848
815.899	96.799
819.726	89.604
823.55	8.759
827.372	69.166
831.193	149.889
835.011	208.509
838.828	366.113
842.642	526.647
846.455	800.354
850.266	1095.16
854.075	1566.08
857.881	2299.1
861.686	3123.16
865.489	4656.24
869.29	6556.27
873.089	7378.2
876.886	7293.97
880.682	7660.52
884.475	7818.95
888.266	7173.33
892.056	5595.16
895.843	4121.89
899.629	3486.53
903.413	3601.31
907.194	4283.27
910.974	4699.05
914.752	3916.72
918.528	2559.75
922.302	1626.54
926.074	1068.04
929.844	730.437
933.613	563.322
937.379	384.138
941.144	363.532
944.906	307.239
948.667	262.908
952.426	288.811
956.183	287.238
959.938	316.885
963.691	351.291
967.442	381.139
971.191	494.66
974.939	521.707
978.684	492.404
982.428	455.65
986.169	427.735
989.909	454.919
993.647	422.448
997.383	494.376
1001.12	663.683
1004.85	806.936
1008.58	962.255
1012.31	1068.72
1016.03	1091.36
1019.76	1022.19
1023.48	843.944
1027.2	650.451
1030.92	439.92
1034.64	322.121
1038.36	241.589
1042.07	177.776
1045.78	121.265
1049.49	75.814
1053.2	57.649
1056.9	67.706
1060.61	61.008
1064.31	69.611
1068.01	143.651
1071.71	199.334
1075.41	401.898
1079.1	633.219
1082.79	986.837
1086.48	1178.48
1090.17	1170.67
1093.86	847.436
1097.55	527.513
1101.23	316.19
1104.91	195.728
1108.59	169.326
1112.27	107.595
1115.95	62.695
1119.62	38.13
1123.3	12.457
1126.97	3.945
1130.63	24.774
1134.3	26.474
1137.97	25.522
1141.63	43.797
1145.29	20.254
1148.95	39.012
1152.61	130.051
1156.27	224.903
1159.92	410.588
1163.57	552.113
1167.22	983.484
1170.87	1613.71
1174.52	2337.79
1178.16	2400.75
1181.81	1835.15
1185.45	1406.25
1189.09	1282.5
1192.73	1369.4
1196.36	1425.09
1200	1427.5
1203.63	1355.59
1207.26	1438.01
1210.89	1360.98
1214.52	1048.03
1218.14	804.58
1221.77	717.605
1225.39	728.164
1229.01	773.672
1232.62	785.693
1236.24	782.084
1239.86	750.342
1243.47	704.456
1247.08	618.342
1250.69	501.673
1254.3	397.54
1257.9	293.712
1261.5	243.925
1265.11	223.125
1268.71	184.862
1272.3	167.806
1275.9	138.167
1279.49	96.962
1283.09	107.274
1286.68	130.043
1290.27	176.612
1293.86	220.892
1297.44	290.145
1301.03	242.001
1304.61	268.594
1308.19	250.766
1311.77	263.529
1315.34	248.061
1318.92	220.464
1322.49	204.76
1326.06	205.938
1329.63	232.991
1333.2	259.895
1336.77	278.642
1340.33	311.281
1343.89	339.853
1347.46	319.357
1351.02	252.886
1354.57	204.466
1358.13	149.118
1361.68	114.332
1365.23	82.11
1368.79	30.427
1372.33	2.928
1375.88	1.473
1379.43	18.508
1382.97	30.869
1386.51	7.385
1390.05	26.924
1393.59	26.372
1397.13	17.343
1400.66	42.229
1404.19	70.167
1407.72	59.072
1411.25	117.988
1414.78	150.958
1418.31	179.01
1421.83	244.175
1425.36	357.493
1428.88	425.001
1432.39	499.724
1435.91	597.44
1439.43	660.82
1442.94	664.615
1446.45	670.017
1449.96	634.018
1453.47	556.69
1456.98	486.016
1460.48	419.609
1463.99	378.857
1467.49	284.355
1470.99	202.512
1474.49	128.986
1477.99	101.344
1481.48	88.434
1484.97	59.532
1488.46	11.918
1491.95	19.122
1495.44	1.397
1498.93	10.56
1502.41	10.817
1505.9	0
