Measurement: Raman, 514 nm, depolarized, Raman Data Processed
Mineral: Titanite
Rruff sample: R050114
Ideal chemistry: CaTi^4+^SiO_5_
Locality: Isthak Valley Iskardu, Northern Areas Gilgit, Pakistan
Source: Syed Shah
Description: Yellowish-brown fragment
Measured chemistry: (Ca_0.99_Na_0.01_)(Ti_0.96_Al_0.03_Fe^3+^_0.01_)Si_1.00_O_4_(O_0.95_F_0.05_)
Pin_id: L00193
Orientation: Laser parallel to c* (0 0 1). Fiducial mark perpendicular to laser is parallel to -a [-1 0 0]
Raman shift (cm-1)	intensity
49.365	0
53.566	86.285
57.765	258.681
61.962	365.942
66.157	660.74
70.349	492.234
74.54	179.906
78.729	56.361
82.916	177.31
87.101	61.669
91.284	257.002
95.465	1089.24
99.644	2449.21
103.82	3950.45
107.995	5262.69
112.168	6658.58
116.339	7746.5
120.508	8407.28
124.675	9495.04
128.84	10689.1
133.003	11378.9
137.164	11152
141.323	11698.3
145.48	12987.5
149.635	13127.1
153.788	14986.7
157.939	20056.6
162.088	25536.7
166.235	26077.2
170.38	22308.6
174.523	19560.9
178.664	18784.5
182.803	18789.3
186.94	19095.6
191.076	18853.3
195.209	19952.6
199.34	21773.5
203.47	24015.9
207.597	26350.1
211.722	27195.9
215.846	27686.2
219.967	28591.5
224.087	29125.2
228.204	30532.2
232.32	31388.4
236.434	30699.1
240.545	29761.2
244.655	32484.1
248.763	36637.7
252.869	39010
256.973	37228.9
261.075	32218.8
265.175	25861.4
269.273	20606.4
273.369	16683.8
277.463	14833.3
281.556	13974.9
285.646	13328.5
289.734	12994
293.821	11801.2
297.905	11720.3
301.988	13911
306.069	15473.5
310.147	16217.6
314.224	17463.1
318.299	18029.8
322.372	17047.8
326.443	16887
330.512	17967.6
334.579	18809.4
338.645	17832.5
342.708	15156.9
346.769	12502.7
350.829	11119.8
354.887	10438.2
358.942	9147.97
362.996	7979.06
367.048	6831.47
371.098	5495.21
375.146	3920.27
379.192	2274.69
383.236	1054.75
387.279	376.514
391.319	162.036
395.358	735.952
399.394	1333.39
403.429	1563.62
407.462	1398.57
411.493	875.553
415.522	3.518
419.549	2084.45
423.575	4857.07
427.598	6027.39
431.619	5159.37
435.639	4023.02
439.657	4168.33
443.673	4495.28
447.687	5083.92
451.699	6224.37
455.709	8856.8
459.717	13501.4
463.724	20408.3
467.728	27317.6
471.731	27619.5
475.732	18943.7
479.731	10030.4
483.728	4569.37
487.723	2700.53
491.716	2103.76
495.708	2030.96
499.697	2086.07
503.685	2535.11
507.671	2935.92
511.655	3648.46
515.637	4382.72
519.617	5148.65
523.596	6356.21
527.572	8275.41
531.547	10906.2
535.52	14098.6
539.491	16602.5
543.46	19188
547.427	20925.1
551.393	20337.7
555.356	18880.6
559.318	15515.7
563.278	12681.2
567.236	9272.62
571.192	7166.31
575.147	7525.23
579.099	10126
583.05	14608.6
586.999	19923.2
590.946	26119.7
594.891	33508
598.834	40428.1
602.776	45960.2
606.715	47909.5
610.653	46512.1
614.589	42790.6
618.523	38865.1
622.456	33873.7
626.386	29395.8
630.315	25479.1
634.242	22793.3
638.167	20383.2
642.09	17873.1
646.012	15816.3
649.931	13662.3
653.849	12763.9
657.765	11399
661.679	10406.7
665.592	9270.93
669.502	8195.04
673.411	7718.73
677.318	6791.52
681.223	6194.36
685.126	5397.63
689.028	4930.43
692.927	4364.01
696.825	3968.34
700.721	3451.39
704.616	3097.12
708.508	2774.64
712.399	2400.68
716.288	2144.42
720.175	1918.79
724.06	1480.98
727.944	1274.47
731.825	1027.86
735.705	865.775
739.584	786.021
743.46	585.551
747.334	407.323
751.207	339.307
755.078	127.468
758.947	32.232
762.815	133.966
766.68	201.107
770.544	264.042
774.406	363.154
778.267	293.118
782.125	315.479
785.982	353.15
789.837	308.925
793.69	199.004
797.542	120.673
801.391	89.204
805.239	23.21
809.085	21.964
812.93	7.273
816.772	128.527
820.613	172.638
824.452	197.974
828.29	267.293
832.125	302.885
835.959	310.772
839.791	558.952
843.621	705.466
847.45	1110.29
851.277	1602.4
855.102	2197.74
858.925	2733.29
862.746	2718.99
866.566	2864.82
870.384	3425.72
874.2	3996.64
878.015	4281.52
881.828	4822.3
885.639	5525.93
889.448	5746.4
893.256	4949.68
897.061	3514.8
900.865	2786.56
904.668	2595.78
908.468	3067.71
912.267	3696.97
916.064	3445.47
919.86	2485.59
923.653	1494.53
927.445	871.026
931.236	531.066
935.024	277.113
938.811	113.88
942.596	36.166
946.379	5.607
950.161	58.459
953.94	8.362
957.719	47.409
961.495	159.003
965.27	219.291
969.043	319.766
972.814	502.197
976.583	652.349
980.351	692.317
984.117	713.757
987.882	712.588
991.644	760.673
995.405	782.84
999.165	845.757
1002.92	890.482
1006.68	1048.85
1010.43	1207.35
1014.18	1379.89
1017.93	1387.55
1021.68	1421.34
1025.43	1396.27
1029.18	1252.36
1032.92	1003.62
1036.66	776.069
1040.4	683.718
1044.14	550.584
1047.88	516.683
1051.62	427.019
1055.35	320.584
1059.08	275.374
1062.81	248.401
1066.54	238.787
1070.27	264.723
1073.99	290.413
1077.72	430.064
1081.44	633.105
1085.16	884.137
1088.88	1104.84
1092.59	1136.24
1096.31	915.075
1100.02	570.881
1103.73	391.618
1107.44	276.777
1111.15	211.862
1114.86	123.323
1118.57	98.664
1122.27	69.328
1125.97	28.782
1129.67	37.939
1133.37	10.771
1137.07	2.255
1140.76	39.646
1144.45	44.961
1148.15	45.66
1151.84	23.284
1155.53	71.936
1159.21	180.342
1162.9	347.514
1166.58	573.561
1170.26	864.403
1173.94	1453.08
1177.62	2214.59
1181.3	2575.95
1184.97	2143.17
1188.65	1617.25
1192.32	1428.21
1195.99	1447.01
1199.66	1572.51
1203.33	1554.17
1206.99	1380.05
1210.65	1434.47
1214.32	1445.91
1217.98	1279.68
1221.64	1040.88
1225.29	991.985
1228.95	1031.2
1232.6	1099.85
1236.26	1167.34
1239.91	1227.89
1243.56	1205.53
1247.2	1195.85
1250.85	1107.47
1254.49	930.669
1258.13	722.945
1261.78	577.004
1265.41	469.079
1269.05	425.913
1272.69	396.912
1276.32	382.145
1279.95	345.543
1283.59	336.015
1287.21	351.281
1290.84	388.848
1294.47	467.35
1298.09	539.392
1301.72	636.849
1305.34	683.544
1308.96	650.847
1312.58	647.002
1316.19	641.8
1319.81	580.195
1323.42	577.201
1327.03	476.042
1330.64	398.77
1334.25	405.409
1337.86	415.949
1341.46	466.365
1345.07	475.645
1348.67	489.785
1352.27	429.13
1355.87	377.536
1359.46	312.378
1363.06	238.625
1366.65	170.456
1370.25	138.087
1373.84	87.521
1377.43	46.295
1381.02	34.765
1384.6	2.8
1388.18	26.505
1391.77	16.191
1395.35	21.184
1398.93	27.232
1402.51	20.223
1406.08	18.004
1409.66	17.509
1413.23	59.212
1416.8	79.934
1420.37	99.636
1423.94	145.369
1427.51	178.179
1431.08	240.561
1434.64	330.139
1438.2	352.354
1441.76	433.74
1445.32	499.328
1448.88	542.916
1452.43	572.288
1455.99	551.476
1459.54	508.275
1463.09	458.703
1466.64	379.995
1470.19	328.084
1473.74	250.829
1477.28	165.472
1480.83	143.288
1484.37	75.686
1487.91	80.284
1491.45	28.11
1494.98	43.91
1498.52	49.02
1502.05	29.49
1505.59	54.315
1509.12	40.142
1512.65	38.009
1516.17	38.788
1519.7	53.188
