Measurement: Raman, 514 nm, depolarized, Raman Data Processed
Mineral: Titanite
Rruff sample: R040033
Ideal chemistry: CaTi^4+^SiO_5_
Locality: Brazil
Source: University of Arizona Mineral Museum
Description: Green flattened wedge-shaped single crystals
Measured chemistry: (Ca_0.97_Fe^3+^_0.03_)_Σ=1_(Ti_0.97_Al_0.03_)_Σ=1_Si_1.00_O_5_; Fe^3+^ assigned for charge balance
Pin_id: L00157
Orientation: Laser parallel to -b* (0 -1 0). Fiducial mark perpendicular to laser is parallel to c [0 0 1]
Raman shift (cm-1)	intensity
51.466	0
55.666	447.859
59.863	18.77
64.059	96.095
68.253	570.25
72.445	1917.85
76.635	3520.15
80.823	4523.72
85.009	4655.66
89.193	4834.22
93.375	5003.89
97.554	4951.47
101.732	5302.19
105.908	5790.92
110.082	5952.79
114.254	5999.1
118.424	5798.17
122.592	6404.98
126.758	7168.92
130.922	7180.72
135.083	7539.09
139.243	8441.04
143.401	9468.49
147.557	9252.92
151.711	10886.4
155.863	15825.9
160.013	20051.7
164.161	18463.6
168.308	15088.8
172.452	13610.5
176.594	13413
180.734	14212.2
184.872	13783.3
189.008	13492.2
193.143	14260.9
197.275	15285.4
201.405	16968.6
205.534	19105.5
209.66	19714.1
213.784	19749.4
217.907	20538.4
222.027	21702.3
226.146	22435.5
230.263	22534.6
234.377	21964.1
238.49	22805
242.601	26320.8
246.709	31535
250.816	35628.5
254.921	34734
259.024	29513.7
263.125	22741.2
267.224	17390.1
271.321	13982
275.416	12141.7
279.51	11571.8
283.601	11623.1
287.69	11844.5
291.778	10425.8
295.863	10766.9
299.947	13373.7
304.029	14983
308.108	16229.8
312.186	17706.9
316.262	17678.9
320.336	15755.6
324.408	14697.2
328.478	15912.6
332.546	16722.9
336.612	15524.9
340.677	12493.8
344.739	10049.8
348.799	8301.89
352.858	7255.12
356.915	6336.11
360.969	5623.71
365.022	4799.32
369.073	3505.51
373.122	2393.4
377.169	1095.98
381.215	196.359
385.258	164.897
389.299	531.702
393.339	1182.76
397.376	1596.02
401.412	1683.39
405.446	1455.45
409.478	641.089
413.508	940.025
417.536	3721.99
421.562	5904.99
425.586	5840.96
429.609	4532.89
433.629	3949.74
437.648	4018.48
441.665	4050.11
445.68	4561.6
449.693	5807
453.704	8594.34
457.713	14339.7
461.721	22944.1
465.726	29886.5
469.73	24890.2
473.731	13916.2
477.731	7240.62
481.729	3888.45
485.725	2419.78
489.72	2118.58
493.712	2108.89
497.703	2307.67
501.691	2484.78
505.678	2645.12
509.663	3374.51
513.646	4063.88
517.627	4978.27
521.607	6017.64
525.584	7712.88
529.56	10206.9
533.534	13279.8
537.506	16068.4
541.476	18573.7
545.444	19563.4
549.41	19236.2
553.375	17074.3
557.337	14422.3
561.298	11757.1
565.257	8669.02
569.214	6451.69
573.17	6454.48
577.123	8119.13
581.075	11228.1
585.024	15798.4
588.972	21926.1
592.918	28587.1
596.863	36920.3
600.805	45101.9
604.746	51264.3
608.685	52811.2
612.621	49894.8
616.557	45784.5
620.49	39509.2
624.421	35068.7
628.351	29583.4
632.279	25355.6
636.205	22185.7
640.129	19194.2
644.051	16605.8
647.972	14704.1
651.89	13510
655.807	11759.7
659.722	10798.4
663.636	9614.86
667.547	8594.76
671.457	7818.6
675.365	7127.72
679.271	6293.73
683.175	5871.86
687.077	4988.44
690.978	4575.42
694.877	4001.94
698.774	3685.98
702.669	3126.86
706.562	2866.1
710.454	2437.77
714.344	2251.11
718.232	1977.77
722.118	1636.67
726.002	1481.9
729.885	1275.4
733.766	1018.21
737.645	882.28
741.522	671.601
745.397	469.146
749.271	237.887
753.143	220.793
757.013	111.827
760.881	73.108
764.748	135.122
768.613	60.46
772.476	83.176
776.337	90.82
780.196	134.979
784.054	230.729
787.91	153.578
791.764	280.091
795.616	250.667
799.467	211.898
803.316	155.127
807.163	159.569
811.008	10.748
814.851	114.226
818.693	87.651
822.533	102.141
826.371	60.123
830.208	133.314
834.042	195.369
837.875	357.474
841.706	505.645
845.536	688.95
849.363	1065.69
853.189	1471.84
857.013	1837.37
860.836	2320.26
864.656	2930.46
868.475	3882.92
872.292	4311.56
876.108	3731.32
879.922	3470.13
883.733	3078.23
887.544	2649.41
891.352	2004.31
895.159	1621.58
898.964	1606.88
902.767	1925.73
906.568	2624.21
910.368	3265.94
914.166	2960.44
917.962	1982.82
921.757	1122.79
925.55	696.577
929.341	535.011
933.13	392.342
936.918	284.039
940.703	299.8
944.488	143.339
948.27	159.847
952.051	164.47
955.83	248.068
959.607	218.329
963.383	271.152
967.156	251.896
970.928	343.843
974.699	320.887
978.468	362.885
982.234	440.957
986	398.966
989.763	383.876
993.525	479.295
997.285	498.93
1001.04	584.277
1004.8	752.759
1008.55	919.516
1012.31	1010.75
1016.06	984.463
1019.81	903.962
1023.56	820.14
1027.31	598.576
1031.05	360.279
1034.79	260.509
1038.53	203.5
1042.27	113.004
1046.01	142.741
1049.75	75.716
1053.48	69.925
1057.22	59.384
1060.95	137.118
1064.68	135.214
1068.4	151.721
1072.13	214.775
1075.86	139.386
1079.58	128.035
1083.3	179.985
1087.02	208.405
1090.74	163.112
1094.45	156.253
1098.17	117.309
1101.88	70.139
1105.59	8.5
1109.3	27.861
1113.01	33.483
1116.71	22.889
1120.42	38.508
1124.12	76.167
1127.82	21.741
1131.52	11.092
1135.22	3.715
1138.91	12.098
1142.61	54.756
1146.3	68.019
1149.99	0.966
1153.68	8.547
1157.37	104.862
1161.06	74.516
1164.74	139.125
1168.42	169.427
1172.1	226.989
1175.78	262.122
1179.46	358.474
1183.14	294.811
1186.81	261.698
1190.48	192.48
1194.15	179.748
1197.83	165.813
1201.49	236.632
1205.16	172.464
1208.82	195.546
1212.49	208.604
1216.15	233.091
1219.81	145.534
1223.46	94.055
1227.12	55.422
1230.78	90.093
1234.43	130.315
1238.08	78.198
1241.73	92.875
1245.38	130.054
1249.03	102.209
1252.67	79.676
1256.31	18.415
1259.95	7.425
1263.6	43.238
1267.23	0.464
1270.87	23.826
1274.51	3.118
1278.14	26.469
1281.77	19.276
1285.4	24.659
1289.03	11.892
1292.66	13.898
1296.28	0.732
1299.91	7.021
1303.53	12.465
1307.15	19.081
1310.77	42.679
1314.38	20.937
1318	34.5
1321.61	38.487
1325.23	75.327
1328.84	2.916
1332.45	64.771
1336.06	28.41
1339.66	67.016
1343.27	32.598
1346.87	47.312
1350.47	78.723
1354.07	126.265
1357.67	91.796
1361.26	65.513
1364.86	21.036
1368.45	53.725
1372.04	46.94
1375.63	53.471
1379.22	85.541
1382.81	77.306
1386.39	22.377
1389.98	37.509
1393.56	61.729
1397.14	56.221
1400.72	30.617
1404.3	48.567
1407.87	76.322
1411.45	56.211
1415.02	75.26
1418.59	37.409
1422.16	85.787
1425.73	122.416
1429.29	115.32
1432.86	0.936
1436.42	133.656
1439.98	125.505
1443.54	168.28
1447.1	176.672
1450.66	214.164
1454.21	174.479
1457.77	239.405
1461.32	164.32
1464.87	148.232
1468.42	104.7
1471.96	121.579
1475.51	108.561
1479.06	94.596
1482.6	50.386
1486.14	48.438
1489.68	51.546
1493.22	115.868
1496.75	40.908
1500.29	29.562
1503.82	61.667
1507.35	15.482
1510.88	100.366
1514.41	63.202
1517.94	52.057
1521.46	34.434
1524.99	0
