Measurement: Raman, 514 nm, depolarized, Raman Data Processed
Mineral: Topaz
Rruff sample: R050176
Ideal chemistry: Al_2_SiO_4_F_2_
Locality: Jos Plateau, Nigeria
Source: Marcus Origlieri
Description: Colorless prismatic crystal
Measured chemistry: Al_2.000_Si_1.000_O_4.000_(F_1.438_(OH)_0.562_)
Pin_id: L00271
Orientation: Laser parallel to a* (1 0 0). Fiducial mark perpendicular to laser is parallel to b [0 1 0]
Raman shift (cm-1)	intensity
94.071	0
98.251	139.544
102.428	125.577
106.604	462.393
110.777	5421.98
114.949	2434.17
119.119	433.84
123.286	242.667
127.452	88.295
131.615	132.712
135.777	117.961
139.937	205.083
144.094	78.946
148.25	333.999
152.403	1772.56
156.555	4311.29
160.705	683.537
164.853	1563.18
168.998	740.175
173.142	64.509
177.284	19.165
181.424	0.124
185.562	66.971
189.698	9.372
193.831	8.575
197.963	29.395
202.093	30.5
206.221	3.691
210.347	75.964
214.472	121.33
218.594	68.786
222.714	201.159
226.832	575.379
230.948	1401.52
235.063	7491.75
239.175	36572.2
243.286	16887.7
247.394	3071.51
251.501	1416.43
255.605	1301.52
259.708	2188.59
263.808	11633.1
267.907	56379.2
272.004	12788.9
276.099	3934.31
280.192	8339.96
284.283	35798.3
288.372	36481.6
292.459	7431.94
296.544	2512.24
300.627	1518.58
304.709	1110.52
308.788	943.229
312.865	1140.77
316.941	2563.39
321.015	1178.13
325.086	1487.99
329.156	5627.97
333.224	13464.1
337.29	3349.24
341.354	1005.97
345.416	564.194
349.476	343.611
353.534	232.65
357.591	148.497
361.645	47.184
365.698	126.21
369.748	353.895
373.797	172.192
377.844	6.689
381.889	16.302
385.932	110.062
389.973	323.889
394.012	758.776
398.049	3060.72
402.084	10064.7
406.118	7481.87
410.15	1904.25
414.179	629.786
418.207	230.39
422.233	256.085
426.257	160.845
430.279	2.734
434.299	85.695
438.318	66.243
442.334	43.156
446.349	282.65
450.361	1777.18
454.372	8141.75
458.381	12038.3
462.388	3678.91
466.394	1251.51
470.397	497.123
474.398	378.747
478.398	241.381
482.396	167.021
486.391	519.663
490.385	1672.31
494.377	555.945
498.368	241.578
502.356	6.793
506.342	97.045
510.327	249.7
514.31	214.147
518.291	504.419
522.27	599.765
526.247	147.915
530.222	198.844
534.196	206.753
538.167	117.571
542.137	141.642
546.105	238.854
550.071	659.283
554.035	1673.64
557.998	4338.21
561.958	5247.35
565.917	2327.18
569.874	903.295
573.829	481.419
577.782	152.017
581.733	135.775
585.683	129.826
589.63	144.785
593.576	145.963
597.52	106.234
601.462	193.05
605.402	297.775
609.341	157.807
613.277	230.651
617.212	168.38
621.145	121.993
625.076	307.056
629.006	379.436
632.933	263.698
636.859	499.843
640.783	1164.87
644.705	1875.78
648.625	1093.56
652.543	494.233
656.46	285.785
660.375	88.991
664.288	134.946
668.199	45.07
672.108	108.953
676.016	89.344
679.921	72.999
683.825	53.112
687.727	56.945
691.628	73.367
695.526	0.142
699.423	24.862
703.318	202.642
707.211	161.313
711.102	176.884
714.992	22.354
718.879	43.669
722.765	36.651
726.649	162.193
730.532	2.506
734.412	52.316
738.291	45.66
742.168	92.52
746.043	136.176
749.916	75.975
753.788	33.325
757.658	43.197
761.526	126.551
765.392	159.799
769.257	171.961
773.119	135.079
776.98	17.843
780.839	173.179
784.697	231.168
788.552	60.13
792.406	56.067
796.258	164.986
800.108	241.891
803.957	385.83
807.804	324.786
811.649	253.767
815.492	207.757
819.333	328.591
823.173	513.373
827.011	799.016
830.847	883.089
834.681	1136.21
838.514	1777.94
842.345	3292.89
846.174	5777.2
850.001	8479.3
853.827	10489.7
857.651	9753.27
861.473	6009.16
865.293	3428.14
869.112	2446.61
872.928	1890.1
876.744	1538.64
880.557	1166.94
884.369	1220.6
888.178	1239.14
891.987	1500.94
895.793	1643.47
899.598	1921.62
903.401	2260.05
907.202	2964.28
911.001	4075.5
914.799	6404.71
918.595	10110.8
922.389	14675
926.182	17402.3
929.972	17615.4
933.761	22573.1
937.549	24676
941.334	13898
945.118	7257.3
948.9	4297.74
952.681	2883.35
956.459	2106.62
960.236	1786.44
964.012	1534.04
967.785	1107.34
971.557	833.661
975.327	685.76
979.095	712.698
982.862	918.296
986.627	882.129
990.39	702.138
994.152	498.632
997.912	397.537
1001.67	858.893
1005.43	1346.55
1009.18	1784.49
1012.93	1016.5
1016.68	556.662
1020.43	321.988
1024.18	154.519
1027.93	347.463
1031.67	569.626
1035.42	448.046
1039.16	425.093
1042.9	109.371
1046.63	90.592
1050.37	55.472
1054.11	112.902
1057.84	267.714
1061.57	405.189
1065.3	361.3
1069.03	337.61
1072.75	43.021
1076.47	6.922
1080.2	158.712
1083.92	407.504
1087.64	428.331
1091.36	288.106
1095.07	183.692
1098.79	30.568
1102.5	120.412
1106.21	50.674
1109.92	259.89
1113.62	361.032
1117.33	335.151
1121.04	188.265
1124.74	190.199
1128.44	9.823
1132.14	70.842
1135.83	196.317
1139.53	336.157
1143.22	406.923
1146.92	189.647
1150.61	170.327
1154.3	4.011
1157.98	165.849
1161.67	444.547
1165.35	703.329
1169.04	712.257
1172.72	575.465
1176.4	316.84
1180.07	110.786
1183.75	70.029
1187.42	51.335
1191.1	30.412
1194.77	177.177
1198.44	460.825
1202.1	472.751
1205.77	293.64
1209.43	57.797
1213.1	130.992
1216.76	6.154
1220.42	78.878
1224.07	275.559
1227.73	612.293
1231.38	547.974
1235.04	463.318
1238.69	270.809
1242.34	151.998
1245.99	84.458
1249.63	172.064
1253.28	364.618
1256.92	429.168
1260.56	637.909
1264.2	574.164
1267.84	427.663
1271.48	318.4
1275.11	158.044
1278.74	21.585
1282.38	57.488
1286.01	246.562
1289.63	493.357
1293.26	637.15
1296.89	700.668
1300.51	471.37
1304.13	232.72
1307.75	201.5
1311.37	51.294
1314.99	29.564
1318.6	350.641
1322.22	461.597
1325.83	577.902
