Measurement: Raman, 514 nm, depolarized, Raman Data Processed
Mineral: Topaz
Rruff sample: R040121
Ideal chemistry: Al_2_SiO_4_F_2_
Locality: Tepetate, San Luis Potosi, Mexico
Source: University of Arizona Mineral Museum
Description: Fragments of a prismatic single crystal
Measured chemistry: Al_2.00_(Si_0.99_Al_0.02_)(F_0.82_(OH)_0.18_)_2_
Pin_id: L00170
Orientation: Laser parallel to -c* (0 0 -1). Fiducial mark perpendicular to laser is parallel to a [1 0 0]
Raman shift (cm-1)	intensity
94.768	0
98.947	59.079
103.124	112.787
107.3	92.101
111.473	264.032
115.644	995.791
119.813	1117.35
123.981	185.551
128.146	27.842
132.309	86.018
136.47	48.136
140.63	136.532
144.787	344.997
148.942	1043.33
153.096	2790.82
157.247	1306.78
161.396	400.803
165.544	215.583
169.689	131.236
173.833	79.189
177.974	5.687
182.114	42.885
186.251	5.645
190.387	2.994
194.52	121.83
198.652	41.917
202.782	34.604
206.909	53.905
211.035	81.807
215.159	69.608
219.281	182.005
223.4	508.761
227.518	1283.56
231.634	5885.88
235.748	19429
239.86	22454.3
243.97	7960.9
248.079	2406.53
252.185	1521.17
256.289	2342.86
260.391	10655.9
264.492	35647.6
268.59	42050.4
272.687	9601.54
276.781	5697.55
280.874	12207.4
284.964	30573.9
289.053	12357.3
293.14	3191.57
297.225	1224.1
301.308	854.593
305.389	697.757
309.468	608.25
313.545	653.354
317.62	731.187
321.693	1155.28
325.765	4125.01
329.834	12962.5
333.902	11563.7
337.967	2667.06
342.031	993.667
346.093	619.104
350.153	597.409
354.21	1260.22
358.267	2686.9
362.321	662.029
366.373	136.89
370.423	84.792
374.471	86.896
378.518	240.933
382.563	405.887
386.605	283.321
390.646	403.625
394.685	1229.83
398.722	5270.15
402.757	13684.7
406.79	4455.4
410.821	1208.25
414.851	379.056
418.878	144.805
422.904	33.381
426.927	1.734
430.949	35.547
434.969	38.022
438.987	49.136
443.003	177.174
447.018	881.066
451.03	4604.62
455.041	15330.9
459.049	7227.06
463.056	1680.06
467.061	577.941
471.064	288.727
475.065	182.382
479.064	145.861
483.062	59.164
487.057	318.317
491.051	755.419
495.043	708.52
499.032	389.629
503.02	321.779
507.007	394.002
510.991	986.882
514.973	3063.07
518.954	7947.91
522.933	5358.89
526.91	1632.45
530.885	600.771
534.858	358.553
538.829	410.125
542.799	813.211
546.766	1881.03
550.732	1198.94
554.696	1187.5
558.658	2735.51
562.618	3475.18
566.576	1690
570.533	927.089
574.488	631.22
578.44	496.267
582.391	628.104
586.341	661.858
590.288	598.349
594.233	598.378
598.177	622.074
602.119	659.138
606.059	611.256
609.997	544.063
613.933	771.644
617.868	1167
621.801	1633.13
625.731	1869.05
629.66	1366.73
633.588	1134.58
637.513	1093.56
641.437	1659.98
645.358	2046.51
649.278	1527.1
653.196	1192.48
657.113	760.639
661.027	387.583
664.94	179.308
668.851	138.806
672.76	71.051
676.667	59.015
680.572	5.306
684.476	72.968
688.378	8.102
692.278	102.767
696.176	9.153
700.072	32.153
703.967	47.743
707.86	100.899
711.751	39.741
715.64	176.345
719.527	106.823
723.413	25.934
727.297	125.924
731.179	140.852
735.059	65.001
738.937	130.023
742.814	13.058
746.689	30.726
750.562	108.434
754.433	44.094
758.303	57.683
762.17	94.167
766.036	200.548
769.901	247.836
773.763	134.035
777.624	182.154
781.482	179.199
785.339	179.176
789.195	279.095
793.048	438.975
796.9	427.599
800.75	430.641
804.598	392.424
808.445	431.177
812.289	499.909
816.132	597.625
819.973	776.15
823.813	867.185
827.65	1141.99
831.486	1462.47
835.32	1822.96
839.152	2325.24
842.983	3521.43
846.812	5805.83
850.639	10396.2
854.464	15811.6
858.288	14394.1
862.11	9008.95
865.93	5577.5
869.748	3551.12
873.564	2899.97
877.379	2607.3
881.192	2360.69
885.004	2418.3
888.813	2639.94
892.621	3036.04
896.427	3587.85
900.232	4455.23
904.034	5659.09
907.835	7299.9
911.634	9078.99
915.432	12187.6
919.227	18220.5
923.021	26984.7
926.813	33318.1
930.604	29950.8
934.393	22452.7
938.18	16882.8
941.965	11145.2
945.749	7362.86
949.53	4971.74
953.311	3694.88
957.089	2774.95
960.866	2176.9
964.641	1757.8
968.414	1416.94
972.185	1215.35
975.955	930.009
979.723	681.951
983.49	776.178
987.254	856.702
991.017	726.335
994.779	716.012
998.538	1215.19
1002.3	2796.55
1006.05	2871.34
1009.81	2800.17
1013.56	2598.15
1017.31	1803.99
1021.06	1593.35
1024.81	1164.2
1028.55	870.424
1032.3	469.891
1036.04	383.525
1039.78	278.326
1043.52	248.298
1047.26	150.817
1050.99	330.581
1054.73	169.103
1058.46	121.705
1062.19	126.9
1065.92	142.396
1069.65	321.945
1073.37	474.148
1077.1	482.504
1080.82	776.972
1084.54	818.539
1088.26	521.196
1091.97	311.085
1095.69	177.761
1099.4	215.658
1103.12	64.622
1106.83	245.646
1110.54	233.72
1114.24	183.837
1117.95	155.988
1121.65	368.166
1125.35	235.363
1129.06	116.569
1132.75	94.781
1136.45	9.992
1140.15	62.854
1143.84	98.245
1147.53	98.512
1151.22	125.45
1154.91	82.732
1158.6	4.725
1162.28	87.087
1165.97	181.503
1169.65	192.57
1173.33	212.657
1177.01	194.473
1180.69	143.162
1184.36	127.764
1188.04	162.271
1191.71	32.673
1195.38	37.052
1199.05	73.521
1202.71	219.586
1206.38	129.219
1210.04	9.218
1213.71	26.93
1217.37	278.274
1221.03	166.375
1224.68	185.567
1228.34	213.859
1231.99	368.499
1235.65	481.03
1239.3	691.435
1242.95	712.539
1246.59	658.779
1250.24	732.606
1253.88	651.958
1257.53	592.914
1261.17	599.689
1264.81	642.065
1268.45	847.121
1272.08	1056.88
1275.72	1137.35
1279.35	1016.86
1282.98	824.087
1286.61	666.753
1290.24	734.524
1293.87	801.695
1297.49	937.375
1301.11	719.643
1304.73	662.656
1308.36	793.41
1311.97	1029.68
1315.59	939.642
1319.2	1030.94
1322.82	968.24
1326.43	668.97
1330.04	465.175
1333.65	108.918
1337.26	8.174
1340.86	139.913
1344.47	81.133
1348.07	18.827
1351.67	122.983
1355.27	2.568
1358.87	42.605
1362.46	8.655
1366.06	0.489
1369.65	38.259
1373.24	110.366
1376.83	216.076
1380.42	351.567
1384	357.438
1387.59	295.988
1391.17	201.125
1394.75	111.042
1398.33	106.799
1401.91	19.427
1405.49	69.852
1409.06	75.63
1412.64	86.697
1416.21	103.761
1419.78	0.259
1423.35	14.025
1426.91	0
