Measurement: Raman, 514 nm, depolarized, Raman Data Processed
Mineral: Topaz
Rruff sample: R050176
Ideal chemistry: Al_2_SiO_4_F_2_
Locality: Jos Plateau, Nigeria
Source: Marcus Origlieri
Description: Colorless prismatic crystal
Measured chemistry: Al_2.000_Si_1.000_O_4.000_(F_1.438_(OH)_0.562_)
Pin_id: L00136
Orientation: Laser parallel to -c* (0 0 -1). Fiducial mark perpendicular to laser is parallel to a [1 0 0]
Raman shift (cm-1)	intensity
92.678	0
96.858	88.447
101.036	228.359
105.212	384.733
109.387	6379.75
113.559	2847.45
117.729	1720.62
121.897	508.629
126.063	257.012
130.228	319.545
134.39	188.995
138.55	233.367
142.709	242.773
146.865	177.733
151.019	584.25
155.171	2719.32
159.322	704.987
163.47	240.798
167.617	185.433
171.761	191.81
175.904	112.852
180.044	1.698
184.183	3.944
188.319	89.028
192.454	0.711
196.586	11.949
200.717	153.931
204.846	60.745
208.972	64.92
213.097	60.346
217.22	110.471
221.341	22.379
225.46	202.434
229.577	815.692
233.692	3839.14
237.805	15675.7
241.916	20473.4
246.025	3818.45
250.132	1556.74
254.237	1122.29
258.34	1464.45
262.442	7060.34
266.541	36257.5
270.639	26189.4
274.734	4929.75
278.828	3843.71
282.919	11786.8
287.009	26432.3
291.097	7034.02
295.183	2358.02
299.266	1398.25
303.348	1057.48
307.428	865.769
311.507	913.236
315.583	861.8
319.657	920.371
323.729	1303.07
327.8	3954.95
331.868	13308
335.935	6003.18
339.999	1596.51
344.062	822.663
348.123	592.15
352.182	566.374
356.239	1229.18
360.294	1789.04
364.347	417.312
368.398	234.816
372.448	385.373
376.495	240.896
380.54	279.687
384.584	347.249
388.626	349.618
392.666	732.144
396.704	1598.87
400.74	5058.75
404.774	7195.71
408.806	2121.83
412.836	632.05
416.865	91.293
420.891	1.327
424.916	62.976
428.939	71.672
432.959	82.098
436.978	24.882
440.996	109.191
445.011	171.112
449.024	842.072
453.036	3942.21
457.045	10406.6
461.053	5024.03
465.059	1509.42
469.063	663.826
473.065	295.196
477.065	155.527
481.063	289.816
485.06	266.062
489.054	496.256
493.047	568.396
497.038	380.474
501.027	140.488
505.014	242.256
508.999	486.888
512.982	1188.7
516.964	3510.58
520.944	6348.38
524.921	2194.21
528.897	649.557
532.871	382.599
536.844	230.841
540.814	252.635
544.783	755.05
548.749	1495.59
552.714	715.784
556.677	1379.86
560.638	2494.86
564.597	1555.36
568.555	773.519
572.511	349.502
576.464	190.585
580.416	198.633
584.366	164.858
588.315	180.606
592.261	19.829
596.206	205.414
600.148	221.202
604.089	2.511
608.028	154.845
611.965	181.451
615.901	208.058
619.834	282.476
623.766	368.066
627.696	381.107
631.624	397.957
635.551	497.617
639.475	590.086
643.398	759.366
647.318	689.458
651.237	430.363
655.155	316.084
659.07	164.621
662.984	0.057
666.895	78.955
670.805	75.665
674.713	83.148
678.62	61.587
682.524	30.872
686.427	68.461
690.328	39.567
694.227	51.773
698.124	2.696
702.02	5.943
705.913	27.485
709.805	55.407
713.695	22.221
717.584	18.418
721.47	104.338
725.355	27.348
729.238	1.86
733.119	192.243
736.998	88.379
740.876	55.474
744.752	92.562
748.626	193.396
752.498	178.887
756.368	68.413
760.237	18.519
764.104	33.506
767.969	154.719
771.832	206.6
775.693	193.436
779.553	128.155
783.411	77.803
787.267	188.422
791.122	305.021
794.974	324.606
798.825	139.202
802.674	205.875
806.522	240.636
810.367	353.417
814.211	435.255
818.053	440.679
821.893	393.559
825.732	436.685
829.568	827.97
833.403	1116.09
837.236	1524.4
841.068	2673.27
844.898	4807.11
848.726	7156.6
852.552	9002.48
856.376	9501.45
860.199	6824.12
864.02	4129.73
867.839	2645.45
871.656	1969.03
875.472	1884.67
879.286	1741.11
883.098	1686.16
886.909	1728.73
890.717	1875.29
894.524	2165.01
898.33	3000.38
902.133	3845.44
905.935	5110.34
909.735	6570.41
913.533	8916.85
917.33	13351.7
921.124	20254.5
924.918	25199.5
928.709	23060.8
932.499	17159
936.286	13392.7
940.073	8995.67
943.857	5818.86
947.64	4036.28
951.421	3180.3
955.2	2119.22
958.978	1580.73
962.753	1285.66
966.527	1332.35
970.3	1289.32
974.071	1258.46
977.84	1004.82
981.607	1023.14
985.372	1114.37
989.136	742.5
992.898	835.636
996.659	991.676
1000.42	1281.08
1004.17	1428.79
1007.93	1904.79
1011.68	1869.09
1015.43	1379.73
1019.18	1024.71
1022.93	794.949
1026.68	533.521
1030.42	209.239
1034.17	97.366
1037.91	305.836
1041.65	452.559
1045.39	425.988
1049.12	415.547
1052.86	169.734
1056.59	16.689
1060.33	21.793
1064.06	289.289
1067.78	503.582
1071.51	610.086
1075.23	430.578
1078.96	145.08
1082.68	33.701
1086.4	56.369
1090.12	304.924
1093.83	548.475
1097.55	587.043
1101.26	395.934
1104.97	233.693
1108.68	12.447
1112.39	89.6
1116.1	123.816
1119.8	391.719
1123.5	577.191
1127.2	489.701
1130.9	210.156
1134.6	57.787
1138.3	87.59
1141.99	208.119
1145.69	217.062
1149.38	508.648
1153.07	602.078
1156.76	740.65
1160.44	735.732
1164.13	588.576
1167.81	355.812
1171.49	197.484
1175.17	303.891
1178.85	556.578
1182.52	659.812
1186.2	564.152
1189.87	225.445
1193.54	53.555
1197.21	40.525
1200.88	76.16
1204.55	321.035
1208.21	532.102
1211.88	978.379
1215.54	786.242
1219.2	528.441
1222.86	206.799
1226.51	118.371
1230.17	75.793
1233.82	300.086
1237.47	708.695
1241.12	796.605
1244.77	750.518
1248.42	543.473
1252.06	309.438
1255.71	153.619
1259.35	50.422
1262.99	37.838
1266.63	510.564
1270.26	836.182
1273.9	799.029
1277.53	672.393
1281.16	515.619
1284.8	164.693
1288.42	47.203
1292.05	54.092
1295.68	149.844
1299.3	469.627
1302.92	890.17
1306.55	919.875
1310.16	809.453
1313.78	860.5
1317.4	468.146
1321.01	317.883
1324.62	3.014
