Measurement: Raman, 514 nm, depolarized, Raman Data Processed
Mineral: Topaz
Rruff sample: R050200
Ideal chemistry: Al_2_SiO_4_F_2_
Locality: Jos Plateau, Nigeria
Source: Marcus Origlieri
Description: Colorless water-worn single crystal
Measured chemistry: Al_2.000_Si_1.000_O_4.000_F_1.488_(OH)_0.512_
Pin_id: L00468
Orientation: Laser parallel to b* (0 1 0). Fiducial mark perpendicular to laser is parallel to c [0 0 1]
Raman shift (cm-1)	intensity
99.644	0
103.82	64.691
107.995	288.271
112.168	155.771
116.339	270.454
120.508	86.383
124.675	101.808
128.84	47.173
133.003	1.711
137.164	70.044
141.323	34.077
145.48	297.497
149.635	1819.65
153.788	2834.6
157.939	740.458
162.088	178.043
166.235	81.982
170.38	20.948
174.523	90.741
178.664	12.561
182.803	35.741
186.94	161.19
191.076	177.833
195.209	216.516
199.34	280.001
203.47	329.154
207.597	638.014
211.722	51.595
215.846	50.12
219.967	162.81
224.087	414.233
228.204	1455.99
232.32	8930.9
236.434	29724.7
240.545	24100.2
244.655	5974.35
248.763	1978.72
252.869	1355.4
256.973	2408.92
261.075	15162.6
265.175	44414.2
269.273	24051.3
273.369	5870.28
277.463	6159.25
281.556	19763.6
285.646	24670.2
289.734	7918.67
293.821	2486.79
297.905	1299.41
301.988	879.987
306.069	711.858
310.147	596.452
314.224	504.989
318.299	485.384
322.372	635.456
326.443	1410.09
330.512	2828.2
334.579	1492.25
338.645	522.876
342.708	262.647
346.769	313.964
350.829	262.721
354.887	191.407
358.942	170.07
362.996	154.573
367.048	321.915
371.098	843.108
375.146	546.587
379.192	158.697
383.236	58.974
387.279	15.464
391.319	189.936
395.358	830.226
399.394	2650.42
403.429	2976.52
407.462	928.457
411.493	329.17
415.522	35.99
419.549	47.386
423.575	24.103
427.598	35.264
431.619	75.651
435.639	24.912
439.657	168.784
443.673	5.293
447.687	45.575
451.699	419.678
455.709	968.64
459.717	510.474
463.724	237.19
467.728	189.775
471.731	236.237
475.732	286.575
479.731	704.795
483.728	901.897
487.723	1164.89
491.716	774.767
495.708	338.554
499.697	180.265
503.685	288.924
507.671	353.526
511.655	1143.85
515.637	3653.83
519.617	5568.87
523.596	2180.03
527.572	719.938
531.547	359.987
535.52	230.947
539.491	215.583
543.46	338.03
547.427	472.868
551.393	1248.76
555.356	3003.1
559.318	4937.75
563.278	3319.48
567.236	1404.96
571.192	693.667
575.147	434.43
579.099	249.916
583.05	187.549
586.999	144.272
590.946	208.271
594.891	84.562
598.834	147.403
602.776	73.722
606.715	195.574
610.653	198.526
614.589	77.351
618.523	196.154
622.456	136.938
626.386	259.447
630.315	141.104
634.242	296.061
638.167	749.795
642.09	1118.53
646.012	980.252
649.931	471.981
653.849	331.354
657.765	176.096
661.679	59.849
665.592	104.615
669.502	64.604
673.411	0.903
677.318	114.813
681.223	136.564
685.126	257.351
689.028	85.168
692.927	49.021
696.825	46.913
700.721	40.124
704.616	114.121
708.508	55.799
712.399	21.297
716.288	38.583
720.175	41.399
724.06	53.127
727.944	77.839
731.825	54.5
735.705	67.289
739.584	66.185
743.46	4.218
747.334	76.477
751.207	37.291
755.078	58.817
758.947	8.664
762.815	36.487
766.68	64.422
770.544	166.425
774.406	99.522
778.267	41.713
782.125	124.005
785.982	59.396
789.837	91.885
793.69	45.486
797.542	54.232
801.391	33.131
805.239	139.186
809.085	143.349
812.93	103.653
816.772	96.106
820.613	162.684
824.452	239.471
828.29	137.92
832.125	294.858
835.959	222.958
839.791	329.245
843.621	427.711
847.45	673.345
851.277	932.146
855.102	1044.9
858.925	1061.09
862.746	763.251
866.566	641.822
870.384	656.285
874.2	657.633
878.015	593.281
881.828	713.751
885.639	781.885
889.448	1005.94
893.256	1235.17
897.061	1508.24
900.865	1822.65
904.668	2803.03
908.468	3320.09
912.267	4831.32
916.064	7488.81
919.86	11212.4
923.653	14839.2
927.445	16079
931.236	16894.9
935.024	21477.9
938.811	17747.1
942.596	9512.29
946.379	5294.25
950.161	3322.76
953.94	2378.9
957.719	1810.18
961.495	1632.43
965.27	1615.83
969.043	1441.88
972.814	1760.16
976.583	2733.23
980.351	4918.59
984.117	6740.22
987.882	5000.25
991.644	2311.66
995.405	1283.11
999.165	876.199
1002.92	636.177
1006.68	427.735
1010.43	413.398
1014.18	410.148
1017.93	323.969
1021.68	308.826
1025.43	240.641
1029.18	213.81
1032.92	131.884
1036.66	83.996
1040.4	17.82
1044.14	180.271
1047.88	68.192
1051.62	23.285
1055.35	169.278
1059.08	95.074
1062.81	109.678
1066.54	87.111
1070.27	5.636
1073.99	72.325
1077.72	33.503
1081.44	30.571
1085.16	218.601
1088.88	93.162
1092.59	89.932
1096.31	89.41
1100.02	14.579
1103.73	8.809
1107.44	23.55
1111.15	59.694
1114.86	18.212
1118.57	36.729
1122.27	311.362
1125.97	123.696
1129.67	15.85
1133.37	60.287
1137.07	176.544
1140.76	73.247
1144.45	62.8
1148.15	28.777
1151.84	136.408
1155.53	230.045
1159.21	595.868
1162.9	898.156
1166.58	958.246
1170.26	532.37
1173.94	221.177
1177.62	251.837
1181.3	125.332
1184.97	102.668
1188.65	5.863
1192.32	6.286
1195.99	31.615
1199.66	10.452
1203.33	29.407
1206.99	73.084
1210.65	54.568
1214.32	59.452
1217.98	42.166
1221.64	33.859
1225.29	61.375
1228.95	64.729
1232.6	195.94
1236.26	177.98
1239.91	97.712
1243.56	129.751
1247.2	137.863
1250.85	166.864
1254.49	105.254
1258.13	137.878
1261.78	62.573
1265.41	131.776
1269.05	185.049
1272.69	54.353
1276.32	105.332
1279.95	36.828
1283.59	3.08
1287.21	131.929
1290.84	63.165
1294.47	125.76
1298.09	163.918
1301.72	201.134
1305.34	127.239
1308.96	217.238
1312.58	37.135
1316.19	168.935
1319.81	259.611
1323.42	530.244
1327.03	162.78
1330.64	62.195
1334.25	78.478
1337.86	62.71
1341.46	125.575
1345.07	118.144
1348.67	198.323
1352.27	239.273
1355.87	200.83
1359.46	172.783
1363.06	104.896
1366.65	235.101
1370.25	238.604
1373.84	75.067
1377.43	192.743
1381.02	152.78
1384.6	216.352
1388.18	107.546
1391.77	258.01
1395.35	257.288
1398.93	173.71
1402.51	230.656
1406.08	236.856
1409.66	245.74
1413.23	271.166
1416.8	322.132
1420.37	186.784
1423.94	254.544
1427.51	276.146
1431.08	266.87
1434.64	303.258
1438.2	373.807
1441.76	329.839
1445.32	424.88
1448.88	295.903
1452.43	529.852
1455.99	463.217
1459.54	454.744
1463.09	240.548
1466.64	266.688
1470.19	220.17
1473.74	291.622
1477.28	180.367
1480.83	84.176
1484.37	250.479
1487.91	120.42
1491.45	115.139
1494.98	31.788
1498.52	10.572
1502.05	112.774
1505.59	96.851
1509.12	115.936
1512.65	37.526
1516.17	3.661
1519.7	0
