Measurement: Raman, 514 nm, depolarized, Raman Data Processed
Mineral: Topaz
Rruff sample: R050200
Ideal chemistry: Al_2_SiO_4_F_2_
Locality: Jos Plateau, Nigeria
Source: Marcus Origlieri
Description: Colorless water-worn single crystal
Measured chemistry: Al_2.000_Si_1.000_O_4.000_F_1.488_(OH)_0.512_
Pin_id: L00463
Orientation: Laser parallel to -c* (0 0 -1). Fiducial mark perpendicular to laser is parallel to a [1 0 0]
Raman shift (cm-1)	intensity
89.89	0
94.071	179.018
98.251	190.583
102.428	184.389
106.604	221.319
110.777	699.533
114.949	568.553
119.119	2077.26
123.286	245.078
127.452	93.79
131.615	10.592
135.777	46.265
139.937	40.542
144.094	48.33
148.25	282.801
152.403	1260.47
156.555	2401.8
160.705	490.259
164.853	153.375
168.998	85.083
173.142	8.663
177.284	5.125
181.424	12.788
185.562	37.574
189.698	4.014
193.831	43.832
197.963	102.948
202.093	160.296
206.221	232.894
210.347	188.725
214.472	78.212
218.594	61.953
222.714	56.386
226.832	408.917
230.948	1904.71
235.063	10257.7
239.175	24868.8
243.286	18101
247.394	4142.56
251.501	1732.37
255.605	1602.59
259.708	3716.06
263.808	19205.6
267.907	52642.2
272.004	22939.9
276.099	6954.64
280.192	7880.36
284.283	21046.5
288.372	25184.8
292.459	7146.32
296.544	2608.87
300.627	1527.66
304.709	1131.31
308.788	935.464
312.865	925.538
316.941	973.746
321.015	1282.81
325.086	2575.01
329.156	8088.4
333.224	16267.9
337.29	5840.15
341.354	1756.68
345.416	882.573
349.476	649.278
353.534	818.744
357.591	1743.33
361.645	1672.17
365.698	493.185
369.748	281.429
373.797	273.845
377.844	304.832
381.889	437.362
385.932	386.36
389.973	474.505
394.012	993.786
398.049	3233.2
402.084	8055.8
406.118	7654.62
410.15	2228.66
414.179	613.804
418.207	228.091
422.233	49.514
426.257	24.017
430.279	8.362
434.299	25.214
438.318	41.761
442.334	59.469
446.349	464.766
450.361	2035.01
454.372	7382.3
458.381	12438.6
462.388	5064.97
466.394	1660.35
470.397	706.757
474.398	299.189
478.398	195.635
482.396	175.096
486.391	208.567
490.385	593.045
494.377	577.524
498.368	316.005
502.356	233.492
506.342	310.161
510.327	633.081
514.31	1993.62
518.291	5790.77
522.27	7590.22
526.247	2492.49
530.222	736.836
534.196	272.784
538.167	169.845
542.137	262.315
546.105	958.75
550.071	1607.48
554.035	1094.01
557.998	2021.49
561.958	3032.31
565.917	1765.61
569.874	748.496
573.829	364.165
577.782	155.983
581.733	189.705
585.683	164.995
589.63	82.218
593.576	28.667
597.52	34.86
601.462	26.643
605.402	100.85
609.341	80.979
613.277	75.952
617.212	66.78
621.145	272.461
625.076	269.995
629.006	223.379
632.933	267.615
636.859	395.698
640.783	1092.63
644.705	2807.41
648.625	643.037
652.543	288.511
656.46	85.833
660.375	28.432
664.288	3.98
668.199	40.272
672.108	34.165
676.016	23.238
679.921	29.967
683.825	20.619
687.727	11.414
691.628	87.156
695.526	46.428
699.423	22.311
703.318	45.481
707.211	11.033
711.102	42.65
714.992	25.358
718.879	121.924
722.765	68.71
726.649	9.158
730.532	63.168
734.412	11.234
738.291	43.503
742.168	97.702
746.043	62.865
749.916	6.191
753.788	53.714
757.658	19.076
761.526	20.379
765.392	77.169
769.257	170.869
773.119	172.507
776.98	58.069
780.839	154.56
784.697	125.982
788.552	174.341
792.406	252.642
796.258	195.902
800.108	256.147
803.957	253.423
807.804	271.673
811.649	410.916
815.492	377.545
819.333	444.692
823.173	603.798
827.011	774.883
830.847	984.251
834.681	1367.68
838.514	2130.68
842.345	3663.95
846.174	6354.54
850.001	9672.8
853.827	12409.6
857.651	12788.5
861.473	8597.85
865.293	5096.81
869.112	3419.34
872.928	2673.8
876.744	2300.42
880.557	2150.65
884.369	1971.26
888.178	2136.04
891.987	2397.87
895.793	2880.13
899.598	3723.49
903.401	4882.62
907.202	6504.25
911.001	8753.35
914.799	12085.3
918.595	18106.7
922.389	26977.2
926.182	33291.8
929.972	29780.7
933.761	22561.8
937.549	17872.9
941.334	11827.2
945.118	7581.25
948.9	5222.29
952.681	3639.46
956.459	2613.23
960.236	2066.69
964.012	1582.98
967.785	1428.97
971.557	1162.84
975.327	966.286
979.095	907.912
982.862	878.856
986.627	731.89
990.39	654.195
994.152	660.775
997.912	803.39
1001.67	1084.08
1005.43	1550.03
1009.18	2249.17
1012.93	2161.45
1016.68	1312.87
1020.43	883.447
1024.18	650.221
1027.93	399.27
1031.67	350.45
1035.42	214.253
1039.16	115.887
1042.9	217.573
1046.63	111.978
1050.37	69.569
1054.11	159.035
1057.84	70.615
1061.57	85.086
1065.3	52.523
1069.03	16.303
1072.75	13.692
1076.47	89.434
1080.2	5.995
1083.92	103.701
1087.64	86.918
1091.36	86.534
1095.07	20.049
1098.79	82.02
1102.5	79.84
1106.21	46.881
1109.92	52.104
1113.62	23.586
1117.33	4.119
1121.04	110.2
1124.74	200.417
1128.44	20.432
1132.14	41.469
1135.83	9.316
1139.53	64.687
1143.22	410.981
1146.92	137.872
1150.61	81.316
1154.3	98.216
1157.98	338.461
1161.67	597.618
1165.35	869.684
1169.04	572.654
1172.72	330.584
1176.4	124.35
1180.07	26.008
1183.75	83.792
1187.42	2.353
1191.1	35.151
1194.77	76.68
1198.44	26.143
1202.1	15.138
1205.77	74.01
1209.43	83.806
1213.1	30.537
1216.76	89.212
1220.42	107.529
1224.07	38.45
1227.73	1.036
1231.38	18.469
1235.04	7.72
1238.69	59.8
1242.34	76.612
1245.99	146.46
1249.63	73.479
1253.28	117.938
1256.92	13.365
1260.56	133.527
1264.2	127.433
1267.84	67.865
1271.48	128.542
1275.11	112.007
1278.74	165.4
1282.38	130.575
1286.01	74.521
1289.63	149.458
1293.26	195.242
1296.89	59.997
1300.51	132.503
1304.13	221.876
1307.75	116.129
1311.37	96.267
1314.99	128.293
1318.6	133.198
1322.22	170.992
1325.83	48.492
1329.44	35.783
1333.05	30.914
1336.66	14.698
1340.26	60.498
1343.87	1.298
1347.47	115.925
1351.07	59.682
1354.67	53.129
1358.27	9.014
1361.86	100.202
1365.46	102.82
1369.05	141.76
1372.64	75.799
1376.23	80.131
1379.82	81.4
1383.41	108.397
1386.99	157.65
1390.57	135.293
1394.16	83.563
1397.74	49.769
1401.32	139.722
1404.89	177.98
1408.47	202.681
1412.04	226.25
1415.61	107.503
1419.18	166.146
1422.75	146.116
1426.32	124.95
1429.89	198.37
1433.45	141.333
1437.01	190.025
1440.58	262.712
1444.13	337.919
1447.69	318.785
1451.25	408.178
1454.81	491.618
1458.36	340.107
1461.91	439.841
1465.46	273.612
1469.01	398.479
1472.56	245.505
1476.1	209.863
1479.64	225.668
1483.19	324.97
1486.73	147.756
1490.27	67.666
1493.81	98.806
1497.34	105.314
1500.88	120.752
1504.41	59.327
1507.94	151.32
1511.47	148.79
1515	101.881
1518.53	72.183
1522.05	122.39
