Measurement: Raman, 514 nm, depolarized, Raman Data Processed
Mineral: Topaz
Rruff sample: R050200
Ideal chemistry: Al_2_SiO_4_F_2_
Locality: Jos Plateau, Nigeria
Source: Marcus Origlieri
Description: Colorless water-worn single crystal
Measured chemistry: Al_2.000_Si_1.000_O_4.000_F_1.488_(OH)_0.512_
Pin_id: L00096
Orientation: Laser parallel to a* (1 0 0). Fiducial mark perpendicular to laser is parallel to b [0 1 0]
Raman shift (cm-1)	intensity
101.036	0
105.212	112.953
109.387	226.142
113.559	164.919
117.729	372.386
121.897	53.628
126.063	0.295
130.228	7.691
134.39	47.874
138.55	80.178
142.709	122.286
146.865	499.31
151.019	1914.64
155.171	3563.02
159.322	1860.38
163.47	1622
167.617	1649.36
171.761	372.924
175.904	91.994
180.044	28.831
184.183	11.513
188.319	7.522
192.454	36.171
196.586	120.172
200.717	169.332
204.846	208.598
208.972	379.907
213.097	56.24
217.22	33.402
221.341	78.99
225.46	375.047
229.577	1343.66
233.692	8215.25
237.805	25613
241.916	30678.7
246.025	8099.93
250.132	2310.74
254.237	1451.72
258.34	2363.88
262.442	12821.2
266.541	36975.5
270.639	34359
274.734	8182.3
278.828	9323.81
282.919	29413.1
287.009	46208
291.097	18241.8
295.183	6257.31
299.266	2070.67
303.348	1294.05
307.428	1077.86
311.507	1380.18
315.583	2253.49
319.657	2099.9
323.729	1628.28
327.8	5181.62
331.868	11791.1
335.935	7447.69
339.999	1988.05
344.062	713.317
348.123	292.597
352.182	118.381
356.239	99.42
360.294	80.467
364.347	98.927
368.398	236.559
372.448	227.328
376.495	32.682
380.54	20.176
384.584	3.627
388.626	168.522
392.666	767.773
396.704	2634.13
400.74	7753.59
404.774	10708.1
408.806	4211.77
412.836	1378.65
416.865	554.784
420.891	341.087
424.916	224.561
428.939	31.852
432.959	1.147
436.978	23.464
440.996	62.333
445.011	319.311
449.024	1484.41
453.036	6208.6
457.045	12733.9
461.053	7630.3
465.059	2489.77
469.063	893.308
473.065	411.91
477.065	157.581
481.063	184.317
485.06	488.119
489.054	1172.98
493.047	1179.91
497.038	353.89
501.027	135.93
505.014	155.091
508.999	378.479
512.982	440.829
516.964	493.117
520.944	740.667
524.921	416.539
528.897	199.992
532.871	119.988
536.844	172.632
540.814	246.352
544.783	323.335
548.749	564.247
552.714	1334.16
556.677	3343.08
560.638	5696
564.597	3955.65
568.555	1650.9
572.511	764.448
576.464	414.304
580.416	157.651
584.366	137.876
588.315	60.747
592.261	92.136
596.206	194.784
600.148	192.315
604.089	269.168
608.028	199.566
611.965	252.249
615.901	207.258
619.834	164.496
623.766	119.649
627.696	149.715
631.624	239.692
635.551	409.578
639.475	933.371
643.398	1735.07
647.318	1554.67
651.237	737.171
655.155	368.574
659.07	197.437
662.984	107.072
666.895	68.162
670.805	32.108
674.713	22.42
678.62	32.409
682.524	50.795
686.427	128.914
690.328	29.137
694.227	56.596
698.124	41.207
702.02	136.736
705.913	138.154
709.805	282.455
713.695	167.64
717.584	49.707
721.47	2.056
725.355	67.696
729.238	14.47
733.119	4.681
736.998	41.88
740.876	23.759
744.752	81.615
748.626	28.164
752.498	31.241
756.368	76.038
760.237	1.208
764.104	15.393
767.969	61.146
771.832	57.068
775.693	102.137
779.553	41.118
783.411	97.016
787.267	129.832
791.122	64.57
794.974	92.234
798.825	135.827
802.674	151.935
806.522	216.817
810.367	273.219
814.211	314.565
818.053	355.868
821.893	414.807
825.732	623.277
829.568	704.584
833.403	1135.06
837.236	1605.13
841.068	2812.64
844.898	4991.67
848.726	8168.73
852.552	10910.4
856.376	12085.5
860.199	9300.62
864.02	5646.73
867.839	3472.84
871.656	2551.89
875.472	2016.85
879.286	1667.27
883.098	1460.12
886.909	1392.36
890.717	1460.65
894.524	1629.95
898.33	1806.04
902.133	2254.99
905.935	2924.36
909.735	3887.25
913.533	5721.63
917.33	8909.58
921.124	13749
924.918	18407.2
928.709	20331.6
932.499	22256.2
936.286	28484.8
940.073	23153.6
943.857	12123.6
947.64	6804.68
951.421	4064.88
955.2	2849.42
958.978	2103.91
962.753	1545.57
966.527	1380.82
970.3	1101.05
974.071	879.229
977.84	858.581
981.607	790.14
985.372	856.045
989.136	659.466
992.898	529.754
996.659	563.907
1000.42	848.511
1004.17	1193.15
1007.93	2038.94
1011.68	1814.86
1015.43	945.919
1019.18	552.125
1022.93	389.493
1026.68	289.099
1030.42	273.998
1034.17	212.215
1037.91	121.662
1041.65	146.23
1045.39	180.743
1049.12	76.811
1052.86	84.225
1056.59	105.925
1060.33	205.699
1064.06	148.414
1067.78	130.354
1071.51	72.861
1075.23	74.36
1078.96	119.269
1082.68	91.557
1086.4	95.743
1090.12	61.258
1093.83	2.426
1097.55	91.777
1101.26	16.823
1104.97	55.345
1108.68	57.292
1112.39	15.022
1116.1	23.453
1119.8	29.044
1123.5	230.347
1127.2	157.414
1130.9	53.611
1134.6	4.039
1138.3	82.824
1141.99	53.39
1145.69	6.625
1149.38	10.843
1153.07	19.522
1156.76	108.352
1160.44	319.325
1164.13	479.231
1167.81	501.425
1171.49	324.441
1175.17	174.242
1178.85	129.293
1182.52	11.269
1186.2	78.316
1189.87	12.227
1193.54	6.759
1197.21	6.153
1200.88	34.779
1204.55	8.265
1208.21	10.372
1211.88	1.53
1215.54	9.939
1219.2	24.258
1222.86	71.051
1226.51	37.295
1230.17	15.444
1233.82	26.056
1237.47	40.096
1241.12	89.922
1244.77	8.601
1248.42	64.338
1252.06	72.55
1255.71	37.833
1259.35	13.679
1262.99	14.044
1266.63	70.897
1270.26	78.518
1273.9	3.023
1277.53	61.373
1281.16	63.266
1284.8	59.674
1288.42	134.431
1292.05	24.826
1295.68	65.21
1299.3	85.408
1302.92	78.449
1306.55	117.344
1310.16	122.091
1313.78	11.683
1317.4	27.443
1321.01	49.273
1324.62	12.307
1328.24	51.181
1331.85	3.102
1335.45	57.93
1339.06	17.338
1342.66	42.168
1346.27	112.698
1349.87	109.942
1353.47	49.185
1357.07	175.496
1360.66	103.347
1364.26	56.458
1367.85	109.251
1371.44	246.893
1375.04	50.541
1378.62	146.936
1382.21	137.98
1385.8	132.724
1389.38	141.562
1392.96	194.895
1396.54	202.37
1400.12	141.906
1403.7	117.575
1407.28	109.326
1410.85	229.912
1414.42	273.143
1417.99	187.854
1421.56	224.757
1425.13	173.92
1428.7	113.52
1432.26	204.951
1435.83	185.938
1439.39	243.646
1442.95	261.004
1446.51	207.074
1450.06	158.563
1453.62	226.28
1457.17	271.548
1460.73	312.497
1464.28	130.701
1467.83	134.768
1471.37	183.412
1474.92	178.872
1478.46	103.887
1482.01	105.741
1485.55	223.072
1489.09	74.664
1492.63	99.576
1496.16	75.902
1499.7	125.886
1503.23	24.71
1506.76	150.513
1510.29	112.218
1513.82	106.038
1517.35	5.593
1520.88	54.189
