Measurement: Raman, 514 nm, depolarized, Raman Data Processed
Mineral: Topaz
Rruff sample: R050176
Ideal chemistry: Al_2_SiO_4_F_2_
Locality: Jos Plateau, Nigeria
Source: Marcus Origlieri
Description: Colorless prismatic crystal
Measured chemistry: Al_2.000_Si_1.000_O_4.000_(F_1.438_(OH)_0.562_)
Pin_id: L00474
Orientation: Laser parallel to -b* (0 -1 0). Fiducial mark perpendicular to laser is parallel to c [0 0 1]
Raman shift (cm-1)	intensity
89.89	0
94.071	167.627
98.251	132.026
102.428	240.944
106.604	528.797
110.777	8090.72
114.949	2567.97
119.119	460.473
123.286	317.951
127.452	190.214
131.615	214.661
135.777	255.286
139.937	258.958
144.094	262.976
148.25	426.397
152.403	1461.38
156.555	4463.39
160.705	612.313
164.853	187.702
168.998	158.931
173.142	126.051
177.284	32.055
181.424	43.278
185.562	2.333
189.698	69.705
193.831	44.773
197.963	13.82
202.093	9.264
206.221	12.56
210.347	34.317
214.472	75.795
218.594	85.705
222.714	152.664
226.832	482.701
230.948	1472.92
235.063	7604.44
239.175	34144.9
243.286	21528
247.394	4001.17
251.501	1770.31
255.605	1539.26
259.708	2423.33
263.808	12335.2
267.907	60768
272.004	17772.1
276.099	4109.32
280.192	5793.97
284.283	20916.9
288.372	25646
292.459	6011.95
296.544	2390.46
300.627	1543.89
304.709	1261.59
308.788	1055.79
312.865	873.146
316.941	864.844
321.015	959.167
325.086	1005.39
329.156	1674.03
333.224	3748.82
337.29	1511.7
341.354	745.694
345.416	605.365
349.476	511.104
353.534	568.077
357.591	463.164
361.645	339.392
365.698	356.421
369.748	539.172
373.797	1045.87
377.844	482.211
381.889	216.012
385.932	209.033
389.973	269.022
394.012	418.151
398.049	1095.28
402.084	3363.39
406.118	2999.5
410.15	902.602
414.179	223.714
418.207	207.783
422.233	97.799
426.257	15.398
430.279	4.25
434.299	46.431
438.318	2.042
442.334	172.194
446.349	6.231
450.361	67.264
454.372	578.897
458.381	1090.94
462.388	405.666
466.394	150.996
470.397	176.224
474.398	207.429
478.398	223.168
482.396	532.082
486.391	680.924
490.385	1483.69
494.377	563.411
498.368	154.1
502.356	105.804
506.342	229.015
510.327	427.918
514.31	1215.36
518.291	4635.41
522.27	5149.17
526.247	1401.31
530.222	469.507
534.196	195.74
538.167	76.142
542.137	164.392
546.105	185.39
550.071	504.128
554.035	1417.99
557.998	3872.45
561.958	5067.24
565.917	2368.92
569.874	916.627
573.829	508.629
577.782	322.96
581.733	38.328
585.683	7.603
589.63	38.842
593.576	75.528
597.52	60.76
601.462	35.748
605.402	20.864
609.341	59.512
613.277	134.841
617.212	114.075
621.145	197.294
625.076	125.332
629.006	132.417
632.933	86.714
636.859	276.1
640.783	588.293
644.705	1025.83
648.625	664.407
652.543	375.005
656.46	165.66
660.375	24.347
664.288	62.307
668.199	101.977
672.108	85.175
676.016	0.867
679.921	87.835
683.825	78.504
687.727	189.004
691.628	189.411
695.526	2.558
699.423	7.562
703.318	67.603
707.211	47.538
711.102	136.336
714.992	45.97
718.879	44.505
722.765	58.824
726.649	161.028
730.532	173.07
734.412	30.021
738.291	25.377
742.168	97.894
746.043	154.023
749.916	143.217
753.788	40.194
757.658	7.759
761.526	55.533
765.392	88.884
769.257	151.904
773.119	140.114
776.98	82.456
780.839	57.956
784.697	14.544
788.552	49.917
792.406	63.729
796.258	0.202
800.108	12.639
803.957	39.931
807.804	27.44
811.649	176.768
815.492	38.688
819.333	14.238
823.173	17.911
827.011	165.835
830.847	177.356
834.681	128.606
838.514	108.894
842.345	233.225
846.174	412.61
850.001	662.257
853.827	931.338
857.651	931.822
861.473	639.681
865.293	389.464
869.112	503.546
872.928	457.244
876.744	547.1
880.557	468.847
884.369	573.269
888.178	658.329
891.987	879.522
895.793	1197.88
899.598	1506.98
903.401	2160.64
907.202	2690.56
911.001	3734.96
914.799	5809.94
918.595	9400.45
922.389	13627.1
926.182	16292
929.972	16260.9
933.761	19611.7
937.549	21553.7
941.334	12853.7
945.118	6867.65
948.9	4277.76
952.681	2768.76
956.459	1924.72
960.236	1564.62
964.012	1428.57
967.785	1384.97
971.557	1400.55
975.327	1608.56
979.095	2632.94
982.862	4954.88
986.627	4829.09
990.39	2549.14
994.152	1346.61
997.912	714.34
1001.67	492.232
1005.43	331.311
1009.18	299.553
1012.93	410.97
1016.68	390.57
1020.43	257.371
1024.18	186.346
1027.93	131.523
1031.67	97.886
1035.42	212.44
1039.16	326.152
1042.9	221.015
1046.63	225.98
1050.37	95.063
1054.11	46.468
1057.84	38.923
1061.57	141.531
1065.3	360.452
1069.03	237.705
1072.75	254.762
1076.47	67.987
1080.2	30.665
1083.92	162.991
1087.64	146.641
1091.36	319.408
1095.07	310.841
1098.79	274.511
1102.5	78.743
1106.21	47.132
1109.92	30.837
1113.62	74.799
1117.33	290.406
1121.04	343.416
1124.74	359.509
1128.44	133.372
1132.14	20.612
1135.83	24.043
1139.53	170.674
1143.22	371.429
1146.92	388.936
1150.61	465.889
1154.3	492.55
1157.98	535.268
1161.67	985.449
1165.35	1166.44
1169.04	831.184
1172.72	751.297
1176.4	556.458
1180.07	338.535
1183.75	134.798
1187.42	83.664
1191.1	43.649
1194.77	18.005
1198.44	89.441
1202.1	323.438
1205.77	344.972
1209.43	286.33
1213.1	295.864
1216.76	101.592
1220.42	31.335
1224.07	18.754
1227.73	122.341
1231.38	333.689
1235.04	455.031
1238.69	322.21
1242.34	328.103
1245.99	180.406
1249.63	78.852
1253.28	20.448
1256.92	121.204
1260.56	314.137
1264.2	505.262
1267.84	526.756
1271.48	417.52
1275.11	318.274
1278.74	102.635
1282.38	27.334
1286.01	28.959
1289.63	151.059
1293.26	341.79
1296.89	494.457
1300.51	498.513
1304.13	480.555
1307.75	313.406
1311.37	208.431
1314.99	22.237
1318.6	23.346
1322.22	132.871
1325.83	510.287
1329.44	405.493
1333.05	473.773
1336.66	473.236
1340.26	0
