Measurement: Raman, 514 nm, depolarized, Raman Data Processed
Mineral: Topaz
Rruff sample: R040121
Ideal chemistry: Al_2_SiO_4_F_2_
Locality: Tepetate, San Luis Potosi, Mexico
Source: University of Arizona Mineral Museum
Description: Fragments of a prismatic single crystal
Measured chemistry: Al_2.00_(Si_0.99_Al_0.02_)(F_0.82_(OH)_0.18_)_2_
Pin_id: L00473
Orientation: Laser parallel to a* (1 0 0). Fiducial mark perpendicular to laser is parallel to b [0 1 0]
Raman shift (cm-1)	intensity
93.375	0
97.554	40.931
101.732	76.771
105.908	289.182
110.082	187.108
114.254	772.902
118.424	1343.38
122.592	279.674
126.758	143.485
130.922	141.303
135.083	141.275
139.243	199.829
143.401	269.774
147.557	974.257
151.711	3048.75
155.863	3464.61
160.013	1313.75
164.161	2109.4
168.308	702.875
172.452	233.418
176.594	29.442
180.734	53.83
184.872	12.394
189.008	42.291
193.143	33.949
197.275	21.908
201.405	35.879
205.534	100.39
209.66	165.808
213.784	65.947
217.907	212.717
222.027	340.123
226.146	685.844
230.263	2359.49
234.377	12439.3
238.49	41590.8
242.601	17885.8
246.709	4220.54
250.816	1797.13
254.921	1688.62
259.024	4562.45
263.125	20253.6
267.224	54563.7
271.321	13861.4
275.416	5320.27
279.51	12646.4
283.601	42039.2
287.69	37974.5
291.778	8580.72
295.863	2480.97
299.947	1238.24
304.029	816.928
308.108	783.751
312.186	1200.98
316.262	3019.66
320.336	1528.91
324.408	1934.6
328.478	6699.77
332.546	14571.8
336.612	3455.04
340.677	985.415
344.739	331.252
348.799	212.426
352.858	150.94
356.915	103.191
360.969	66.55
365.022	83.783
369.073	356.444
373.122	149.39
377.169	1.78
381.215	31.637
385.258	28.237
389.299	177.91
393.339	653.396
397.376	3244.74
401.412	13375.9
405.446	9086.72
409.478	2382.55
413.508	838.369
417.536	315.09
421.562	267.693
425.586	289.044
429.609	9.793
433.629	16.247
437.648	6.655
441.665	53.666
445.68	357.591
449.693	2263.33
453.704	10363.9
457.713	13528.2
461.721	2871.41
465.726	774.443
469.73	386.311
473.731	71.012
477.731	20.479
481.729	103.759
485.725	305.785
489.72	1398.65
493.712	1129.35
497.703	305.895
501.691	88.316
505.678	32.665
509.663	354.167
513.646	524.571
517.627	563.877
521.607	546.639
525.584	179.021
529.56	148.39
533.534	179.694
537.506	94.695
541.476	157.51
545.444	302.693
549.41	482.817
553.375	1256.6
557.337	3739.19
561.298	7295.89
565.257	4108.91
569.214	1519.56
573.17	603.021
577.123	332.055
581.075	173.54
585.024	197.725
588.972	294.718
592.918	118.357
596.863	130.714
600.805	291.914
604.746	367.393
608.685	256.771
612.621	327.142
616.557	492.104
620.49	373.819
624.421	789.379
628.351	504.784
632.279	409.689
636.205	603.01
640.129	1450.12
644.051	2455.8
647.972	1672.5
651.89	949.068
655.807	417.51
659.722	291.234
663.636	205.933
667.547	54.985
671.457	43.084
675.365	82.414
679.271	49.07
683.175	64.031
687.077	76.631
690.978	10.549
694.877	128.075
698.774	97.232
702.669	43.021
706.562	209.615
710.454	153.153
714.344	216.635
718.232	133.974
722.118	62.845
726.002	61.052
729.885	103.823
733.766	47.529
737.645	6.794
741.522	8.803
745.397	31.293
749.271	23.352
753.143	17.633
757.013	92.909
760.881	30.413
764.748	49.092
768.613	143.395
772.476	170.922
776.337	145.497
780.196	133.13
784.054	80.823
787.91	271.586
791.764	298.446
795.616	307.438
799.467	301.526
803.316	411.705
807.163	296.978
811.008	446.349
814.851	468.831
818.693	541.438
822.533	677.536
826.371	764.496
830.208	935.743
834.042	1204.88
837.875	1628.07
841.706	2356.49
845.536	3797.02
849.363	6937.74
853.189	12052.9
857.013	14139.6
860.836	9642.67
864.656	5213.02
868.475	3255.64
872.292	2351.27
876.108	1807.93
879.922	1617.6
883.733	1481.8
887.544	1627.55
891.352	1665.63
895.159	1810.69
898.964	1925.71
902.767	2519.89
906.568	3108.65
910.368	3866.6
914.166	5707.69
917.962	8574.66
921.757	12967.4
925.55	18307.4
929.341	20214.7
933.13	21506.3
936.918	30899.1
940.703	23094
944.488	11261.3
948.27	6332.89
952.051	3960.75
955.83	2824.77
959.607	2196.01
963.383	1765.48
967.156	1524.18
970.928	1107.12
974.699	1100.3
978.468	944.721
982.234	942.534
986	787.573
989.763	758.399
993.525	668.044
997.285	895.281
1001.04	1198.54
1004.8	1605.83
1008.55	2214.91
1012.31	1974.84
1016.06	1057.55
1019.81	751.613
1023.56	859.348
1027.31	570.734
1031.05	405.214
1034.79	442.948
1038.53	350.058
1042.27	319.671
1046.01	270.253
1049.75	300.948
1053.48	228.707
1057.22	261.013
1060.95	386.494
1064.68	376.163
1068.4	301.986
1072.13	339.894
1075.86	301.136
1079.58	374.653
1083.3	538.286
1087.02	318.529
1090.74	265.647
1094.45	332.696
1098.17	130.703
1101.88	115.647
1105.59	210.94
1109.3	221.318
1113.01	175.04
1116.71	61.774
1120.42	49.215
1124.12	383.651
1127.82	10.055
1131.52	139.229
1135.22	92.257
1138.91	70.583
1142.61	35.901
1146.3	70.103
1149.99	89.873
1153.68	108.466
1157.37	75.394
1161.06	102.812
1164.74	96.26
1168.42	2.995
1172.1	64.777
1175.78	128.213
1179.46	80.753
1183.14	61.908
1186.81	94.273
1190.48	8.856
1194.15	74.928
1197.83	2.79
1201.49	79.524
1205.16	93.615
1208.82	62.648
1212.49	91.14
1216.15	130.061
1219.81	119.026
1223.46	110.964
1227.12	56.419
1230.78	241.591
1234.43	280.829
1238.08	246.478
1241.73	287.621
1245.38	326.926
1249.03	406.58
1252.67	305.857
1256.31	303.031
1259.95	205.95
1263.6	150.651
1267.23	332.76
1270.87	371.686
1274.51	480.05
1278.14	458.904
1281.77	332.222
1285.4	225.136
1289.03	106.896
1292.66	232.623
1296.28	229.237
1299.91	288.696
1303.53	201.915
1307.15	276.487
1310.77	226.703
1314.38	464.382
1318	174.703
1321.61	230.254
1325.23	303.912
1328.84	134.469
1332.45	52.93
1336.06	119.771
1339.66	3.688
1343.27	16.035
1346.87	232.4
1350.47	231.434
1354.07	220.643
1357.67	288.467
1361.26	102.242
1364.86	16.441
1368.45	176.086
1372.04	246.723
1375.63	266.77
1379.22	249.684
1382.81	379.094
1386.39	226.947
1389.98	255.953
1393.56	268.131
1397.14	139.062
1400.72	184.621
1404.3	240.58
1407.87	172.963
1411.45	251.291
1415.02	161.373
1418.59	473.441
1422.16	76.496
1425.73	101.154
1429.29	149.902
