Measurement: Raman, 514 nm, depolarized, Raman Data Processed
Mineral: Topaz
Rruff sample: R040121
Ideal chemistry: Al_2_SiO_4_F_2_
Locality: Tepetate, San Luis Potosi, Mexico
Source: University of Arizona Mineral Museum
Description: Fragments of a prismatic single crystal
Measured chemistry: Al_2.00_(Si_0.99_Al_0.02_)(F_0.82_(OH)_0.18_)_2_
Pin_id: L00213
Orientation: Laser parallel to -b* (0 -1 0). Fiducial mark perpendicular to laser is parallel to -c [0 0 -1]
Raman shift (cm-1)	intensity
94.768	0
98.947	39.534
103.124	32.369
107.3	260.342
111.473	163.596
115.644	1087.34
119.813	692.046
123.981	260.977
128.146	44.138
132.309	92.888
136.47	84.011
140.63	177.16
144.787	226.371
148.942	1169.62
153.096	3848.87
157.247	807.058
161.396	222.726
165.544	44.861
169.689	56.107
173.833	112.437
177.974	16.251
182.114	31.831
186.251	158.739
190.387	51.185
194.52	42.075
198.652	54.166
202.782	10.246
206.909	53.354
211.035	25.492
215.159	48.679
219.281	74.45
223.4	315.432
227.518	653.103
231.634	3218.19
235.748	22093.5
239.86	32043
243.97	4969.82
248.079	1453.13
252.185	948.594
256.289	1318.22
260.391	6372.19
264.492	40023.6
268.59	24584.3
272.687	3780.9
276.781	2711.49
280.874	11503.9
284.964	29556.3
289.053	6216.06
293.14	1378.26
297.225	470.044
301.308	231.82
305.389	194.699
309.468	84.694
313.545	70.091
317.62	111.188
321.693	21.149
325.765	509.592
329.834	2551.75
333.902	1293.67
337.967	247.877
342.031	70.117
346.093	44.494
350.153	7.811
354.21	33.232
358.267	46.381
362.321	35.885
366.373	19.031
370.423	361.4
374.471	843.962
378.518	44.56
382.563	11.215
386.605	13.513
390.646	14.477
394.685	246.715
398.722	1886.19
402.757	5034.93
406.79	1110.85
410.821	331.966
414.851	231.361
418.878	154
422.904	35.85
426.927	103.681
430.949	24.498
434.969	132.296
438.987	245.067
443.003	236.865
447.018	121.67
451.03	388.471
455.041	1270.31
459.049	418.157
463.056	167.033
467.061	295.933
471.064	295.656
475.065	415.053
479.064	801.924
483.062	747.475
487.057	823.5
491.051	1302.58
495.043	456.764
499.032	307.023
503.02	325.513
507.007	380.619
510.991	691.093
514.973	1936.07
518.954	5973.99
522.933	2921.43
526.91	815.271
530.885	457.191
534.858	361.562
538.829	280.003
542.799	180.562
546.766	350.484
550.732	702.644
554.696	1507.45
558.658	4425.14
562.618	5054.06
566.576	1817.83
570.533	860.028
574.488	501.694
578.44	394.078
582.391	429.952
586.341	463.386
590.288	360.688
594.233	252.419
598.177	303.369
602.119	173.981
606.059	276.867
609.997	305.981
613.933	363.997
617.868	323.324
621.801	497.855
625.731	503.889
629.66	298.79
633.588	405.562
637.513	497.201
641.437	1287.7
645.358	1241.07
649.278	672.302
653.196	453.387
657.113	369.331
661.027	200.13
664.94	85.782
668.851	185.284
672.76	136.632
676.667	160.754
680.572	152.923
684.476	188.49
688.378	206.129
692.278	28.391
696.176	107.825
700.072	49.872
703.967	3.742
707.86	141.665
711.751	26.598
715.64	156.002
719.527	75.021
723.413	2.446
727.297	182.274
731.179	118.665
735.059	34.592
738.937	32.158
742.814	71.654
746.689	7.937
750.562	76.028
754.433	56.906
758.303	27.426
762.17	8.938
766.036	80.408
769.901	47.611
773.763	5.281
777.624	48.73
781.482	63.664
785.339	176.524
789.195	171.313
793.048	68.035
796.9	192.695
800.75	183.297
804.598	81.843
808.445	163.339
812.289	204.789
816.132	332.197
819.973	283.411
823.813	286.641
827.65	297.086
831.486	435.389
835.32	502.229
839.152	590.532
842.983	738.889
846.812	823.26
850.639	1171.72
854.464	1592.3
858.288	1525.56
862.11	1248.01
865.93	1106.11
869.748	1033.05
873.564	871.033
877.379	1031.63
881.192	958.957
885.004	1049.11
888.813	1064.9
892.621	1293.91
896.427	1532.72
900.232	1797.39
904.034	2027.37
907.835	2960.84
911.634	3771.92
915.432	5299.91
919.227	8105.26
923.021	12132.9
926.813	15134
930.604	15063.8
934.393	16419.6
938.18	19984.6
941.965	11825.7
945.749	6452.96
949.53	3974.34
953.311	2930.88
957.089	2344.56
960.866	1835.36
964.641	1676.3
968.414	1540.38
972.185	1876.58
975.955	2037.93
979.723	3030.41
983.49	5128.05
987.254	5633.31
991.017	3176.19
994.779	1803.11
998.538	1248.13
1002.3	1394.59
1006.05	1059.15
1009.81	856.898
1013.56	624.234
1017.31	627.503
1021.06	736.374
1024.81	621.851
1028.55	666.504
1032.3	475.836
1036.04	463.133
1039.78	671.592
1043.52	546.691
1047.26	406.615
1050.99	438.9
1054.73	497.668
1058.46	557.419
1062.19	507.916
1065.92	434.599
1069.65	435.638
1073.37	567.231
1077.1	458.986
1080.82	543.967
1084.54	406.83
1088.26	331.794
1091.97	296.878
1095.69	228.61
1099.4	188.105
1103.12	93.6
1106.83	155.267
1110.54	158.332
1114.24	213.553
1117.95	184.964
1121.65	290.876
1125.35	257.685
1129.06	123.356
1132.75	58.914
1136.45	110.64
1140.15	48.419
1143.84	113.099
1147.53	104.577
1151.22	15.058
1154.91	34.448
1158.6	78.938
1162.28	41.767
1165.97	107.826
1169.65	115.327
1173.33	334.666
1177.01	618.422
1180.69	73.714
1184.36	87.212
1188.04	157.214
1191.71	14.438
1195.38	48.672
1199.05	148.479
1202.71	65.846
1206.38	134.638
1210.04	16.262
1213.71	52.392
1217.37	190.216
1221.03	75.502
1224.68	193.701
1228.34	212.062
1231.99	84.138
1235.65	153.788
1239.3	210.323
1242.95	107.532
1246.59	131.906
1250.24	139.066
1253.88	173.428
1257.53	226.471
1261.17	185.989
1264.81	128.201
1268.45	238.73
1272.08	266.783
1275.72	206.22
1279.35	191.994
1282.98	176.113
1286.61	204.341
1290.24	220.026
1293.87	157.734
1297.49	164.552
1301.11	163.248
1304.73	88.158
1308.36	148.023
1311.97	351.262
1315.59	284.473
1319.2	384.019
1322.82	416.75
1326.43	192.806
1330.04	250.871
1333.65	86.789
1337.26	123.831
1340.86	119.46
1344.47	191.273
1348.07	86.707
1351.67	212.217
1355.27	16.847
1358.87	74.65
1362.46	201.469
1366.06	93.924
1369.65	171.073
1373.24	163.162
1376.83	138.765
1380.42	108.829
1384	129.847
1387.59	169.701
1391.17	118.271
1394.75	152.508
1398.33	125.218
1401.91	236.072
1405.49	172.014
1409.06	284.533
1412.64	170.938
1416.21	186.855
1419.78	138.777
1423.35	298.373
1426.91	216.637
1430.48	8.117
1434.05	49.994
