Measurement: Raman, 514 nm, depolarized, Raman Data Processed
Mineral: Tremolite
Rruff sample: R040045
Ideal chemistry: [box]Ca_2_Mg_5_Si_8_O_22_(OH)_2_
Locality: Gouverneur, New York, USA
Source: University of Arizona Mineral Museum
Description: Group of colorless acicular single crystals
Measured chemistry: Ca_2.01_(Mg_0.99_Fe_0.01_)_5_(Si_0.99_Fe_0.01_)_8_O_22_(OH)_2_
Pin_id: L00397
Orientation: Laser parallel to [-1 0 -1]. Fiducial mark perpendicular to laser is parallel to -b* (0 -1 0)
Raman shift (cm-1)	intensity
107.995	0
112.168	59.556
116.339	484.02
120.508	1132.85
124.675	1381.15
128.84	449.513
133.003	119.163
137.164	6.132
141.323	89.775
145.48	107.622
149.635	41.881
153.788	113.897
157.939	573.601
162.088	1491.77
166.235	928.864
170.38	395.214
174.523	1451.01
178.664	4046.36
182.803	2331.41
186.94	367.633
191.076	477.026
195.209	510.504
199.34	268.64
203.47	227.52
207.597	447.265
211.722	867.681
215.846	1678.53
219.967	4039.73
224.087	7211.26
228.204	5463.18
232.32	6795.3
236.434	5107.49
240.545	1809.76
244.655	1082.07
248.763	2054.46
252.869	2677.15
256.973	1210.36
261.075	313.791
265.175	82.644
269.273	118.896
273.369	147.209
277.463	113.831
281.556	226.629
285.646	540.376
289.734	844.882
293.821	550.101
297.905	323.52
301.988	721.396
306.069	801.845
310.147	387.761
314.224	464.794
318.299	390.361
322.372	195.797
326.443	211.277
330.512	516.948
334.579	972.056
338.645	501.345
342.708	506.543
346.769	1021.74
350.829	1906.55
354.887	1940.1
358.942	1113.06
362.996	1366.05
367.048	4169.06
371.098	6842.07
375.146	2665.07
379.192	1168.11
383.236	1011.64
387.279	1315.43
391.319	3503.82
395.358	5988.92
399.394	2936.91
403.429	1208.74
407.462	912.563
411.493	1686.61
415.522	3181.2
419.549	2573.85
423.575	917.987
427.598	506.262
431.619	641.6
435.639	812.337
439.657	557.785
443.673	204.01
447.687	352.653
451.699	205.041
455.709	91.52
459.717	8.113
463.724	149.279
467.728	211.873
471.731	82.906
475.732	63.589
479.731	194.368
483.728	434.622
487.723	194.802
491.716	204.875
495.708	154.806
499.697	244.558
503.685	244.087
507.671	303.5
511.655	492.773
515.637	1131.94
519.617	1211.1
523.596	960.115
527.572	919.019
531.547	957.832
535.52	486.506
539.491	385.01
543.46	53.339
547.427	38.528
551.393	19.295
555.356	296.747
559.318	103.996
563.278	150.616
567.236	147.206
571.192	154.497
575.147	80.518
579.099	6.137
583.05	31.427
586.999	316.503
590.946	241.607
594.891	176.848
598.834	28.113
602.776	36.512
606.715	321.297
610.653	135.342
614.589	122.266
618.523	64.812
622.456	28.73
626.386	289.076
630.315	413.869
634.242	206.547
638.167	313.662
642.09	351.34
646.012	931.873
649.931	1537.05
653.849	2020.4
657.765	2090.38
661.679	2852.71
665.592	5029.54
669.502	11935
673.411	23728.4
677.318	19177.9
681.223	8292.85
685.126	3905.2
689.028	2571.23
692.927	1681.05
696.825	1161.1
700.721	888.729
704.616	823.352
708.508	678.906
712.399	696.496
716.288	379.197
720.175	417.127
724.06	683.15
727.944	501.305
731.825	426.629
735.705	362.943
739.584	1157.19
743.46	1392.62
747.334	1322.67
751.207	1283.73
755.078	676.867
758.947	457.047
762.815	583.299
766.68	433.113
770.544	361.949
774.406	264.949
778.267	123.277
782.125	222.217
785.982	491.002
789.837	79.281
793.69	62.594
797.542	104.846
801.391	27.646
805.239	279.141
809.085	85.889
812.93	242.002
816.772	81.049
820.613	16.162
824.452	32.268
828.29	461.154
832.125	167.227
835.959	213.598
839.791	81.457
843.621	188.814
847.45	342.041
851.277	405.246
855.102	268.141
858.925	248.926
862.746	139.352
866.566	99.504
870.384	339.213
874.2	398.883
878.015	22.908
881.828	75.322
885.639	283.479
889.448	451.348
893.256	358.818
897.061	475.854
900.865	442.506
904.668	248.777
908.468	484.707
912.267	440.271
916.064	504.969
919.86	779.512
923.653	922.576
927.445	1633.29
931.236	2585.09
935.024	2145.77
938.811	1586.26
942.596	1285.56
946.379	1099.96
950.161	1083.81
953.94	605.572
957.719	531.584
961.495	749.801
965.27	418.568
969.043	564.008
972.814	251.846
976.583	33.785
980.351	204.129
984.117	181.291
987.882	424.676
991.644	463.994
995.405	236.891
999.165	128.107
1002.92	137.064
1006.68	583.068
1010.43	807.953
1014.18	1043.41
1017.93	1147.19
1021.68	1643.05
1025.43	2908.58
1029.18	6681.9
1032.92	5823.22
1036.66	2674.53
1040.4	1625.95
1044.14	719.197
1047.88	949.328
1051.62	1119.33
1055.35	1957.05
1059.08	3795.13
1062.81	4643.93
1066.54	3198.34
1070.27	3091.7
1073.99	1792.7
1077.72	901.965
1081.44	945.988
1085.16	971.512
1088.88	726.871
1092.59	652.1
1096.31	496.426
1100.02	22.939
1103.73	46.121
1107.44	283.418
1111.15	681.279
1114.86	569.875
1118.57	669.389
1122.27	440.85
1125.97	221.756
1129.67	87.488
1133.37	96.736
1137.07	373.904
1140.76	634.514
1144.45	625.256
1148.15	416.242
1151.84	217.955
1155.53	280.715
1159.21	382.803
1162.9	336.941
1166.58	621.299
1170.26	939.039
1173.94	935.496
1177.62	616.889
1181.3	248.473
1184.97	67.254
1188.65	4.713
1192.32	574.033
1195.99	609.332
1199.66	876.027
1203.33	877.836
1206.99	613.012
1210.65	45.799
1214.32	67.17
1217.98	47.482
1221.64	130.514
1225.29	112.16
