Measurement: Raman, 514 nm, depolarized, Raman Data Processed
Mineral: Tremolite
Rruff sample: R040045
Ideal chemistry: [box]Ca_2_Mg_5_Si_8_O_22_(OH)_2_
Locality: Gouverneur, New York, USA
Source: University of Arizona Mineral Museum
Description: Group of colorless acicular single crystals
Measured chemistry: Ca_2.01_(Mg_0.99_Fe_0.01_)_5_(Si_0.99_Fe_0.01_)_8_O_22_(OH)_2_
Pin_id: M00236
Orientation: Laser parallel to a [1 0 0]. Fiducial mark perpendicular to laser is parallel to -b* (0 -1 0)
Raman shift (cm-1)	intensity
130.228	0
133.003	3.184
135.777	304.012
138.55	963.744
141.323	1570.14
144.094	1462.37
146.865	836.903
149.635	382.958
152.403	87.964
155.171	229.896
157.939	1089.85
160.705	1378.48
163.47	667.66
166.235	241.9
168.998	316.388
171.761	657.442
174.523	1828.94
177.284	3540.9
180.044	3013.31
182.803	1106.11
185.562	319.265
188.319	192.722
191.076	116.432
193.831	140.341
196.586	35.562
199.34	11.276
202.093	54.021
204.846	150.612
207.597	216.466
210.347	911.07
213.097	1485.97
215.846	2101.14
218.594	3346.84
221.341	5542.98
224.087	5999.34
226.832	5115.81
229.577	6342.37
232.32	7768.98
235.063	5335.61
237.805	2662.28
240.545	1228.98
243.286	935.709
246.025	1622.45
248.763	2668.96
251.501	2845.24
254.237	1741.56
256.973	987.936
259.708	714.389
262.442	740.957
265.175	547.703
267.907	294.707
270.639	61.938
273.369	109.27
276.099	86.673
278.828	64.253
281.556	18.156
284.283	169.436
287.009	287.033
289.734	515.146
292.459	183.279
295.183	166.884
297.905	274.099
300.627	491.861
303.348	716.757
306.069	575.109
308.788	506.736
311.507	417.79
314.224	346.679
316.941	175.748
319.657	134.125
322.372	112.208
325.086	210.271
327.8	178.269
330.512	505.789
333.224	782.958
335.935	410.175
338.645	517.433
341.354	824.966
344.062	862.293
346.769	998.047
349.476	1117.02
352.182	1204.42
354.887	1181.84
357.591	849.261
360.294	864.354
362.996	1236.02
365.698	2554.18
368.398	4716.21
371.098	4413.54
373.797	2650.88
376.495	1798.22
379.192	1085.55
381.889	973.198
384.584	1251.82
387.279	2161.03
389.973	4319.53
392.666	7779.44
395.358	7589.02
398.049	4356.35
400.74	1928.4
403.429	1326.59
406.118	1192.69
408.806	1560.6
411.493	2583.23
414.179	4191.27
416.865	4209.1
419.549	2629.13
422.233	1354.5
424.916	741.879
427.598	562.65
430.279	587.505
432.959	715.416
435.639	867.656
438.318	763.225
440.996	418.341
443.673	315.044
446.349	87.814
449.024	55.502
451.699	133.823
454.372	17.785
457.045	159.419
459.717	149.535
462.388	73.234
465.059	136.576
467.728	30.551
470.397	145.123
473.065	10.709
475.732	26.198
478.398	101.641
481.063	287.021
483.728	222.354
486.391	317.639
489.054	492.914
491.716	368.129
494.377	233.29
497.038	328.43
499.697	253.298
502.356	238.574
505.014	323.556
507.671	398.472
510.327	483.313
512.982	638.086
515.637	772.793
518.291	737.433
520.944	852.011
523.596	626.576
526.247	961.135
528.897	1165.68
531.547	1050.14
534.196	444.518
536.844	258.814
539.491	153.033
542.137	37.171
544.783	111.214
547.427	36.035
550.071	8.982
552.714	7.311
555.356	56.259
557.998	229.69
560.638	53.012
563.278	113.518
565.917	129.473
568.555	182.361
571.192	135.039
573.829	37.975
576.464	19.49
579.099	97.146
581.733	184.996
584.366	47.016
586.999	118.936
589.63	120.762
592.261	32.482
594.891	154.104
597.52	75.586
600.148	266.928
602.776	21.844
605.402	58.719
608.028	29.242
610.653	60.533
613.277	130.031
615.901	56.941
618.523	198.113
621.145	274.623
623.766	164.84
626.386	276.57
629.006	367.156
631.624	424.666
634.242	537.332
636.859	558.482
639.475	779.65
642.09	772.436
644.705	869.646
647.318	1080.07
649.931	1230.28
652.543	1262.46
655.155	1666.49
657.765	2147.72
660.375	2697.09
662.984	4206.74
665.592	6745.33
668.199	12484
670.805	21863.5
673.411	29563.2
676.016	23331.3
678.62	13990.5
681.223	7778.87
683.825	4756.72
686.427	3094.46
689.028	2622.07
691.628	2109.56
694.227	1457.08
696.825	1135.55
699.423	1012.63
702.02	879.451
704.616	595.363
707.211	480.877
709.805	525.35
712.399	325.355
714.992	533.387
717.584	594.906
720.175	358.998
722.765	245.465
725.355	273.434
727.944	494.477
730.532	492.471
733.119	650.814
735.705	259.441
738.291	735.188
740.876	1060.95
743.46	867.66
746.043	923.408
748.626	1267.38
751.207	1183.49
753.788	1001.55
756.368	714.781
758.947	335.668
761.526	425.662
764.104	118.32
766.68	230.344
769.257	212.203
771.832	14.432
774.406	34.395
776.98	206.645
779.553	98.781
782.125	151.709
784.697	134.461
787.267	97.078
789.837	19.518
792.406	71.771
794.974	36.146
797.542	15.727
800.108	237.377
802.674	218.814
805.239	140.088
807.804	57.871
810.367	33.879
812.93	186.393
815.492	108.74
818.053	226.803
820.613	247.732
823.173	200.057
825.732	130.83
828.29	301.307
830.847	38.838
833.403	200.551
835.959	531.389
838.514	761.832
841.068	801.33
843.621	471.314
846.174	311.764
848.726	245.746
851.277	415.359
853.827	284.568
856.376	83.227
858.925	301.473
861.473	169.27
864.02	386.939
866.566	84.449
869.112	181.809
871.656	61.043
874.2	175.662
876.744	22.439
879.286	309.256
881.828	115.971
884.369	332.156
886.909	178.514
889.448	74.834
891.987	151.078
894.524	47.201
897.061	113.186
899.598	129.051
902.133	44.797
904.668	320.412
907.202	375.924
909.735	521.254
912.267	376.322
914.799	641.156
917.33	334.996
919.86	548.992
922.389	682.068
924.918	1204.5
927.445	2446.92
929.972	3669.23
932.499	3631.08
935.024	2089.15
937.549	1420.83
940.073	1392.43
942.596	1141.12
945.118	1291.8
947.64	1110.11
950.161	750.887
952.681	636.025
955.2	416.541
957.719	96.742
960.236	161.838
962.753	71.859
965.27	31.369
967.785	281.229
970.3	191.773
972.814	142.893
975.327	183.039
977.84	182.273
980.351	88.053
982.862	143.158
985.372	36.914
987.882	217.5
990.39	177.76
992.898	176.729
995.405	124.881
997.912	27.855
1000.42	61.311
1002.92	165.695
1005.43	248.195
1007.93	243.303
1010.43	310
1012.93	588.84
1015.43	668.092
1017.93	752.211
1020.43	1098.41
1022.93	1685.04
1025.43	3212.31
1027.93	5462.98
1030.42	6263.4
1032.92	3923.97
1035.42	2124.66
1037.91	1515.25
1040.4	1385.76
1042.9	836.307
1045.39	636.82
1047.88	977.365
1050.37	1508.02
1052.86	1287.25
1055.35	2014.78
1057.84	3371.14
1060.33	5254.68
1062.81	4353.48
1065.3	2806.81
1067.78	2521.32
1070.27	2884.8
1072.75	2028.18
1075.23	1238.68
1077.72	662.018
1080.2	867.436
1082.68	642.893
1085.16	698.328
1087.64	723.537
1090.12	438.266
1092.59	812.439
1095.07	315.971
1097.55	218.766
1100.02	250.711
1102.5	191.957
1104.97	183.83
1107.44	17.906
1109.92	123.494
1112.39	570.113
1114.86	306.979
1117.33	114.025
1119.8	91.4
1122.27	499.439
1124.74	518.701
1127.2	273.166
1129.67	282.373
1132.14	162.791
1134.6	572.947
1137.07	347.914
1139.53	220.082
1141.99	153.404
1144.45	0.045
