Measurement: Raman, 514 nm, depolarized, Raman Data Processed
Mineral: Tremolite
Rruff sample: R040045
Ideal chemistry: [box]Ca_2_Mg_5_Si_8_O_22_(OH)_2_
Locality: Gouverneur, New York, USA
Source: University of Arizona Mineral Museum
Description: Group of colorless acicular single crystals
Measured chemistry: Ca_2.01_(Mg_0.99_Fe_0.01_)_5_(Si_0.99_Fe_0.01_)_8_O_22_(OH)_2_
Pin_id: M00230
Orientation: Laser parallel to b* (0 1 0). Fiducial mark perpendicular to laser is parallel to -c [0 0 -1]
Raman shift (cm-1)	intensity
133.003	0
135.777	61.092
138.55	9.461
141.323	21.764
144.094	14.469
146.865	164.271
149.635	209.16
152.403	358.379
155.171	570.699
157.939	2015.41
160.705	2292.09
163.47	1280.44
166.235	770.191
168.998	605.408
171.761	1067.63
174.523	2460.87
177.284	4174.98
180.044	3869.89
182.803	1645.45
185.562	781.596
188.319	428.271
191.076	35.43
193.831	53.014
196.586	70.992
199.34	239.338
202.093	138.055
204.846	198.559
207.597	202.633
210.347	483.008
213.097	553.635
215.846	1244.54
218.594	2765.51
221.341	4996.6
224.087	4948.46
226.832	2909.73
229.577	1571.07
232.32	1092.49
235.063	594.191
237.805	536.154
240.545	298.201
243.286	70.332
246.025	332.549
248.763	694.842
251.501	527.197
254.237	529.615
256.973	322.146
259.708	344.832
262.442	387.596
265.175	320.697
267.907	284.184
270.639	107.863
273.369	181.699
276.099	115.723
278.828	230.189
281.556	111.898
284.283	190.627
287.009	224.779
289.734	359.012
292.459	213.23
295.183	287.42
297.905	393.398
300.627	403.088
303.348	546.723
306.069	470.736
308.788	352.355
311.507	304.688
314.224	107.281
316.941	282.699
319.657	25.334
322.372	28.295
325.086	341.268
327.8	394.383
330.512	677.625
333.224	701.586
335.935	447.74
338.645	501.5
341.354	695.414
344.062	959.094
346.769	832.859
349.476	866.781
352.182	720.979
354.887	754.943
357.591	558.9
360.294	460.51
362.996	536.938
365.698	1111.01
368.398	1834.16
371.098	1928.23
373.797	1022.31
376.495	867.934
379.192	522.381
381.889	479.93
384.584	434.83
387.279	879.033
389.973	1493.87
392.666	2632.74
395.358	2392.77
398.049	1547.86
400.74	897.803
403.429	458.652
406.118	263.682
408.806	315.955
411.493	425.455
414.179	620.678
416.865	911.705
419.549	621.527
422.233	242.807
424.916	12.229
427.598	237.855
430.279	146.477
432.959	332.521
435.639	455.666
438.318	280.193
440.996	232.422
443.673	146.111
446.349	99.744
449.024	83.322
451.699	176.846
454.372	90.732
457.045	234.121
459.717	108.174
462.388	38.498
465.059	25.258
467.728	327.9
470.397	381.008
473.065	53.922
475.732	33.344
478.398	159.582
481.063	312.453
483.728	251.139
486.391	348.234
489.054	331.074
491.716	33.898
494.377	173.27
497.038	319.277
499.697	131.75
502.356	284.137
505.014	236.496
507.671	238.77
510.327	280.953
512.982	403.043
515.637	385.043
518.291	276.953
520.944	478.773
523.596	260.508
526.247	272.148
528.897	413.711
531.547	295.18
534.196	16.543
536.844	177.777
539.491	1.098
542.137	79.875
544.783	251.949
547.427	342.883
550.071	65.277
552.714	204.305
555.356	277.148
557.998	287.648
560.638	100.863
563.278	38.016
565.917	143.918
568.555	384.645
571.192	324.789
573.829	43.828
576.464	183.625
579.099	45.422
581.733	315.816
584.366	437.352
586.999	320.348
589.63	153.559
592.261	330.785
594.891	527.871
597.52	325.121
600.148	412.422
602.776	506.355
605.402	647.23
608.028	604.645
610.653	601.789
613.277	529.258
615.901	201.527
618.523	705.746
621.145	969.531
623.766	1134.1
626.386	1099.19
629.006	875.285
631.624	700.543
634.242	887.758
636.859	1003.45
639.475	938.91
642.09	1030.62
644.705	1027.56
647.318	1659.35
649.931	1852.63
652.543	2034.44
655.155	1999.87
657.765	1684.44
660.375	1884.28
662.984	2907.4
665.592	4100.97
668.199	6914.05
670.805	12057
673.411	16380.7
676.016	13193.3
678.62	8036.62
681.223	4340.47
683.825	2504.15
686.427	1846.51
689.028	1818.77
691.628	1489.36
694.227	730.984
696.825	570.953
699.423	700.984
702.02	742.348
704.616	223.629
707.211	56.859
709.805	49.91
712.399	74.965
714.992	464.52
717.584	762.523
720.175	176.129
722.765	204.332
725.355	312.602
727.944	406.578
730.532	358.09
733.119	471.512
735.705	156.711
738.291	451.254
740.876	388.91
743.46	506.676
746.043	538.059
748.626	611.805
751.207	869.738
753.788	715.805
756.368	452.949
758.947	79.996
761.526	306.844
764.104	313.516
766.68	500.117
769.257	665.996
771.832	78.574
774.406	157.277
776.98	252.957
779.553	398.477
782.125	183.844
784.697	289.027
787.267	434.031
789.837	628.84
792.406	193.438
794.974	222.141
797.542	51.828
800.108	475.598
802.674	719.152
805.239	322.422
807.804	35.523
810.367	78.52
812.93	761.48
815.492	774.145
818.053	566.898
820.613	289.383
823.173	455.57
825.732	667.895
828.29	781.449
830.847	249.145
833.403	175.699
835.959	433.211
838.514	534.867
841.068	535.215
843.621	573.105
846.174	456.133
848.726	837.109
851.277	1317.98
853.827	1098.74
856.376	750.125
858.925	1401.55
861.473	1462.55
864.02	1640.23
866.566	641.262
869.112	820.352
871.656	767.047
874.2	804.535
876.744	632.152
879.286	901.078
881.828	580.34
884.369	556.035
886.909	696.227
889.448	632.797
891.987	482.797
894.524	587.441
897.061	986.281
899.598	834.543
902.133	262.414
904.668	640.031
907.202	1087.22
909.735	1203.88
912.267	868.973
914.799	745.215
917.33	320.621
919.86	1086.44
922.389	711.082
924.918	858.473
927.445	1693.07
929.972	2367.84
932.499	2492.48
935.024	1486.18
937.549	750.844
940.073	1425.39
942.596	1085.15
945.118	868.438
947.64	676.238
950.161	559.66
952.681	1134.85
955.2	734.539
957.719	291.293
960.236	427.762
962.753	389.59
965.27	238.977
967.785	397.742
970.3	205.895
972.814	72.262
975.327	388.922
977.84	36.527
980.351	217.012
982.862	519.75
985.372	297.242
987.882	284.203
990.39	108.641
992.898	71.332
995.405	15.93
997.912	562.98
1000.42	890.273
1002.92	617.699
1005.43	164.336
1007.93	751.031
1010.43	268.391
1012.93	275.84
1015.43	283.211
1017.93	1171
1020.43	1069.08
1022.93	797.375
1025.43	1225.94
1027.93	2204.87
1030.42	2404.65
1032.92	1504.96
1035.42	805.805
1037.91	1046.73
1040.4	1527.43
1042.9	694.203
1045.39	292.926
1047.88	1110.93
1050.37	1701.41
1052.86	1691.07
1055.35	2322.4
1057.84	3987.34
1060.33	7089.6
1062.81	5976.4
1065.3	3451.85
1067.78	1965.64
1070.27	2257.32
1072.75	1826.27
1075.23	902.406
1077.72	501.93
1080.2	908.766
1082.68	1057.54
1085.16	509.711
1087.64	494.203
1090.12	421.578
1092.59	399.219
1095.07	425.531
1097.55	235.164
1100.02	157.684
1102.5	529.945
1104.97	785.184
1107.44	0
