Measurement: Raman, 514 nm, depolarized, Raman Data Processed
Mineral: Tremolite
Rruff sample: R050167
Ideal chemistry: [box]Ca_2_Mg_5_Si_8_O_22_(OH)_2_
Locality: Hunza Valley, Afghanistan
Source: Marcus Origlieri
Description: Green tabular crystals
Measured chemistry: ([box]_0.90_Na_0.10_)(Ca_0.98_Mg_0.01_Fe^2+^_0.01_)_2_(Mg_0.94_Al_0.06_)_5_(Si_0.95_Al_0.05_)_8_O_22_((OH)_0.98_F_0.02_)_2_
Pin_id: L00522
Orientation: Laser parallel to -a* (-1 0 0). Fiducial mark perpendicular to laser is parallel to b [0 1 0]
Raman shift (cm-1)	intensity
85.929	0
90.128	39.847
94.324	25.598
98.519	74.546
102.712	270.525
106.902	663.575
111.09	1481.26
115.277	3195.34
119.461	6429.04
123.643	7074.91
127.823	3404.61
132.001	1107.18
136.176	478.641
140.35	352.441
144.521	324.247
148.691	30.838
152.858	89.002
157.024	1237.56
161.187	3320.36
165.348	1942.23
169.507	1656.05
173.664	3942.48
177.819	7905.29
181.971	5454.88
186.122	2089.51
190.271	1214.12
194.417	875.908
198.562	635.027
202.704	682.503
206.844	1256.09
210.983	2849.75
215.119	5069.5
219.253	8342.36
223.385	11221.2
227.515	9980.94
231.643	13591.6
235.769	14333.1
239.893	7625.48
244.014	4615.67
248.134	5813.14
252.252	6772.93
256.367	4201.25
260.481	2216.73
264.592	1339.77
268.702	642.466
272.809	198.762
276.915	4.518
281.018	8.283
285.119	305.352
289.218	588.33
293.316	508.533
297.411	531.048
301.504	1176.66
305.595	1216.83
309.684	864.483
313.771	605.573
317.856	334.58
321.939	344.86
326.02	576.688
330.099	1321.03
334.176	1447.87
338.251	1086.91
342.323	1229.02
346.394	1635.26
350.463	2269.94
354.53	2227.06
358.594	1903.58
362.657	2933.5
366.718	5745.79
370.777	8310.44
374.833	6175.43
378.888	4190.74
382.941	3824.35
386.992	5402.25
391.04	10208.4
395.087	14084.9
399.132	8234.97
403.174	4018.79
407.215	3253.39
411.254	4739.29
415.29	7484.82
419.325	7146.48
423.358	4101.8
427.389	2515.35
431.417	2188.2
435.444	2442.1
439.469	1406.15
443.492	519.982
447.512	571.19
451.531	56.312
455.548	32.759
459.563	15.286
463.576	4.788
467.587	109.632
471.596	31.585
475.603	33.571
479.608	37.431
483.611	361.441
487.612	446.452
491.611	317.456
495.608	44.464
499.603	18.503
503.596	16.459
507.587	214.347
511.577	696.191
515.564	1302.98
519.549	1603.69
523.533	1643.3
527.514	1986.8
531.493	1756.18
535.471	1067.44
539.447	588.566
543.42	339.578
547.392	166.462
551.362	127.191
555.329	101.778
559.295	4.149
563.259	35.841
567.221	92.415
571.181	44.289
575.139	23.606
579.095	158.603
583.049	140.351
587.002	207.871
590.952	105.157
594.9	34.156
598.847	21.324
602.792	91.612
606.734	101.884
610.675	30.844
614.614	117.85
618.55	139.834
622.485	213.654
626.418	406.819
630.349	578.325
634.279	743.63
638.206	1127.78
642.131	1610.92
646.055	2424.09
649.976	3727.35
653.896	5198.1
657.814	7242.09
661.729	10899.6
665.643	20007.3
669.555	38837.3
673.465	53584.2
677.373	38150.6
681.28	19376.5
685.184	10232.1
689.087	6137.51
692.987	4204.66
696.886	2993.01
700.783	2166.82
704.677	1898.2
708.57	1459.54
712.462	1236.99
716.351	1114.84
720.238	977.167
724.124	1012.22
728.007	985.073
731.889	980.163
735.769	1298.45
739.647	1847.1
743.523	2076.61
747.397	2374.63
751.269	2255.45
755.139	1539.2
759.008	1058.89
762.875	567.033
766.739	387.995
770.602	232.424
774.463	202.849
778.323	66.686
782.18	71.414
786.035	172.075
789.889	142.639
793.741	66.088
797.591	24.413
801.439	15.61
805.285	5.664
809.129	62.524
812.971	48.161
816.812	43.665
820.651	5.967
824.488	51.235
828.323	106.326
832.156	151.331
835.987	152.259
839.817	122.121
843.644	60.92
847.47	110.66
851.294	63.324
855.116	77.891
858.936	10.404
862.755	15.126
866.571	19.719
870.386	52.323
874.199	10.128
878.01	18.786
881.82	66.688
885.627	179.7
889.433	237.85
893.236	330.052
897.038	475.358
900.838	493.832
904.637	552.391
908.433	850.19
912.228	1029.36
916.021	1321.94
919.812	1948.93
923.601	2872.12
927.388	4484.44
931.174	5114.59
934.958	3626.88
938.739	2214.29
942.52	1925.75
946.298	1730.11
950.074	1516.17
953.849	1150.04
957.622	828.437
961.393	651.696
965.162	590.596
968.93	542.464
972.696	494.834
976.459	522.965
980.222	599.42
983.982	617.956
987.74	734.87
991.497	921.927
995.252	936.894
999.005	1202.66
1002.76	1696.64
1006.51	2106.63
1010.25	2743.16
1014	3221.57
1017.74	3483.91
1021.49	4282.74
1025.23	6155.28
1028.96	8859.47
1032.7	7295.45
1036.44	4912.55
1040.17	3720.82
1043.9	3465.53
1047.63	3684.86
1051.36	4218.41
1055.09	5156.19
1058.81	5879.62
1062.54	5432.53
1066.26	5299.15
1069.97	5022.09
1073.69	3304.72
1077.41	1919.2
1081.12	1231.07
1084.84	935.834
1088.55	747.446
1092.25	617.123
1095.96	580.77
1099.67	468.749
1103.37	407.562
1107.07	380.8
1110.77	378.144
1114.47	381.989
1118.16	401.343
1121.86	330.856
1125.55	324.05
1129.24	273.655
1132.93	181.689
1136.62	116.18
1140.31	166.403
1143.99	158.751
1147.67	214.234
1151.35	64.481
1155.03	10.26
1158.71	65.139
1162.39	6.575
1166.06	20.215
1169.73	21.547
1173.4	55.782
1177.07	44.164
1180.74	41.999
1184.4	71.884
1188.07	2.845
1191.73	118.76
1195.39	3.458
1199.05	53.562
1202.7	38.419
1206.36	44.21
1210.01	24.462
1213.66	1.077
1217.31	10.956
1220.96	22.909
1224.6	55.051
1228.25	171.765
1231.89	121.468
1235.53	244.146
1239.17	197.974
1242.81	93.223
1246.44	48.329
1250.08	73.398
1253.71	117.981
1257.34	175.738
1260.97	228.764
1264.6	308.892
1268.22	232.736
1271.85	257.304
1275.47	170.491
1279.09	84.058
1282.71	100.398
1286.33	151.721
1289.94	158.935
1293.56	191.207
1297.17	301.071
1300.78	232.104
1304.39	70.508
1307.99	106.372
1311.6	48.342
1315.2	16.734
1318.8	174.476
1322.4	259.791
1326	248.937
1329.6	247.088
1333.19	282.235
1336.79	176.516
1340.38	120.228
1343.97	90.331
1347.56	19.772
1351.14	44.888
1354.73	250.196
1358.31	131.992
1361.89	255.988
1365.47	205.048
1369.05	116.357
1372.63	84.214
1376.2	69.469
1379.78	41.179
1383.35	29.679
1386.92	58.623
1390.49	86.329
1394.05	183.399
1397.62	249.184
1401.18	250.833
1404.74	200.432
1408.3	141.062
1411.86	109.319
1415.42	16.162
1418.97	29.089
1422.53	46.742
1426.08	63.696
1429.63	238.318
1433.18	272.161
1436.72	270.117
1440.27	443.377
1443.81	362.305
1447.36	318.251
1450.89	227.504
1454.43	152.05
1457.97	255.393
1461.51	165.646
1465.04	108.216
1468.57	221.121
1472.1	284.114
1475.63	436.369
1479.16	366.316
1482.68	319.669
1486.21	331.589
1489.73	174.181
1493.25	116.002
1496.77	1.64
1500.29	9.744
1503.8	43.212
1507.32	119.169
1510.83	5.582
1514.34	0
