Measurement: Raman, 514 nm, depolarized, Raman Data Processed
Mineral: Tremolite
Rruff sample: R040045
Ideal chemistry: [box]Ca_2_Mg_5_Si_8_O_22_(OH)_2_
Locality: Gouverneur, New York, USA
Source: University of Arizona Mineral Museum
Description: Group of colorless acicular single crystals
Measured chemistry: Ca_2.01_(Mg_0.99_Fe_0.01_)_5_(Si_0.99_Fe_0.01_)_8_O_22_(OH)_2_
Pin_id: S00030
Orientation: Laser parallel to c [0 0 1]. Fiducial mark perpendicular to laser is parallel to -b* (0 -1 0)
Raman shift (cm-1)	intensity
124.675	0
127.452	64.261
130.228	3.076
133.003	163.251
135.777	73.066
138.55	252.344
141.323	338.646
144.094	409.39
146.865	416.424
149.635	316.013
152.403	528.554
155.171	1223.59
157.939	2150.74
160.705	2169.72
163.47	1530.31
166.235	972.35
168.998	1015.65
171.761	1570.09
174.523	3035.55
177.284	3602
180.044	3179.25
182.803	1517.24
185.562	805.882
188.319	615.125
191.076	174.919
193.831	255.219
196.586	156.009
199.34	327.272
202.093	69.478
204.846	361.604
207.597	564.255
210.347	857.254
213.097	1190.46
215.846	2294.15
218.594	4078.14
221.341	5892.51
224.087	5757.07
226.832	4672.92
229.577	4267.78
232.32	3762.8
235.063	2537.96
237.805	1363.26
240.545	698.699
243.286	554.271
246.025	989.973
248.763	1285.8
251.501	1171.75
254.237	807.822
256.973	514.008
259.708	650.318
262.442	426.832
265.175	353.662
267.907	380.703
270.639	252.607
273.369	65.527
276.099	133.182
278.828	60.947
281.556	48.832
284.283	96.83
287.009	116.471
289.734	267.656
292.459	255.488
295.183	205.705
297.905	389.273
300.627	403.102
303.348	546.412
306.069	381.656
308.788	339.852
311.507	245.789
314.224	177.391
316.941	198.82
319.657	85.369
322.372	52.113
325.086	99.549
327.8	108.701
330.512	295.92
333.224	313.342
335.935	121.215
338.645	238.816
341.354	466.928
344.062	544.803
346.769	892.668
349.476	1320.61
352.182	1148.62
354.887	1026.7
357.591	684.844
360.294	863.037
362.996	951.279
365.698	1589.56
368.398	2317.88
371.098	2016.23
373.797	1744.62
376.495	1383.03
379.192	951.459
381.889	589.922
384.584	608.674
387.279	857.191
389.973	1566.01
392.666	2685.88
395.358	2185.17
398.049	1316.48
400.74	566.338
403.429	426.09
406.118	519.889
408.806	569.527
411.493	1039.58
414.179	1422.18
416.865	1221.43
419.549	911.422
422.233	558.08
424.916	282.584
427.598	21.982
430.279	335.793
432.959	385.359
435.639	485.297
438.318	344.471
440.996	199.18
443.673	150.033
446.349	29.609
449.024	110.625
451.699	108.809
454.372	12.117
457.045	47.375
459.717	48.643
462.388	142.383
465.059	163.584
467.728	96.791
470.397	155.047
473.065	87.086
475.732	78.916
478.398	97.885
481.063	144.588
483.728	31.277
486.391	137.25
489.054	253.912
491.716	90.521
494.377	17.061
497.038	113.543
499.697	29.98
502.356	106.354
505.014	262.73
507.671	329.01
510.327	365.193
512.982	441.279
515.637	707.277
518.291	543.184
520.944	738.992
523.596	654.719
526.247	1110.37
528.897	1125.91
531.547	731.365
534.196	456.721
536.844	331.967
539.491	227.111
542.137	142.145
544.783	227.059
547.427	271.857
550.071	86.535
552.714	71.32
555.356	165.707
557.998	281.4
560.638	56.428
563.278	29.256
565.917	85.471
568.555	238.961
571.192	182.248
573.829	167.17
576.464	41.873
579.099	5.574
581.733	277.527
584.366	200.188
586.999	27.797
589.63	173.965
592.261	55.566
594.891	206.979
597.52	31.789
600.148	9.408
602.776	59.822
605.402	130.465
608.028	115.67
610.653	186.809
613.277	92.842
615.901	56.361
618.523	217.859
621.145	293.201
623.766	2.582
626.386	82.049
629.006	178.912
631.624	247.09
634.242	354.229
636.859	453.406
639.475	394.699
642.09	630.906
644.705	461.629
647.318	1012.59
649.931	1180.89
652.543	1239.62
655.155	1413.09
657.765	1684.07
660.375	1872.49
662.984	2729.31
665.592	4365.33
668.199	7741.69
670.805	12588.6
673.411	15986.7
676.016	12662.6
678.62	8139.66
681.223	4790.1
683.825	3196.3
686.427	2583.03
689.028	2530.63
691.628	2246.16
694.227	1712.29
696.825	1168.35
699.423	913.002
702.02	797.76
704.616	622.629
707.211	365.535
709.805	458.064
712.399	151.236
714.992	601.855
717.584	512.209
720.175	309.924
722.765	421.146
725.355	399.936
727.944	271.342
730.532	519.045
733.119	608.486
735.705	235.992
738.291	587.941
740.876	577.912
743.46	522.527
746.043	453.221
748.626	580.676
751.207	558.758
753.788	472.906
756.368	457.029
758.947	203.83
761.526	399.266
764.104	155.291
766.68	181.225
769.257	506.053
771.832	40.25
774.406	16.568
776.98	288.115
779.553	393.506
782.125	303.625
784.697	288.041
787.267	422.363
789.837	186.002
792.406	30.33
794.974	95.594
797.542	91.928
800.108	311.307
802.674	354.221
805.239	116.826
807.804	50.338
810.367	3.1
812.93	128.389
815.492	283.617
818.053	368.594
820.613	377.947
823.173	241.035
825.732	92.916
828.29	383.918
830.847	84.725
833.403	24.76
835.959	227.928
838.514	38.154
841.068	27.168
843.621	276.1
846.174	95.35
848.726	104.939
851.277	262.443
853.827	243.029
856.376	222.648
858.925	308.461
861.473	341.59
864.02	381.152
866.566	195.824
869.112	261.145
871.656	125.48
874.2	109.672
876.744	3.918
879.286	578.398
881.828	242.336
884.369	455.309
886.909	257.484
889.448	40.668
891.987	284.422
894.524	267.48
897.061	200.84
899.598	184.004
902.133	96.969
904.668	289.734
907.202	262.324
909.735	354.688
912.267	615.977
914.799	556.98
917.33	296.465
919.86	586.609
922.389	615.914
924.918	1113.7
927.445	1910.12
929.972	2548.92
932.499	2178.72
935.024	1497.14
937.549	1145.47
940.073	1049.77
942.596	683.73
945.118	930.207
947.64	1068.54
950.161	658.32
952.681	741.117
955.2	473.465
957.719	238.879
960.236	49.539
962.753	123.418
965.27	62.91
967.785	352.445
970.3	259.051
972.814	145.836
975.327	101.031
977.84	125.16
980.351	90.059
982.862	152.441
985.372	11.934
987.882	232.816
990.39	195.797
992.898	138.746
995.405	102.082
997.912	65.992
1000.42	278.016
1002.92	340.352
1005.43	115.426
1007.93	33.293
1010.43	206.328
1012.93	561.621
1015.43	748.426
1017.93	1190.91
1020.43	1004.84
1022.93	1306.62
1025.43	1778.01
1027.93	2801.05
1030.42	2944.11
1032.92	2189.24
1035.42	1233.71
1037.91	1228.77
1040.4	1363.69
1042.9	708.461
1045.39	673.059
1047.88	1477.63
1050.37	1642.23
1052.86	1947.12
1055.35	3341.25
1057.84	5691.39
1060.33	8089.93
1062.81	6505.37
1065.3	4084.47
1067.78	2606.13
1070.27	2089.81
1072.75	1530.23
1075.23	956.492
1077.72	811.582
1080.2	638.324
1082.68	818.262
1085.16	699.707
1087.64	779.824
1090.12	750.398
1092.59	555.02
1095.07	460.512
1097.55	399.859
1100.02	408.66
1102.5	306.816
1104.97	394.539
1107.44	132.984
1109.92	332.363
1112.39	632.574
1114.86	143.457
1117.33	106.145
1119.8	99.09
1122.27	622.398
1124.74	526.305
1127.2	321.234
1129.67	138.801
1132.14	175.059
1134.6	312.785
1137.07	511.773
1139.53	524.66
1141.99	284.871
1144.45	2.777
1146.92	307.219
1149.38	0
