Measurement: Raman, 514 nm, depolarized, Raman Data Processed
Mineral: Tremolite
Rruff sample: R050173
Ideal chemistry: [box]Ca_2_Mg_5_Si_8_O_22_(OH)_2_
Locality: Fort Dauphin, Madagascar
Source: Marcus Origlieri
Description: Mass of colorless acicular crystals
Measured chemistry: [box]Ca_2.00_Mg_5.00_Si_8.00_O_22_(OH)_2_
Pin_id: L00398
Orientation: Laser parallel to (1 0 1). Fiducial mark perpendicular to laser is parallel to b [0 1 0]
Raman shift (cm-1)	intensity
102.326	0
106.508	338.945
110.687	635.06
114.864	2066.35
119.039	2909.32
123.211	1757.41
127.382	782.322
131.551	345.806
135.718	97.645
139.882	228.774
144.045	172.41
148.205	44.613
152.364	356.838
156.52	2670.59
160.674	4951.24
164.826	2213.15
168.977	816.873
173.125	4190.76
177.271	12930.5
181.415	5080.56
185.557	436.431
189.697	468.113
193.835	376.178
197.97	223.631
202.104	351.375
206.236	596.081
210.366	1220.53
214.493	2947.46
218.619	10914.6
222.742	22177
226.864	11355.1
230.984	12911.6
235.101	8465.9
239.216	1908.08
243.33	928.996
247.441	3358.89
251.551	3947.92
255.658	1176.14
259.763	563.498
263.867	1239.94
267.968	115.484
272.067	246.468
276.164	222.614
280.26	186.198
284.353	304.575
288.444	698.377
292.533	377.274
296.62	228.811
300.705	1002.31
304.789	902.619
308.87	612.015
312.949	522.853
317.026	237.079
321.101	285.812
325.174	372.557
329.246	1207.66
333.315	1401.69
337.382	916.226
341.447	2299.01
345.51	3478.87
349.571	5812.53
353.63	5201.6
357.688	2925.16
361.743	2992.49
365.796	7118.97
369.847	10531.4
373.897	5390.96
377.944	3003.99
381.989	1766.49
386.032	2230.47
390.074	5055.21
394.113	9449.27
398.151	3855.49
402.186	1539.43
406.219	1479.43
410.251	2442.19
414.28	5084.93
418.308	4065.14
422.334	1697.16
426.357	1043.8
430.379	973.334
434.399	2457.31
438.416	1688.97
442.432	259.131
446.446	226.096
450.458	212.905
454.468	306.387
458.476	948.936
462.482	1810.36
466.486	1186.17
470.488	407.405
474.488	295.599
478.486	208.139
482.482	175.039
486.477	385.805
490.469	193.785
494.459	116.614
498.448	136.503
502.434	147.826
506.419	618.919
510.402	1649.59
514.383	2380.01
518.361	2310.24
522.338	1990.46
526.313	3160.64
530.286	3360.72
534.257	1310.6
538.227	520.19
542.194	269.44
546.159	98.308
550.123	126.741
554.084	94.745
558.044	47.734
562.001	0.694
565.957	44.066
569.911	57.879
573.863	47.874
577.813	43.293
581.761	98.4
585.707	223.17
589.651	2.613
593.594	72.518
597.534	31.626
601.473	22.339
605.409	56.884
609.344	16.797
613.277	15.073
617.208	221.365
621.137	218.678
625.064	364.499
628.99	409.562
632.913	684.479
636.834	786.043
640.754	1331.35
644.672	2128.14
648.588	3787.04
652.502	6168.76
656.414	5873.94
660.324	6149.79
664.232	10040.6
668.138	22954.3
672.043	50161.8
675.946	38817
679.846	15898.9
683.745	8320.69
687.642	6770.93
691.538	6128.02
695.431	3583.67
699.322	2236.36
703.212	1476.34
707.1	1274.89
710.985	973.526
714.869	887.725
718.751	535.787
722.632	561.828
726.51	517.817
730.386	670.815
734.261	891.429
738.134	1898.5
742.005	1955.76
745.874	1280.97
749.741	1774.54
753.607	1136.78
757.47	518.563
761.332	339.944
765.192	211.045
769.05	323.574
772.906	107.021
776.76	241.304
780.613	4.541
784.463	39.041
788.312	202.2
792.159	115.052
796.004	117.549
799.847	30.4
803.689	61.168
807.528	2.34
811.366	93.133
815.202	36.37
819.036	33.619
822.868	52.95
826.699	18.194
830.527	39.682
834.354	117.953
838.179	85.146
842.002	62.027
845.824	11.491
849.643	44.339
853.461	39.833
857.277	135.002
861.091	9.871
864.903	64.436
868.713	98.791
872.522	42.889
876.329	46.699
880.134	130.24
883.937	3.414
887.739	66.168
891.538	148.625
895.336	218.127
899.132	312.693
902.926	604.35
906.718	335.791
910.509	347.014
914.298	698.008
918.085	838.389
921.87	1728.4
925.653	3936.45
929.435	6994.81
933.215	4511.6
936.993	2268.8
940.769	2206.91
944.544	3363.73
948.316	3137.58
952.087	1628.19
955.856	880.865
959.623	585.574
963.389	309.732
967.153	408.494
970.915	280.266
974.675	256.223
978.433	199.133
982.19	255.08
985.945	251.666
989.698	204.107
993.449	251.867
997.199	394.025
1000.95	481.229
1004.69	837.07
1008.44	862.893
1012.18	1577.16
1015.92	2624.89
1019.66	4564.43
1023.4	6558.25
1027.13	12803.2
1030.87	9379.4
1034.6	3806.94
1038.33	2199.98
1042.06	1884.89
1045.78	2099.47
1049.51	3143.48
1053.23	6030.16
1056.95	16054.8
1060.67	19759.4
1064.39	8573.57
1068.11	6257.98
1071.82	4270.88
1075.53	2253.71
1079.24	1534.94
1082.95	2826.78
1086.66	4778.24
1090.37	1670.22
1094.07	920.789
1097.77	540.564
1101.47	539.451
1105.17	421.947
1108.87	292.389
1112.56	191.182
1116.26	346.314
1119.95	485.217
1123.64	231.398
1127.33	107.414
1131.01	132.432
1134.7	127.119
1138.38	211.984
1142.06	159.621
1145.74	5.463
1149.42	78.967
1153.1	133.084
1156.77	178.436
1160.44	247.934
1164.12	140.941
1167.79	270.971
1171.45	166.73
1175.12	110.92
1178.78	186.266
1182.45	154.191
1186.11	312.172
1189.77	387.625
1193.42	451.604
1197.08	274.209
1200.73	306.91
1204.38	258.357
1208.04	482.363
1211.68	538.793
1215.33	452.102
1218.98	439.65
1222.62	480.348
1226.26	418.246
1229.9	474.006
1233.54	448.746
1237.18	363.865
1240.82	682.92
1244.45	492.857
1248.08	361.348
1251.71	284.096
1255.34	238.193
1258.97	248.453
1262.59	609.674
1266.22	330.086
1269.84	349.629
1273.46	551.521
1277.08	614.896
1280.69	360.592
1284.31	84.764
1287.92	482.723
1291.53	290.906
1295.14	128.219
1298.75	64.629
1302.36	328.436
1305.96	310.117
1309.57	126.035
1313.17	19.17
1316.77	134.395
1320.37	161.742
1323.96	134.809
1327.56	124.822
1331.15	70.094
1334.74	152.768
1338.34	314.477
1341.92	76.539
1345.51	41.078
1349.1	213.748
1352.68	142.578
1356.26	129.898
1359.84	82.611
1363.42	54.623
1367	309.561
1370.57	6.75
1374.14	154.41
1377.72	203.676
1381.29	320.463
1384.86	180.869
1388.42	86.273
1391.99	708.705
1395.55	81.082
1399.11	99.912
1402.67	116.184
1406.23	192.406
1409.79	435.217
1413.35	350.217
1416.9	345.758
1420.45	474.105
1424	154.309
1427.55	34.805
1431.1	412.195
1434.64	362.082
1438.19	110.16
1441.73	617.395
1445.27	309.34
1448.81	423.848
1452.35	478.031
1455.88	287.391
1459.42	296.285
1462.95	463.57
1466.48	821.5
1470.01	103.168
1473.54	226.59
1477.07	469.473
1480.59	437.43
1484.11	252.559
1487.63	288.316
1491.15	438.848
1494.67	297.141
1498.19	328.367
1501.7	238.555
1505.22	360.52
1508.73	493.934
1512.24	152.742
1515.75	47.656
1519.26	135.301
1522.76	0
