Measurement: Raman, 514 nm, depolarized, Raman Data Processed
Mineral: Tremolite
Rruff sample: R050173
Ideal chemistry: [box]Ca_2_Mg_5_Si_8_O_22_(OH)_2_
Locality: Fort Dauphin, Madagascar
Source: Marcus Origlieri
Description: Mass of colorless acicular crystals
Measured chemistry: [box]Ca_2.00_Mg_5.00_Si_8.00_O_22_(OH)_2_
Pin_id: L00129
Orientation: Laser parallel to -b* (0 -1 0). Fiducial mark perpendicular to laser is parallel to -c [0 0 -1]
Raman shift (cm-1)	intensity
96.748	0
100.932	12.017
105.114	113.938
109.294	261.852
113.472	1418.55
117.647	3884.14
121.821	6992.04
125.992	4534.86
130.162	1357.33
134.329	241.168
138.494	237.14
142.657	187.559
146.819	24.901
150.978	309.432
155.135	3443.19
159.29	6157.4
163.443	1383.62
167.593	1427.25
171.742	3726.91
175.889	12270.7
180.034	7062.5
184.176	1228.76
188.317	1181.58
192.456	1510.18
196.592	1832.29
200.726	2271.38
204.859	2516.56
208.989	2711.53
213.118	3328.15
217.244	8279.07
221.368	16129.8
225.49	7369.99
229.611	2919.35
233.729	1795.77
237.845	480.269
241.959	121.964
246.071	814.929
250.181	1196.37
254.289	361.838
258.395	175.473
262.499	320.549
266.601	68.255
270.701	270.303
274.799	215.423
278.895	144.702
282.989	93.35
287.08	781.11
291.17	567.754
295.258	321.24
299.344	1224.51
303.428	1118.64
307.51	479.504
311.589	216.549
315.667	170.654
319.743	265.819
323.817	448.598
327.889	1169.15
331.958	1719.27
336.026	1176.39
340.092	2260.28
344.156	2493.37
348.218	2040.49
352.278	2279.23
356.336	1220.48
360.391	1260
364.445	3067.8
368.497	5340.97
372.547	2743.14
376.595	1558.39
380.641	1226.43
384.685	1409.02
388.727	3937.14
392.767	8011.18
396.805	3860.74
400.841	1402.52
404.875	907.857
408.907	1204.51
412.937	2340.05
416.966	2238.69
420.992	1065.83
425.016	683.611
429.038	605.419
433.059	1097.08
437.077	945.442
441.094	513.425
445.108	611.92
449.121	920.647
453.131	1721.61
457.14	4666
461.146	10233.9
465.151	7873.73
469.154	3339.23
473.155	1677.1
477.154	1028.26
481.15	918.01
485.145	744.79
489.138	437.75
493.129	389.698
497.119	154.16
501.106	222.18
505.091	239.753
509.074	332.891
513.056	617.684
517.035	644.211
521.013	598.503
524.988	707.533
528.962	658.344
532.934	315.874
536.904	145.126
540.872	86.066
544.838	42.699
548.802	30.982
552.764	84.016
556.724	39.48
560.682	5.461
564.639	28.322
568.593	5.097
572.546	22.722
576.496	11.148
580.445	141.856
584.392	182.899
588.337	115.108
592.28	58.148
596.221	23.923
600.16	43.44
604.097	53.34
608.033	23.182
611.966	79.516
615.898	91.341
619.828	127.254
623.755	236.576
627.681	390.45
631.605	408.951
635.527	620.586
639.448	890.927
643.366	1470.75
647.283	2710.84
651.197	4390.07
655.11	4577.36
659.021	4812.47
662.93	7700.44
666.837	17771.2
670.742	40522.9
674.645	35428.1
678.546	14582.6
682.446	6407.43
686.344	3986.79
690.239	2836.36
694.133	2085.13
698.025	1474.52
701.916	1041.86
705.804	775.19
709.69	749.399
713.575	469.212
717.458	420.754
721.338	360.909
725.217	280.595
729.095	335.968
732.97	419.791
736.843	504.231
740.715	729.311
744.584	735.029
748.452	1057.93
752.318	1060.13
756.182	521.594
760.045	182.826
763.905	184.388
767.764	96.389
771.621	68.487
775.475	131.043
779.329	214.023
783.18	26.86
787.029	50.705
790.877	51.385
794.722	93.25
798.566	164.905
802.408	86.352
806.249	47.582
810.087	111.383
813.923	19.271
817.758	29.721
821.591	70.265
825.422	19.806
829.251	50.025
833.079	49.381
836.904	8.65
840.728	47.331
844.55	11.26
848.37	5.873
852.188	102.15
856.005	89.924
859.82	52.517
863.633	94.812
867.444	62.048
871.253	139.198
875.06	46.177
878.866	47.017
882.67	29.594
886.472	96.073
890.272	52.418
894.07	198.609
897.867	244.636
901.662	150.522
905.455	326.314
909.246	361.997
913.035	347.601
916.823	723.045
920.608	1387.56
924.392	2731.92
928.175	5266.3
931.955	4180.86
935.734	1862.72
939.511	1291.06
943.286	1763.83
947.059	1807.53
950.83	1081.68
954.6	484.601
958.368	417.512
962.134	183.025
965.898	315.286
969.661	47.921
973.422	298.05
977.181	196.938
980.938	95.622
984.693	147.966
988.447	275.682
992.199	323.208
995.949	164.381
999.697	334.493
1003.44	353.571
1007.19	342.219
1010.93	320.043
1014.67	791.692
1018.41	1123.59
1022.15	1928.72
1025.89	3987.86
1029.62	3639.62
1033.35	1602.35
1037.08	1125.4
1040.81	1129.25
1044.54	1502.57
1048.27	2275.03
1051.99	4589.7
1055.71	12944.1
1059.43	19198.2
1063.15	8272.07
1066.87	4476.29
1070.58	3089.02
1074.3	1662.19
1078.01	1155.48
1081.72	1227.18
1085.42	1232.71
1089.13	741.681
1092.84	303.817
1096.54	176.12
1100.24	218.208
1103.94	210.342
1107.64	172.687
1111.33	134.165
1115.03	154.449
1118.72	475.125
1122.41	215.843
1126.1	74.305
1129.79	5.619
1133.47	24.647
1137.15	6.025
1140.84	38.188
1144.52	128.586
1148.19	107.913
1151.87	237.956
1155.55	397.668
1159.22	487.412
1162.89	314.912
1166.56	43.427
1170.23	98.456
1173.9	25.747
1177.56	19.36
1181.22	59.744
1184.89	16.158
1188.55	150.397
1192.2	12.592
1195.86	197.974
1199.52	8.535
1203.17	174.255
1206.82	181.699
1210.47	92.499
1214.12	232.935
1217.76	206.188
1221.41	161.901
1225.05	329.527
1228.69	356.113
1232.33	347.422
1235.97	303.77
1239.6	179.055
1243.24	213.225
1246.87	267.238
1250.5	121.045
1254.13	152.398
1257.76	303.967
1261.38	144.297
1265.01	264.977
1268.63	255.299
1272.25	180.227
1275.87	236.607
1279.49	141.457
1283.1	295.4
1286.72	47.752
1290.33	178.719
1293.94	98.896
1297.55	58.973
1301.16	59.422
1304.76	168.098
1308.37	105.984
1311.97	200.006
1315.57	4.402
1319.17	22.986
1322.77	56.982
1326.36	52.082
1329.95	246.66
1333.55	254.148
1337.14	122.455
1340.73	59.23
1344.32	293.326
1347.9	128.486
1351.48	262.146
1355.07	204.691
1358.65	246.795
1362.23	345.877
1365.8	224.663
1369.38	239.451
1372.95	59.867
1376.53	191.078
1380.1	169.836
1383.67	306.512
1387.23	212.004
1390.8	221.625
1394.36	460.643
1397.93	129.201
1401.49	226.047
1405.05	101.352
1408.61	279.504
1412.16	130.127
1415.71	246.479
1419.27	173.846
1422.82	445.973
1426.37	417.795
1429.92	442.91
1433.46	318.146
1437.01	462.523
1440.55	143.369
1444.09	547.311
1447.63	328.525
1451.17	471.037
1454.71	253.723
1458.24	412.299
1461.78	599.572
1465.31	474.512
1468.84	515.996
1472.37	462.266
1475.89	361.928
1479.42	449.277
1482.94	444.775
1486.46	148.006
1489.98	263.225
1493.5	407.883
1497.02	301.938
1500.53	286.385
1504.05	433.27
1507.56	192.654
1511.07	212.861
1514.58	166.293
1518.09	145.107
1521.59	191.514
1525.1	17.322
