Measurement: Raman, 514 nm, depolarized, Raman Data Processed
Mineral: Tremolite
Rruff sample: R050173
Ideal chemistry: [box]Ca_2_Mg_5_Si_8_O_22_(OH)_2_
Locality: Fort Dauphin, Madagascar
Source: Marcus Origlieri
Description: Mass of colorless acicular crystals
Measured chemistry: [box]Ca_2.00_Mg_5.00_Si_8.00_O_22_(OH)_2_
Pin_id: L00486
Orientation: Laser parallel to -c* (0 0 -1). Fiducial mark perpendicular to laser is parallel to a [1 0 0]
Raman shift (cm-1)	intensity
89.77	0
93.958	21.126
98.143	77.902
102.326	112.76
106.508	340.041
110.687	627.662
114.864	2408.86
119.039	3002.28
123.211	2193.37
127.382	1669.07
131.551	757.66
135.718	408.69
139.882	725.064
144.045	873.264
148.205	649.438
152.364	724.609
156.52	4568.2
160.674	6980.55
164.826	2151.91
168.977	1352.46
173.125	5232.45
177.271	12681.7
181.415	5685.2
185.557	1204.15
189.697	864.619
193.835	1034.94
197.97	1335.95
202.104	1647.57
206.236	2052.52
210.366	2709.32
214.493	4341.72
218.619	11934.6
222.742	20747.7
226.864	11240.9
230.984	11884.2
235.101	7997.5
239.216	2170.89
243.33	1204.5
247.441	3398.99
251.551	3884.21
255.658	1328.06
259.763	1170.23
263.867	1595.43
267.968	352.405
272.067	229.496
276.164	280.915
280.26	202.251
284.353	43.646
288.444	324.904
292.533	123.609
296.62	292.431
300.705	1191.32
304.789	1070.12
308.87	588.725
312.949	247.148
317.026	55.394
321.101	193.372
325.174	121.14
329.246	508.766
333.315	617.187
337.382	356.112
341.447	1194.49
345.51	2082.84
349.571	3978.22
353.63	3652.28
357.688	2106.26
361.743	1820.23
365.796	4304.17
369.847	6307.92
373.897	4561.52
377.944	2725.08
381.989	1538.79
386.032	1623.76
390.074	4478.49
394.113	8429.34
398.151	3556.02
402.186	1090.49
406.219	1135.23
410.251	2002.01
414.28	4786.3
418.308	3442.95
422.334	1338.4
426.357	763.145
430.379	807.06
434.399	1972.45
438.416	1102.76
442.432	226.787
446.446	184.836
450.458	394.116
454.468	997.624
458.476	2810.05
462.482	5901.01
466.486	4172.07
470.488	1693.18
474.488	883.285
478.486	513.16
482.482	341.002
486.477	410.065
490.469	249.399
494.459	108.499
498.448	177.32
502.434	75.988
506.419	374.468
510.402	922.762
514.383	1310.87
518.361	1548.86
522.338	1526.72
526.313	2964.43
530.286	3212.02
534.257	1109.46
538.227	486.744
542.194	213.803
546.159	280.643
550.123	147.18
554.084	63.205
558.044	121.443
562.001	66.949
565.957	36.873
569.911	29.492
573.863	13.389
577.813	85.785
581.761	67.814
585.707	159.477
589.651	130.797
593.594	48.146
597.534	32.812
601.473	63.879
605.409	145.141
609.344	66.537
613.277	190.113
617.208	302.305
621.137	194.006
625.064	157.004
628.99	527.457
632.913	703.812
636.834	588.713
640.754	1118.66
644.672	1578.76
648.588	2539.56
652.502	3567.33
656.414	4040.94
660.324	5236.08
664.232	9144.93
668.138	21698.4
672.043	46505.8
675.946	35747
679.846	14796.4
683.745	7842.51
687.642	6623.66
691.538	6126.85
695.431	3731.84
699.322	2290.29
703.212	1572.77
707.1	1264.07
710.985	768.65
714.869	708.57
718.751	492.541
722.632	458.227
726.51	542.449
730.386	583.971
734.261	621.078
738.134	1078.22
742.005	1115.03
745.874	842.215
749.741	1752.44
753.607	1101.78
757.47	405.613
761.332	428.91
765.192	1.438
769.05	213.822
772.906	96.57
776.76	129.254
780.613	68.59
784.463	63.352
788.312	304.998
792.159	256.076
796.004	186.617
799.847	66.717
803.689	146.348
807.528	205.562
811.366	264.34
815.202	2.469
819.036	69.832
822.868	127.191
826.699	174.551
830.527	151.521
834.354	46.988
838.179	112.391
842.002	87.604
845.824	171.611
849.643	245.148
853.461	68.252
857.277	130.947
861.091	373.316
864.903	5.531
868.713	187.643
872.522	179.768
876.329	141.682
880.134	133.107
883.937	94.613
887.739	95.857
891.538	256.836
895.336	17.541
899.132	247.947
902.926	308.129
906.718	238.172
910.509	457.977
914.298	817.344
918.085	803.578
921.87	1941.54
925.653	4197.78
929.435	7514.5
933.215	4893.28
936.993	2255.41
940.769	1966.43
944.544	2847.05
948.316	2362.08
952.087	1256.12
955.856	760.697
959.623	417.574
963.389	419.012
967.153	268.666
970.915	261.357
974.675	104.049
978.433	208.666
982.19	428.828
985.945	364.299
989.698	72.066
993.449	395.814
997.199	374.004
1000.95	660.568
1004.69	820.967
1008.44	515.703
1012.18	1381.48
1015.92	2284.95
1019.66	3758.18
1023.4	5091.73
1027.13	9256.63
1030.87	6754.49
1034.6	3098.81
1038.33	2184.78
1042.06	1958.96
1045.78	2438.63
1049.51	3507.72
1053.23	6862.41
1056.95	18527.1
1060.67	22691.6
1064.39	9464.56
1068.11	5418.08
1071.82	3409.53
1075.53	1780.98
1079.24	1442.01
1082.95	1766.61
1086.66	1612.29
1090.37	961.443
1094.07	881.773
1097.77	521.816
1101.47	279.877
1105.17	108.848
1108.87	47.773
1112.56	234.301
1116.26	450.816
1119.95	834.824
1123.64	49.225
1127.33	22.061
1131.01	115.811
1134.7	337.859
1138.38	89.336
1142.06	284.68
1145.74	12.301
1149.42	11.27
1153.1	294.805
1156.77	96.266
1160.44	344.932
1164.12	283.639
1167.79	93.16
1171.45	114.775
1175.12	163.168
1178.78	148.975
1182.45	309.426
1186.11	480.924
1189.77	253.508
1193.42	455.311
1197.08	379.086
1200.73	242.611
1204.38	317.877
1208.04	539.359
1211.68	461.311
1215.33	571.709
1218.98	449.193
1222.62	524.764
1226.26	538.367
1229.9	479.287
1233.54	570.693
1237.18	343.025
1240.82	543.324
1244.45	609.125
1248.08	476.676
1251.71	366.486
1255.34	356.33
1258.97	567.729
1262.59	574.26
1266.22	243.471
1269.84	499.658
1273.46	659.703
1277.08	837.322
1280.69	368.998
1284.31	162.775
1287.92	541.363
1291.53	357.086
1295.14	211.02
1298.75	97.289
1302.36	388.77
1305.96	408.992
1309.57	225.828
1313.17	92.035
1316.77	245.699
1320.37	95.152
1323.96	39.645
1327.56	123.48
1331.15	50.711
1334.74	29.348
1338.34	168.348
1341.92	105.477
1345.51	118.996
1349.1	242.043
1352.68	143.789
1356.26	133.473
1359.84	111.426
1363.42	208.141
1367	273.992
1370.57	365.117
1374.14	436.371
1377.72	179.348
1381.29	469.805
1384.86	357.207
1388.42	249.664
1391.99	494.121
1395.55	275.195
1399.11	252.516
1402.67	143.551
1406.23	276.184
1409.79	673.488
1413.35	444.293
1416.9	461.488
1420.45	436.922
1424	452.664
1427.55	82.145
1431.1	297.145
1434.64	462.141
1438.19	51.703
1441.73	653.938
1445.27	536.82
1448.81	661.992
1452.35	524.383
1455.88	486.484
1459.42	472.07
1462.95	514.801
1466.48	797.23
1470.01	93.027
1473.54	359.586
1477.07	318.227
1480.59	452.73
1484.11	456.863
1487.63	598.664
1491.15	378.98
1494.67	411.828
1498.19	426.051
1501.7	411.352
1505.22	334
1508.73	504.793
1512.24	15.367
1515.75	58.25
