Measurement: Raman, 514 nm, depolarized, Raman Data Processed
Mineral: Tremolite
Rruff sample: R050167
Ideal chemistry: [box]Ca_2_Mg_5_Si_8_O_22_(OH)_2_
Locality: Hunza Valley, Afghanistan
Source: Marcus Origlieri
Description: Green tabular crystals
Measured chemistry: ([box]_0.90_Na_0.10_)(Ca_0.98_Mg_0.01_Fe^2+^_0.01_)_2_(Mg_0.94_Al_0.06_)_5_(Si_0.95_Al_0.05_)_8_O_22_((OH)_0.98_F_0.02_)_2_
Pin_id: L00357
Orientation: Laser parallel to b* (0 1 0). Fiducial mark perpendicular to laser is parallel to c [0 0 1]
Raman shift (cm-1)	intensity
83.667	0
87.858	94.373
92.046	69.211
96.233	28.037
100.418	48.365
104.6	108.271
108.781	570.998
112.959	2345.77
117.136	2333.83
121.31	4056.1
125.482	4604.38
129.653	2187.77
133.821	726.383
137.987	198.177
142.152	6.892
146.314	6.676
150.474	22.295
154.633	409.165
158.789	3240.12
162.943	6925.61
167.095	3248.68
171.246	2463.2
175.394	6012.27
179.54	11678.3
183.684	7908.84
187.826	3018.31
191.967	1423.11
196.105	1143.01
200.241	806.348
204.375	773.409
208.507	1141.52
212.638	1896.65
216.766	4008.11
220.892	9441.8
225.016	12857.2
229.139	7802.43
233.259	4036.33
237.377	2407.99
241.493	1323.4
245.608	1005.59
249.72	1415.76
253.83	1549.67
257.939	827.239
262.045	406.798
266.15	231.41
270.252	33.191
274.353	25.551
278.451	41.999
282.548	20.496
286.642	345.015
290.735	632.721
294.826	664.199
298.914	820.147
303.001	1466.18
307.086	1430.11
311.168	942.923
315.249	592.405
319.328	456.056
323.405	550.768
327.48	792.749
331.553	1649.3
335.624	1806.51
339.693	1442.12
343.76	1492.04
347.826	1502.1
351.889	1365.53
355.95	1252.25
360.01	1092.37
364.067	1538.24
368.123	2977.96
372.176	4092.51
376.228	3040.88
380.277	1927.1
384.325	1634.39
388.371	2230.62
392.415	4324.77
396.457	5883.06
400.497	3423.48
404.535	1521.77
408.571	986.15
412.605	1193.32
416.638	1755.05
420.668	1711.91
424.697	1066.33
428.723	649.779
432.748	480.544
436.77	482.786
440.791	349.561
444.81	156.723
448.827	94.504
452.842	20.886
456.855	66.776
460.867	42.274
464.876	29.506
468.883	8.485
472.889	11.309
476.892	21.963
480.894	26.488
484.894	33.64
488.892	130.553
492.888	95.303
496.882	13.867
500.874	13.825
504.865	52.845
508.853	24.357
512.84	71.744
516.824	195.608
520.807	300.274
524.788	252.75
528.767	318.037
532.744	299.135
536.719	241.678
540.693	173.765
544.664	141.293
548.634	162.629
552.601	147.786
556.567	127.778
560.531	97.629
564.493	68.337
568.453	54.885
572.412	78.24
576.368	133.415
580.323	118.392
584.275	142.176
588.226	177.786
592.175	130.266
596.122	113.673
600.068	66.072
604.011	85.838
607.952	161.452
611.892	126.84
615.83	238.459
619.766	342.853
623.7	461.221
627.632	536.824
631.563	670.472
635.491	857.416
639.418	1181.57
643.343	1768.58
647.266	2532.56
651.187	3726.8
655.106	5342.24
659.024	6671.28
662.939	9323.9
666.853	15379.5
670.765	29503.6
674.675	42678.5
678.583	30414.3
682.49	14819.8
686.394	7515.18
690.297	4396.44
694.198	2894.57
698.097	2109.51
701.995	1516.15
705.89	1149.28
709.784	1027.97
713.675	786.889
717.565	626.212
721.453	653.198
725.34	556.302
729.224	473.441
733.107	437.673
736.988	454.736
740.867	504.012
744.744	557.632
748.62	689.968
752.493	728.064
756.365	542.782
760.235	362.992
764.103	145.727
767.969	106.417
771.834	57.485
775.697	36.474
779.558	34.631
783.417	23.143
787.274	7.166
791.13	2.465
794.983	44.048
798.835	11.572
802.686	21.933
806.534	35.905
810.38	57.93
814.225	32.885
818.068	2.348
821.909	65.47
825.749	102.252
829.586	67.97
833.422	102.615
837.256	170.194
841.088	160.711
844.919	180.561
848.748	84.578
852.575	128.963
856.4	56.253
860.223	13.608
864.045	8.803
867.864	27.123
871.682	47.193
875.499	7.446
879.313	3.789
883.126	60.785
886.937	126.304
890.746	114.819
894.553	222.313
898.359	285.784
902.163	342.23
905.965	391.684
909.765	507.159
913.564	736.658
917.361	1069.15
921.156	1363.54
924.949	2259.47
928.74	3556.87
932.53	4351.82
936.318	3096.33
940.104	1809.8
943.889	1443.2
947.672	1386.48
951.453	1293.29
955.232	1022.04
959.01	740.747
962.785	554.972
966.559	443.257
970.332	356.911
974.102	306.855
977.871	352.233
981.638	328.957
985.404	352.287
989.167	334.654
992.929	333.433
996.689	371.145
1000.45	510.647
1004.2	620.438
1007.96	833.757
1011.71	1014.75
1015.46	1162.61
1019.21	1299.67
1022.96	1615.31
1026.71	2358.55
1030.45	3293.68
1034.19	3017.08
1037.94	2609.72
1041.68	2695.78
1045.41	3510.45
1049.15	4995.1
1052.88	7198.01
1056.62	10232.5
1060.35	12446
1064.08	10298.6
1067.8	6980.57
1071.53	4734.59
1075.25	2882.32
1078.97	1772.51
1082.7	1219.82
1086.41	849.864
1090.13	596.047
1093.85	578.308
1097.56	437.645
1101.27	329.943
1104.98	405.47
1108.69	298.727
1112.4	308.733
1116.1	261.107
1119.81	224.448
1123.51	365.491
1127.21	156.973
1130.91	101.114
1134.61	115.814
1138.3	121.116
1141.99	83.396
1145.68	122.589
1149.38	70.352
1153.06	9.915
1156.75	40.663
1160.43	134.095
1164.12	88.13
1167.8	29.469
1171.48	47.511
1175.16	17.027
1178.83	1.369
1182.51	0.416
1186.18	52.958
1189.85	0.771
1193.52	57.315
1197.19	18.225
1200.86	51.531
1204.52	13.517
1208.19	31.854
1211.85	5.927
1215.51	50.459
1219.17	146.279
1222.82	116.325
1226.48	117.495
1230.13	109.123
1233.78	102.893
1237.43	40.259
1241.08	74.578
1244.73	121.538
1248.37	187.611
1252.01	183.627
1255.66	258.928
1259.3	296.102
1262.93	190.935
1266.57	147.99
1270.21	162.758
1273.84	78.37
1277.47	130.414
1281.1	162.93
1284.73	291.323
1288.36	172.951
1291.98	265.382
1295.6	144.812
1299.23	32.276
1302.85	19.304
1306.46	104.619
1310.08	67.125
1313.7	125.184
1317.31	195.842
1320.92	233.471
1324.53	198.03
1328.14	192.968
1331.75	195.025
1335.35	168.349
1338.96	39.722
1342.56	93.824
1346.16	113.233
1349.76	218.086
1353.36	117.651
1356.95	124.953
1360.55	120.419
1364.14	66.441
1367.73	79.911
1371.32	0.47
1374.91	67.195
1378.49	85.083
1382.08	236.638
1385.66	200.996
1389.24	237.063
1392.82	277.808
1396.4	233.553
1399.97	139.275
1403.55	85.819
1407.12	43.134
1410.69	21.742
1414.26	100.009
1417.83	197.839
1421.4	221.917
1424.96	257.423
1428.53	279.433
1432.09	250.326
1435.65	251.451
1439.21	100.295
1442.76	96.086
1446.32	124.038
1449.87	92.917
1453.43	217.379
1456.98	218.885
1460.53	269.178
1464.07	381.639
1467.62	373.715
1471.16	426.638
1474.71	281.775
1478.25	167.17
1481.79	103.479
1485.32	102.194
1488.86	51.868
1492.39	0.125
1495.93	55.105
1499.46	176.738
1502.99	228.383
1506.52	239.828
1510.05	218.914
1513.57	710.801
1517.09	124.223
