Measurement: Raman, 514 nm, depolarized, Raman Data Processed
Mineral: Tremolite
Rruff sample: R050167
Ideal chemistry: [box]Ca_2_Mg_5_Si_8_O_22_(OH)_2_
Locality: Hunza Valley, Afghanistan
Source: Marcus Origlieri
Description: Green tabular crystals
Measured chemistry: ([box]_0.90_Na_0.10_)(Ca_0.98_Mg_0.01_Fe^2+^_0.01_)_2_(Mg_0.94_Al_0.06_)_5_(Si_0.95_Al_0.05_)_8_O_22_((OH)_0.98_F_0.02_)_2_
Pin_id: M00489
Orientation: Laser parallel to (1 0 1). Fiducial mark perpendicular to laser is parallel to -b [0 -1 0]
Raman shift (cm-1)	intensity
87.649	0
91.844	75.806
96.037	87.754
100.227	191.338
104.416	142.91
108.603	770.519
112.787	824.02
116.97	1824.27
121.15	2393.91
125.328	1166.21
129.504	411.192
133.678	77.756
137.85	49.525
142.02	62.43
146.188	31.065
150.354	97.759
154.517	309.399
158.679	2010.44
162.839	3833.37
166.996	2496.17
171.152	2698.9
175.305	6501.99
179.456	9787.73
183.605	5143.31
187.752	2061.03
191.898	1195.76
196.041	1285.67
200.182	869.626
204.321	1061.08
208.457	1559.11
212.592	3014.74
216.725	6497.72
220.856	13110.6
224.984	14353.4
229.111	9646.06
233.236	9218.53
237.358	6720.84
241.479	3373
245.597	2475.13
249.713	3377.59
253.828	3063.74
257.94	1801.88
262.05	1324.08
266.159	642.496
270.265	4.972
274.369	42.247
278.471	126.729
282.572	19.741
286.67	128.508
290.766	440.355
294.86	422.068
298.952	391.098
303.042	828.658
307.13	908.35
311.216	600.701
315.3	346.513
319.382	122.985
323.462	387.346
327.54	738.595
331.616	1348.34
335.69	1204.55
339.762	1522.38
343.832	2196.29
347.9	3197.62
351.965	4058.42
356.029	3759.04
360.091	3419.52
364.151	4099.86
368.209	6470.06
372.265	7460.09
376.319	5279.96
380.371	3449.66
384.421	2589.19
388.469	3218.53
392.515	5089.4
396.559	5010.8
400.601	2530.81
404.641	1521.56
408.679	1522.02
412.715	2163.32
416.749	2951.74
420.781	2618.12
424.811	1608.93
428.839	1048.11
432.866	1137.51
436.89	1324.73
440.912	910.229
444.932	365.908
448.951	171.567
452.967	57.972
456.981	132.952
460.994	31.968
465.004	56.438
469.013	0.688
473.019	22.659
477.024	119.418
481.026	78.521
485.027	72.06
489.026	75.601
493.023	20.904
497.017	15.121
501.01	24.469
505.001	293.8
508.99	854.825
512.977	1685.54
516.962	2265.97
520.945	2096.08
524.927	2115.89
528.906	2435.36
532.883	2024.51
536.858	1233.33
540.832	701.825
544.803	439.995
548.773	227.826
552.741	135.286
556.706	42.35
560.67	38.93
564.632	94.856
568.592	50.287
572.55	34.688
576.506	60.209
580.46	133.636
584.412	237.041
588.363	0.024
592.311	42.558
596.258	104.706
600.202	116.521
604.145	198.207
608.086	29.016
612.024	69.258
615.961	329.166
619.896	602.083
623.829	744.909
627.761	658.942
631.69	824.666
635.617	1291.46
639.543	1706.85
643.466	2472.42
647.388	3663.16
651.308	5470.83
655.226	7336.6
659.142	8491.58
663.056	11218.3
666.968	18354.9
670.879	32581.5
674.787	37268
678.694	23074
682.598	11728.9
686.501	7192.91
690.402	5736.64
694.301	4330.04
698.198	3164.9
702.093	2237.92
705.987	1500
709.878	1310.04
713.768	1059.21
717.656	909.795
721.542	662.723
725.426	543.405
729.308	638.299
733.188	796.656
737.067	1293.64
740.943	1600.52
744.818	1055.82
748.691	912.734
752.562	846.176
756.431	712.523
760.298	444.408
764.163	130.124
768.027	145.706
771.888	142.874
775.748	190.457
779.606	97.995
783.462	15.182
787.317	177.887
791.169	1.399
795.019	164.904
798.868	190.981
802.715	66.781
806.56	217.72
810.403	42.736
814.245	252.006
818.084	116.457
821.922	160.743
825.758	15.114
829.592	8.864
833.424	232.723
837.254	306.465
841.082	350.114
844.909	173.688
848.734	32.792
852.557	80.617
856.378	334.005
860.197	297.339
864.015	260.683
867.831	84.132
871.645	72.274
875.457	48.631
879.267	144.984
883.075	328.645
886.882	382.591
890.687	266.777
894.49	211.059
898.291	455.5
902.09	560.156
905.888	804.935
909.683	889.771
913.477	954.439
917.269	1098.78
921.06	1532.92
924.848	2715.91
928.635	3764.83
932.42	3843.57
936.203	2410.3
939.984	1639.31
943.764	1772.16
947.541	2260.86
951.317	2070.93
955.091	1498.83
958.864	869.02
962.634	560.85
966.403	467.031
970.17	620.816
973.935	686.968
977.698	650.879
981.46	496.917
985.22	472.534
988.978	448.768
992.734	746.429
996.488	963.674
1000.24	1531.41
1003.99	1682.16
1007.74	1849.81
1011.49	2317.78
1015.23	2854.43
1018.98	3831.01
1022.72	5026.8
1026.46	6232.29
1030.2	6842.79
1033.93	5265.85
1037.67	3765.36
1041.4	3815.79
1045.13	4982.92
1048.86	6451.49
1052.59	8251.36
1056.32	9880.51
1060.04	10109.5
1063.77	8012.43
1067.49	6240.91
1071.2	4751.69
1074.92	3101.05
1078.64	1962.8
1082.35	1420.62
1086.06	1028.57
1089.78	686.137
1093.48	854.412
1097.19	781.838
1100.89	809.514
1104.6	826.936
1108.3	554.178
1112	160.42
1115.7	236.561
1119.39	103.166
1123.09	238.664
1126.78	354.395
1130.47	410.131
1134.16	244.387
1137.85	118.822
1141.54	145.666
1145.22	49.953
1148.9	85.01
1152.58	247.119
1156.26	411.982
1159.94	326.617
1163.62	200.488
1167.29	82.723
1170.96	84.268
1174.63	25.445
1178.3	23.641
1181.97	213.701
1185.63	302.975
1189.3	90.74
1192.96	88.754
1196.62	133.264
1200.28	70.857
1203.93	168.502
1207.59	207.674
1211.24	522.16
1214.89	784.703
1218.54	565.25
1222.19	604.555
1225.84	357.66
1229.48	250.475
1233.13	334.5
1236.77	300.354
1240.41	628.506
1244.05	731.971
1247.68	835.32
1251.32	778.082
1254.95	589.4
1258.58	460.611
1262.21	343.361
1265.84	472.926
1269.46	699.588
1273.09	827.492
1276.71	752.809
1280.33	729.918
1283.95	742.943
1287.57	414.123
1291.18	242.52
1294.8	701.053
1298.41	195.828
1302.02	261.582
1305.63	574.254
1309.24	746.479
1312.84	667.449
1316.45	685.541
1320.05	412.162
1323.65	147.678
1327.25	148.07
1330.85	231
1334.44	190.443
1338.04	423.363
1341.63	663.84
1345.22	700.02
1348.81	677.059
1352.4	542.67
1355.98	94.375
1359.57	158.268
1363.15	101.152
1366.73	187.162
1370.31	49.98
1373.89	169.41
1377.46	743.092
1381.04	960.832
1384.61	767.049
1388.18	613.086
1391.75	537.639
1395.32	301.094
1398.88	162.934
1402.45	89.805
1406.01	335.256
1409.57	619.674
1413.13	767.514
1416.69	836.572
1420.24	737.068
1423.8	681.961
1427.35	735.854
1430.9	438.75
1434.45	379.441
1438	347.822
1441.55	550.035
1445.09	571.451
1448.63	1097.98
1452.18	1221.17
1455.71	1496.11
1459.25	1457.11
1462.79	1345.35
1466.32	1078.39
1469.86	800.934
1473.39	556.951
1476.92	11.711
1480.45	98.436
1483.97	236.023
1487.5	233.041
1491.02	429.766
1494.54	678.725
1498.06	1048.56
1501.58	1086.99
1505.1	802.906
1508.62	591.5
1512.13	595.051
1515.64	0
