Measurement: Raman, 514 nm, depolarized, Raman Data Processed
Mineral: Tremolite
Rruff sample: R050173
Ideal chemistry: [box]Ca_2_Mg_5_Si_8_O_22_(OH)_2_
Locality: Fort Dauphin, Madagascar
Source: Marcus Origlieri
Description: Mass of colorless acicular crystals
Measured chemistry: [box]Ca_2.00_Mg_5.00_Si_8.00_O_22_(OH)_2_
Pin_id: L00389
Orientation: Laser parallel to a* (1 0 0). Fiducial mark perpendicular to laser is parallel to b [0 1 0]
Raman shift (cm-1)	intensity
100.932	0
105.114	228.727
109.294	88.902
113.472	979.471
117.647	2419.83
121.821	4922.2
125.992	4242.73
130.162	1125.1
134.329	472.395
138.494	353.577
142.657	522.367
146.819	258.264
150.978	21.183
155.135	338.079
159.29	2141.27
163.443	1925.85
167.593	242.313
171.742	441.737
175.889	3748.85
180.034	5259.79
184.176	2146.7
188.317	260.653
192.456	635.594
196.592	480.332
200.726	388.447
204.859	596.277
208.989	783.915
213.118	2057.68
217.244	2894.72
221.368	7439.38
225.49	7869.39
229.611	7448.55
233.729	9996.37
237.845	3972.7
241.959	997.842
246.071	1222.02
250.181	3445.32
254.289	2117.89
258.395	619.673
262.499	620.676
266.601	251.882
270.701	206.935
274.799	186.758
278.895	178.396
282.989	29.515
287.08	309.674
291.17	686.561
295.258	50.104
299.344	358.967
303.428	796.032
307.51	521.725
311.589	410.679
315.667	385.554
319.743	346.524
323.817	565.805
327.889	373.445
331.958	1159.93
336.026	963.666
340.092	791.026
344.156	1487.29
348.218	2020.37
352.278	2784.48
356.336	1733.43
360.391	1341.25
364.445	2293.85
368.497	6657.54
372.547	5362.37
376.595	2389.53
380.641	1517.62
384.685	1366.59
388.727	2795.86
392.767	8204.25
396.805	8333.11
400.841	2674.18
404.875	1431.06
408.907	1589.66
412.937	3343.87
416.966	5184.43
420.992	2744.69
425.016	1353.06
429.038	886.441
433.059	1311.26
437.077	1720.05
441.094	642.204
445.108	311.236
449.121	248.256
453.131	340.371
457.14	689.655
461.146	1863.36
465.151	2323.03
469.154	1209.98
473.155	513.08
477.154	404.469
481.15	460.266
485.145	459.785
489.138	417.23
493.129	312.51
497.119	201.688
501.106	210.688
505.091	85.361
509.074	509.406
513.056	973.018
517.035	1226.26
521.013	1039.14
524.988	1061.67
528.962	1793.86
532.934	1205.67
536.904	287.1
540.872	228.23
544.838	88.939
548.802	59.18
552.764	58.959
556.724	78.262
560.682	86.975
564.639	44.805
568.593	172.848
572.546	300.02
576.496	196.709
580.445	102.908
584.392	188.74
588.337	34.135
592.28	168.932
596.221	64.82
600.16	49.256
604.097	73.58
608.033	55.258
611.966	2.113
615.898	113.01
619.828	69.666
623.755	296.719
627.681	124.186
631.605	279.719
635.527	353.598
639.448	488.518
643.366	843.861
647.283	1369.39
651.197	2073.09
655.11	2556.06
659.021	2995.08
662.93	4735.12
666.837	9616.86
670.742	24478
674.645	37204
678.546	19292.3
682.446	8067.61
686.344	4311.25
690.239	3025.03
694.133	2219.74
698.025	1444.45
701.916	1276.37
705.804	883.471
709.69	826.529
713.575	663.725
717.458	489.83
721.338	494.564
725.217	429.051
729.095	532.475
732.97	724.418
736.843	943.582
740.715	1544.63
744.584	1328.96
748.452	1735.29
752.318	2108.69
756.182	1122.56
760.045	415.295
763.905	627.314
767.764	150.84
771.621	285.441
775.475	239.855
779.329	204.824
783.18	269.65
787.029	15.238
790.877	29.223
794.722	66.047
798.566	41.064
802.408	105.807
806.249	9.713
810.087	115.193
813.923	108.713
817.758	92.854
821.591	16.457
825.422	99.299
829.251	68.098
833.079	104.107
836.904	136.34
840.728	182.699
844.55	70.006
848.37	71.213
852.188	42.031
856.005	252.549
859.82	77.15
863.633	72.812
867.444	32.59
871.253	212.387
875.06	181.98
878.866	8.496
882.67	231.051
886.472	160.492
890.272	179.85
894.07	389.041
897.867	328.068
901.662	266.949
905.455	525.688
909.246	424.236
913.035	472.615
916.823	560.828
920.608	938.32
924.392	1755.92
928.175	3352.84
931.955	4488.76
935.734	2364.08
939.511	1479.37
943.286	1513.34
947.059	1928.43
950.83	1382.56
954.6	676.51
958.368	629.469
962.134	397.83
965.898	681.361
969.661	279.859
973.422	455.895
977.181	272.453
980.938	847.906
984.693	392.668
988.447	416.656
992.199	492.146
995.949	336.068
999.697	591.629
1003.44	642.32
1007.19	713.098
1010.93	750.861
1014.67	1033.33
1018.41	1588.91
1022.15	2779.66
1025.89	5875.71
1029.62	9360.05
1033.35	4443.7
1037.08	2261.82
1040.81	1431.88
1044.54	1314.74
1048.27	1273.14
1051.99	1494.92
1055.71	3535.14
1059.43	8123.82
1063.15	5452.11
1066.87	3411.8
1070.58	3899.76
1074.3	2177.4
1078.01	1194.75
1081.72	1121.82
1085.42	2028.73
1089.13	1435.69
1092.84	691.701
1096.54	517.449
1100.24	452.727
1103.94	357.578
1107.64	492.221
1111.33	554.74
1115.03	426.736
1118.72	227.469
1122.41	748.164
1126.1	21.307
1129.79	128.709
1133.47	58.23
1137.15	286.898
1140.84	284.818
1144.52	252.439
1148.19	139.553
1151.87	228.547
1155.55	144.785
1159.22	300.578
1162.89	195.994
1166.56	81.324
1170.23	105.555
1173.9	119.395
1177.56	187.172
1181.22	176.33
1184.89	119.039
1188.55	44.977
1192.2	21.562
1195.86	401.549
1199.52	94.309
1203.17	356.748
1206.82	338.873
1210.47	230.682
1214.12	322.199
1217.76	482.986
1221.41	539.553
1225.05	502.523
1228.69	578.086
1232.33	610.5
1235.97	442.578
1239.6	263.387
1243.24	383.062
1246.87	693.881
1250.5	112.914
1254.13	449.098
1257.76	435.75
1261.38	332.617
1265.01	384.898
1268.63	331.992
1272.25	145.645
1275.87	229.34
1279.49	319.977
1283.1	296.785
1286.72	83.203
1290.33	236.223
1293.94	39.18
1297.55	284.148
1301.16	98.645
1304.76	294.363
1308.37	133.785
1311.97	493.75
1315.57	295.199
1319.17	162.816
1322.77	316.707
