Measurement: Raman, 514 nm, depolarized, Raman Data Processed
Mineral: Tremolite
Rruff sample: R050167
Ideal chemistry: [box]Ca_2_Mg_5_Si_8_O_22_(OH)_2_
Locality: Hunza Valley, Afghanistan
Source: Marcus Origlieri
Description: Green tabular crystals
Measured chemistry: ([box]_0.90_Na_0.10_)(Ca_0.98_Mg_0.01_Fe^2+^_0.01_)_2_(Mg_0.94_Al_0.06_)_5_(Si_0.95_Al_0.05_)_8_O_22_((OH)_0.98_F_0.02_)_2_
Pin_id: M00415
Orientation: Laser parallel to -c* (0 0 -1). Fiducial mark perpendicular to laser is parallel to -a [-1 0 0]
Raman shift (cm-1)	intensity
86.25	0
90.446	107.62
94.639	161.485
98.831	105.195
103.02	3.103
107.207	96.677
111.393	646.507
115.576	1602.1
119.757	2585.32
123.936	1183.8
128.112	319.211
132.287	57.502
136.46	81.812
140.63	18.073
144.799	28.98
148.965	13.66
153.13	334.066
157.292	3577.16
161.452	9838.55
165.611	4510.17
169.767	3762.06
173.921	8179.98
178.073	15348.4
182.222	9481.87
186.37	3512.84
190.516	1796.96
194.66	1389.05
198.801	1046.86
202.941	1390.85
207.079	2212.2
211.214	3877.78
215.348	7797.12
219.479	17236.7
223.608	23226.1
227.736	15755.5
231.861	14054.8
235.984	12214
240.105	5983.07
244.224	3542.11
248.342	4677.29
252.457	5337.31
256.57	3101.4
260.681	1973.57
264.79	1255.15
268.896	527.471
273.001	66.09
277.104	26.276
281.205	66.836
285.304	118.79
289.401	393.257
293.495	456.665
297.588	730.7
301.679	1661.09
305.767	1695.17
309.854	1171.05
313.939	851.543
318.021	505.676
322.102	462.112
326.181	658.097
330.257	1231.81
334.332	1333.12
338.405	1060.98
342.475	1290.69
346.544	2231.29
350.61	3367.65
354.675	3245.88
358.738	2796
362.798	3163.01
366.857	4999.91
370.913	6847.68
374.968	5855.33
379.021	3940.84
383.071	3068.19
387.12	3487.38
391.166	6344.87
395.211	8113.09
399.254	4366
403.294	2162.78
407.333	1863.33
411.37	2931.06
415.405	4501.74
419.437	4091.88
423.468	2510.39
427.497	1625.49
431.524	1556.75
435.549	1866.76
439.572	1233.79
443.593	483.566
447.611	180.194
451.628	102.172
455.644	32.557
459.657	45.962
463.668	24.234
467.677	33.356
471.684	41.308
475.689	6.331
479.692	4.329
483.694	155.57
487.693	37.552
491.691	16.296
495.686	86.29
499.68	12.484
503.671	43.773
507.661	304.74
511.648	970.472
515.634	1560.92
519.618	1860.07
523.6	1981.92
527.58	2590.46
531.558	2698.69
535.534	1601.59
539.508	844.176
543.48	494.436
547.45	321.388
551.418	196.021
555.385	87.314
559.349	10.272
563.312	14.818
567.272	62.873
571.231	21.421
575.187	6.516
579.142	139.017
583.095	61.124
587.046	90.836
590.995	68.157
594.942	6.065
598.888	9.467
602.831	34.434
606.772	70.47
610.712	143.625
614.649	214.14
618.585	317.825
622.519	544.293
626.45	657.682
630.38	871.148
634.308	1014.98
638.235	1521.05
642.159	2289.89
646.081	3464.24
650.002	5114.91
653.92	6897.25
657.837	9189.08
661.752	12787.3
665.664	21246.8
669.575	39612.4
673.484	53746.7
677.392	37122.3
681.297	18685.5
685.2	10478.4
689.102	7030.88
693.002	5253.08
696.899	3716.09
700.795	2725.13
704.689	2005.38
708.581	1544.64
712.472	1120.31
716.36	1026.91
720.247	814.266
724.131	572.454
728.014	478.498
731.895	695.113
735.774	699.845
739.651	839.198
743.526	1006.9
747.4	1010.76
751.271	944.547
755.141	572.811
759.009	348.961
762.875	210.752
766.739	102.113
770.601	293.594
774.462	46.565
778.32	48.491
782.177	34.177
786.032	26.313
789.885	49.958
793.736	11.079
797.585	22.95
801.433	73.648
805.279	54.011
809.122	15.911
812.964	86.813
816.804	88.063
820.643	78.759
824.479	66.213
828.314	30.531
832.147	98.691
835.977	82.73
839.807	185.666
843.634	207.518
847.459	165.289
851.283	41.989
855.105	29.384
858.925	14.137
862.743	28.633
866.559	79.041
870.373	10.653
874.186	11.636
877.997	98.008
881.806	3.548
885.613	186.984
889.419	359.633
893.222	384.39
897.024	456.249
900.824	532.259
904.622	639.366
908.418	957.552
912.213	1376.95
916.005	1669.46
919.796	2458.7
923.585	3622.73
927.373	5776.29
931.158	6314.97
934.942	4314.36
938.724	2865.26
942.504	2343.16
946.282	2386.47
950.059	2324.22
953.833	1870.05
957.606	1389.14
961.377	1070.94
965.147	834.306
968.914	726.312
972.68	630.804
976.444	734.188
980.206	808.267
983.967	757.278
987.725	747.931
991.482	850.314
995.237	965.455
998.99	1281.51
1002.74	1717.25
1006.49	2142.42
1010.24	2622.03
1013.99	3207.51
1017.73	3781.8
1021.47	4605.46
1025.21	6196.78
1028.95	7942.88
1032.69	6853.83
1036.42	5465.23
1040.16	5349.8
1043.89	6172.24
1047.62	8469.32
1051.35	12342
1055.08	17279.7
1058.8	19247.7
1062.53	15021.9
1066.25	10101.8
1069.97	6620.4
1073.68	3969.42
1077.4	2606.03
1081.11	1772.41
1084.83	1407.87
1088.54	1073.9
1092.25	1030.23
1095.95	805.913
1099.66	591.534
1103.36	657.131
1107.07	572.416
1110.77	557.096
1114.47	321.157
1118.16	235.748
1121.86	161.03
1125.55	285.131
1129.24	248.478
1132.93	311.973
1136.62	225.667
1140.31	58.832
1143.99	215.014
1147.68	107.825
1151.36	39.667
1155.04	42.237
1158.71	174.47
1162.39	106.146
1166.07	110.57
1169.74	11.949
1173.41	54.098
1177.08	66.177
1180.75	38.207
1184.41	11.891
1188.08	184.265
1191.74	149.266
1195.4	275.297
1199.06	78.933
1202.71	3.321
1206.37	84.059
1210.02	8.778
1213.68	80.397
1217.33	139.514
1220.98	250.081
1224.62	239.04
1228.27	190.945
1231.91	126.985
1235.55	213.36
1239.19	202.388
1242.83	217.405
1246.47	260.674
1250.1	402.022
1253.74	443.963
1257.37	304.801
1261	205.493
1264.63	91.657
1268.25	191.796
1271.88	289.326
1275.5	247.082
1279.12	360.438
1282.74	454.885
1286.36	416.639
1289.98	418.002
1293.59	290.566
1297.21	119.607
1300.82	225.721
1304.43	138.516
1308.04	182.854
1311.64	234.688
1315.25	485.323
1318.85	369.371
1322.45	273.924
1326.05	218.202
1329.65	181.529
1333.24	170.252
1336.84	68.205
1340.43	110.847
1344.03	266.023
1347.61	376.141
1351.2	437.961
1354.79	413.336
1358.37	257.889
1361.96	320.992
1365.54	132.636
1369.12	4.854
1372.69	63.996
1376.27	23.794
1379.85	253.268
1383.42	520.469
1386.99	426.392
1390.56	521.556
1394.13	443.589
1397.7	275.795
1401.26	96.081
1404.82	53.331
1408.38	50.563
1411.94	122.146
1415.5	142.753
1419.06	263.673
1422.62	536.521
1426.17	414.277
1429.72	487.736
1433.27	292.134
1436.82	186.099
1440.37	264.84
1443.91	158.431
1447.45	171.955
1450.99	201.746
1454.54	351.318
1458.07	490.9
1461.61	609.209
1465.15	606.359
1468.68	664.951
1472.21	506.084
1475.74	528.754
1479.27	240.488
1482.8	8.734
1486.32	26.518
1489.85	54.582
1493.37	334.576
1496.89	259.006
1500.41	369.939
1503.93	509.617
1507.44	725.615
1510.96	827.73
1514.47	509.266
