Measurement: Raman, 514 nm, ccw, Raman Data Processed
Mineral: Trilithionite
Rruff sample: R040105
Ideal chemistry: KLi_1.5_Al_1.5_(Si_3_Al)O_10_F_2_
Locality: Brown Derby mine, Ohio City, Gunnison County, Colorado, USA
Source: University of Arizona Mineral Museum
Description: Purple hexagonal tablet
Measured chemistry: (K_0.82_Li_0.14_Na_0.04_)(Li_0.53_Al_0.42_Mn_0.05_)_3_(Si_0.84_Al_0.17_)_4_O_10_((OH)_0.59_F_0.41_)_2_
Pin_id: L00700
Orientation: Laser parallel to (1 0 1). Fiducial mark perpendicular to laser is parallel to b [0 1 0]
Raman shift (cm-1)	intensity
141.529	0
146.465	486.219
151.398	20.6836
156.328	95.9297
161.256	1099.89
166.18	3311.07
171.102	7273.23
176.021	12007
180.937	14039.5
185.85	11985.7
190.76	8810.94
195.668	6517.89
200.572	5071.28
205.474	4044.36
210.374	3864.72
215.27	4391.5
220.163	4999.89
225.054	6381.13
229.942	8112.77
234.827	10383.3
239.709	12685
244.589	14566.3
249.465	15925.4
254.339	17250.7
259.21	18186.2
264.079	16928.2
268.944	13096.6
273.807	8777.48
278.667	5166.86
283.524	3430.72
288.378	2270.34
293.23	1824.75
298.079	1793.48
302.925	1553.25
307.768	1490.98
312.609	1368.69
317.446	1345.52
322.281	1240.67
327.113	882.356
331.943	368.621
336.769	125.316
341.593	119.688
346.414	326.676
351.233	458.492
356.048	206.176
360.861	33.6113
365.671	602.352
370.478	1158.61
375.283	1807.22
380.084	2624.33
384.883	3346.87
389.68	3701.52
394.473	4609.17
399.264	5598.16
404.052	6090.55
408.837	5690.77
413.62	4099.87
418.4	2448.88
423.177	1565.82
427.951	1395.75
432.722	1826.14
437.491	2377.35
442.257	3060.89
447.021	2693.24
451.781	2900.26
456.539	2909.92
461.294	2653.2
466.047	2653.09
470.797	2671.59
475.544	2962.44
480.288	2581.81
485.03	1310.4
489.768	374.394
494.504	680.93
499.238	269.184
503.969	302.297
508.697	46.0859
513.422	240.219
518.144	919.652
522.864	439.289
527.582	438.422
532.296	682.789
537.008	1098.16
541.717	1690.12
546.423	2814.07
551.127	4250.97
555.828	6013.72
560.526	7074.02
565.222	6970.77
569.915	5166.81
574.605	3621.62
579.292	2148.71
583.977	1670.25
588.659	1458.23
593.339	1234.68
598.016	869.57
602.69	1395.93
607.361	1197.77
612.03	1815.07
616.696	2809.9
621.359	4082.43
626.02	5133.96
630.678	3726.88
635.333	2597.47
639.986	1992.76
644.636	3411.41
649.284	4110.35
653.928	4520.27
658.57	2791.53
663.21	1910.16
667.846	2081.8
672.481	3165
677.112	4518.91
681.741	6715.46
686.367	10696.2
690.99	16448.7
695.611	27701.2
700.229	46411.6
704.845	72910.8
709.458	78066.1
714.068	55487.3
718.676	29552.5
723.281	15689.7
727.883	9157.88
732.483	6363.99
737.08	4432.06
741.674	3417.06
746.266	3156
750.855	3392.86
755.442	2951.67
760.025	2391.41
764.607	1637.11
769.185	1241.8
773.761	1372.25
778.335	1455.86
782.906	1954.1
787.474	1403.38
792.039	968.859
796.602	697.168
801.162	12.9844
805.72	498.766
810.275	458.109
814.828	629.586
819.378	162.066
823.925	26.7773
828.47	207.047
833.012	568.582
837.551	1290.83
842.088	2136.95
846.622	2501.98
851.154	2689.95
855.683	3756.88
860.209	5384.81
864.733	4035.73
869.254	2054.18
873.773	1800.76
878.289	1732.38
882.803	1169.11
887.314	1355.79
891.822	1317.45
896.328	1600.77
900.831	1544.74
905.332	2254.47
909.83	1791.34
914.325	1566.81
918.818	1164.52
923.308	856.277
927.796	981.789
932.281	1025.7
936.764	1274.05
941.244	746.516
945.721	729.035
950.196	621.961
954.668	712.152
959.138	458.125
963.605	671.891
968.07	987.352
972.532	903.68
976.991	1061.46
981.448	941.863
985.903	1757.59
990.355	2406.54
994.804	4532.47
999.251	9152.81
1003.7	12959.6
1008.14	4356.88
1012.58	2424.64
1017.01	2452.53
1021.45	3664.8
1025.88	3498.67
1030.31	2779.3
1034.73	2111.76
1039.16	1451.45
1043.58	1450.59
1048	1400.18
1052.41	1838.25
1056.83	2330.79
1061.24	2698.84
1065.65	3456.47
1070.05	4420.84
1074.46	5558.53
1078.86	7239.84
1083.26	8664.47
1087.65	8420.75
1092.05	7471.67
1096.44	6305.81
1100.83	6366.6
1105.21	6807.92
1109.6	7459.69
1113.98	7538.91
1118.36	7616.57
1122.73	8052.65
1127.1	7812.15
1131.47	7222.08
1135.84	5631.41
1140.21	2690.15
1144.57	835.297
1148.93	73.6836
1153.29	250.039
1157.65	568.309
1162	3.61719
1166.35	415.098
1170.7	183.348
1175.05	456.984
1179.39	412.961
1183.73	599.219
1188.07	672.902
1192.41	292.84
1196.74	145.09
1201.07	367.629
1205.4	135.566
1209.72	156.082
1214.05	261.637
1218.37	156.184
1222.69	332.797
1227.01	630.438
1231.32	1138.64
1235.63	1704.34
1239.94	1867.06
1244.24	1708.79
1248.55	2188.52
1252.85	1449.31
1257.15	1796.18
1261.44	2014.36
1265.74	2794.82
1270.03	3949.52
1274.32	4800.24
1278.61	5257.18
1282.89	5824.21
1287.17	6392.21
1291.45	6795.19
1295.73	7444.65
1300	6257.49
1304.27	6031.95
1308.54	6233.48
1312.81	6485.07
1317.08	5179.7
1321.34	4244.41
1325.6	3038.25
1329.85	2042.24
1334.11	969.981
1338.36	942.035
1342.61	384.969
1346.86	507.008
1351.1	747.231
1355.35	358.953
1359.59	184.008
1363.82	176.871
1368.06	629.031
1372.29	397.531
1376.52	438.375
1380.75	591.988
1384.97	769.394
1389.2	478.496
1393.42	321.305
1397.64	595.344
1401.85	324.891
1406.07	180.406
1410.28	330.144
1414.49	938.668
1418.69	1238.2
1422.9	1610.43
1427.1	2510.95
1431.3	5099.38
1435.49	8800.56
1439.69	12684.9
1443.88	14310.4
1448.07	13798.8
1452.26	13800.7
1456.44	13653.3
1460.62	11710.5
1464.8	8490.97
1468.98	6322.84
1473.15	4651.79
1477.33	4408.43
1481.5	3814.6
1485.66	3023.95
1489.83	1454.34
1493.99	732.035
1498.15	626.488
1502.31	290.133
1506.47	148.512
1510.62	114.543
1514.77	411.754
1518.92	159.875
1523.07	373.773
1527.21	263.781
1531.35	343.348
1535.49	332.332
1539.63	323.539
1543.76	45.5664
1547.9	370.246
1552.03	462.328
1556.15	292.18
1560.28	160.762
1564.4	153.426
