Measurement: Raman, 514 nm, depolarized, Raman Data Processed
Mineral: Trilithionite
Rruff sample: R040101
Ideal chemistry: KLi_1.5_Al_1.5_(Si_3_Al)O_10_F_2_
Locality: Zambezi Region, Mozambique
Source: University of Arizona Mineral Museum
Description: Aggregate of purple hexagonal plates, polytype is 2M1
Measured chemistry: (K_0.84_Li_0.13_Na_0.02_)(Li_0.54_Al_0.44_Mn_0.02_)_3_(Si_0.82_Al_0.18_)_4_O_10_F_2.00_
Pin_id: L00533
Orientation: Laser parallel to -b* (0 -1 0). Fiducial mark perpendicular to laser is parallel to c [0 0 1]
Raman shift (cm-1)	intensity
124.675	0
128.84	151.673
133.003	278.053
137.164	28.22
141.323	138.73
145.48	40.953
149.635	126.911
153.788	343.371
157.939	667.921
162.088	1251.79
166.235	2566.55
170.38	4375.07
174.523	7540.25
178.664	11076.5
182.803	13810.3
186.94	13583.2
191.076	12388
195.209	12225.6
199.34	11547.9
203.47	8914.71
207.597	6848.16
211.722	6076.68
215.846	6112.46
219.967	5707.26
224.087	4878.73
228.204	4929.98
232.32	5449.17
236.434	6742.79
240.545	8537.16
244.655	10744.9
248.763	12546.3
252.869	14326.3
256.973	19458.9
261.075	26399.1
265.175	27945.8
269.273	20710.1
273.369	12179
277.463	6868.36
281.556	4502.27
285.646	3118.5
289.734	2580.49
293.821	2350.12
297.905	1984.46
301.988	1941.4
306.069	1592.86
310.147	1321.54
314.224	1042.35
318.299	792.357
322.372	474.421
326.443	452.432
330.512	183.627
334.579	233.9
338.645	88.223
342.708	135.885
346.769	10.97
350.829	185.322
354.887	136.473
358.942	331.948
362.996	446.051
367.048	888.587
371.098	1084.55
375.146	1329.92
379.192	1628.71
383.236	2025.92
387.279	2267.56
391.319	2714.61
395.358	3428.05
399.394	4684.67
403.429	5162.15
407.462	5509.9
411.493	5017
415.522	3814.43
419.549	2902.18
423.575	2173.27
427.598	1606.67
431.619	1040.38
435.639	988.402
439.657	545.729
443.673	537.355
447.687	543.272
451.699	328.49
455.709	466.091
459.717	328.113
463.724	448.606
467.728	611.565
471.731	703.009
475.732	950.828
479.731	916.002
483.728	688.521
487.723	208.367
491.716	31.515
495.708	3.242
499.697	70.405
503.685	41.855
507.671	212.104
511.655	239.785
515.637	83.451
519.617	258.904
523.596	337.74
527.572	559.508
531.547	742.82
535.52	832.018
539.491	1244.71
543.46	1509.77
547.427	2148.15
551.393	2876.92
555.356	3971.05
559.318	4453.63
563.278	4158.51
567.236	3421.63
571.192	2386.02
575.147	1639.19
579.099	927.602
583.05	701.795
586.999	372.193
590.946	742.789
594.891	435.561
598.834	283.49
602.776	220.4
606.715	550.797
610.653	810.979
614.589	901.652
618.523	881.264
622.456	1206.99
626.386	1661.82
630.315	2117.74
634.242	2245.74
638.167	2020.83
642.09	1977.97
646.012	1801.18
649.931	1817.84
653.849	1740.11
657.765	1986.04
661.679	2277.07
665.592	2047.42
669.502	2362.12
673.411	2704.66
677.318	3348.26
681.223	4217.33
685.126	5341.69
689.028	7062.47
692.927	9888.01
696.825	13961.9
700.721	19550.7
704.616	25760.3
708.508	37777.3
712.399	39620.4
716.288	29746.5
720.175	16337.1
724.06	9466.02
727.944	6082.08
731.825	4388.82
735.705	3744.68
739.584	3790.57
743.46	4037.84
747.334	4582.76
751.207	4920.07
755.078	4855.28
758.947	4300.29
762.815	3778.11
766.68	2823.73
770.544	2082.14
774.406	1739.34
778.267	1713.33
782.125	1773.15
785.982	1654.69
789.837	1217.05
793.69	1093.12
797.542	721.961
801.391	335.562
805.239	317.938
809.085	309.227
812.93	102.516
816.772	86.598
820.613	282.57
824.452	12.26
828.29	243.232
832.125	12.959
835.959	19.463
839.791	63.588
843.621	111.58
847.45	51.086
851.277	107.889
855.102	69.236
858.925	250.98
862.746	5.824
866.566	140.74
870.384	132.631
874.2	63.129
878.015	13.715
881.828	112.979
885.639	35.604
889.448	31.35
893.256	36.928
897.061	234.232
900.865	324.262
904.668	265.025
908.468	385.527
912.267	493.887
916.064	507.029
919.86	274.936
923.653	487.592
927.445	469.998
931.236	245.152
935.024	360.059
938.811	246.723
942.596	403.145
946.379	628.404
950.161	636.252
953.94	783.045
957.719	867.664
961.495	916.119
965.27	973.885
969.043	1091.07
972.814	1165.07
976.583	1425.36
980.351	1002.89
984.117	1106.84
987.882	1363.33
991.644	1485.85
995.405	1329.16
999.165	1358.07
1002.92	1525.64
1006.68	1389.26
1010.43	1518.07
1014.18	1673.46
1017.93	1605
1021.68	1673.62
1025.43	1700.35
1029.18	1843.05
1032.92	1730.36
1036.66	2065.93
1040.4	1953.55
1044.14	2301.86
1047.88	3019.14
1051.62	3996.93
1055.35	4631.68
1059.08	5142.68
1062.81	4907.71
1066.54	4544.06
1070.27	4155.54
1073.99	3743.69
1077.72	3482.62
1081.44	3321.74
1085.16	2854.97
1088.88	2814.86
1092.59	2842.32
1096.31	2659.99
1100.02	2700.24
1103.73	2542.02
1107.44	2958.06
1111.15	2955.41
1114.86	3249.32
1118.57	3390.94
1122.27	3741.12
1125.97	4130.26
1129.67	4496.22
1133.37	5320.97
1137.07	6115.94
1140.76	7203.64
1144.45	6821.2
1148.15	4793.62
1151.84	2652.33
1155.53	1533.12
1159.21	764.197
1162.9	696.77
1166.58	421.602
1170.26	368.447
1173.94	252.256
1177.62	265.646
1181.3	176.346
1184.97	153.879
1188.65	66.66
1192.32	91.838
1195.99	23.941
1199.66	157.705
1203.33	120.518
1206.99	136.824
1210.65	57.324
1214.32	237.957
1217.98	163.053
1221.64	115.959
1225.29	156.27
1228.95	165.92
1232.6	134.873
1236.26	95.09
1239.91	225.814
1243.56	116.949
1247.2	4.432
1250.85	108.379
1254.49	46.168
1258.13	27.508
1261.78	235.48
1265.41	223.844
1269.05	55.549
1272.69	3.311
1276.32	44.18
1279.95	15.033
1283.59	145.018
1287.21	32.457
1290.84	4.264
1294.47	100.453
1298.09	150.062
1301.72	156.139
1305.34	26.701
1308.96	152.678
1312.58	237.055
1316.19	71.898
1319.81	145.346
1323.42	8.727
1327.03	131.227
1330.64	49.422
1334.25	253.812
1337.86	96.988
1341.46	169.736
1345.07	259.508
1348.67	129.117
1352.27	152.23
1355.87	310.455
1359.46	450.828
1363.06	472.014
1366.65	473.811
1370.25	417.547
1373.84	559.131
1377.43	522.898
1381.02	421.525
1384.6	396.332
1388.18	395.105
1391.77	437.652
1395.35	423.412
1398.93	694.459
1402.51	396.936
1406.08	603.787
1409.66	452.965
1413.23	316.578
1416.8	810.789
1420.37	541.254
1423.94	491.809
1427.51	492.375
1431.08	557.529
1434.64	403.465
1438.2	661.74
1441.76	398.615
1445.32	538.412
1448.88	427.846
1452.43	403.24
1455.99	528.332
1459.54	513.596
1463.09	606.195
1466.64	527.812
1470.19	391.537
1473.74	585.84
1477.28	566.525
1480.83	544.516
1484.37	274.92
1487.91	390.678
1491.45	316.225
1494.98	238.307
1498.52	404.963
1502.05	86.139
1505.59	214.674
1509.12	15.102
1512.65	158.178
1516.17	350.488
1519.7	14.021
1523.23	0.113
