Measurement: Raman, 514 nm, depolarized, Raman Data Processed
Mineral: Trilithionite
Rruff sample: R040101
Ideal chemistry: KLi_1.5_Al_1.5_(Si_3_Al)O_10_F_2_
Locality: Zambezi Region, Mozambique
Source: University of Arizona Mineral Museum
Description: Aggregate of purple hexagonal plates, polytype is 2M1
Measured chemistry: (K_0.84_Li_0.13_Na_0.02_)(Li_0.54_Al_0.44_Mn_0.02_)_3_(Si_0.82_Al_0.18_)_4_O_10_F_2.00_
Pin_id: M00449
Orientation: Laser parallel to -a* (-1 0 0). Fiducial mark perpendicular to laser is parallel to b [0 1 0]
Raman shift (cm-1)	intensity
134.39	0
138.55	220.324
142.709	136.876
146.865	30.423
151.019	77.308
155.171	313.993
159.322	955.385
163.47	2091.79
167.617	3818.19
171.761	6744.93
175.904	10526.3
180.044	12292.8
184.183	11650.3
188.319	10533.7
192.454	9949.12
196.586	9094.54
200.717	6855.7
204.846	5567.51
208.972	5254.85
213.097	5143.64
217.22	4716.76
221.341	4325.09
225.46	4575.32
229.577	5198.99
233.692	6338.42
237.805	7861.31
241.916	9551.23
246.025	11003.1
250.132	12181.4
254.237	16020.4
258.34	21486.3
262.442	22700.8
266.541	16751.1
270.639	9951.14
274.734	6024.83
278.828	3962.17
282.919	2773.14
287.009	2105.74
291.097	1929.97
295.183	1751.81
299.266	1685.83
303.348	1541.92
307.428	1263.87
311.507	945.016
315.583	667.627
319.657	417.024
323.729	360.938
327.8	155.168
331.868	17.608
335.935	136.098
339.999	80.639
344.062	40.489
348.123	188.376
352.182	49.051
356.239	46.997
360.294	413.929
364.347	640.382
368.398	747.338
372.448	1017.78
376.495	1359.7
380.54	1715.08
384.584	1888.91
388.626	2286.22
392.666	2713.99
396.704	3381.22
400.74	3992.75
404.774	4164.2
408.806	3774.57
412.836	3260.33
416.865	2388.49
420.891	1488.05
424.916	1002
428.939	887.327
432.959	622.03
436.978	605.102
440.996	458.353
445.011	492.317
449.024	449.45
453.036	215.925
457.045	183.734
461.053	450.895
465.059	539.556
469.063	783.735
473.065	822.438
477.065	904.621
481.063	801.236
485.06	384.259
489.054	8.672
493.047	89.598
497.038	13.708
501.027	55.925
505.014	144.138
508.999	98.071
512.982	127.381
516.964	54.671
520.944	243.047
524.921	493.865
528.897	414.214
532.871	888.156
536.844	1068.57
540.814	1295.44
544.783	1831.74
548.749	2487.44
552.714	3267.63
556.677	4164.16
560.638	4159.01
564.597	3501.15
568.555	2633.6
572.511	1763.31
576.464	1229.3
580.416	632.531
584.366	330.011
588.315	335.711
592.261	333.632
596.206	316.025
600.148	342.074
604.089	471.577
608.028	688.26
611.965	860.11
615.901	806.126
619.834	1196.3
623.766	1129.61
627.696	1633.07
631.624	1468.64
635.551	1668.34
639.475	1743.14
643.398	1591.03
647.318	1431.82
651.237	1714.56
655.155	2043.57
659.07	1743.23
662.984	1992.96
666.895	2441.75
670.805	2459.79
674.713	3166.69
678.62	3910.65
682.524	4878.43
686.427	6484.58
690.328	8604.72
694.227	12036
698.124	17085.9
702.02	24442.7
705.913	32979.7
709.805	38603.3
713.695	28679.5
717.584	16651.5
721.47	9843.36
725.355	6036.02
729.238	4524.31
733.119	3566.27
736.998	3030.7
740.876	3439.96
744.752	3750.14
748.626	3940.65
752.498	3774.03
756.368	3695.3
760.237	3104.3
764.104	2148.1
767.969	1623.69
771.832	1416.06
775.693	1425.22
779.553	1420.16
783.411	1499.87
787.267	1178.35
791.122	994.588
794.974	571.589
798.825	300.345
802.674	355.858
806.522	263.162
810.367	142.37
814.211	143.436
818.053	18.839
821.893	75.262
825.732	60.698
829.568	59.544
833.403	78.453
837.236	97.082
841.068	83.468
844.898	94.638
848.726	59.454
852.552	130.054
856.376	84.9
860.199	6.565
864.02	205.149
867.839	32.419
871.656	29.276
875.472	74.745
879.286	45.847
883.098	61.606
886.909	104.026
890.717	193.133
894.524	245.98
898.33	98.537
902.133	326.834
905.935	254.9
909.735	346.426
913.533	449.236
917.33	589.517
921.124	487.534
924.918	434.288
928.709	565.778
932.499	463.111
936.286	382.278
940.073	806.213
943.857	657.893
947.64	684.139
951.421	673.51
955.2	739.518
958.978	997.693
962.753	908.448
966.527	917.829
970.3	976.45
974.071	924.867
977.84	1182.11
981.607	1141.52
985.372	1342.97
989.136	1308.74
992.898	1273.96
996.659	1112.47
1000.42	1318.57
1004.17	1228.81
1007.93	1226.29
1011.68	1523.94
1015.43	1514.71
1019.18	1640.38
1022.93	1425.96
1026.68	1630.32
1030.42	1461.94
1034.17	1506.34
1037.91	1682.31
1041.65	1926.95
1045.39	2439.7
1049.12	2926.86
1052.86	3252.48
1056.59	3717.64
1060.33	4045.4
1064.06	3758.79
1067.78	3415.56
1071.51	3041.67
1075.23	3030.25
1078.96	2823.51
1082.68	2860.6
1086.4	2764.54
1090.12	2693.63
1093.83	2718.54
1097.55	2863.64
1101.26	2894.35
1104.97	3133.91
1108.68	3112.98
1112.39	3529.53
1116.1	3626.64
1119.8	3899.42
1123.5	4339.41
1127.2	4656.82
1130.9	5145.05
1134.6	5995.71
1138.3	6645.48
1141.99	5489.73
1145.69	3650.25
1149.38	2030.6
1153.07	993.211
1156.76	545.141
1160.44	495.562
1164.13	192.812
1167.81	287.203
1171.49	87.357
1175.17	89.201
1178.85	194.621
1182.52	119.455
1186.2	142.332
1189.87	162.676
1193.54	90.668
1197.21	65.832
1200.88	18.227
1204.55	317.508
1208.21	25.039
1211.88	29.51
1215.54	100.205
1219.2	2.818
1222.86	28.285
1226.51	50.375
1230.17	119.887
1233.82	62.326
1237.47	130.129
1241.12	7.32
1244.77	51.732
1248.42	159.389
1252.06	119.559
1255.71	51.719
1259.35	122.334
1262.99	101.518
1266.63	149.834
1270.26	89.223
1273.9	82.938
1277.53	95.039
1281.16	192.695
1284.8	93.852
1288.42	8.564
1292.05	25.088
1295.68	24.855
1299.3	50.895
1302.92	60.545
1306.55	114.318
1310.16	132.707
1313.78	57.695
1317.4	91.41
1321.01	4.887
1324.62	98.049
1328.24	137.207
1331.85	99.055
1335.45	212.461
1339.06	191.217
1342.66	144.605
1346.27	248.291
1349.87	332.547
1353.47	333.65
1357.07	244.236
1360.66	313.873
1364.26	207.346
1367.85	293.535
1371.44	320.963
1375.04	171.1
1378.62	352.33
1382.21	332.387
1385.8	410.15
1389.38	228.537
1392.96	409.486
1396.54	381.875
1400.12	329.27
1403.7	261.018
1407.28	282.264
1410.85	362.947
1414.42	364.074
1417.99	436.717
1421.56	368.736
1425.13	212.176
1428.7	233.297
1432.26	256.148
1435.83	390.23
1439.39	492.971
1442.95	388.316
1446.51	286.66
1450.06	324.072
1453.62	446.189
1457.17	543.736
1460.73	347.832
1464.28	254.895
1467.83	194.432
1471.37	314.773
1474.92	221.543
1478.46	243.086
1482.01	266.941
1485.55	319.154
1489.09	289.943
1492.63	155.533
1496.16	269.123
1499.7	140.148
1503.23	192.572
1506.76	164.826
1510.29	184.605
1513.82	342.686
1517.35	26.508
1520.88	92.904
