Measurement: Raman, 514 nm, ccw, Raman Data Processed
Mineral: Trilithionite
Rruff sample: R040101
Ideal chemistry: KLi_1.5_Al_1.5_(Si_3_Al)O_10_F_2_
Locality: Zambezi Region, Mozambique
Source: University of Arizona Mineral Museum
Description: Aggregate of purple hexagonal plates, polytype is 2M1
Measured chemistry: (K_0.84_Li_0.13_Na_0.02_)(Li_0.54_Al_0.44_Mn_0.02_)_3_(Si_0.82_Al_0.18_)_4_O_10_F_2.00_
Pin_id: L00071
Orientation: Laser parallel to c* (0 0 1). Fiducial mark perpendicular to laser is parallel to a [1 0 0]
Raman shift (cm-1)	intensity
138.711	0
143.619	517.062
148.525	416.371
153.428	146.984
158.329	589.047
163.227	964.512
168.124	2189.26
173.018	4468.12
177.909	7070.8
182.799	8546.01
187.686	9532.98
192.57	12301.6
197.452	16545.2
202.332	17331.7
207.21	13611.3
212.085	12346.5
216.958	12151.2
221.829	7090.52
226.697	3089.7
231.563	1294.66
236.426	1375.74
241.288	3337.97
246.146	7450.28
251.003	15959.6
255.857	34536.3
260.709	63959.5
265.558	77864.8
270.405	53541.1
275.249	27225
280.092	13904.6
284.931	7690.28
289.769	4979.47
294.604	3676.21
299.436	2621.05
304.267	2810.41
309.095	2139.76
313.92	2321.94
318.743	1941.11
323.564	1997.56
328.382	1754.76
333.198	1636.27
338.011	462.766
342.822	302.93
347.631	55.4766
352.437	548.086
357.241	1880.09
362.042	3149.26
366.841	5270.49
371.638	8409.48
376.432	11735.7
381.223	14315.2
386.013	15914.8
390.799	17573.5
395.584	21331.4
400.366	25452.5
405.145	27870.7
409.922	25956.5
414.697	21687
419.469	17095.2
424.239	12500
429.006	9231.38
433.771	6611.5
438.533	4728.68
443.293	3323.54
448.05	2253.88
452.805	1315.54
457.558	769.352
462.308	613.219
467.055	1312.01
471.8	1168.62
476.543	1473.94
481.283	1433.91
486.021	1479.43
490.756	611.422
495.488	133.797
500.219	313.859
504.946	849.797
509.672	580.625
514.394	605.328
519.115	230.586
523.832	0.867188
528.548	191.375
533.26	234.242
537.97	683.742
542.678	876.336
547.383	1311.67
552.086	2142.72
556.786	2941.72
561.484	2832.02
566.179	2368.38
570.872	1633.27
575.562	1642.59
580.25	1112.4
584.935	828.07
589.617	682.945
594.297	934.602
598.975	1253.16
603.65	1560.23
608.322	2533.5
612.992	3669.2
617.66	4937.76
622.325	6950.19
626.987	9313.84
631.647	10714.7
636.304	11512.7
640.959	10438.1
645.611	8158.62
650.26	6448.34
654.907	4951.72
659.552	4454.9
664.194	4582.62
668.833	4665.63
673.47	5501.11
678.104	7465.38
682.736	10261.5
687.365	14718.9
691.991	22297.4
696.615	32511.9
701.237	43379.2
705.855	48656.6
710.472	45636.5
715.085	34940.3
719.696	20911.8
724.305	12143.6
728.911	8322.54
733.514	7273.76
738.115	7825.06
742.713	10131.2
747.309	13083.5
751.902	14627.8
756.492	14355.1
761.08	12184.8
765.665	9507.89
770.248	6389.81
774.828	4709.52
779.405	3369.39
783.98	2506.79
788.552	2410.51
793.122	1149.65
797.689	995.312
802.253	1075.7
806.815	925.516
811.374	391.211
815.93	345.492
820.484	67.3281
825.035	93.4844
829.584	64.4609
834.13	81.2812
838.674	171.703
843.214	306.211
847.752	396.789
852.288	272.812
856.821	468.703
861.351	211.297
865.879	161.883
870.404	266.273
874.926	480.859
879.446	290.141
883.963	283.242
888.477	971.219
892.989	2052.16
897.498	2728.14
902.004	4163.52
906.508	6261.17
911.009	7395.12
915.508	8358.16
920.004	7556.48
924.497	5962.27
928.987	4911.51
933.475	4358.64
937.96	3537.85
942.443	3927.8
946.923	4972.36
951.4	5658.75
955.875	6514.4
960.346	6262.84
964.816	4589.81
969.282	3887.43
973.746	2769.68
978.207	2067.56
982.666	2484.62
987.121	1878.48
991.575	2072.77
996.025	2111.34
1000.47	2153.38
1004.92	2192.53
1009.36	2157.12
1013.8	2315.44
1018.24	2600.18
1022.67	2434.1
1027.1	2220.58
1031.53	2217.34
1035.96	1855.87
1040.38	1864.56
1044.8	2195.82
1049.22	2857.29
1053.64	3649.68
1058.05	3892.16
1062.46	3958.73
1066.87	3628.85
1071.27	3495.4
1075.67	3281.1
1080.07	3488.56
1084.47	3866.86
1088.86	3907.87
1093.25	4208.97
1097.64	4732.73
1102.03	5479.54
1106.41	6132.66
1110.79	6888.27
1115.17	6948.76
1119.54	6209.49
1123.91	5620.46
1128.28	4610.38
1132.65	3653.58
1137.01	2219.91
1141.37	1684.79
1145.73	1595.96
1150.09	906.266
1154.44	65.3906
1158.79	68.7188
1163.14	386.094
1167.48	92.6562
1171.83	197.031
1176.16	116.5
1180.5	84.8906
1184.83	174.992
1189.16	35.5781
1193.49	514.227
1197.82	43.2266
1202.14	202.852
1206.46	188.477
1210.78	791.945
1215.09	451.203
1219.4	746.422
1223.71	252.305
1228.02	755.195
1232.32	395.055
1236.62	905.75
1240.92	100.953
1245.22	1181.18
1249.51	231.906
1253.8	537.703
1258.09	812.258
1262.37	13.0859
1266.65	667.023
1270.93	584.328
1275.2	781.609
1279.48	513.328
1283.75	647.203
1288.02	426.375
1292.28	347.086
1296.54	713.961
1300.8	548.133
1305.06	547.492
1309.31	912.359
1313.56	786.867
1317.81	709.289
1322.05	431.656
1326.3	284.906
1330.54	457.773
1334.77	654.75
1339.01	549.656
1343.24	352.5
1347.46	172.797
1351.69	600.281
1355.91	273.984
1360.13	570.727
1364.35	724.344
1368.57	807.148
1372.78	564.016
1376.98	581.969
1381.19	523.781
1385.39	604.836
1389.6	636.18
1393.79	365.57
1397.99	765.836
1402.18	259.414
1406.37	761.977
1410.55	183.93
1414.74	313.953
1418.92	276.617
1423.1	35.0469
1427.27	403.07
1431.44	271.781
1435.61	216.906
1439.78	327.844
1443.94	720.359
1448.1	1197.75
1452.26	958.312
1456.42	1175.13
1460.57	886.602
1464.72	704.961
1468.87	1134.84
1473.01	422.344
1477.15	668.641
1481.29	615.25
1485.42	123.531
1489.56	215.344
1493.69	97.75
1497.82	297.578
1501.94	396.094
1506.06	42.5
1510.18	933.234
1514.29	303.75
1518.41	391.766
1522.52	853.859
1526.62	429.547
1530.73	605.75
1534.83	86.4531
1538.93	829.812
1543.02	456.344
1547.12	552.812
1551.21	702.578
1555.29	1400.19
1559.38	396.766
1563.46	101.469
1567.54	430.125
1571.61	5.5625
1575.69	322.625
