Measurement: Raman, 514 nm, depolarized, Raman Data Processed
Mineral: Trilithionite
Rruff sample: R040105
Ideal chemistry: KLi_1.5_Al_1.5_(Si_3_Al)O_10_F_2_
Locality: Brown Derby mine, Ohio City, Gunnison County, Colorado, USA
Source: University of Arizona Mineral Museum
Description: Purple hexagonal tablet
Measured chemistry: (K_0.82_Li_0.14_Na_0.04_)(Li_0.53_Al_0.42_Mn_0.05_)_3_(Si_0.84_Al_0.17_)_4_O_10_((OH)_0.59_F_0.41_)_2_
Pin_id: L00700
Orientation: Laser parallel to (1 0 1). Fiducial mark perpendicular to laser is parallel to b [0 1 0]
Raman shift (cm-1)	intensity
156.328	0
161.256	51.8555
166.18	3290.32
171.102	9511.71
176.021	17435.6
180.937	21703.2
185.85	20364.8
190.76	13793.9
195.668	9444.34
200.572	6775.4
205.474	5419.52
210.374	5564.53
215.27	6319.83
220.163	7896.75
225.054	9670.54
229.942	12788.6
234.827	16371.1
239.709	19733
244.589	22327.6
249.465	24042.5
254.339	26202.2
259.21	27143.1
264.079	25813.7
268.944	19979.3
273.807	13205.1
278.667	9078.1
283.524	5598.43
288.378	3888.4
293.23	2748.17
298.079	2250.92
302.925	2068.27
307.768	1437.83
312.609	1217.25
317.446	907.961
322.281	472.246
327.113	134.481
331.943	95.0117
336.769	625.277
341.593	437.711
346.414	739.465
351.233	665.926
356.048	383.469
360.861	105.168
365.671	421.301
370.478	1404.01
375.283	1797.95
380.084	3037.75
384.883	4086.67
389.68	5396.58
394.473	6786.4
399.264	8197.64
404.052	9495.39
408.837	8200.84
413.62	6560.15
418.4	4852.9
423.177	3614.15
427.951	3460.88
432.722	3795.38
437.491	4634.52
442.257	4980.44
447.021	4928.22
451.781	5075.67
456.539	5201.23
461.294	4919.43
466.047	4641.35
470.797	4743.46
475.544	5096.66
480.288	4062.71
485.03	2671.81
489.768	1026.9
494.504	242.09
499.238	264.617
503.969	407.988
508.697	254.887
513.422	36.2773
518.144	365.801
522.864	995.148
527.582	1123.04
532.296	1460.42
537.008	2019.86
541.717	2766.09
546.423	3884.9
551.127	6364.7
555.828	8669.42
560.526	10589.6
565.222	10328.2
569.915	8389.25
574.605	5437.77
579.292	3809.81
583.977	2586.39
588.659	2525.56
593.339	1625.51
598.016	1865.75
602.69	2225.59
607.361	2339.86
612.03	2713.93
616.696	3501.74
621.359	4739.73
626.02	6735.38
630.678	5641.66
635.333	3149.2
639.986	3213.73
644.636	4462.11
649.284	5294.74
653.928	5511.24
658.57	4682.02
663.21	3785.32
667.846	3983.06
672.481	5008.1
677.112	6615.73
681.741	9373.23
686.367	13990.7
690.99	22176.1
695.611	35234.3
700.229	58495.2
704.845	90364.2
709.458	104768
714.068	77634
718.676	41682.9
723.281	21747.3
727.883	12640.4
732.483	8411
737.08	5762.19
741.674	4786.91
746.266	4379.17
750.855	4531.94
755.442	4636.19
760.025	3870.89
764.607	3117.96
769.185	1687.32
773.761	1820
778.335	2092.18
782.906	2960.61
787.474	2369.65
792.039	1352.98
796.602	622.894
801.162	244.754
805.72	283.773
810.275	567.332
814.828	523.078
819.378	284.359
823.925	205.457
828.47	200.031
833.012	762.887
837.551	1201.44
842.088	1869.82
846.622	2786.04
851.154	2641.12
855.683	3928.82
860.209	4886.87
864.733	4330.56
869.254	2736.15
873.773	2133.63
878.289	1559.04
882.803	1217.37
887.314	1581.72
891.822	1329.29
896.328	1795.83
900.831	1917.74
905.332	1409.47
909.83	1249.49
914.325	1409.54
918.818	1076.62
923.308	578.762
927.796	295.906
932.281	711.418
936.764	694.922
941.244	422.891
945.721	612.492
950.196	198.574
954.668	607.273
959.138	418.66
963.605	133.629
968.07	717.832
972.532	687.195
976.991	293.07
981.448	718.117
985.903	1308.35
990.355	2558.81
994.804	4536.51
999.251	9756.49
1003.7	15541.8
1008.14	5895.36
1012.58	2683.31
1017.01	2911.63
1021.45	3818.78
1025.88	3602.87
1030.31	3322.62
1034.73	2708.32
1039.16	2068.91
1043.58	1966.76
1048	2490.06
1052.41	2400.82
1056.83	2775.07
1061.24	3544.6
1065.65	4505.9
1070.05	5334.4
1074.46	6963.9
1078.86	8836.79
1083.26	10384
1087.65	10290.9
1092.05	9157.54
1096.44	8905.52
1100.83	8784.9
1105.21	9480.85
1109.6	9974.27
1113.98	10707.1
1118.36	10844.9
1122.73	11239.1
1127.1	11819.3
1131.47	11661.9
1135.84	8742.88
1140.21	5038.29
1144.57	2084.13
1148.93	292.555
1153.29	24.9531
1157.65	180.496
1162	10.8438
1166.35	306.684
1170.7	313.453
1175.05	331.527
1179.39	285.945
1183.73	859.703
1188.07	498.789
1192.41	519.215
1196.74	3.97266
1201.07	436.914
1205.4	58.8906
1209.72	317.734
1214.05	88.7188
1218.37	423.641
1222.69	219.816
1227.01	131.441
1231.32	1242.51
1235.63	1343.09
1239.94	1670.62
1244.24	1606.09
1248.55	1463.1
1252.85	1591.35
1257.15	1601.68
1261.44	1933.93
1265.74	2762.61
1270.03	3417.43
1274.32	4422.81
1278.61	5124.46
1282.89	6363.66
1287.17	7624.34
1291.45	7808.93
1295.73	8031.62
1300	6731.96
1304.27	6181.6
1308.54	6444.92
1312.81	6847.35
1317.08	5413.85
1321.34	4464.4
1325.6	3168.94
1329.85	2003.39
1334.11	1111.57
1338.36	703.293
1342.61	237.648
1346.86	732.938
1351.1	537.438
1355.35	22.7188
1359.59	138.106
1363.82	189.59
1368.06	353.113
1372.29	655.676
1376.52	141.418
1380.75	665.625
1384.97	646.578
1389.2	980.781
1393.42	212.438
1397.64	204.906
1401.85	6.74219
1406.07	42.7578
1410.28	494.34
1414.49	734.254
1418.69	1231.31
1422.9	1648.34
1427.1	2894.28
1431.3	5501
1435.49	8018.16
1439.69	11571
1443.88	13018.1
1448.07	12889.5
1452.26	12756.3
1456.44	12489.8
1460.62	10821.8
1464.8	7963.16
1468.98	5867.91
1473.15	4253.07
1477.33	4342.11
1481.5	3723.82
1485.66	2157.56
1489.83	1533.66
1493.99	290.703
1498.15	830.969
1502.31	13.6562
1506.47	271.891
1510.62	131.117
1514.77	192.047
1518.92	21.0078
1523.07	35.0781
1527.21	477.398
1531.35	166
1535.49	224.617
1539.63	288.07
1543.76	528.539
1547.9	923.594
1552.03	306.312
1556.15	765.016
1560.28	131.406
1564.4	169
1568.52	209.172
1572.64	489.945
1576.75	669.961
