Measurement: Raman, 514 nm, depolarized, Raman Data Processed
Mineral: Trilithionite
Rruff sample: R040101
Ideal chemistry: KLi_1.5_Al_1.5_(Si_3_Al)O_10_F_2_
Locality: Zambezi Region, Mozambique
Source: University of Arizona Mineral Museum
Description: Aggregate of purple hexagonal plates, polytype is 2M1
Measured chemistry: (K_0.84_Li_0.13_Na_0.02_)(Li_0.54_Al_0.44_Mn_0.02_)_3_(Si_0.82_Al_0.18_)_4_O_10_F_2.00_
Pin_id: L00071
Orientation: Laser parallel to c* (0 0 1). Fiducial mark perpendicular to laser is parallel to a [1 0 0]
Raman shift (cm-1)	intensity
148.525	0
153.428	94.5859
158.329	224.312
163.227	849.586
168.124	1672.45
173.018	4438.14
177.909	6674.19
182.799	8857.46
187.686	10858.3
192.57	15206.5
197.452	23186.9
202.332	23865
207.21	18028.7
212.085	13543.1
216.958	12251.4
221.829	7288.44
226.697	2431.05
231.563	774.422
236.426	1018.38
241.288	3193.98
246.146	7747.93
251.003	17555.6
255.857	39255.9
260.709	77634.5
265.558	101000
270.405	73115.5
275.249	37784.5
280.092	18381
284.931	9874.97
289.769	6236.16
294.604	3442.88
299.436	3089.58
304.267	2825.88
309.095	2527.53
313.92	2058.48
318.743	1565.25
323.564	1676.14
328.382	1118.94
333.198	554.672
338.011	198.375
342.822	235.906
347.631	72.6875
352.437	444.164
357.241	1734.81
362.042	3800.01
366.841	5810.96
371.638	8742.22
376.432	12887.2
381.223	16245.5
386.013	18218.6
390.799	21129.8
395.584	25599.7
400.366	30981.9
405.145	34157.7
409.922	32099.6
414.697	26306.1
419.469	18900.7
424.239	13558.6
429.006	10663.8
433.771	7955.28
438.533	5512.09
443.293	3897.71
448.05	3268.2
452.805	2086.12
457.558	1006.21
462.308	820.258
467.055	659.109
471.8	1302.62
476.543	1826.65
481.283	1468.23
486.021	1515.34
490.756	772.797
495.488	191.07
500.219	520.961
504.946	342.75
509.672	665.5
514.394	417.141
519.115	38.9688
523.832	71.6797
528.548	1063.08
533.26	1039.84
537.97	847.281
542.678	891.398
547.383	1674.44
552.086	2196.12
556.786	3034.66
561.484	2847.38
566.179	2964.61
570.872	2703.9
575.562	1885.18
580.25	1496.79
584.935	1311.98
589.617	1074.62
594.297	1375.37
598.975	1850.56
603.65	2427.08
608.322	3218.8
612.992	4336.78
617.66	6697.94
622.325	9485.22
626.987	12098.8
631.647	14224.6
636.304	15217.8
640.959	13927.9
645.611	11598.2
650.26	9041.52
654.907	7266.85
659.552	6436.97
664.194	5884.17
668.833	6229.92
673.47	7503.31
678.104	8847.94
682.736	11770.2
687.365	17489.9
691.991	26550.8
696.615	38679.9
701.237	51525.5
705.855	57421.1
710.472	53269.8
715.085	42128.1
719.696	25616.6
724.305	15102.3
728.911	10369.2
733.514	8959.63
738.115	9384.48
742.713	11588.9
747.309	16356.5
751.902	18756.1
756.492	18447.4
761.08	15840.5
765.665	12602.3
770.248	8767.92
774.828	6771.36
779.405	5016.92
783.98	3021.69
788.552	2250.24
793.122	2181.12
797.689	1771.65
802.253	1521.58
806.815	1382.53
811.374	842.289
815.93	532.953
820.484	167.789
825.035	483.461
829.584	349.562
834.13	459.336
838.674	249.906
843.214	29.8203
847.752	67.2422
852.288	168.242
856.821	211.93
861.351	331.828
865.879	68.7188
870.404	9.35156
874.926	78.2578
879.446	269.797
883.963	427.648
888.477	757.125
892.989	1647.31
897.498	1985.56
902.004	3291.05
906.508	5402.61
911.009	6427.03
915.508	6552.52
920.004	6235.02
924.497	4933.57
928.987	3838.03
933.475	3147.89
937.96	3356.57
942.443	3218.12
946.923	3465.08
951.4	4232
955.875	5449.81
960.346	5222.31
964.816	3906.84
969.282	3524.78
973.746	2824.35
978.207	2356.98
982.666	3197.4
987.121	2153.77
991.575	3183.28
996.025	2262.86
1000.47	3158.38
1004.92	2882.95
1009.36	3043.16
1013.8	2771.67
1018.24	3302.34
1022.67	4047.06
1027.1	3507.8
1031.53	2963.98
1035.96	2243.7
1040.38	2550.36
1044.8	2993.17
1049.22	3103.42
1053.64	4764.09
1058.05	5048.77
1062.46	4987.17
1066.87	4103.16
1071.27	4039.95
1075.67	3245.16
1080.07	3991.41
1084.47	4394.89
1088.86	4252.39
1093.25	4265.92
1097.64	5136.31
1102.03	5598.55
1106.41	6388.53
1110.79	7516.5
1115.17	7063.72
1119.54	7090.48
1123.91	6305.86
1128.28	4317.42
1132.65	4141.12
1137.01	3187.16
1141.37	1475.66
1145.73	1691.47
1150.09	1121.19
1154.44	290.781
1158.79	261.172
1163.14	68.5
1167.48	195.938
1171.83	542.828
1176.16	124.453
1180.5	432.938
1184.83	234.984
1189.16	110.109
1193.49	244.781
1197.82	323.078
1202.14	33.6875
1206.46	269.016
1210.78	167.203
1215.09	75.4531
1219.4	598.578
1223.71	88.4219
1228.02	324.359
1232.32	319.188
1236.62	886.734
1240.92	579.203
1245.22	861.625
1249.51	405.516
1253.8	880.719
1258.09	555.734
1262.37	1038.36
1266.65	341.5
1270.93	375.781
1275.2	572.812
1279.48	348.844
1283.75	692.656
1288.02	360.828
1292.28	996.734
1296.54	414.812
1300.8	677.219
1305.06	1177.05
1309.31	733.453
1313.56	611.797
1317.81	1374.3
1322.05	657.859
1326.3	1328.42
1330.54	719.266
1334.77	69.8438
1339.01	990.203
1343.24	520.734
1347.46	665.719
1351.69	504.969
1355.91	787.375
1360.13	734.016
1364.35	311.156
1368.57	929.484
1372.78	1127.61
1376.98	1370.53
1381.19	579.844
1385.39	1504.64
1389.6	935.469
1393.79	1207.33
1397.99	574.828
1402.18	401.188
1406.37	333.312
1410.55	612.312
1414.74	1275.03
1418.92	629.453
1423.1	461.125
1427.27	583.375
1431.44	187.906
1435.61	1036.03
1439.78	1271.78
1443.94	1202.19
1448.1	1255.98
1452.26	1830
1456.42	1816.39
1460.57	1949.75
1464.72	1226.97
1468.87	1764.3
1473.01	738
1477.15	456.234
1481.29	588.781
1485.42	387.781
1489.56	780.266
1493.69	332.328
1497.82	767.031
1501.94	133.453
1506.06	177.078
1510.18	500.141
1514.29	377.516
1518.41	1226.52
1522.52	683.812
1526.62	1536.91
1530.73	1062.88
1534.83	990.703
1538.93	1248.94
1543.02	651
1547.12	628.625
1551.21	47.1719
1555.29	646.734
1559.38	695.266
1563.46	1572.42
1567.54	614.906
1571.61	52.375
1575.69	330.469
