Measurement: Raman, 514 nm, depolarized, Raman Data Processed
Mineral: Trilithionite
Rruff sample: R040105
Ideal chemistry: KLi_1.5_Al_1.5_(Si_3_Al)O_10_F_2_
Locality: Brown Derby mine, Ohio City, Gunnison County, Colorado, USA
Source: University of Arizona Mineral Museum
Description: Purple hexagonal tablet
Measured chemistry: (K_0.82_Li_0.14_Na_0.04_)(Li_0.53_Al_0.42_Mn_0.05_)_3_(Si_0.84_Al_0.17_)_4_O_10_((OH)_0.59_F_0.41_)_2_
Pin_id: L00110
Orientation: Laser parallel to a* (1 0 0). Fiducial mark perpendicular to laser is parallel to b [0 1 0]
Raman shift (cm-1)	intensity
139.043	0
143.956	43.3301
148.867	129.207
153.775	150.231
158.681	280.519
163.585	473.977
168.486	877.582
173.385	1614.4
178.282	2234.59
183.176	2404.84
188.067	1731.43
192.956	1460.12
197.843	1159.33
202.727	1143.5
207.609	812.377
212.489	985.854
217.366	1182.41
222.24	1042.03
227.112	1281.18
231.982	1581.76
236.849	1759.6
241.714	2027.98
246.577	2038.43
251.437	2323.35
256.294	2714.01
261.149	2745.39
266.002	2292.42
270.852	1492.62
275.7	1083.86
280.545	732.109
285.388	666.859
290.229	492.647
295.067	328.43
299.902	174.252
304.735	423.125
309.566	97.2363
314.394	230.785
319.22	86.916
324.043	274.432
328.864	21.2324
333.682	74.2812
338.498	119.494
343.311	22.2402
348.122	60.7207
352.931	11.1758
357.737	64.8438
362.54	94.2539
367.341	134.486
372.14	28.5781
376.936	331.07
381.73	174.434
386.521	264.305
391.31	419.238
396.096	471.66
400.88	345.055
405.661	679.312
410.44	454.506
415.216	343.623
419.99	197.664
424.761	250.627
429.53	33.498
434.297	20.6445
439.061	132.231
443.822	181.049
448.581	203.705
453.337	58.168
458.091	158.537
462.843	249.193
467.592	274.676
472.338	268.734
477.082	209
481.824	267.188
486.563	141.508
491.3	153.615
496.034	88.0508
500.765	61.0156
505.494	106.539
510.221	86.7832
514.945	55.2969
519.666	212.779
524.385	100.898
529.102	51.9727
533.816	179.867
538.527	77.4727
543.236	349.973
547.943	373.547
552.647	543.172
557.348	534.75
562.047	716.281
566.744	653.793
571.438	405.291
576.129	544.314
580.818	351.369
585.504	94.6094
590.188	246.131
594.87	147.066
599.549	149.086
604.225	59.873
608.899	373.621
613.57	158.15
618.239	164.971
622.905	169.58
627.569	15.207
632.23	328.816
636.889	19.043
641.545	317.902
646.198	7.08008
650.849	370.18
655.498	71.9766
660.144	386.074
664.787	368.152
669.428	6.30273
674.067	604
678.703	559.356
683.336	848.525
687.967	1262.19
692.595	1844.77
697.221	2791.7
701.844	4608.93
706.465	6364.53
711.083	6340.37
715.698	4273.19
720.311	2119.17
724.922	1414.79
729.53	858.234
734.135	592.453
738.738	582.668
743.338	531.535
747.936	557.973
752.531	225.211
757.124	165.394
761.714	295.992
766.302	237.891
770.887	310.652
775.469	143.285
780.049	243.836
784.626	266.434
789.201	325.266
793.773	114.606
798.343	103.008
802.91	137.312
807.475	295.934
812.037	238.996
816.596	339.254
821.153	73.9492
825.707	201.215
830.259	258.488
834.808	16.0664
839.355	128.859
843.899	219.863
848.441	178.168
852.98	76.8828
857.516	103.496
862.05	189.535
866.581	159.238
871.11	27.4023
875.636	306.5
880.159	86.9531
884.68	231.992
889.199	103.441
893.714	247.453
898.228	196.047
902.738	184.113
907.246	228.598
911.752	144.914
916.255	200.918
920.755	63.4961
925.253	291.484
929.748	154.5
934.241	310.898
938.731	301.144
943.218	168.301
947.703	73.7422
952.186	320.062
956.665	186.742
961.142	111.414
965.617	290.367
970.089	24.6328
974.558	381.707
979.025	176.707
983.489	381.781
987.951	197.984
992.41	243.664
996.866	247.34
1001.32	202.848
1005.77	316.492
1010.22	253.906
1014.67	197.141
1019.11	503.262
1023.55	564.418
1027.99	489.668
1032.42	144.062
1036.86	235.586
1041.29	244.348
1045.72	335.375
1050.14	513.18
1054.56	508.957
1058.98	618.121
1063.4	456.062
1067.82	676.672
1072.23	553.481
1076.64	597.258
1081.05	659.152
1085.45	650.961
1089.85	880.664
1094.25	928.441
1098.65	840.656
1103.04	912.93
1107.43	1028.14
1111.82	954.488
1116.21	980.336
1120.59	1105.16
1124.97	1144.67
1129.35	1136.02
1133.73	951.453
1138.1	866.676
1142.47	510.996
1146.84	639.625
1151.21	7.75391
1155.57	106.519
1159.93	11.4648
1164.29	239.777
1168.64	8.08984
1172.99	230.059
1177.34	286.316
1181.69	91.5352
1186.04	314.773
1190.38	214.773
1194.72	234.477
1199.05	157.727
1203.39	353.711
1207.72	139.172
1212.05	380.691
1216.37	155.023
1220.7	436.883
1225.02	479.5
1229.34	178.258
1233.65	400.578
1237.97	175.812
1242.28	32.3867
1246.59	426.297
1250.89	7.00391
1255.19	55.1133
1259.49	46.3164
1263.79	381.703
1268.09	278.43
1272.38	81.9766
1276.67	127.41
1280.95	251.242
1285.24	289.797
1289.52	14.9102
1293.8	188.43
1298.08	314.363
1302.35	296.148
1306.62	201.332
1310.89	378.398
1315.15	356.398
1319.42	246.258
1323.68	397.148
1327.94	381.406
1332.19	450.516
1336.44	216.625
1340.69	296.523
1344.94	222.594
1349.19	592.238
1353.43	296.762
1357.67	219.492
1361.9	192.695
1366.14	97.8125
1370.37	404.742
1374.6	81.2344
1378.83	136.098
1383.05	250.644
1387.27	333.07
1391.49	280.356
1395.7	256.129
1399.92	182.695
1404.13	314.484
1408.34	15.5
1412.54	12.8633
1416.74	417.293
1420.94	150.629
1425.14	232.891
1429.34	307.356
1433.53	322.566
1437.72	358.047
1441.9	140.5
1446.09	243.203
1450.27	319.473
1454.45	446.93
1458.63	339.336
1462.8	437.641
1466.97	27.6992
1471.14	140.652
1475.31	76.3594
1479.47	69.168
1483.63	129.082
1487.79	177.496
1491.94	388.137
1496.09	79.918
1500.24	191.832
1504.39	301.016
1508.54	189.871
1512.68	271.695
1516.82	122.914
1520.95	215.172
1525.09	155.231
1529.22	91.2695
1533.35	511.969
1537.47	427.164
1541.6	633.734
1545.72	441.844
1549.83	273.891
1553.95	214.785
1558.06	185.934
1562.17	250.789
1566.28	318.441
1570.38	23.4492
