Measurement: Raman, 514 nm, depolarized, Raman Data Processed
Mineral: Trilithionite
Rruff sample: R040105
Ideal chemistry: KLi_1.5_Al_1.5_(Si_3_Al)O_10_F_2_
Locality: Brown Derby mine, Ohio City, Gunnison County, Colorado, USA
Source: University of Arizona Mineral Museum
Description: Purple hexagonal tablet
Measured chemistry: (K_0.82_Li_0.14_Na_0.04_)(Li_0.53_Al_0.42_Mn_0.05_)_3_(Si_0.84_Al_0.17_)_4_O_10_((OH)_0.59_F_0.41_)_2_
Pin_id: L01837
Orientation: Laser parallel to -b* (0 -1 0). Fiducial mark perpendicular to laser is parallel to c [0 0 1]
Raman shift (cm-1)	intensity
139.043	0
143.956	68.7519
148.867	16.1875
153.775	308.928
158.681	259.207
163.585	663.598
168.486	1022.9
173.385	2434.18
178.282	3359.76
183.176	3691.65
188.067	3178.26
192.956	2296.74
197.843	1803.72
202.727	1688.76
207.609	1528.73
212.489	1289.52
217.366	1670.09
222.24	1671.63
227.112	1677.6
231.982	2352.94
236.849	2817.44
241.714	2981.79
246.577	3376.82
251.437	3603.67
256.294	4005.45
261.149	4157.05
266.002	3380.26
270.852	2485.86
275.7	1833.69
280.545	1182.72
285.388	808.865
290.229	813.85
295.067	594.633
299.902	421.033
304.735	422.269
309.566	387.049
314.394	304.748
319.22	297.168
324.043	56.8281
328.864	49.373
333.682	158.547
338.498	152.539
343.311	8.58984
348.122	12.2266
352.931	60.1133
357.737	68.5352
362.54	63.8574
367.341	27.7598
372.14	146.42
376.936	119.326
381.73	283.514
386.521	318.275
391.31	397.377
396.096	433.502
400.88	454.562
405.661	757.586
410.44	819.648
415.216	376.746
419.99	347.873
424.761	263.029
429.53	251.231
434.297	74.6231
439.061	479.211
443.822	156.922
448.581	302.725
453.337	221.592
458.091	451.508
462.843	361.453
467.592	279.91
472.338	448.584
477.082	528.438
481.824	239.49
486.563	357.463
491.3	17.5566
496.034	11.6914
500.765	25.5137
505.494	73.9434
510.221	267.025
514.945	14.7422
519.666	128.393
524.385	27.5918
529.102	34.5293
533.816	202.728
538.527	367.002
543.236	300.26
547.943	457.592
552.647	811.996
557.348	990.506
562.047	990.346
566.744	1155.44
571.438	800.568
576.129	692.723
580.818	406.885
585.504	405.041
590.188	434.277
594.87	273.502
599.549	141.717
604.225	409.922
608.899	341.236
613.57	520.619
618.239	171.082
622.905	318.697
627.569	365.467
632.23	226.717
636.889	88.4004
641.545	2.74219
646.198	181.078
650.849	291.301
655.498	246.404
660.144	529.248
664.787	453.812
669.428	481.516
674.067	1023.03
678.703	1005.49
683.336	1331.43
687.967	1759.38
692.595	2948.02
697.221	4504.78
701.844	7383.68
706.465	10427.6
711.083	10970.5
715.698	7489.09
720.311	4388.68
724.922	2386.44
729.53	1489.8
734.135	1144.8
738.738	759.219
743.338	841.207
747.936	578.93
752.531	863.871
757.124	472.172
761.714	394.219
766.302	348.016
770.887	518.84
775.469	184.848
780.049	401.805
784.626	443.457
789.201	405.102
793.773	339.148
798.343	308.922
802.91	39.4922
807.475	5.5
812.037	167.824
816.596	245.41
821.153	154.324
825.707	286.496
830.259	20.2773
834.808	89.5547
839.355	45.582
843.899	123.082
848.441	151.195
852.98	392.941
857.516	153.359
862.05	239.402
866.581	101.707
871.11	501.938
875.636	261.828
880.159	79.3438
884.68	176.246
889.199	177.781
893.714	52.8828
898.228	320.59
902.738	56.8555
907.246	182.801
911.752	74.668
916.255	119.25
920.755	85.6914
925.253	172.887
929.748	10.8047
934.241	6.62109
938.731	341.938
943.218	305.371
947.703	399.898
952.186	371.184
956.665	476.465
961.142	224.637
965.617	246.527
970.089	526.75
974.558	271.961
979.025	218.488
983.489	365.352
987.951	286.168
992.41	261.543
996.866	408.672
1001.32	338.535
1005.77	334.215
1010.22	583.863
1014.67	367.371
1019.11	383.606
1023.55	505.34
1027.99	362.926
1032.42	379.039
1036.86	261.703
1041.29	11.1328
1045.72	332.449
1050.14	449.844
1054.56	616.918
1058.98	562.383
1063.4	751.535
1067.82	934.625
1072.23	875.477
1076.64	1003.04
1081.05	1107.25
1085.45	981.656
1089.85	1143.3
1094.25	1317.45
1098.65	1056.7
1103.04	1399.53
1107.43	1146.94
1111.82	1414.03
1116.21	1332.23
1120.59	1729.97
1124.97	1785.31
1129.35	1698.18
1133.73	1930.31
1138.1	1560.99
1142.47	680.93
1146.84	550.602
1151.21	467.848
1155.57	531.844
1159.93	244.824
1164.29	218.402
1168.64	206.559
1172.99	169.633
1177.34	198.172
1181.69	366.781
1186.04	28.7852
1190.38	323.156
1194.72	381.125
1199.05	66.1562
1203.39	200.344
1207.72	313.981
1212.05	201.207
1216.37	245.508
1220.7	445.082
1225.02	428.453
1229.34	52.8203
1233.65	2.69141
1237.97	343.617
1242.28	468.902
1246.59	319.285
1250.89	326.691
1255.19	49.1953
1259.49	9.35156
1263.79	240.238
1268.09	318.769
1272.38	97.3672
1276.67	266.926
1280.95	247.191
1285.24	313.523
1289.52	422.191
1293.8	195.891
1298.08	238.414
1302.35	93.9531
1306.62	224.348
1310.89	81.9961
1315.15	293.516
1319.42	397.172
1323.68	312.672
1327.94	786.215
1332.19	502.734
1336.44	99.5547
1340.69	267.062
1344.94	61.2266
1349.19	242.738
1353.43	346.606
1357.67	285.051
1361.9	417.184
1366.14	503.719
1370.37	121.445
1374.6	343.242
1378.83	54.9727
1383.05	234.527
1387.27	157.797
1391.49	293.812
1395.7	101.113
1399.92	601.34
1404.13	152.559
1408.34	206.5
1412.54	87.4062
1416.74	22.1523
1420.94	267.766
1425.14	308.402
1429.34	280.176
1433.53	11.8867
1437.72	49.168
1441.9	92.0859
1446.09	166.91
1450.27	359.211
1454.45	111.984
1458.63	433.18
1462.8	21.4297
1466.97	305.758
1471.14	246.793
1475.31	226.723
1479.47	353.012
1483.63	229.84
1487.79	215.188
1491.94	398.656
1496.09	324.418
1500.24	432.887
1504.39	115.777
1508.54	234.965
1512.68	81.5117
1516.82	437.867
1520.95	248.418
1525.09	298.301
1529.22	383.648
1533.35	261.16
1537.47	521.836
1541.6	328.219
1545.72	294.266
1549.83	276.785
1553.95	146.016
1558.06	146.109
1562.17	79.3477
1566.28	237.961
1570.38	1.19531
