Measurement: Raman, , ccw, Raman Data Processed
Mineral: Trilithionite
Rruff sample: R040101
Ideal chemistry: KLi_1.5_Al_1.5_(Si_3_Al)O_10_F_2_
Locality: Zambezi Region, Mozambique
Source: University of Arizona Mineral Museum
Description: Aggregate of purple hexagonal plates, polytype is 2M1
Measured chemistry: (K_0.84_Li_0.13_Na_0.02_)(Li_0.54_Al_0.44_Mn_0.02_)_3_(Si_0.82_Al_0.18_)_4_O_10_F_2.00_
Pin_id: L00071
Orientation: Laser parallel to c* (0 0 1). Fiducial mark perpendicular to laser is parallel to a [1 0 0]
Raman shift (cm-1)	intensity
142.392	0
147.298	139.238
152.202	159.473
157.104	100.262
162.003	463.426
166.9	1473.82
171.794	3780.51
176.687	6650.04
181.576	8443.07
186.464	8376.68
191.349	10476.8
196.232	15401.2
201.113	17567.5
205.991	14228.3
210.867	12042
215.74	11922.1
220.611	8198.46
225.48	3114.35
230.347	1246.18
235.211	711.801
240.073	2374.53
244.932	5739.37
249.789	12510.1
254.644	28540.2
259.496	55993.9
264.346	77807.6
269.193	61173.4
274.038	32314.1
278.881	15926.4
283.722	8519.01
288.56	5544.34
293.395	3287.96
298.228	2766.02
303.059	2634.05
307.888	2284
312.714	2210.08
317.538	2056.05
322.359	2284.98
327.178	1708.15
331.994	1133.72
336.808	701.016
341.62	154.922
346.429	83.6406
351.236	291
356.04	1180.44
360.842	2942.37
365.642	4467.19
370.439	7099.87
375.233	10604.4
380.026	13744.1
384.816	15303.7
389.603	17135.5
394.388	20365.8
399.17	24417.8
403.951	27298.8
408.728	26954.6
413.503	22648
418.276	17782.9
423.046	12897.4
427.814	10582.4
432.58	7368.94
437.343	5373.17
442.103	3598.21
446.861	2662.8
451.617	1536.69
456.37	858.711
461.12	853.688
465.869	525.5
470.614	1013.02
475.357	1065.15
480.098	1728.78
484.836	1159.15
489.572	712.828
494.306	566.914
499.036	34.5312
503.765	425.469
508.491	237.117
513.214	432.742
517.935	153.039
522.653	284.82
527.369	17.6172
532.082	524.391
536.793	766.477
541.502	810.305
546.207	1077.06
550.911	1698.61
555.612	2719.3
560.31	2795.73
565.006	2747.99
569.699	2223.79
574.39	1532.81
579.078	1299.01
583.764	1080.09
588.447	703.938
593.128	1000.32
597.806	1053.12
602.481	1677.21
607.154	2207.55
611.825	3480.81
616.493	4577.76
621.159	6577.55
625.822	8783.45
630.482	10767.4
635.14	11250.4
639.795	10514.4
644.448	9057.57
649.098	7198.62
653.746	5505.81
658.391	5282.98
663.033	4040.19
667.673	4742.17
672.311	5490.52
676.946	6995.02
681.578	9163.34
686.208	13741.1
690.835	20308.9
695.46	30067
700.082	41054.9
704.701	48433.9
709.318	47038
713.932	38634.4
718.544	23923
723.153	13643.2
727.76	8991.34
732.364	7438.14
736.965	7335.05
741.564	9314.73
746.16	12268.8
750.754	14580.1
755.345	14494.2
759.933	12963
764.519	10265.8
769.102	6969.31
773.683	4974.68
778.261	3226.08
782.836	2655.59
787.409	2029.49
791.979	1396.77
796.547	1502.69
801.112	909.469
805.675	573.102
810.234	513.742
814.791	149.906
819.346	133.32
823.898	159.531
828.447	318.18
832.994	194.422
837.538	229.164
842.079	205.648
846.618	5.49219
851.154	266.453
855.688	1.88281
860.219	131.859
864.747	105.984
869.273	290.359
873.796	468.211
878.316	464.117
882.834	703.656
887.349	818.203
891.861	1238.38
896.371	2394.91
900.878	3822.77
905.382	5316.01
909.884	6839.53
914.383	7846.98
918.88	7641.24
923.374	5769.25
927.865	4844.67
932.354	4330.94
936.839	3536.69
941.323	3885.83
945.803	4199.34
950.281	5368.76
954.756	5754.09
959.229	6088.23
963.699	5181.39
968.166	3603.19
972.63	2662.59
977.092	2411.32
981.551	1962.99
986.008	1682.81
990.461	1639.8
994.913	1880.47
999.361	1603.45
1003.81	2225.96
1008.25	1546.6
1012.69	1985.45
1017.13	2061.08
1021.56	2378.86
1025.99	2552.12
1030.42	1988.98
1034.85	1904.09
1039.28	1688.42
1043.7	1989.21
1048.12	2605.24
1052.53	3453.16
1056.95	3809.88
1061.36	4071.36
1065.76	3809.94
1070.17	3241.91
1074.57	3503.66
1078.97	3633.56
1083.37	3756.97
1087.76	4317.31
1092.15	4496.72
1096.54	5006.89
1100.93	5326.34
1105.31	6360.74
1109.69	6696.78
1114.07	7135.09
1118.45	6550.42
1122.82	5788.25
1127.19	4897.51
1131.56	3985.23
1135.92	2794.76
1140.28	2198.08
1144.64	1767.09
1149	1468.69
1153.35	157.742
1157.7	175.828
1162.05	66.2031
1166.4	378.484
1170.74	712.141
1175.08	297.812
1179.42	486.539
1183.75	46.0703
1188.08	200.68
1192.41	5.66406
1196.74	314.047
1201.06	192.672
1205.38	346.328
1209.7	252.227
1214.01	398.25
1218.33	591.25
1222.64	328.992
1226.94	595.891
1231.25	92.2969
1235.55	91.2812
1239.85	171.609
1244.14	257.406
1248.44	398.617
1252.73	1087.98
1257.01	1177.66
1261.3	1413.36
1265.58	763.797
1269.86	891.547
1274.14	465.75
1278.41	571.398
1282.68	381.633
1286.95	1017.37
1291.21	55.4453
1295.48	691.938
1299.74	695.734
1303.99	539.062
1308.25	912.578
1312.5	865.297
1316.75	855.289
1320.99	293.727
1325.23	1334.24
1329.48	769.719
1333.71	1001.54
1337.95	799.398
1342.18	392.664
1346.41	598
1350.63	481.602
1354.86	290.781
1359.08	430.336
1363.3	825.023
1367.51	810.438
1371.72	287.742
1375.93	255.188
1380.14	567.5
1384.34	587.977
1388.55	571.281
1392.74	219.914
1396.94	631.828
1401.13	618.039
1405.32	812.617
1409.51	541.422
1413.69	309.93
1417.87	196.547
1422.05	455.484
1426.23	335.039
1430.4	497.336
1434.57	440.633
1438.74	568.141
1442.9	1425.2
1447.06	356.898
1451.22	1306.39
1455.38	968.445
1459.53	674
1463.68	723.266
1467.83	141.781
1471.97	504.062
1476.12	463.297
1480.26	35.3281
1484.39	314.922
1488.53	533.656
1492.66	228.656
1496.78	239.984
1500.91	561.375
1505.03	460.078
1509.15	52.5781
1513.27	473.875
1517.38	573.031
1521.49	706.922
1525.6	46.7969
1529.7	700.344
1533.81	213.953
1537.9	376.859
1542	376.625
1546.09	87.1719
1550.18	71.6094
1554.27	514.484
1558.36	685.156
1562.44	535.984
1566.52	58.2344
1570.6	458.156
1574.67	164.125
1578.74	0
