Measurement: Raman, 514 nm, ccw, Raman Data Processed
Mineral: Trilithionite
Rruff sample: R040105
Ideal chemistry: KLi_1.5_Al_1.5_(Si_3_Al)O_10_F_2_
Locality: Brown Derby mine, Ohio City, Gunnison County, Colorado, USA
Source: University of Arizona Mineral Museum
Description: Purple hexagonal tablet
Measured chemistry: (K_0.82_Li_0.14_Na_0.04_)(Li_0.53_Al_0.42_Mn_0.05_)_3_(Si_0.84_Al_0.17_)_4_O_10_((OH)_0.59_F_0.41_)_2_
Pin_id: L00700
Orientation: Laser parallel to (1 0 1). Fiducial mark perpendicular to laser is parallel to b [0 1 0]
Raman shift (cm-1)	intensity
147.699	0
152.631	113.41
157.56	1548.5
162.487	6966.16
167.411	18133.6
172.332	35654.3
177.25	54529
182.165	60834.6
187.078	51004.3
191.987	37601.2
196.894	28387.1
201.798	23477.9
206.699	21099.3
211.598	21668.2
216.493	23474.7
221.386	27440.7
226.276	31751.7
231.163	38525.5
236.048	45686.8
240.929	51905.6
245.808	55565.2
250.684	55848.9
255.557	56484.2
260.428	54967.4
265.295	48390.4
270.16	36016.8
275.022	24687.9
279.882	16458.7
284.738	12092.1
289.592	8727.38
294.443	6679.45
299.291	5311.71
304.136	4036.4
308.978	3029.27
313.818	1854.4
318.655	1056.62
323.489	511.672
328.321	254.793
333.15	669.914
337.976	983.137
342.799	1034.41
347.619	754.117
352.437	862.738
357.252	845.688
362.064	106.898
366.873	848.184
371.68	1994.71
376.483	3539.58
381.284	5172.44
386.083	7555.89
390.878	9738.51
395.671	11955.3
400.461	14120.7
405.249	15221.6
410.033	13970.6
414.815	10743.1
419.594	7584.18
424.37	6068.02
429.144	6016.7
433.915	7214.38
438.683	8808.15
443.448	9815.98
448.211	10548.4
452.971	10675.5
457.728	9733.1
462.483	8946.03
467.235	8192.8
471.984	8239.82
476.73	7862.01
481.474	5712.41
486.214	3305.88
490.953	1305.38
495.688	14.5508
500.421	888.383
505.151	568.863
509.878	524.082
514.603	408.977
519.325	1379.12
524.044	1603.43
528.76	2267.72
533.474	2462.86
538.185	3451.26
542.894	5182.2
547.599	8946.41
552.302	12500.5
557.003	17292.6
561.7	21052.5
566.395	19498.9
571.087	14404.6
575.777	9303.27
580.464	5823.22
585.148	4407.46
589.829	3938.11
594.508	3457.73
599.184	3165.5
603.858	4163.53
608.528	4050.36
613.197	4758.7
617.862	6518.17
622.525	9117.42
627.185	12063.6
631.842	8360.29
636.497	5928.88
641.149	6900.97
645.798	9420.62
650.445	10908.6
655.089	10447.8
659.73	8639.43
664.369	7684
669.005	8223
673.639	10242.5
678.269	13675.6
682.898	19620.8
687.523	28440.7
692.146	43086
696.766	70121.8
701.384	115258
705.998	169189
710.611	175353
715.22	113979
719.827	58623.8
724.431	31415.5
729.033	18407.5
733.632	12387
738.229	9170.91
742.822	8088.06
747.413	8323.43
752.002	8434.96
756.588	7571.53
761.171	5969.02
765.752	4266.24
770.33	2822.03
774.905	3264.22
779.478	4554.34
784.048	5286.83
788.615	3857
793.18	2767.62
797.742	1525.94
802.302	19.6523
806.859	709.906
811.414	1194.36
815.965	1091.01
820.515	730.113
825.061	235.16
829.605	157.348
834.147	1035.86
838.686	1923.53
843.222	3077.45
847.755	3999.59
852.286	4125.95
856.815	6200.5
861.341	8743.24
865.864	6401.14
870.384	3658.2
874.902	2920.41
879.418	2378.77
883.931	2527.25
888.441	2198.87
892.949	2320.62
897.454	2681.53
901.956	2520.14
906.456	2557.02
910.954	2066.16
915.448	1406.48
919.941	642.957
924.43	456.535
928.917	862.039
933.402	700.711
937.884	356.805
942.363	128.203
946.84	67.918
951.314	66.918
955.786	707.816
960.255	299.992
964.722	1015.38
969.186	1616.71
973.647	2055.77
978.106	1870.65
982.562	1884.41
987.016	3754.1
991.467	4784.75
995.916	8413.4
1000.36	17699.1
1004.8	20250.9
1009.25	7775.83
1013.68	5064.95
1018.12	5246.3
1022.55	6765.76
1026.98	6478.89
1031.41	5699.15
1035.84	4601.53
1040.26	3889.57
1044.68	4295.19
1049.1	5075.32
1053.52	6104.77
1057.93	6742
1062.34	7993.75
1066.75	9500.96
1071.15	11623.3
1075.56	13808
1079.96	16338.4
1084.36	18358
1088.75	17891
1093.14	17328
1097.53	17439.6
1101.92	17995.3
1106.31	18942.9
1110.69	20815.3
1115.07	21289.3
1119.45	23373.2
1123.82	24696.7
1128.2	26055
1132.57	24146
1136.93	17905.8
1141.3	9666.41
1145.66	3301.85
1150.02	1274.14
1154.38	509.238
1158.74	46.8867
1163.09	170.5
1167.44	66.0039
1171.79	62.6836
1176.13	51.6094
1180.48	424.977
1184.82	354.641
1189.15	955.262
1193.49	633.734
1197.82	546.348
1202.15	128.871
1206.48	645.828
1210.81	404.269
1215.13	36.3242
1219.45	55.8086
1223.77	257.559
1228.08	1007.53
1232.4	1330.19
1236.71	2165.22
1241.02	2161.84
1245.32	1872.65
1249.62	2487.65
1253.92	2105.85
1258.22	1841.38
1262.52	2715.53
1266.81	3765.62
1271.1	5023.13
1275.39	6338.27
1279.68	6552.73
1283.96	7750.75
1288.24	9134.91
1292.52	9223.35
1296.8	9594.27
1301.07	8219.9
1305.34	7426.57
1309.61	8375.31
1313.88	7962.08
1318.14	6886.16
1322.4	5802.1
1326.66	3506.72
1330.92	2366.05
1335.17	995.141
1339.42	563.856
1343.67	1085.11
1347.92	702.102
1352.16	432.731
1356.41	236.465
1360.64	177.441
1364.88	274.781
1369.12	283.156
1373.35	551.781
1377.58	1094.72
1381.81	1115.94
1386.03	1148.16
1390.25	1164.5
1394.47	272.367
1398.69	187.461
1402.91	75.4766
1407.12	141.828
1411.33	478.867
1415.54	1019.2
1419.74	1560.29
1423.95	1639.75
1428.15	3197.27
1432.35	6425.19
1436.54	10419
1440.74	15444.8
1444.93	16516.8
1449.12	16266.7
1453.3	16683.5
1457.49	15679.2
1461.67	13148.2
1465.85	10034
1470.02	7182.66
1474.2	5762.53
1478.37	4798.44
1482.54	4625.23
1486.71	3195.13
1490.87	1462.62
1495.03	1108.02
1499.19	1784.57
1503.35	178.539
1507.51	267.441
1511.66	267.383
1515.81	3.28516
1519.96	551.82
1524.1	430.375
1528.25	341.938
1532.39	870.594
1536.53	1142.81
1540.66	703.367
1544.8	783.394
1548.93	781.144
1553.06	773.988
1557.18	417.582
1561.31	608.227
1565.43	46.8984
1569.55	1492.69
1573.67	241.984
1577.78	123.828
