Measurement: Raman, 514 nm, ccw, Raman Data Processed
Mineral: Trilithionite
Rruff sample: R040105
Ideal chemistry: KLi_1.5_Al_1.5_(Si_3_Al)O_10_F_2_
Locality: Brown Derby mine, Ohio City, Gunnison County, Colorado, USA
Source: University of Arizona Mineral Museum
Description: Purple hexagonal tablet
Measured chemistry: (K_0.82_Li_0.14_Na_0.04_)(Li_0.53_Al_0.42_Mn_0.05_)_3_(Si_0.84_Al_0.17_)_4_O_10_((OH)_0.59_F_0.41_)_2_
Pin_id: L00700
Orientation: Laser parallel to (1 0 1). Fiducial mark perpendicular to laser is parallel to b [0 1 0]
Raman shift (cm-1)	intensity
145.232	0
150.165	126.5
155.096	209.852
160.024	116.098
164.949	804.957
169.872	1824.23
174.791	4313.85
179.708	6304.55
184.622	5851.25
189.533	4407.23
194.441	2722.69
199.347	1866.06
204.249	1229.36
209.149	1284.41
214.046	1783.03
218.94	2379.58
223.832	3357.02
228.72	5052.76
233.606	7407.65
238.489	11069.4
243.369	13660.9
248.247	17012
253.121	20258.9
257.993	24027.1
262.862	24506.6
267.728	20477.2
272.592	14608.5
277.452	10168
282.31	7044.65
287.165	5404.75
292.017	5374.34
296.867	4733.07
301.714	4543.71
306.558	4330.22
311.399	4024.48
316.237	3095.56
321.073	2349.25
325.906	1814.07
330.736	1085.77
335.563	393.133
340.387	250.391
345.209	284.816
350.028	614.914
354.844	231.992
359.658	284.977
364.469	1004.04
369.277	1503.53
374.082	2344.86
378.884	3022.97
383.684	4105.02
388.481	5939.47
393.275	7550.65
398.066	9232.71
402.855	10037.5
407.641	10094.5
412.424	8222.18
417.205	5909.4
421.983	4541.28
426.758	3538.91
431.53	3600.32
436.299	3872.54
441.066	4300.94
445.83	3817.54
450.591	3649.61
455.35	3574.89
460.106	3947.53
464.859	4184.38
469.609	4782.51
474.357	5768.44
479.102	5419.19
483.844	4073.25
488.584	2197.66
493.321	701.477
498.055	216.941
502.786	461.172
507.515	436.719
512.241	267.102
516.964	34.6641
521.685	349.219
526.402	947.828
531.118	1844.04
535.83	2493.86
540.54	3411.85
545.247	4903.04
549.951	6443.39
554.653	8317.91
559.352	10147.4
564.048	10214
568.742	8586.52
573.432	5849.15
578.121	3822.89
582.806	2523.75
587.489	2684.77
592.169	1793.98
596.847	1968.41
601.521	2351.08
606.193	2982.02
610.863	3117.26
615.53	3943.86
620.194	5189.07
624.855	7504.65
629.514	6403.02
634.17	3639.56
638.823	2903.73
643.474	3605.64
648.122	5264.4
652.767	5076.65
657.41	3912.12
662.05	3421.33
666.688	2875.23
671.322	4174.38
675.954	5748.43
680.584	9258.88
685.211	14027.3
689.835	21938.7
694.456	36322.2
699.075	60455.6
703.691	96553.3
708.305	117273
712.916	91094.4
717.524	50434.2
722.13	26571.1
726.733	15586
731.333	9864.79
735.931	7065.55
740.526	5483.23
745.118	4643.81
749.708	4817.28
754.295	3972.63
758.88	3241.86
763.462	2282.93
768.041	1560.81
772.618	1348.41
777.192	1815.73
781.763	2414.47
786.332	1950.71
790.898	1147.41
795.462	858.398
800.023	88.0391
804.581	715.481
809.137	552.519
813.69	615.547
818.24	172.848
822.788	49.168
827.334	355.617
831.876	709.098
836.416	1540.48
840.954	2385.07
845.489	3128.74
850.021	3315.29
854.551	4058.95
859.078	5990.78
863.602	5300.79
868.124	3389.97
872.644	2335.31
877.16	2031.81
881.675	1969.64
886.186	1705.64
890.695	1853.82
895.202	2046.78
899.705	2417.66
904.207	2197.8
908.705	2359.11
913.201	2428.07
917.695	2021.64
922.186	1908.26
926.674	1559.43
931.16	1906.68
935.643	1576.04
940.124	1481.65
944.602	1243.56
949.077	913.961
953.55	1139.43
958.021	615.211
962.489	404.977
966.954	621.129
971.417	27.1602
975.877	283.199
980.334	62.7461
984.789	617.965
989.242	1825.42
993.692	3973.71
998.139	9564.85
1002.58	16172.9
1007.03	6227.75
1011.47	1478.54
1015.9	1265.12
1020.34	2726.63
1024.77	3208.66
1029.2	2795.62
1033.63	2241.04
1038.05	1490.91
1042.47	1375.48
1046.89	1574.26
1051.31	1772.55
1055.72	1746.21
1060.14	2323.43
1064.55	3112.34
1068.95	3653.35
1073.36	5187.51
1077.76	6908.38
1082.16	8247.23
1086.55	8328.37
1090.95	7033.23
1095.34	6336.74
1099.73	6327.31
1104.12	6195.21
1108.5	6442
1112.88	6178.19
1117.26	5488.15
1121.64	4956.95
1126.01	4294.44
1130.38	3809.84
1134.75	2253.96
1139.12	958.18
1143.48	274.711
1147.84	336.938
1152.2	131.535
1156.56	465.086
1160.91	214
1165.27	136.883
1169.61	283.805
1173.96	692.656
1178.31	689.731
1182.65	382.445
1186.98	944.414
1191.32	991.098
1195.66	723.012
1199.99	233.16
1204.32	330.539
1208.64	120.93
1212.97	614.016
1217.29	782.894
1221.61	438.859
1225.93	702.914
1230.24	1460.06
1234.55	2007.63
1238.86	2069.47
1243.17	2100.94
1247.47	1716.48
1251.78	2090.71
1256.07	1786.77
1260.37	1944.96
1264.67	2825.71
1268.96	4053.14
1273.25	4655.45
1277.54	5524.52
1281.82	6608.33
1286.1	7471.88
1290.38	8049.23
1294.66	8324.6
1298.93	7199.68
1303.21	6546.09
1307.48	6598.85
1311.74	6695.96
1316.01	5582.36
1320.27	4495.03
1324.53	3243.04
1328.79	2203.43
1333.05	1326.21
1337.3	707.258
1341.55	670.16
1345.8	845.422
1350.04	348.711
1354.29	436.898
1358.53	36.4883
1362.76	103.758
1367	666.293
1371.23	212.301
1375.46	316.781
1379.69	656.562
1383.92	518.914
1388.14	232.379
1392.36	383.07
1396.58	112.832
1400.8	67.0977
1405.01	163.375
1409.22	199.094
1413.43	607.59
1417.64	1091.32
1421.85	1319.91
1426.05	2780.18
1430.25	4210.34
1434.44	8006.02
1438.64	11362.2
1442.83	13444.8
1447.02	12802.4
1451.21	13056.2
1455.39	12605.9
1459.58	11631.6
1463.76	8870.31
1467.94	6775.06
1472.11	4534.97
1476.28	3835.41
1480.45	3493.95
1484.62	3391.69
1488.79	1610.54
1492.95	629.832
1497.11	369.43
1501.27	67.125
1505.43	473.617
1509.58	36.457
1513.73	36.6445
1517.88	411.941
1522.03	287.141
1526.18	42.5703
1530.32	79.2422
1534.46	376.633
1538.6	7.27344
1542.73	224.769
1546.86	92.3281
1550.99	300.5
1555.12	580.199
1559.25	285.676
1563.37	191.453
1567.49	168.18
