Measurement: Raman, 514 nm, depolarized, Raman Data Processed
Mineral: Trilithionite
Rruff sample: R040105
Ideal chemistry: KLi_1.5_Al_1.5_(Si_3_Al)O_10_F_2_
Locality: Brown Derby mine, Ohio City, Gunnison County, Colorado, USA
Source: University of Arizona Mineral Museum
Description: Purple hexagonal tablet
Measured chemistry: (K_0.82_Li_0.14_Na_0.04_)(Li_0.53_Al_0.42_Mn_0.05_)_3_(Si_0.84_Al_0.17_)_4_O_10_((OH)_0.59_F_0.41_)_2_
Pin_id: L01598
Orientation: Laser parallel to c* (0 0 1). Fiducial mark perpendicular to laser is parallel to -a [-1 0 0]
Raman shift (cm-1)	intensity
151.321	0
156.229	165.986
161.134	184.652
166.036	586.848
170.936	1348.3
175.834	2518.68
180.729	2889.56
185.622	2246.88
190.512	1419.84
195.4	1197.73
200.286	974.203
205.169	916.07
210.049	240.926
214.928	622.68
219.803	750.168
224.677	941.752
229.548	1330.22
234.416	1950.84
239.282	2707.89
244.146	3938.23
249.007	5535.04
253.866	6956.07
258.722	8467.43
263.576	8763.3
268.427	6364.73
273.276	4011.39
278.123	2935.89
282.967	2050.06
287.809	1434.99
292.648	1261.77
297.485	1134.38
302.319	1103.52
307.151	968.945
311.98	851.701
316.807	465.715
321.631	424.26
326.454	285.031
331.273	25.248
336.09	101.914
340.905	217.277
345.717	84.125
350.527	35.7793
355.334	2.23438
360.139	138.49
364.941	498.629
369.741	590.758
374.538	857.051
379.333	1173.18
384.126	1685.31
388.916	2227.62
393.703	2784.29
398.488	3264.02
403.271	3819.97
408.051	3789.97
412.828	3020.22
417.603	2401.86
422.376	1955.21
427.146	1708.3
431.914	1936.14
436.679	2174.78
441.442	2324.21
446.202	2245.18
450.96	2154.67
455.715	1922.66
460.467	2019.67
465.218	1738.46
469.965	1978.02
474.711	2006.56
479.454	1716.26
484.194	1374.39
488.932	433.178
493.667	131.443
498.4	6.30469
503.13	280.85
507.858	4.98047
512.583	13.4414
517.306	55.4688
522.026	114.404
526.744	436.404
531.459	721.785
536.172	996.121
540.882	1627.61
545.59	1957.53
550.295	2425.56
554.998	2923.19
559.698	3509.15
564.396	3608.44
569.091	2937.06
573.784	2137.02
578.474	1261.33
583.162	978.994
587.847	831.018
592.529	715.139
597.209	785.184
601.887	874.35
606.562	1140.94
611.235	1108.03
615.905	1151.73
620.572	979.318
625.237	1251.18
629.9	764.981
634.56	475.467
639.217	272.398
643.872	239.121
648.524	324.084
653.174	462.922
657.821	536.371
662.466	736.295
667.108	882.164
671.748	1126.87
676.385	1919.8
681.02	2869.46
685.652	4635.76
690.281	7381.78
694.908	11881.5
699.533	19086.1
704.155	30238.9
708.774	36074.8
713.391	25760
718.005	13313.3
722.617	7556.74
727.226	4406.34
731.833	2828.05
736.437	1857.87
741.039	1818.79
745.638	1893.78
750.234	1978.83
754.828	1720.94
759.419	1400.07
764.008	810.221
768.595	821.346
773.178	531.416
777.759	788.436
782.338	713.473
786.914	794.871
791.488	441.449
796.059	330.359
800.627	130.385
805.193	68.8379
809.756	194.074
814.317	119.352
818.875	109.719
823.431	170.484
827.984	218.078
832.534	171.1
837.082	297.971
841.627	556.74
846.17	596.963
850.71	605.088
855.248	660.982
859.783	882.644
864.316	869.381
868.846	894.57
873.373	633.521
877.898	573.231
882.42	738.701
886.94	679.932
891.457	750.918
895.971	715.695
900.483	829.412
904.993	916.035
909.5	842.488
914.004	1070.77
918.505	878.939
923.004	778.174
927.501	822.254
931.995	953.457
936.486	929.09
940.975	704.9
945.461	865.625
949.945	702.111
954.426	550.201
958.904	410.555
963.38	237.83
967.853	4.78125
972.324	135.984
976.792	8.24805
981.258	46.4902
985.72	66.1621
990.181	219.879
994.639	54.3555
999.094	439.408
1003.55	1328.23
1008	481.111
1012.44	425.059
1016.89	558.078
1021.33	694.174
1025.77	791.424
1030.21	606.273
1034.64	651.436
1039.07	412.103
1043.5	514.332
1047.93	673.961
1052.35	1098.1
1056.78	1273.79
1061.19	1605.76
1065.61	2091.93
1070.02	2250.93
1074.43	2635.55
1078.84	3404.78
1083.25	3422.45
1087.65	3534.16
1092.05	3281.97
1096.45	3011.17
1100.85	2783.52
1105.24	2484.15
1109.63	2612.5
1114.02	2498.93
1118.4	2241.18
1122.78	2212.95
1127.16	2009.44
1131.54	1621.28
1135.92	1054.15
1140.29	842.066
1144.66	434.014
1149.02	290.994
1153.39	295.012
1157.75	187.047
1162.11	112.938
1166.46	208.607
1170.82	26.0156
1175.17	53.5059
1179.52	248.537
1183.86	229.33
1188.21	18.2598
1192.55	14.0332
1196.89	107.016
1201.22	16.7129
1205.55	188.318
1209.88	103.402
1214.21	243.531
1218.54	100.297
1222.86	195.484
1227.18	245.131
1231.5	143.582
1235.81	237.996
1240.12	270.385
1244.43	335.793
1248.74	687.207
1253.04	396.594
1257.34	419.019
1261.64	532.641
1265.94	649.266
1270.23	703.943
1274.52	947.731
1278.81	1067.52
1283.1	930.305
1287.38	932.059
1291.66	1457.89
1295.94	1747.37
1300.21	2283.03
1304.48	2335.2
1308.75	2180.04
1313.02	1674.42
1317.29	1379.52
1321.55	1012.42
1325.81	918.037
1330.06	432.103
1334.32	343.723
1338.57	484.787
1342.82	244.045
1347.06	211.254
1351.31	213.566
1355.55	351.438
1359.79	242.004
1364.02	316.715
1368.26	71.5703
1372.49	473.262
1376.71	316.805
1380.94	251.728
1385.16	325.377
1389.38	290.664
1393.6	47.5566
1397.81	16.9551
1402.02	189.644
1406.23	349.24
1410.44	488.973
1414.64	673.471
1418.85	979.158
1423.04	1056.82
1427.24	1318.39
1431.43	2098.78
1435.62	3574.58
1439.81	4433.73
1444	4600.69
1448.18	3869
1452.36	3613.61
1456.54	3699.01
1460.71	2879.3
1464.89	2149.21
1469.06	1697.4
1473.22	1042.98
1477.39	762.945
1481.55	644.824
1485.71	425.678
1489.86	511.486
1494.02	53.4961
1498.17	98.6816
1502.32	157.207
1506.46	43.5898
1510.61	47.584
1514.75	104.84
1518.88	361.883
1523.02	94.7031
1527.15	273.215
1531.28	60.5859
1535.41	155.217
1539.53	173.565
1543.66	9.83984
1547.78	96.8867
1551.89	264.959
1556.01	381.916
1560.12	240.891
1564.23	305.941
1568.33	122.607
