Measurement: Raman, 514 nm, depolarized, Raman Data Processed
Mineral: Trilithionite
Rruff sample: R040101
Ideal chemistry: KLi_1.5_Al_1.5_(Si_3_Al)O_10_F_2_
Locality: Zambezi Region, Mozambique
Source: University of Arizona Mineral Museum
Description: Aggregate of purple hexagonal plates, polytype is 2M1
Measured chemistry: (K_0.84_Li_0.13_Na_0.02_)(Li_0.54_Al_0.44_Mn_0.02_)_3_(Si_0.82_Al_0.18_)_4_O_10_F_2.00_
Pin_id: M00337
Orientation: Laser parallel to (1 0 1). Fiducial mark perpendicular to laser is parallel to b [0 1 0]
Raman shift (cm-1)	intensity
133.003	0
137.164	14.321
141.323	137.512
145.48	46.775
149.635	94.182
153.788	215.23
157.939	513.766
162.088	1395.77
166.235	2722.98
170.38	4910.51
174.523	7984.48
178.664	10952.5
182.803	12297.7
186.94	11552.8
191.076	10707
195.209	10306
199.34	8881.5
203.47	6818.53
207.597	5645.11
211.722	4932.24
215.846	4849.88
219.967	4451.4
224.087	4175.88
228.204	4449.78
232.32	5231.43
236.434	6493.07
240.545	8259.43
244.655	10131.7
248.763	11550.3
252.869	14113.5
256.973	19426.1
261.075	23555.2
265.175	21733.8
269.273	14611.7
273.369	8542.04
277.463	5135.67
281.556	3333.64
285.646	2526.92
289.734	2022.53
293.821	1801.48
297.905	1591.14
301.988	1570.81
306.069	1317.33
310.147	1001.29
314.224	716.516
318.299	497.171
322.372	442.012
326.443	350.857
330.512	66.553
334.579	56.664
338.645	113.783
342.708	190.325
346.769	200.642
350.829	129.64
354.887	257.925
358.942	119.79
362.996	509.912
367.048	751.286
371.098	1059.91
375.146	1420.79
379.192	1761.91
383.236	2050.28
387.279	2231.91
391.319	2737.8
395.358	3589.95
399.394	4714.18
403.429	5179.89
407.462	5254.96
411.493	4587.18
415.522	3603.64
419.549	2652.35
423.575	1972.3
427.598	1418.47
431.619	1018.88
435.639	1067.51
439.657	852.357
443.673	768.429
447.687	923.718
451.699	659.221
455.709	637.934
459.717	475.864
463.724	600.102
467.728	675.679
471.731	930.606
475.732	1185.84
479.731	947.342
483.728	653.084
487.723	280.059
491.716	86.249
495.708	32.161
499.697	235.568
503.685	143.423
507.671	203.733
511.655	96.671
515.637	20.425
519.617	278.416
523.596	487.863
527.572	561.834
531.547	860.28
535.52	909.107
539.491	1438.34
543.46	1820.95
547.427	2403.89
551.393	3196.14
555.356	4040.7
559.318	4502.56
563.278	4119.63
567.236	3346.05
571.192	2471.69
575.147	1551.53
579.099	1065.55
583.05	736.754
586.999	467.135
590.946	431.677
594.891	350.375
598.834	377.223
602.776	453.214
606.715	678.347
610.653	814.613
614.589	964.009
618.523	1129.53
622.456	1483.17
626.386	1709.92
630.315	2057.77
634.242	2161.72
638.167	1848.76
642.09	1893.88
646.012	1821.09
649.931	1766.36
653.849	1906.95
657.765	2084.92
661.679	2140.76
665.592	2138.16
669.502	2526.99
673.411	2848.56
677.318	3425.58
681.223	4416.34
685.126	5690.93
689.028	7776.09
692.927	10921.9
696.825	15154
700.721	20802
704.616	28831.8
708.508	37765.7
712.399	36528.7
716.288	23781.6
720.175	13197
724.06	7997.62
727.944	5158.68
731.825	4075.84
735.705	3441.21
739.584	3613.31
743.46	3899.99
747.334	4629.07
751.207	4686.02
755.078	4255.83
758.947	3835.49
762.815	3144
766.68	2464.36
770.544	1825.55
774.406	1580.59
778.267	1650.45
782.125	1700.14
785.982	1504.65
789.837	1261.98
793.69	867.134
797.542	696.093
801.391	391.859
805.239	210.431
809.085	176.94
812.93	6.518
816.772	0.085
820.613	150.264
824.452	28.039
828.29	117.393
832.125	51.551
835.959	98.446
839.791	18.272
843.621	46.196
847.45	11.057
851.277	80.734
855.102	77.143
858.925	20.762
862.746	36.565
866.566	76.457
870.384	3.063
874.2	17.722
878.015	81.938
881.828	426.319
885.639	167.446
889.448	97.309
893.256	108.91
897.061	325.287
900.865	448.461
904.668	541.456
908.468	623.272
912.267	787.824
916.064	747.213
919.86	766.2
923.653	695.295
927.445	643.028
931.236	545.564
935.024	584.913
938.811	460.102
942.596	659.121
946.379	730.927
950.161	962.521
953.94	1040.77
957.719	1188.14
961.495	1177.84
965.27	1230.22
969.043	1373.07
972.814	1292.09
976.583	1347.03
980.351	1256.83
984.117	1392.97
987.882	1503.25
991.644	1566.34
995.405	1549.84
999.165	1628.11
1002.92	1672.93
1006.68	1638.78
1010.43	1697.14
1014.18	1825.66
1017.93	1804.94
1021.68	1682.7
1025.43	1818.04
1029.18	1634.52
1032.92	1692
1036.66	1684.8
1040.4	1825.03
1044.14	2119.91
1047.88	2620.41
1051.62	3308.22
1055.35	3846.81
1059.08	4167.93
1062.81	3981.99
1066.54	3738.42
1070.27	3455.98
1073.99	3159.59
1077.72	3039.82
1081.44	2837.74
1085.16	2801.38
1088.88	2750.45
1092.59	2707.71
1096.31	2691.64
1100.02	2768.93
1103.73	2751.78
1107.44	3050.26
1111.15	3036.41
1114.86	3166.66
1118.57	3673.79
1122.27	3798.82
1125.97	4102.69
1129.67	4483.69
1133.37	4965.1
1137.07	5539.76
1140.76	5665.06
1144.45	4582.52
1148.15	2795.34
1151.84	1485.95
1155.53	894.875
1159.21	511.402
1162.9	360.271
1166.58	168.668
1170.26	224.3
1173.94	63.326
1177.62	135.581
1181.3	31.945
1184.97	24.579
1188.65	22.144
1192.32	48.512
1195.99	76.932
1199.66	13.628
1203.33	31.529
1206.99	48.302
1210.65	20.073
1214.32	27.626
1217.98	16.856
1221.64	59.893
1225.29	0.582
1228.95	19.7
1232.6	38.529
1236.26	4.476
1239.91	72.305
1243.56	64.702
1247.2	24.074
1250.85	120.271
1254.49	18.252
1258.13	21.927
1261.78	7.675
1265.41	42.395
1269.05	50.251
1272.69	37.362
1276.32	21.346
1279.95	46.236
1283.59	9.525
1287.21	74.359
1290.84	88.888
1294.47	63.106
1298.09	52.039
1301.72	38.653
1305.34	61.991
1308.96	54.047
1312.58	77.78
1316.19	16.54
1319.81	34.308
1323.42	88.864
1327.03	24.016
1330.64	68.738
1334.25	184.306
1337.86	77.507
1341.46	102.613
1345.07	132.565
1348.67	164.911
1352.27	136.47
1355.87	258.953
1359.46	215.435
1363.06	294.141
1366.65	329.446
1370.25	198.009
1373.84	205.654
1377.43	271.301
1381.02	198.486
1384.6	270.096
1388.18	225.743
1391.77	205.315
1395.35	301.137
1398.93	251.728
1402.51	218.072
1406.08	244.983
1409.66	109.604
1413.23	160.887
1416.8	213.055
1420.37	177.075
1423.94	206.611
1427.51	230.715
1431.08	234.221
1434.64	315.025
1438.2	339.514
1441.76	275.872
1445.32	197.264
1448.88	166.286
1452.43	198.428
1455.99	227.274
1459.54	283.303
1463.09	361.029
1466.64	266.995
1470.19	159.061
1473.74	322.051
1477.28	163.933
1480.83	309.464
1484.37	117.146
1487.91	122.042
1491.45	119.288
1494.98	164.244
1498.52	201.194
1502.05	11.181
1505.59	75.298
1509.12	85.067
1512.65	25.075
1516.17	178.725
1519.7	107.415
1523.23	0
