Measurement: Raman, 514 nm, ccw, Raman Data Processed
Mineral: Trilithionite
Rruff sample: R040101
Ideal chemistry: KLi_1.5_Al_1.5_(Si_3_Al)O_10_F_2_
Locality: Zambezi Region, Mozambique
Source: University of Arizona Mineral Museum
Description: Aggregate of purple hexagonal plates, polytype is 2M1
Measured chemistry: (K_0.84_Li_0.13_Na_0.02_)(Li_0.54_Al_0.44_Mn_0.02_)_3_(Si_0.82_Al_0.18_)_4_O_10_F_2.00_
Pin_id: L00071
Orientation: Laser parallel to c* (0 0 1). Fiducial mark perpendicular to laser is parallel to a [1 0 0]
Raman shift (cm-1)	intensity
146.072	0
150.977	56.3555
155.879	282.777
160.778	434.766
165.676	890.824
170.571	2274.13
175.464	4198.8
180.354	6573.58
185.242	7677.45
190.128	9656.53
195.012	15321.8
199.893	20375.8
204.772	17082.3
209.648	11962.7
214.522	10272.5
219.394	7438.52
224.263	3236.42
229.13	741.227
233.995	65.9375
238.857	1065.64
243.717	3355.92
248.575	8624.84
253.43	20465.6
258.283	44251.5
263.133	73646.6
267.982	72432.3
272.827	41642.3
277.671	20283.6
282.512	10059
287.35	5709.37
292.187	3071.73
297.02	2442.91
301.852	1978.29
306.681	1973.27
311.508	1661.93
316.332	1345.84
321.154	1535.92
325.973	1622.37
330.79	1035.57
335.605	389.047
340.417	30.5664
345.227	11.7891
350.034	50.0625
354.839	721.863
359.642	1886.23
364.442	3353.01
369.24	5990.78
374.035	9097.18
378.828	12701
383.618	14676.6
388.406	16057
393.192	19019.6
397.975	22799.7
402.756	27056.2
407.534	27743.9
412.31	24729.5
417.083	19545
421.854	14734.5
426.623	11032
431.389	8311.38
436.152	5908.77
440.913	3741.08
445.672	2673.38
450.428	1867.38
455.182	1034.89
459.933	745.785
464.682	521.856
469.428	774.231
474.172	1287.61
478.913	1773.98
483.652	1720.56
488.389	901.109
493.122	389.621
497.854	11.3398
502.583	402.934
507.309	323.875
512.033	453.481
516.755	281.414
521.474	206.359
526.19	515.594
530.904	767.988
535.616	1197.91
540.325	864.617
545.031	1141.87
549.735	1147.96
554.437	2094.77
559.136	2298.8
563.832	2473.27
568.526	1652.8
573.217	1296.88
577.906	978.305
582.593	1034.38
587.276	598.852
591.958	833.644
596.636	807.746
601.313	1263.2
605.986	2104.93
610.658	3006.9
615.326	4308.09
619.992	6281.47
624.656	8913.07
629.317	10915.1
633.976	12149.5
638.631	11872.2
643.285	10637.5
647.936	8158.18
652.584	7036.68
657.23	5333.42
661.873	4509.87
666.514	4315.52
671.152	4646.15
675.787	6143.04
680.42	7852.5
685.051	10970.9
689.678	16725.3
694.304	25378.8
698.926	35708.8
703.546	44864.2
708.164	44787.6
712.779	37753.7
717.391	25735.4
722.001	16670.5
726.608	8642.09
731.213	6941.73
735.815	6807.69
740.414	8037.52
745.011	11048.3
749.606	14303.8
754.197	15137.2
758.786	13740.8
763.373	11507.5
767.957	8765.41
772.538	6001.5
777.117	4056.82
781.693	2605.69
786.266	2261.64
790.837	1510.06
795.405	1303.38
799.971	1329.28
804.534	322.758
809.095	201.602
813.652	434.426
818.208	280.824
822.76	220.426
827.31	395.418
831.857	433.43
836.402	508.852
840.944	177.824
845.484	68.3867
850.021	82.0117
854.555	351.231
859.086	477.461
863.615	590.996
868.141	393.902
872.665	362.121
877.186	418.594
881.704	436.449
886.22	756.727
890.733	1334.46
895.244	1884.69
899.751	3288.43
904.257	4822.74
908.759	6595.88
913.259	8230
917.756	7895.67
922.251	6637.47
926.742	5307.59
931.232	4546.4
935.718	3442.45
940.202	3789
944.683	4378.34
949.162	5076.94
953.638	6547.71
958.111	6421.43
962.581	5967.16
967.049	4657.27
971.514	3671.91
975.977	2886.38
980.437	2886.16
984.894	2882.69
989.348	3006.56
993.8	3045.41
998.249	3253.15
1002.7	3905.22
1007.14	3590.27
1011.58	3456.21
1016.02	3728.16
1020.45	4300.94
1024.89	4169.05
1029.32	3609.63
1033.74	2574.12
1038.17	2555.98
1042.59	2336.38
1047.01	2887.67
1051.43	3886.01
1055.84	4299.1
1060.25	4522.75
1064.66	4214.66
1069.07	3629.48
1073.47	3428.71
1077.87	3603.12
1082.27	3790.32
1086.66	3635.51
1091.06	3845.72
1095.45	4114.12
1099.83	4688.25
1104.22	5445.33
1108.6	6198.3
1112.98	6357.9
1117.36	6127.81
1121.73	5447.04
1126.1	4656.54
1130.47	3707.91
1134.83	2545
1139.19	1525
1143.55	1336.93
1147.91	775.695
1152.27	383.297
1156.62	312.707
1160.96	323.91
1165.31	101.883
1169.65	120.406
1173.99	97.1523
1178.33	2.32812
1182.67	10.8047
1187	107.242
1191.33	139.602
1195.66	69.6758
1199.98	135.332
1204.3	508.531
1208.62	15.8164
1212.94	168.672
1217.25	73.8906
1221.56	51.7422
1225.87	12.6172
1230.17	261.727
1234.47	497.09
1238.77	286.727
1243.07	453.82
1247.36	221.5
1251.65	297.711
1255.94	230.438
1260.23	510.805
1264.51	561.422
1268.79	744.688
1273.07	584.477
1277.34	972.812
1281.61	962.648
1285.88	635.047
1290.15	483.727
1294.41	840.047
1298.67	493.008
1302.93	751.047
1307.18	904.766
1311.43	795.969
1315.68	1140.56
1319.93	969.766
1324.17	1060.88
1328.42	1213.39
1332.65	282.062
1336.89	387.797
1341.12	448.875
1345.35	320.875
1349.58	522.133
1353.8	56.4375
1358.02	286.398
1362.24	201.078
1366.46	724.695
1370.67	648.688
1374.88	484.227
1379.09	453.93
1383.29	852.523
1387.49	465.094
1391.69	595.383
1395.89	559.102
1400.08	920.688
1404.27	675.531
1408.46	840.211
1412.65	492.773
1416.83	75.625
1421.01	46.0859
1425.18	43.8438
1429.36	639.562
1433.53	640.906
1437.7	903.617
1441.86	1661.47
1446.02	1890.73
1450.18	2003.59
1454.34	2034.49
1458.49	2172.86
1462.64	1550.14
1466.79	1609.88
1470.94	775.656
1475.08	627.836
1479.22	970.711
1483.36	389.352
1487.49	580.844
1491.62	92.25
1495.75	153.32
1499.88	411.289
1504	161.969
1508.12	523.602
1512.24	282.789
1516.35	498.773
1520.46	298.57
1524.57	383.203
1528.68	625.938
1532.78	251.664
1536.88	585.68
1540.98	649.82
1545.07	267.062
1549.16	145.727
1553.25	819.117
1557.34	878.383
1561.42	583.055
1565.5	181.656
