Measurement: Raman, 514 nm, ccw, Raman Data Processed
Mineral: Triplite
Rruff sample: R050226
Ideal chemistry: Mn^2+^_2_(PO_4_)F
Locality: Fremont County, Colorado, USA
Source: Marcus Origlieri
Description: Reddish brown massive
Measured chemistry: (Mn^2+^_1.20_Mg_0.49_Fe^2+^_0.27_Ca_0.04_)_Σ=2_(P_1.00_O_4_)(F_0.95_(OH)_0.05_)_Σ=1_
Pin_id: L00496
Orientation: Laser parallel to a* (1 0 0). Fiducial mark perpendicular to laser is parallel to b [0 1 0]
Raman shift (cm-1)	intensity
130.121	0
135.033	66.793
139.942	1356.48
144.849	525.434
149.754	132.215
154.656	1266.14
159.556	1299.96
164.453	1074.91
169.348	1102.16
174.241	1066.58
179.131	594.938
184.019	709.562
188.904	1182.41
193.787	1448.08
198.667	1461.15
203.545	1487.64
208.42	966.039
213.294	331.84
218.164	410.41
223.032	406.777
227.898	771.68
232.761	197.793
237.622	442.102
242.481	475.82
247.337	1016.94
252.19	1256.09
257.041	1243.69
261.89	1201.19
266.736	1132.95
271.58	1216.67
276.421	1216.17
281.26	1979.1
286.096	2602.86
290.93	3117.54
295.761	3978.17
300.59	3621.84
305.417	3086.86
310.241	3074.43
315.062	2363.7
319.881	2192.53
324.698	1798.49
329.512	1582.88
334.324	1301.3
339.133	1157.42
343.94	785.262
348.744	305.246
353.546	144.312
358.345	106.719
363.142	309.926
367.937	382.438
372.728	150.859
377.518	317.273
382.305	301.957
387.089	73.3555
391.871	171.977
396.651	496.469
401.428	856.719
406.202	1399.07
410.974	2160.3
415.744	3584.02
420.511	6221.03
425.276	10070.4
430.038	13930.4
434.797	16352.8
439.554	14604.8
444.309	11206.7
449.061	9505.22
453.811	9675.53
458.558	8914.21
463.303	7091.46
468.045	5044.79
472.784	3541.28
477.521	2931.19
482.256	2602.72
486.988	2518.74
491.718	2629.73
496.445	2765.28
501.17	2880.05
505.892	2339.23
510.611	2091.38
515.328	1606.81
520.043	1305.84
524.755	961.793
529.465	795.316
534.172	469.574
538.876	91.1758
543.578	630.867
548.278	966.578
552.975	1395.33
557.669	1878.37
562.361	2882.42
567.05	4052.79
571.737	5237.2
576.422	6603.32
581.104	6671.4
585.783	6951.68
590.46	8256
595.134	11525.3
599.806	14748.2
604.475	16712.6
609.142	17114.2
613.806	15569.5
618.468	13639.4
623.127	12268.5
627.783	11375.7
632.437	11409.1
637.089	12198.5
641.738	13223.5
646.384	13855
651.028	14633.3
655.67	15276.8
660.308	14970.8
664.945	14896.3
669.579	14533.4
674.21	15217.7
678.838	15339.5
683.465	15663.5
688.088	15529.6
692.709	15527.1
697.328	14806.6
701.944	13515.2
706.557	11989.6
711.168	10392.3
715.776	8497.08
720.382	6943.66
724.985	5203.13
729.586	3598.39
734.184	2614.04
738.78	1737.75
743.373	1202.9
747.963	567.629
752.551	307.668
757.136	104.75
761.719	114.466
766.299	66.8008
770.877	65.6953
775.452	344.176
780.025	513.367
784.595	583.281
789.162	919.043
793.727	1148.16
798.289	1387.43
802.849	1524.75
807.406	1332.83
811.961	1237.18
816.513	1269.31
821.063	1159.88
825.609	1083.38
830.154	618.258
834.696	97.0742
839.235	50.9961
843.771	135.031
848.306	313.211
852.837	321.137
857.366	432.453
861.892	283.34
866.416	173.793
870.937	206.414
875.456	236.16
879.972	38.6484
884.486	142.609
888.996	134.644
893.505	125.269
898.011	211.852
902.514	167.098
907.014	676.098
911.512	576.535
916.008	1432.56
920.501	1431.53
924.991	1592.31
929.479	1995.5
933.964	2284.25
938.446	2996.05
942.926	3709.52
947.404	5228.98
951.878	6867.52
956.35	9298.71
960.82	13229.7
965.287	19870.6
969.751	32670.4
974.213	57507.2
978.673	100041
983.129	145855
987.583	139209
992.035	81829.3
996.483	39133.8
1000.93	21886.6
1005.37	15835.1
1009.82	13892.7
1014.25	14113.4
1018.69	12721.6
1023.12	12975.8
1027.55	13623.5
1031.98	13908.3
1036.41	14278.4
1040.83	15059.7
1045.25	15177.6
1049.67	14777.4
1054.08	14189.4
1058.49	13069.9
1062.9	12967.3
1067.31	14349.9
1071.72	16801
1076.12	18013.4
1080.52	15553.5
1084.91	12570.8
1089.31	10708
1093.7	9177.01
1098.09	7603.42
1102.48	6478.5
1106.86	5775.97
1111.24	5611.2
1115.62	5435.27
1120	5607.84
1124.37	6258.24
1128.74	7043.43
1133.11	6909.26
1137.47	5313.62
1141.84	3355.86
1146.2	2038.01
1150.56	1134.61
1154.91	706.945
1159.26	259.973
1163.61	157.414
1167.96	30.0469
1172.31	186.156
1176.65	2.30078
1180.99	23.6328
1185.32	187.121
1189.66	78.8398
1193.99	69.8555
1198.32	54.418
1202.64	63.6602
1206.97	115.566
1211.29	28.7539
1215.61	91.2539
1219.92	37.8047
1224.24	44.8398
1228.55	148.609
1232.86	14.7422
1237.16	73.4453
1241.46	144.418
1245.76	180.336
1250.06	333.426
1254.36	148.152
1258.65	258.047
1262.94	361.504
1267.22	214.531
1271.51	408.418
1275.79	388.812
1280.07	534.59
1284.35	463.84
1288.62	475.516
1292.89	807.324
1297.16	790.106
1301.42	1093.29
1305.69	1167.34
1309.95	1077.53
1314.21	1166.5
1318.46	1413.43
1322.71	1307.72
1326.96	987.82
1331.21	1107.75
1335.46	1080.75
1339.7	1099.93
1343.94	890.844
1348.18	1000.02
1352.41	775.18
1356.64	788.481
1360.87	760.328
1365.1	714.293
1369.32	777.352
1373.54	751.574
1377.76	673.816
1381.98	452.336
1386.19	523.512
1390.4	587.445
1394.61	401.359
1398.81	555.555
1403.02	536.246
1407.22	341.863
1411.41	330.406
1415.61	393.812
1419.8	196.215
1423.99	343.477
1428.18	279.527
1432.36	297.852
1436.54	123.5
1440.72	251.117
1444.9	333.773
1449.07	53.3516
1453.24	111.191
1457.41	341.781
1461.58	176.195
1465.74	47.0039
1469.9	77.125
1474.06	96.0938
1478.21	8.63672
1482.37	110.652
1486.52	28.2344
1490.66	231.699
1494.81	122.527
1498.95	41.5039
1503.09	349.859
1507.22	237.25
1511.36	308.527
1515.49	129.856
1519.62	186.695
1523.74	360.637
1527.87	380.074
1531.99	423.336
1536.11	317.835
1540.22	343.387
1544.33	147.379
1548.44	203.113
1552.55	191.578
1556.66	145.383
1560.76	230.715
1564.86	221.981
1568.95	158.531
1573.05	94.3008
1577.14	180.695
