Measurement: Raman, 514 nm, depolarized, Raman Data Processed
Mineral: Triplite
Rruff sample: R050226
Ideal chemistry: Mn^2+^_2_(PO_4_)F
Locality: Fremont County, Colorado, USA
Source: Marcus Origlieri
Description: Reddish brown massive
Measured chemistry: (Mn^2+^_1.20_Mg_0.49_Fe^2+^_0.27_Ca_0.04_)_Σ=2_(P_1.00_O_4_)(F_0.95_(OH)_0.05_)_Σ=1_
Pin_id: L00496
Orientation: Laser parallel to a* (1 0 0). Fiducial mark perpendicular to laser is parallel to b [0 1 0]
Raman shift (cm-1)	intensity
132.577	0
137.488	17.0352
142.396	1408.58
147.302	423.641
152.205	601.977
157.106	1427.72
162.005	1654.02
166.901	852.418
171.795	575.781
176.686	128.059
181.575	332.539
186.462	175.371
191.346	218.082
196.227	574.426
201.106	306.973
205.983	605.902
210.857	541.141
215.729	244.613
220.599	691.5
225.465	1083.71
230.33	624.387
235.192	27.4727
240.052	261.012
244.909	761.027
249.764	1284.5
254.616	1884.6
259.466	1556.06
264.313	1521.05
269.158	1550.69
274.001	1889.34
278.841	2417.44
283.678	2760.94
288.513	2909.66
293.346	3586.08
298.176	3795.11
303.004	3680.85
307.829	2949.1
312.652	2305.5
317.472	1924.05
322.29	1723.71
327.105	1450.19
331.918	1350.46
336.729	922.312
341.537	803.922
346.342	440.055
351.145	33.1289
355.946	327.406
360.744	404.945
365.54	253.793
370.333	505.613
375.123	418.672
379.912	266.234
384.697	255.434
389.481	57.4805
394.261	575.109
399.04	941.098
403.815	1099.81
408.589	1686.77
413.36	2667.73
418.128	3945.15
422.894	5136.99
427.657	6866.4
432.418	8178.22
437.176	7972.31
441.932	6705.12
446.685	5564.38
451.436	5007.86
456.185	4878.31
460.931	4098.49
465.674	3829.72
470.415	2697.38
475.153	2378.33
479.889	2405.55
484.622	2748.89
489.353	3067.65
494.082	3204.64
498.808	3481.11
503.531	3347.45
508.252	3088.7
512.97	2620.13
517.686	2553.27
522.399	1888.28
527.11	1963.9
531.818	1663.27
536.524	1575.88
541.227	1506.62
545.928	1855.29
550.626	2284.97
555.322	3012.22
560.015	3862.95
564.706	4968.84
569.394	6141.88
574.08	6579.23
578.763	7399.44
583.444	6776.89
588.122	7244.87
592.797	8873.9
597.47	10936.5
602.141	13375
606.809	14416.4
611.474	14589.7
616.137	14922.7
620.797	14729.2
625.455	13334
630.111	12552.7
634.763	12676.6
639.414	12869.7
644.061	13776
648.707	14143.7
653.349	14314.5
657.989	14264.6
662.627	13538.4
667.262	13300.3
671.894	12433
676.524	12785.8
681.152	12894.1
685.777	12993.8
690.399	12957.6
695.019	12577.9
699.636	12276.2
704.251	10639
708.863	9347
713.472	7693.73
718.079	6137.9
722.684	4683.49
727.286	3564.62
731.885	2548.2
736.482	1906.23
741.076	1161.11
745.668	783.848
750.257	512.188
754.844	455.887
759.428	171.102
764.01	43.1914
768.589	24.8359
773.165	50.957
777.739	68.5078
782.31	6.30469
786.879	400.848
791.445	287.211
796.009	785.246
800.57	495.809
805.128	909.773
809.684	804.019
814.237	697.453
818.788	683.973
823.336	747.512
827.882	461.988
832.425	70.3125
836.966	118.004
841.503	308.602
846.039	417.973
850.572	522.578
855.102	236.094
859.63	357.223
864.155	197.32
868.677	6.09766
873.197	121.363
877.714	201.168
882.229	272.738
886.741	28.3906
891.251	147.367
895.758	419.766
900.262	452.121
904.764	435.371
909.264	781.238
913.76	781.484
918.255	1355.8
922.746	1509.54
927.235	1881.64
931.722	2179.95
936.205	2823.98
940.687	3270.72
945.165	4583.43
949.641	6200.21
954.115	8496.17
958.586	10807.8
963.054	14850.6
967.52	21866.2
971.983	36740.9
976.443	65361.9
980.901	110025
985.356	139646
989.809	108569
994.259	55875.4
998.707	28007.7
1003.15	17540
1007.59	13553.7
1012.03	11634
1016.47	11238.5
1020.91	10797.8
1025.34	10962.2
1029.77	11284.9
1034.19	11503.7
1038.62	12292.7
1043.04	12974.3
1047.46	12907.5
1051.88	12262.4
1056.29	11455.3
1060.7	11407.5
1065.11	11588.4
1069.52	12845.5
1073.92	15283.5
1078.32	15053.4
1082.72	12643.2
1087.11	10613.1
1091.51	8720.69
1095.9	7320.41
1100.28	6018.63
1104.67	5049.53
1109.05	4743.4
1113.43	4549.48
1117.81	4570.24
1122.18	4701.9
1126.56	4822.59
1130.92	4938.31
1135.29	4378.94
1139.66	3203.67
1144.02	1843.45
1148.38	1531.22
1152.73	644.172
1157.09	611.953
1161.44	224.25
1165.79	91.707
1170.13	98.332
1174.48	32.8828
1178.82	68.7578
1183.15	14.0195
1187.49	199.781
1191.82	24.6641
1196.15	76.5625
1200.48	147.879
1204.81	207.801
1209.13	147.523
1213.45	115.477
1217.77	242.047
1222.08	196.227
1226.39	12.4883
1230.7	51.1133
1235.01	304.277
1239.31	121.695
1243.61	208.086
1247.91	130.043
1252.21	183.082
1256.5	364.848
1260.79	299.852
1265.08	421.383
1269.37	778.879
1273.65	881.379
1277.93	1047.01
1282.21	817.75
1286.48	1167.8
1290.76	1448.77
1295.03	1312.11
1299.29	1495.11
1303.56	1542.95
1307.82	1825.25
1312.08	1684.36
1316.34	1785.19
1320.59	1531
1324.84	1556.56
1329.09	1356.56
1333.34	1592.61
1337.58	1243.66
1341.82	1228.06
1346.06	1156.13
1350.29	1297
1354.53	1034.14
1358.76	1060.25
1362.98	745.527
1367.21	844.484
1371.43	593.965
1375.65	624.5
1379.87	611.231
1384.08	502.223
1388.3	484.113
1392.51	711.727
1396.71	323.797
1400.92	471.453
1405.12	604.863
1409.32	287.336
1413.51	586.195
1417.71	567.949
1421.9	231.969
1426.09	408.363
1430.27	343.387
1434.45	257.66
1438.63	91.2891
1442.81	271.074
1446.99	150.93
1451.16	28.8633
1455.33	215.566
1459.49	591.207
1463.66	280.484
1467.82	9.46875
1471.98	10.3984
1476.14	15.8164
1480.29	523.805
1484.44	162.07
1488.59	337.238
1492.73	499.41
1496.88	137.106
1501.02	463.379
1505.16	255.707
1509.29	388.832
1513.42	408.297
1517.55	483.84
1521.68	530.574
1525.81	558.574
1529.93	232.125
1534.05	0.226563
1538.16	352.758
1542.28	348.875
1546.39	303.043
1550.5	77.4492
1554.6	344.469
1558.71	357.051
1562.81	236.703
1566.91	180.602
1571	364.949
1575.1	306.957
1579.18	0
