Measurement: Raman, 514 nm, ccw, Raman Data Processed
Mineral: Triplite
Rruff sample: R050226
Ideal chemistry: Mn^2+^_2_(PO_4_)F
Locality: Fremont County, Colorado, USA
Source: Marcus Origlieri
Description: Reddish brown massive
Measured chemistry: (Mn^2+^_1.20_Mg_0.49_Fe^2+^_0.27_Ca_0.04_)_Σ=2_(P_1.00_O_4_)(F_0.95_(OH)_0.05_)_Σ=1_
Pin_id: L00426
Orientation: Laser parallel to c* (0 0 1). Fiducial mark perpendicular to laser is parallel to a [1 0 0]
Raman shift (cm-1)	intensity
127.792	0
132.725	188.002
137.656	417.922
142.583	363.414
147.508	637.127
152.431	285.559
157.35	1046.33
162.267	1116.64
167.181	1246.39
172.092	1086.88
177.001	711.824
181.907	278.619
186.81	453.951
191.711	391.182
196.608	370.072
201.503	403.557
206.395	141.107
211.285	249.361
216.172	662.08
221.056	1643.62
225.937	2222.75
230.816	1826.75
235.692	1526.79
240.565	2161.32
245.436	3139.71
250.304	2731.16
255.169	1960.73
260.031	964.127
264.891	736.981
269.748	922.75
274.602	1118.23
279.454	1594.45
284.303	3067.26
289.149	4168.55
293.992	5438.37
298.833	5021.25
303.671	3744.51
308.507	2467.83
313.339	1680.31
318.169	899.402
322.996	537.945
327.821	292.932
332.643	12.2773
337.462	8.21875
342.279	73.7871
347.092	90.2051
351.904	54.7559
356.712	350.594
361.518	317.613
366.321	80.5723
371.121	231.799
375.919	543.791
380.714	1269.71
385.506	1945.67
390.296	2555.83
395.083	3062.8
399.867	3885.63
404.649	4610.36
409.428	4961.41
414.204	4764.65
418.978	4174.82
423.749	3400.81
428.517	3537.47
433.282	3540.21
438.045	3941.17
442.806	4818.29
447.563	6679.33
452.318	9094.34
457.07	10386.4
461.82	8768.71
466.567	6003.92
471.311	4076.38
476.053	2628.38
480.792	1875.99
485.528	1700.68
490.262	1443.81
494.992	1206.96
499.721	911.102
504.446	791.268
509.169	559.135
513.89	223.801
518.607	56.4648
523.322	169.234
528.035	186.408
532.745	153.277
537.452	374.205
542.156	973.475
546.858	1123.1
551.557	1429.14
556.254	1669.67
560.947	1732.79
565.639	2254.77
570.327	2901.75
575.013	3609.83
579.697	3855.61
584.377	4228.85
589.055	4997.16
593.731	6515.66
598.403	8637.06
603.074	10447.5
607.741	11743.5
612.406	11816.5
617.068	11022.4
621.728	9252.68
626.385	8048.13
631.039	7417.77
635.691	7450.62
640.34	7455.45
644.987	7782.7
649.63	8055.63
654.272	8111.84
658.91	7912.82
663.546	7334.56
668.18	6405.7
672.81	5945.64
677.439	5300.12
682.064	5283.25
686.687	5410.71
691.307	5244.65
695.925	5615.52
700.54	5209.78
705.153	4700.69
709.763	4151.7
714.37	3412.58
718.974	2719.4
723.577	2290.51
728.176	1478.54
732.773	924.277
737.367	423.065
741.959	246.137
746.548	0.253906
751.134	112.516
755.718	158.719
760.299	167.211
764.878	24.9609
769.454	68.6133
774.028	47.8242
778.598	359.59
783.167	460.967
787.732	520.959
792.295	618.557
796.856	849.731
801.414	758.477
805.969	890.76
810.522	827.555
815.072	565.85
819.62	714.617
824.165	287.838
828.707	330.457
833.247	105.371
837.784	47.2051
842.319	42.0595
846.851	19.5273
851.381	298.67
855.908	33.487
860.432	73.887
864.954	58.5801
869.473	108.826
873.99	53.998
878.504	40.7031
883.015	65.3164
887.524	52.293
892.031	315.531
896.535	223.824
901.036	323.115
905.535	377.793
910.031	548.084
914.524	591.969
919.015	955.723
923.504	1229.24
927.99	1567.72
932.473	2118.17
936.954	2606.61
941.432	3345.08
945.908	4651.63
950.381	6939.29
954.852	10218.5
959.32	14080.5
963.785	20751.4
968.248	35365.8
972.708	62879.8
977.166	108342
981.622	158444
986.074	162617
990.525	100981
994.972	45850.3
999.417	23341.1
1003.86	15693.3
1008.3	12347.8
1012.74	11144.4
1017.17	10490.2
1021.61	10780.3
1026.04	11263.6
1030.46	12339
1034.89	13196.7
1039.31	14284.3
1043.73	14132.4
1048.15	12464.6
1052.56	10267.8
1056.97	8089.2
1061.38	6468.78
1065.79	5403.84
1070.19	5083.5
1074.6	4674.81
1079	4254.8
1083.39	3868.52
1087.79	3724.01
1092.18	3423.31
1096.57	2961.47
1100.96	2554.6
1105.34	2330.95
1109.72	2454.73
1114.1	2180.1
1118.48	2271.83
1122.85	2458.95
1127.22	2808.25
1131.6	3050.29
1135.96	2184.65
1140.33	1352.41
1144.69	653.746
1149.05	389.596
1153.4	201.615
1157.76	61.2598
1162.11	165.478
1166.46	188.99
1170.81	195.244
1175.15	162.559
1179.49	61.4043
1183.83	104.996
1188.17	25.0371
1192.5	198.098
1196.84	188.697
1201.16	287.342
1205.49	340.625
1209.82	520.885
1214.14	792.562
1218.46	381.527
1222.77	313.582
1227.09	330.731
1231.4	658.951
1235.71	388.238
1240.02	677.525
1244.32	656.816
1248.62	608.035
1252.92	930.162
1257.22	1092.15
1261.51	1445.97
1265.81	1415.58
1270.1	1696.96
1274.38	1818.08
1278.67	1934.87
1282.95	2299.27
1287.23	2369.8
1291.51	2544.17
1295.78	3228.65
1300.05	3469.14
1304.32	3837.13
1308.59	4149.69
1312.86	4222.16
1317.12	4221.61
1321.38	4247.58
1325.63	3963.35
1329.89	3602.79
1334.14	3395.83
1338.39	2947.45
1342.64	2718.15
1346.88	2192.62
1351.13	1952.73
1355.37	1538.11
1359.61	1385.94
1363.84	1192.87
1368.07	959.047
1372.3	822.326
1376.53	690.576
1380.76	584.725
1384.98	324.361
1389.2	498.191
1393.42	200.857
1397.64	278.941
1401.85	378.434
1406.06	121.826
1410.27	95.6758
1414.47	112.373
1418.68	74.8633
1422.88	84.7246
1427.08	173.434
1431.27	66.9492
1435.47	49.2188
1439.66	48.8555
1443.85	7.98633
1448.03	17.459
1452.22	129.613
1456.4	106.281
1460.58	93.7559
1464.76	56.6445
1468.93	55.7188
1473.1	54.8848
1477.27	69.9023
1481.44	45.8145
1485.6	177.623
1489.77	154.33
1493.92	206.022
1498.08	259.785
1502.24	164.322
1506.39	450.758
1510.54	376.023
1514.69	321.408
1518.83	151.635
1522.97	228.435
1527.12	150.898
1531.25	288.809
1535.39	236.723
1539.52	285.135
1543.65	251.727
1547.78	114.684
1551.91	231.139
1556.03	250.514
1560.15	261.799
1564.27	22.8281
1568.39	224.631
1572.5	41.3555
1576.61	66.4043
