Measurement: Raman, 514 nm, ccw, Raman Data Processed
Mineral: Triplite
Rruff sample: R050226
Ideal chemistry: Mn^2+^_2_(PO_4_)F
Locality: Fremont County, Colorado, USA
Source: Marcus Origlieri
Description: Reddish brown massive
Measured chemistry: (Mn^2+^_1.20_Mg_0.49_Fe^2+^_0.27_Ca_0.04_)_Σ=2_(P_1.00_O_4_)(F_0.95_(OH)_0.05_)_Σ=1_
Pin_id: L00502
Orientation: Laser parallel to b* (0 1 0). Fiducial mark perpendicular to laser is parallel to c [0 0 1]
Raman shift (cm-1)	intensity
82.103	0
87.038	949.107
91.971	410.273
96.902	861.367
101.83	519.221
106.756	723.731
111.679	1862.5
116.6	3042.85
121.519	3949.36
126.435	3285.98
131.349	1591.46
136.26	1006.05
141.169	1367.87
146.076	1055.87
150.98	1280.19
155.881	1328.51
160.78	1254.28
165.677	976.916
170.572	685.57
175.464	393.025
180.353	43.1582
185.24	74.4619
190.125	10.0361
195.007	166.653
199.887	184.47
204.764	218.441
209.639	54.3018
214.511	317.827
219.381	646.934
224.249	1134.08
229.114	930.142
233.977	202.473
238.837	158.25
243.695	260.164
248.55	388.503
253.403	202.622
258.253	333.259
263.101	417.24
267.947	382.159
272.79	520.878
277.631	672.695
282.469	1347.13
287.305	1726.45
292.138	2096.39
296.969	2415.95
301.797	1929.12
306.623	1760.62
311.446	1296.2
316.267	1035.96
321.086	845.498
325.902	629.152
330.715	647.634
335.526	453.258
340.335	207.455
345.141	142.21
349.945	117.161
354.746	39.3613
359.545	38.0772
364.341	67.8691
369.135	174.716
373.926	102.461
378.715	128.997
383.501	287.513
388.285	419.982
393.066	449.282
397.845	433.943
402.622	772.943
407.396	1278.95
412.167	1612.85
416.936	1894.52
421.702	2348.62
426.466	3270.15
431.228	3986.28
435.987	4334.04
440.743	3295.45
445.497	2046.55
450.249	1281.88
454.998	931.539
459.744	525.462
464.488	204.408
469.23	77.9043
473.969	22.7129
478.705	64.7061
483.439	81.5654
488.171	238.606
492.9	235.951
497.626	496.373
502.35	365.704
507.072	318.065
511.791	171.329
516.507	197.712
521.221	151.844
525.933	78.2363
530.642	78.3008
535.348	78.5147
540.052	35.2568
544.753	251.509
549.452	516.336
554.148	1028.03
558.842	1148.6
563.534	1674.25
568.222	1631.36
572.909	2029.61
577.592	2363.05
582.274	2421.72
586.952	3014.98
591.629	4252.27
596.302	6426.36
600.973	8552.48
605.642	10294.1
610.308	9659.79
614.972	8152.39
619.633	7385.05
624.291	6632.46
628.947	6348.03
633.6	6194.23
638.251	6488.62
642.9	6706.66
647.546	7047.55
652.189	7655.77
656.83	7981.55
661.468	8254.88
666.103	9002.03
670.737	9902.02
675.367	11997
679.995	13837.2
684.621	15868.3
689.244	16950
693.864	17012.1
698.482	16065.5
703.097	14010.6
707.71	11642.5
712.32	9526.03
716.928	7142.23
721.533	5314.87
726.136	3898.02
730.736	2882.37
735.333	1974.3
739.928	1285.74
744.52	963.139
749.11	622.351
753.698	381.938
758.282	231.749
762.864	241.916
767.444	366.303
772.021	287.981
776.596	609.562
781.167	649.024
785.737	734.352
790.304	1115.6
794.868	1185.98
799.43	1184.48
803.989	1408.96
808.545	1395.23
813.099	1224.24
817.651	1094.02
822.199	837.503
826.746	761.669
831.289	347.504
835.831	179.99
840.369	21.1113
844.905	42.8272
849.439	32.9365
853.97	127.61
858.498	109.353
863.024	129.892
867.547	80.5166
872.067	162.689
876.585	110.666
881.101	128.286
885.614	32.4043
890.124	25.5674
894.632	14.498
899.137	97.4941
903.639	206.966
908.139	299.288
912.636	221.958
917.131	455.812
921.623	535.791
926.113	688.398
930.6	865.694
935.085	1004.61
939.566	1332.11
944.046	1793.19
948.522	2545.89
952.997	3351.21
957.468	4776.16
961.937	7221.73
966.403	11529.6
970.867	19806.8
975.328	36396.5
979.787	63778.1
984.243	88887.5
988.696	79230.4
993.147	42028.1
997.595	18743.9
1002.04	10966
1006.48	8368.32
1010.92	7596.69
1015.36	7323.33
1019.8	7397.48
1024.23	7592.36
1028.66	7728.02
1033.09	8444.58
1037.51	9320.62
1041.93	10213.8
1046.35	10644.4
1050.77	10691.6
1055.19	9965.36
1059.6	9311.37
1064.01	8831.01
1068.41	8772.23
1072.82	9094.56
1077.22	8581.07
1081.62	7378.9
1086.01	6013.06
1090.41	5306.23
1094.8	4255.65
1099.19	3400.34
1103.57	2933.3
1107.96	2253.57
1112.34	2206.15
1116.71	1995.15
1121.09	1838.76
1125.46	1796.09
1129.83	1693.57
1134.2	1718.2
1138.57	1149.74
1142.93	735.361
1147.29	386.974
1151.64	248.407
1156	138.461
1160.35	30.1787
1164.7	206.633
1169.05	30.7578
1173.39	174.036
1177.73	113.816
1182.07	79.8193
1186.41	18.7559
1190.74	73.2969
1195.07	20.6992
1199.4	131.257
1203.72	225.62
1208.05	198.489
1212.37	4.85938
1216.69	86.8564
1221	204.365
1225.31	105.416
1229.62	107.888
1233.93	214.778
1238.24	293.126
1242.54	274.911
1246.84	208.175
1251.13	521.924
1255.43	433.217
1259.72	656.894
1264.01	633.943
1268.3	712.348
1272.58	949.071
1276.86	1028.09
1281.14	1008.38
1285.41	1107.64
1289.69	1262.29
1293.96	1224.4
1298.23	1409.8
1302.49	1669.8
1306.75	1638.71
1311.01	1827.88
1315.27	2031.94
1319.53	1937.53
1323.78	1969.05
1328.03	1788.99
1332.27	1756.68
1336.52	1899.14
1340.76	1680.96
1345	1477.65
1349.23	1559.58
1353.47	1249.47
1357.7	1279.24
1361.93	1036.04
1366.15	1160.75
1370.38	1098.23
1374.6	844.427
1378.82	1025.26
1383.03	855.524
1387.24	720.813
1391.45	827.745
1395.66	564.787
1399.87	664.047
1404.07	504.815
1408.27	433.222
1412.46	384.195
1416.66	410.042
1420.85	458.612
1425.04	282.303
1429.22	204.763
1433.41	242.516
1437.59	112.361
1441.77	117.934
1445.94	79.0195
1450.12	144.154
1454.29	49.627
1458.45	66.3477
1462.62	46.7549
1466.78	9.78223
1470.94	19.5479
1475.1	49.0732
1479.25	91.5557
1483.4	23.6846
1487.55	12.1494
1491.7	154.435
1495.84	33.3545
1499.98	196.389
1504.12	156.472
1508.26	242.689
1512.39	112.13
1516.52	194.902
1520.65	255.228
1524.78	219.399
1528.9	306.916
1533.02	211.249
1537.13	97.7734
1541.25	198.831
1545.36	48
1549.47	119.033
1553.58	188.085
1557.68	68.4824
1561.78	181.329
1565.88	173.762
1569.98	44.583
1574.07	119.202
1578.16	109.831
