Measurement: Raman, 514 nm, depolarized, Raman Data Processed
Mineral: Triplite
Rruff sample: R050226
Ideal chemistry: Mn^2+^_2_(PO_4_)F
Locality: Fremont County, Colorado, USA
Source: Marcus Origlieri
Description: Reddish brown massive
Measured chemistry: (Mn^2+^_1.20_Mg_0.49_Fe^2+^_0.27_Ca_0.04_)_Σ=2_(P_1.00_O_4_)(F_0.95_(OH)_0.05_)_Σ=1_
Pin_id: L00426
Orientation: Laser parallel to c* (0 0 1). Fiducial mark perpendicular to laser is parallel to a [1 0 0]
Raman shift (cm-1)	intensity
131.492	0
136.423	62.9688
141.352	506.459
146.277	394.902
151.2	640.914
156.121	1204.11
161.038	1149.9
165.953	891.461
170.865	955.586
175.774	508.746
180.681	75.5723
185.585	115.215
190.486	326.818
195.384	448.846
200.28	380.768
205.173	445.793
210.063	330.914
214.95	804.566
219.835	1824.92
224.717	2640.91
229.597	2212.33
234.473	1130.67
239.347	1351.15
244.218	1894.9
249.087	2081.75
253.953	1308.94
258.816	1382.45
263.676	1260.01
268.534	913.176
273.389	1568.97
278.241	1906.71
283.091	3090.64
287.938	4329.06
292.782	5615.77
297.623	5569.04
302.462	5052.34
307.298	3035.9
312.131	1829.63
316.962	1214.55
321.79	839.779
326.615	651.828
331.438	228.848
336.258	276.773
341.075	52.9805
345.889	140.211
350.701	127.473
355.51	4.14258
360.317	226.568
365.12	65.4746
369.921	241.418
374.72	536.812
379.515	753.894
384.309	1450.88
389.099	1756.82
393.886	2563.92
398.671	3582.47
403.454	5139.74
408.233	5162.01
413.01	5328.67
417.785	4236.56
422.556	3949.71
427.325	4469.53
432.091	5355
436.855	6349.67
441.616	5185.84
446.374	4945.34
451.13	5284.66
455.883	6354.87
460.633	5071.42
465.38	3851.84
470.125	2482.51
474.868	1735.59
479.607	1158.5
484.344	1125.69
489.078	1203.35
493.81	975.523
498.539	901.367
503.265	1038.48
507.989	824.285
512.71	454.344
517.428	107.965
522.144	230.844
526.857	321.242
531.567	76.4883
536.275	193.621
540.98	18.9102
545.683	530.754
550.383	499.5
555.08	767.519
559.774	734.875
564.466	1262.49
569.155	1703.98
573.842	2697.31
578.526	3030.77
583.207	3456.52
587.886	4014.02
592.562	5327.59
597.235	9088.97
601.906	9809.7
606.574	9990.19
611.24	9279.52
615.903	8174.35
620.563	7037.66
625.221	6643.34
629.876	6375.85
634.528	6578.24
639.178	7042.14
643.825	7947.46
648.47	8810.7
653.112	9502.88
657.751	9940.21
662.388	9870.27
667.022	9684.36
671.653	9785.76
676.282	9824.72
680.908	10396.1
685.532	10454.4
690.153	10712.3
694.771	10870.3
699.387	10800.3
704	9408.04
708.61	8282.56
713.218	7429.69
717.824	5858.14
722.426	4759.86
727.026	3536.65
731.624	2374.32
736.219	2090.54
740.811	1330.15
745.401	1088.43
749.988	914.883
754.572	630.129
759.154	337.691
763.734	433.172
768.31	472.719
772.884	578.172
777.456	723.93
782.025	947.715
786.591	1582.3
791.155	1663.46
795.716	1775.02
800.275	1847.99
804.831	1763.95
809.384	1995.01
813.935	1723.77
818.483	1540.29
823.029	1389.16
827.572	1104.58
832.112	804.281
836.65	634.125
841.186	318.539
845.718	160.559
850.249	259.098
854.776	44.8281
859.301	148.906
863.824	193.348
868.344	201.848
872.861	3.44922
877.376	252.883
881.888	105.512
886.397	6.05078
890.904	38.0352
895.409	167.109
899.911	18.0898
904.41	371.59
908.907	193.992
913.401	677.672
917.893	406.938
922.382	809.106
926.869	1096.65
931.353	1287.53
935.834	2149.79
940.313	2441.43
944.789	3293.47
949.263	4764.93
953.734	7469.91
958.203	9582.4
962.669	13084.4
967.133	19333.7
971.594	32304.5
976.052	55383.4
980.508	87097.3
984.961	104963
989.412	80223.8
993.861	40816.5
998.306	19764.3
1002.75	12546.9
1007.19	9807.77
1011.63	8776.78
1016.06	8459.95
1020.5	8308.2
1024.93	8571.12
1029.36	8955.32
1033.78	8976.81
1038.2	9215.98
1042.62	9314.24
1047.04	8912.78
1051.46	8022.02
1055.87	7128.13
1060.28	6474.56
1064.69	5749.3
1069.09	5714.02
1073.5	5574.97
1077.9	5347.2
1082.29	4949.56
1086.69	4702.23
1091.08	4008.72
1095.47	4278.34
1099.86	3372.45
1104.24	2783.39
1108.63	2476.08
1113.01	2663.55
1117.38	2442.02
1121.76	2899.73
1126.13	3184.27
1130.5	3211.12
1134.87	3152.41
1139.23	1686.55
1143.6	1196.63
1147.96	545.875
1152.32	50.9219
1156.67	210.625
1161.02	61.9297
1165.37	43.1875
1169.72	276.742
1174.07	15.4141
1178.41	86.2031
1182.75	361.305
1187.08	274.969
1191.42	209.664
1195.75	96.8984
1200.08	257.281
1204.41	310.898
1208.73	181.773
1213.06	236.836
1217.38	24.0156
1221.69	193.914
1226.01	243.961
1230.32	666.539
1234.63	752.188
1238.94	812.828
1243.24	1139.68
1247.55	984.781
1251.85	944.195
1256.14	1393.92
1260.44	1479.16
1264.73	1768.63
1269.02	1870.3
1273.31	2262.1
1277.6	2249.01
1281.88	3030.98
1286.16	3065.97
1290.44	2701.87
1294.71	3372.74
1298.98	3944.29
1303.26	4689.27
1307.52	5970.97
1311.79	4548.56
1316.05	5182.96
1320.31	5398.95
1324.57	5019.36
1328.83	4942.77
1333.08	4466.91
1337.33	4215.67
1341.58	3600.7
1345.82	3081.18
1350.07	2672.86
1354.31	2328.19
1358.55	2257.77
1362.78	1900.12
1367.02	1654.96
1371.25	1758.9
1375.48	1297.68
1379.7	957.695
1383.92	1326.5
1388.15	1309.14
1392.37	955.367
1396.58	1086.34
1400.8	687.156
1405.01	489.836
1409.22	631.18
1413.42	1061.73
1417.63	974.281
1421.83	636.672
1426.03	980.039
1430.22	1052.42
1434.42	1152.54
1438.61	585.047
1442.8	2.16406
1446.99	460.875
1451.17	424.344
1455.35	247.023
1459.53	273.32
1463.71	490.164
1467.89	217.578
1472.06	464.914
1476.23	489.766
1480.4	620.328
1484.56	1091.71
1488.72	79.0391
1492.88	513.234
1497.04	482.5
1501.2	1563.31
1505.35	951.125
1509.5	1484.43
1513.65	586.523
1517.8	1269.47
1521.94	1237.42
1526.08	983.039
1530.22	1538.77
1534.36	995.594
1538.49	941.055
1542.62	889.414
1546.75	1140.43
1550.88	863.828
1555	952.117
1559.12	564.359
1563.24	798.172
1567.36	524.594
1571.47	792.445
1575.58	57.9609
1579.69	0
