Measurement: Raman, 514 nm, ccw, Raman Data Processed
Mineral: Triplite
Rruff sample: R050226
Ideal chemistry: Mn^2+^_2_(PO_4_)F
Locality: Fremont County, Colorado, USA
Source: Marcus Origlieri
Description: Reddish brown massive
Measured chemistry: (Mn^2+^_1.20_Mg_0.49_Fe^2+^_0.27_Ca_0.04_)_Σ=2_(P_1.00_O_4_)(F_0.95_(OH)_0.05_)_Σ=1_
Pin_id: L00426
Orientation: Laser parallel to c* (0 0 1). Fiducial mark perpendicular to laser is parallel to a [1 0 0]
Raman shift (cm-1)	intensity
129.026	0
133.958	5.79492
138.888	577.377
143.815	366.828
148.739	497.836
153.661	849.873
158.58	905.461
163.496	1271.06
168.409	870.365
173.32	805.492
178.228	42.4844
183.133	25.9023
188.035	109.518
192.935	147.57
197.832	170.951
202.727	325.443
207.618	391.389
212.507	257.461
217.393	1009.5
222.277	1499.26
227.157	1714.05
232.035	996.014
236.911	961.26
241.783	1386.41
246.653	1608.85
251.52	1301.36
256.385	983.701
261.246	906.785
266.105	1076.02
270.962	1354.39
275.815	1541.16
280.666	2341.89
285.514	3652.26
290.36	4849.12
295.203	5155.74
300.043	4375.67
304.88	3208.73
309.715	1959.45
314.547	1268.35
319.376	971.092
324.203	593.473
329.027	541.85
333.848	291.887
338.667	79.7559
343.482	102.201
348.296	190.379
353.106	116.32
357.914	37.5078
362.719	33.75
367.521	63.3223
372.321	422.176
377.118	764.771
381.912	1275.17
386.704	1758.68
391.493	2370.13
396.279	3352.8
401.063	4264.22
405.844	4851.42
410.622	4929.86
415.398	3744.07
420.171	3313
424.941	3391.95
429.709	4060.04
434.473	4354.16
439.236	3849.46
443.995	2957.04
448.752	2632
453.506	2566.79
458.258	2283.9
463.007	1712.09
467.753	1164.97
472.497	605.381
477.238	542.66
481.976	535.494
486.712	467.785
491.445	458.453
496.175	336.103
500.902	140.053
505.627	148.711
510.35	150.102
515.069	20.459
519.786	12.3242
524.501	42.9922
529.213	94.1992
533.922	690.795
538.628	646.008
543.332	758.848
548.033	880.894
552.731	1170.71
557.427	1135.29
562.121	1423.65
566.811	1921.86
571.499	2416.53
576.184	2919.64
580.867	3521.33
585.547	3746.32
590.224	4983.79
594.899	6683.5
599.571	9002.2
604.241	9656.6
608.908	8668.23
613.572	7283.07
618.233	6311.65
622.892	5661.9
627.549	5218.46
632.202	5151.78
636.853	5468.58
641.502	5818.57
646.148	6037.57
650.791	6753.82
655.432	6869.44
660.069	7285.58
664.705	6843.93
669.338	7007.26
673.968	6801.04
678.595	7122.07
683.22	7628.27
687.842	7755.74
692.462	7706.95
697.079	7291.12
701.694	6975.13
706.305	6435.28
710.915	5291.59
715.521	4712.29
720.125	3516.94
724.727	2757.78
729.325	1908.4
733.922	1045.08
738.515	869.416
743.106	363.359
747.695	115.945
752.28	102.266
756.864	124.402
761.444	223.769
766.022	8.94336
770.598	270.238
775.17	243.135
779.741	508.787
784.308	678.447
788.873	930.07
793.436	1247.63
797.996	1115.12
802.553	1299.5
807.108	1487.72
811.66	1334.77
816.209	1373.61
820.756	1259.21
825.301	789.543
829.842	658.59
834.382	469.326
838.918	203.695
843.452	92.4981
847.984	121.906
852.513	101.99
857.039	216.336
861.563	173.281
866.084	92.9238
870.603	144.139
875.119	84.584
879.632	65.9473
884.143	21.4219
888.651	6.75781
893.157	64.5176
897.66	77.3262
902.161	131.836
906.659	581.203
911.154	474.648
915.647	465.162
920.138	963.258
924.626	942.264
929.111	1144.41
933.594	1413.67
938.074	1841.79
942.551	2501.79
947.026	3577.7
951.499	5483.53
955.969	7508.31
960.436	8684.07
964.901	11406.8
969.363	18370.5
973.823	31721.2
978.28	52640.3
982.735	73719.1
987.187	71046.2
991.637	42236
996.084	20361.5
1000.53	11452.9
1004.97	8053.38
1009.41	6879.51
1013.85	6694.18
1018.28	6799.02
1022.71	7119.66
1027.14	7317.82
1031.57	7408.94
1035.99	7526.92
1040.41	7329.69
1044.83	6786.28
1049.25	6585.1
1053.66	5630.18
1058.08	5274.75
1062.48	4726.41
1066.89	4312.47
1071.3	4115.48
1075.7	4017.13
1080.1	3812.56
1084.49	3633.98
1088.89	3291.9
1093.28	3289.94
1097.67	2907.72
1102.05	2493.93
1106.44	2118.63
1110.82	2033.96
1115.2	2402.37
1119.57	2330.86
1123.95	2802.49
1128.32	3125.86
1132.69	3344.96
1137.05	2670.67
1141.42	1430.14
1145.78	762.781
1150.14	458.797
1154.49	102.826
1158.85	24.0977
1163.2	151.256
1167.55	162.047
1171.89	51.2363
1176.24	76.3672
1180.58	228.408
1184.92	7.4082
1189.25	125.281
1193.59	26.4746
1197.92	1.89648
1202.25	201.131
1206.57	133.537
1210.9	249.844
1215.22	175.416
1219.54	145.205
1223.85	131.529
1228.17	192.484
1232.48	380.336
1236.79	511.06
1241.09	523.701
1245.4	744.141
1249.7	564.568
1254	755.943
1258.29	1119.91
1262.59	1325.65
1266.88	1587.48
1271.17	1596.8
1275.45	2009.84
1279.74	2011.94
1284.02	2351.53
1288.3	2522.76
1292.58	2833.89
1296.85	3131.39
1301.12	3405.74
1305.39	3634.13
1309.66	3826.05
1313.92	3941.92
1318.18	3936.35
1322.44	3719.53
1326.7	3704.44
1330.95	3358.05
1335.2	2969.56
1339.45	2811.06
1343.7	2692.69
1347.95	2448.21
1352.19	2000.46
1356.43	1803.94
1360.66	1368.8
1364.9	1429.24
1369.13	1362.28
1373.36	1214.97
1377.59	953.139
1381.81	1022.1
1386.04	966.771
1390.26	929.967
1394.47	574.533
1398.69	754.508
1402.9	473.285
1407.11	456.242
1411.32	375.258
1415.53	108.004
1419.73	35.1758
1423.93	191.594
1428.13	286.625
1432.32	86.5059
1436.52	69.8535
1440.71	90.8769
1444.89	134.117
1449.08	83.207
1453.26	116.969
1457.44	18.0371
1461.62	229.789
1465.8	145.326
1469.97	110.49
1474.14	73.3301
1478.31	20.1777
1482.48	105.414
1486.64	48.7637
1490.81	166.416
1494.96	209.547
1499.12	295.135
1503.28	114.865
1507.43	316.527
1511.58	90.8496
1515.72	190.902
1519.87	389.514
1524.01	320.981
1528.15	236.25
1532.29	315.791
1536.42	362.973
1540.55	133.586
1544.68	245.44
1548.81	340.772
1552.94	128.619
1557.06	329.555
1561.18	325.357
1565.3	105.035
1569.41	235.697
1573.53	237.393
1577.64	2.03125
