Measurement: Raman, 514 nm, ccw, Raman Data Processed
Mineral: Triplite
Rruff sample: R050226
Ideal chemistry: Mn^2+^_2_(PO_4_)F
Locality: Fremont County, Colorado, USA
Source: Marcus Origlieri
Description: Reddish brown massive
Measured chemistry: (Mn^2+^_1.20_Mg_0.49_Fe^2+^_0.27_Ca_0.04_)_Σ=2_(P_1.00_O_4_)(F_0.95_(OH)_0.05_)_Σ=1_
Pin_id: L00502
Orientation: Laser parallel to b* (0 1 0). Fiducial mark perpendicular to laser is parallel to c [0 0 1]
Raman shift (cm-1)	intensity
114.14	0
119.06	1162.66
123.977	748.824
128.892	129.748
133.805	258.674
138.715	562.988
143.623	1550.32
148.528	1867.24
153.431	1537.27
158.331	1355.78
163.229	1038.55
168.125	931.315
173.018	839.142
177.909	577.877
182.797	584.531
187.683	458.773
192.566	423.434
197.447	465.593
202.326	129.065
207.202	35.6084
212.075	63.0967
216.947	202.717
221.815	282.54
226.682	200.048
231.546	193.847
236.407	26.417
241.266	140.195
246.123	620.688
250.977	811.646
255.829	779.303
260.678	534.377
265.525	386.437
270.369	330.515
275.211	581.098
280.05	721.19
284.887	1228.65
289.722	1414.73
294.554	1617.41
299.383	1492.89
304.21	1256.29
309.035	892.411
313.857	553.265
318.677	505.298
323.494	272.681
328.309	193.139
333.121	99.4629
337.931	109.001
342.738	14.665
347.543	0.236328
352.346	365.739
357.146	567.451
361.943	254.048
366.738	216.416
371.531	165.525
376.321	294.336
381.108	1080.24
385.893	1857.65
390.676	1724.58
395.456	814.04
400.234	536.135
405.009	895.06
409.782	1542.92
414.552	2710.73
419.32	4882.45
424.085	7987.94
428.847	8940.02
433.608	7132.81
438.365	4587.36
443.121	2852.74
447.873	2018.02
452.624	1897.24
457.371	2093.52
462.117	1694.81
466.859	975.902
471.6	580.939
476.337	218.612
481.073	67.0459
485.805	131.081
490.536	67.165
495.263	54.3525
499.989	61.21
504.711	410.363
509.432	483.116
514.149	787.044
518.865	1516.51
523.577	2251.33
528.287	3018.06
532.995	2864.49
537.7	2592.57
542.403	3030.92
547.103	3818.57
551.801	4710.5
556.496	5950.12
561.188	5916.46
565.878	4804.59
570.566	4183.69
575.251	3721.87
579.933	3584.99
584.613	3941.5
589.291	4076.26
593.966	5333.4
598.638	7252.88
603.308	8920.35
607.975	9358.93
612.64	9471.13
617.302	9994.39
621.962	10509.2
626.619	9979.47
631.274	8648.71
635.926	7719.76
640.576	7245.22
645.223	6761.72
649.867	6460.83
654.509	5830.47
659.149	5570.72
663.786	5011.41
668.42	4622.12
673.052	4151.01
677.681	3876.21
682.308	4093.34
686.932	4025.36
691.554	4219.64
696.173	4052.6
700.79	3715.47
705.404	2819.86
710.015	2450.89
714.624	1960.65
719.231	1428.75
723.835	1043.56
728.436	603.489
733.035	395.407
737.631	44.5195
742.225	26.0293
746.816	4.17871
751.404	69.2275
755.99	107.067
760.574	8.44531
765.155	28.3311
769.733	184.663
774.309	47.0742
778.882	321.381
783.452	396.673
788.021	429.824
792.586	687.928
797.149	734.914
801.709	884.767
806.267	900.476
810.823	685.028
815.375	674.419
819.925	500.636
824.473	421.678
829.018	342.537
833.56	220.179
838.1	123.502
842.638	50.6953
847.172	61.0352
851.704	11.0977
856.234	118.335
860.761	5.79688
865.285	62.5898
869.807	83.3467
874.327	119.203
878.843	106.544
883.357	107.079
887.869	36.2666
892.378	68.6875
896.884	83.7383
901.388	19.8076
905.889	195.087
910.388	253.139
914.884	391.116
919.378	425.854
923.869	741.146
928.357	933.794
932.843	988.811
937.326	1375.22
941.806	1873.06
946.284	2802.37
950.76	3919.17
955.233	5732.51
959.703	7840.52
964.171	11696.9
968.636	20279.2
973.098	37362
977.558	69075.4
982.015	110558
986.47	129777
990.922	89677.7
995.372	40690.8
999.818	19310.4
1004.26	12254.4
1008.7	9099.36
1013.14	7985.96
1017.58	7241.93
1022.01	7045.44
1026.44	6994.13
1030.87	7686.97
1035.3	8416.48
1039.72	9129.31
1044.14	10071.9
1048.56	9694.42
1052.98	8626.02
1057.39	7326.68
1061.8	6554.91
1066.21	6326.89
1070.62	7309.42
1075.02	8694.63
1079.42	7973.55
1083.82	6381.2
1088.21	5220.86
1092.6	4080.08
1096.99	3327.07
1101.38	2698.91
1105.77	2287.65
1110.15	2059.53
1114.53	1843.67
1118.9	2117.97
1123.28	2594.75
1127.65	3232.07
1132.02	4304.08
1136.38	4121.78
1140.75	2624.02
1145.11	1359.52
1149.47	638.249
1153.82	154.524
1158.17	16.2021
1162.53	4.68652
1166.87	235.144
1171.22	23.251
1175.56	126.884
1179.9	53.9492
1184.24	26.6377
1188.57	84.5078
1192.91	212.536
1197.23	129.47
1201.56	130.248
1205.89	239.878
1210.21	72.4795
1214.53	25.9355
1218.84	61.8525
1223.16	50.9531
1227.47	81.5898
1231.78	165.032
1236.08	15.6973
1240.39	189.961
1244.69	108.844
1248.99	176.464
1253.28	168.54
1257.57	354.38
1261.87	475.183
1266.15	485.193
1270.44	325.242
1274.72	389.348
1279	454.46
1283.28	407.446
1287.55	582.972
1291.82	688.975
1296.09	707.599
1300.36	801.023
1304.62	774.24
1308.88	950.65
1313.14	1041.33
1317.4	1029.78
1321.65	936.062
1325.9	1015.62
1330.15	975.003
1334.4	856.807
1338.64	813.673
1342.88	656.004
1347.12	567.32
1351.35	401.724
1355.59	476.519
1359.82	440.279
1364.04	420.757
1368.27	249.828
1372.49	157.15
1376.71	139.828
1380.92	109.201
1385.14	52.7353
1389.35	137.76
1393.56	103.846
1397.76	138.565
1401.97	35.8691
1406.17	130.428
1410.37	75.1621
1414.56	89.7695
1418.75	96.5391
1422.94	139.875
1427.13	4.65625
1431.32	11.5576
1435.5	66.4297
1439.68	14.5752
1443.86	15.8242
1448.03	26.0156
1452.2	127.365
1456.37	1.84766
1460.54	10.0215
1464.7	76.5068
1468.86	72.4356
1473.02	7.00586
1477.17	14.6406
1481.33	212.077
1485.48	54.6973
1489.63	298.874
1493.77	276.583
1497.91	181.019
1502.05	123.273
1506.19	316.685
1510.33	163.422
1514.46	190.395
1518.59	231.19
1522.71	67.6328
1526.84	246.901
1530.96	132.07
1535.08	248.834
1539.19	98.9512
1543.31	277.969
1547.42	85.4707
1551.53	156.899
1555.63	225.794
1559.73	66.6387
1563.83	211.677
1567.93	203.37
1572.03	2.46777
1576.12	1.84863
