Measurement: Raman, 514 nm, ccw, Raman Data Processed
Mineral: Triplite
Rruff sample: R050226
Ideal chemistry: Mn^2+^_2_(PO_4_)F
Locality: Fremont County, Colorado, USA
Source: Marcus Origlieri
Description: Reddish brown massive
Measured chemistry: (Mn^2+^_1.20_Mg_0.49_Fe^2+^_0.27_Ca_0.04_)_Σ=2_(P_1.00_O_4_)(F_0.95_(OH)_0.05_)_Σ=1_
Pin_id: L00502
Orientation: Laser parallel to b* (0 1 0). Fiducial mark perpendicular to laser is parallel to c [0 0 1]
Raman shift (cm-1)	intensity
139.942	0
144.849	186.943
149.754	930.619
154.656	1798.17
159.556	1533.84
164.453	1651.17
169.348	888.543
174.241	951.311
179.131	333.897
184.019	161.512
188.904	381.482
193.787	149.486
198.667	435.809
203.545	583.295
208.42	385.178
213.294	535.266
218.164	562.979
223.032	616.139
227.898	637.646
232.761	160.176
237.622	6.72461
242.481	108.398
247.337	422.969
252.19	586.982
257.041	499.83
261.89	184.389
266.736	163.1
271.58	304.033
276.421	399.69
281.26	621.846
286.096	893.559
290.93	1377.57
295.761	1664.91
300.59	1646.29
305.417	1156.45
310.241	957.807
315.062	659.547
319.881	446.731
324.698	574.148
329.512	399.84
334.324	111.927
339.133	85.3672
343.94	16.6982
348.744	128.697
353.546	1.91016
358.345	3.1709
363.142	30.7012
367.937	55.4522
372.728	96.7461
377.518	451.671
382.305	829.544
387.089	1143.88
391.871	981.976
396.651	974.138
401.428	1048.31
406.202	1219.9
410.974	1640.49
415.744	2149.67
420.511	2681.93
425.276	3669.17
430.038	4166.79
434.797	3497.08
439.554	2605.36
444.309	1524.68
449.061	972.118
453.811	685.768
458.558	554.637
463.303	310.174
468.045	321.688
472.784	178.586
477.521	64.0644
482.256	114.107
486.988	128.051
491.718	143.751
496.445	117.71
501.17	134.614
505.892	97.2637
510.611	174.294
515.328	193.946
520.043	147.203
524.755	88.0957
529.465	92.7734
534.172	213.394
538.876	134.37
543.578	416.74
548.278	842.626
552.975	1332.15
557.669	1668.35
562.361	1792.22
567.05	2130.7
571.737	2248.77
576.422	2421.49
581.104	2691.82
585.783	2920.82
590.46	3727.54
595.134	5661.41
599.806	8064.65
604.475	10025.5
609.142	9093.09
613.806	7329.67
618.468	6200.89
623.127	5597.05
627.783	5259.95
632.437	5101.22
637.089	5314.11
641.738	5672.48
646.384	6209.77
651.028	6990.11
655.67	7641.06
660.308	8433.88
664.945	8679.38
669.579	9778.27
674.21	11316.7
678.838	13302.6
683.465	15220.7
688.088	16726.1
692.709	17427.8
697.328	16845.8
701.944	15321.1
706.557	12956.6
711.168	10756.2
715.776	8498.02
720.382	6375.34
724.985	4943.64
729.586	3412.83
734.184	2489.53
738.78	1676.75
743.373	1023.65
747.963	534.394
752.551	489.415
757.136	541.474
761.719	461.431
766.299	561.515
770.877	635.225
775.452	860.108
780.025	1196.66
784.595	1384.35
789.162	1596.3
793.727	1718.1
798.289	2154.54
802.849	2223.05
807.406	2416.32
811.961	2271.08
816.513	1867.67
821.063	1514.9
825.609	1253.75
830.154	919.71
834.696	603.369
839.235	381.802
843.771	39.7129
848.306	21.7842
852.837	162.004
857.366	234.617
861.892	198.263
866.416	19.3525
870.937	63.0254
875.456	22.8525
879.972	44.1201
884.486	152.674
888.996	47.9629
893.505	14.2266
898.011	119.429
902.514	51.1084
907.014	127.894
911.512	427.839
916.008	364.587
920.501	678.09
924.991	739.263
929.479	936.779
933.964	1132.37
938.446	1674.26
942.926	2096.71
947.404	2811.67
951.878	3856.36
956.35	5697.6
960.82	8283.45
965.287	13045.9
969.751	22238
974.213	41210.8
978.673	73543.6
983.129	108004
987.583	106117
992.035	61641.4
996.483	28279.8
1000.93	13978.4
1005.37	9764.4
1009.82	8309.03
1014.25	7872.74
1018.69	7634.98
1023.12	8030.47
1027.55	8336.43
1031.98	8834.63
1036.41	9190.02
1040.83	9160.66
1045.25	9390.37
1049.67	8991.39
1054.08	8562.92
1058.49	7742.62
1062.9	7303.28
1067.31	6906.97
1071.72	6868.81
1076.12	6989.92
1080.52	6183.57
1084.91	5824.85
1089.31	4998.73
1093.7	4304.52
1098.09	3472.82
1102.48	3108.91
1106.86	2534.91
1111.24	2288.6
1115.62	1980.82
1120	1988.12
1124.37	1971.65
1128.74	2104.2
1133.11	2129.86
1137.47	1347.14
1141.84	940.51
1146.2	693.851
1150.56	333.183
1154.91	149.154
1159.26	93.6631
1163.61	52.7148
1167.96	166.105
1172.31	236.386
1176.65	80.3789
1180.99	3.38477
1185.32	48.6318
1189.66	3.88672
1193.99	151.47
1198.32	124.472
1202.64	3.84961
1206.97	39.5879
1211.29	120.738
1215.61	22.6562
1219.92	61.2871
1224.24	47.6328
1228.55	48.335
1232.86	200.352
1237.16	274.881
1241.46	102.985
1245.76	344.575
1250.06	266.518
1254.36	488.794
1258.65	512.405
1262.94	519.368
1267.22	553.642
1271.51	709.215
1275.79	769.062
1280.07	769.139
1284.35	1068.43
1288.62	1066.89
1292.89	1019.05
1297.16	1302.2
1301.42	1198.72
1305.69	1505.91
1309.95	1454.13
1314.21	1491.75
1318.46	1877.04
1322.71	1516.41
1326.96	1594.23
1331.21	1501.21
1335.46	1267.04
1339.7	1120.06
1343.94	1096.76
1348.18	1051.48
1352.41	1034.11
1356.64	974.134
1360.87	870.037
1365.1	906.946
1369.32	892.822
1373.54	873.057
1377.76	716.872
1381.98	785.538
1386.19	661.48
1390.4	646.176
1394.61	602.082
1398.81	480.151
1403.02	475.488
1407.22	441.71
1411.41	474.415
1415.61	433.519
1419.8	410.279
1423.99	274.712
1428.18	303.898
1432.36	153.761
1436.54	135.704
1440.72	88.9043
1444.9	21.3457
1449.07	56.4023
1453.24	29.874
1457.41	57.5732
1461.58	46.333
1465.74	5.09082
1469.9	91.9922
1474.06	199.786
1478.21	58.3066
1482.37	134.231
1486.52	21.5049
1490.66	93.7686
1494.81	27.127
1498.95	236.734
1503.09	206.182
1507.22	97.209
1511.36	75.2549
1515.49	81.7041
1519.62	240.644
1523.74	272.434
1527.87	214.362
1531.99	212.696
1536.11	164.031
1540.22	174.672
1544.33	156.251
1548.44	69.8037
1552.55	118.25
1556.66	117.944
1560.76	127.138
1564.86	1.31055
1568.95	98.335
1573.05	0.085938
1577.14	114.469
