Measurement: Raman, 514 nm, ccw, Raman Data Processed
Mineral: Triplite
Rruff sample: R050226
Ideal chemistry: Mn^2+^_2_(PO_4_)F
Locality: Fremont County, Colorado, USA
Source: Marcus Origlieri
Description: Reddish brown massive
Measured chemistry: (Mn^2+^_1.20_Mg_0.49_Fe^2+^_0.27_Ca_0.04_)_Σ=2_(P_1.00_O_4_)(F_0.95_(OH)_0.05_)_Σ=1_
Pin_id: L00496
Orientation: Laser parallel to a* (1 0 0). Fiducial mark perpendicular to laser is parallel to b [0 1 0]
Raman shift (cm-1)	intensity
131.349	0
136.26	22.2344
141.169	1442.62
146.076	490.34
150.98	576.801
155.881	2387.79
160.78	1535.94
165.677	1903.29
170.572	1416.21
175.464	1627.91
180.353	834.57
185.24	125.465
190.125	675.062
195.007	1894.27
199.887	2021.43
204.764	2710.14
209.639	511.59
214.511	898.797
219.381	654.465
224.249	239.512
229.114	862.297
233.977	589.246
238.837	433.113
243.695	340.375
248.55	1158.64
253.403	454.598
258.253	782.363
263.101	1077.46
267.947	1465.05
272.79	1296.8
277.631	1205.75
282.469	1557.86
287.305	2173.52
292.138	1950.55
296.969	2829.17
301.797	2912.26
306.623	2254.43
311.446	1898.56
316.267	1989.01
321.086	1090.89
325.902	1484.81
330.715	894.473
335.526	999.059
340.335	974.137
345.141	605.738
349.945	124.461
354.746	160.926
359.545	127.356
364.341	247.863
369.135	427.699
373.926	418.805
378.715	632.879
383.501	519.262
388.285	218.246
393.066	70.9766
397.845	19.1328
402.622	695.664
407.396	898.719
412.167	1226
416.936	2993.56
421.702	4245.84
426.466	4841.59
431.228	4444.88
435.987	2872.07
440.743	1965.6
445.497	1189.43
450.249	877.312
454.998	832.141
459.744	734.531
464.488	1116.49
469.23	1503.25
473.969	1348.23
478.705	1505.78
483.439	1817.2
488.171	2087.29
492.9	2477.87
497.626	2357.84
502.35	2376.7
507.072	1937.12
511.791	1219.27
516.507	1319.59
521.221	1230.31
525.933	1105.9
530.642	1146.23
535.348	1050.71
540.052	1183.34
544.753	2044.46
549.452	2328.11
554.148	3074.27
558.842	4506.63
563.534	4974.06
568.222	5630.45
572.909	6185.43
577.592	6398.94
582.274	6041.77
586.952	5603.19
591.629	6151.98
596.302	7284.36
600.973	8211.34
605.642	9481.5
610.308	9340.02
614.972	9261.77
619.633	8902.07
624.291	9452.82
628.947	9571.93
633.6	9861.21
638.251	10486.6
642.9	11260.5
647.546	11816.6
652.189	12530.1
656.83	12757.1
661.468	13081.6
666.103	13855.4
670.737	14167.4
675.367	16029.7
679.995	17891.9
684.621	19373.8
689.244	21021.6
693.864	21812
698.482	20614.9
703.097	18688.9
707.71	16450.6
712.32	14152.3
716.928	12168.4
721.533	9546.43
726.136	7433.43
730.736	6074.06
735.333	4724.57
739.928	3430.14
744.52	2747.6
749.11	1921.08
753.698	1283.34
758.282	855.141
762.864	364.394
767.444	588.207
772.021	202.668
776.596	263.164
781.167	35.0039
785.737	229.934
790.304	17.5859
794.868	165.562
799.43	190.484
803.989	251.41
808.545	68.5273
813.099	205.637
817.651	90.3828
822.199	269.32
826.746	327.688
831.289	642.281
835.831	76.9336
840.369	314.641
844.905	348.785
849.439	237.359
853.97	313.59
858.498	505.484
863.024	116.449
867.547	149.598
872.067	38.1016
876.585	83.1758
881.101	118.844
885.614	132.072
890.124	195.031
894.632	420.898
899.137	635.086
903.639	566
908.139	872.414
912.636	983.992
917.131	936.211
921.623	1370.91
926.113	1645.64
930.6	1762.78
935.085	2633.66
939.566	3242.2
944.046	4055.91
948.522	5270.33
952.997	7160.65
957.468	10206.6
961.937	13926.1
966.403	19444.9
970.867	31129.2
975.328	52581.6
979.787	88600
984.243	117522
988.696	100610
993.147	54811.4
997.595	26152.2
1002.04	15732.3
1006.48	11652.1
1010.92	9890.85
1015.36	9228.36
1019.8	9192.54
1024.23	8770.99
1028.66	8839.82
1033.09	8846.96
1037.51	8710.5
1041.93	8462.27
1046.35	8126.5
1050.77	8160.37
1055.19	7935.49
1059.6	7718.92
1064.01	7398.13
1068.41	7405.38
1072.82	7958.43
1077.22	7756.23
1081.62	7502.11
1086.01	7107.05
1090.41	6421.19
1094.8	5656.3
1099.19	4636.95
1103.57	4191.76
1107.96	3126.16
1112.34	3461.18
1116.71	3063.41
1121.09	3553.39
1125.46	3296.47
1129.83	3026.39
1134.2	2535.62
1138.57	2185.33
1142.93	1602.38
1147.29	916.269
1151.64	767.16
1156	383.125
1160.35	194.75
1164.7	150.027
1169.05	373.269
1173.39	387.082
1177.73	78.9805
1182.07	234.582
1186.41	355.207
1190.74	267.871
1195.07	219.301
1199.4	28.1484
1203.72	252.445
1208.05	80.4141
1212.37	184.477
1216.69	62.1289
1221	644.894
1225.31	160.731
1229.62	55.5938
1233.93	31.6289
1238.24	142.941
1242.54	241.891
1246.84	58.9805
1251.13	226.281
1255.43	204.34
1259.72	333.098
1264.01	769.961
1268.3	872.375
1272.58	1056.77
1276.86	723.727
1281.14	1148.11
1285.41	747.5
1289.69	956.07
1293.96	1033.28
1298.23	1013.41
1302.49	1275.85
1306.75	1332.56
1311.01	1238.84
1315.27	1161.24
1319.53	1047.85
1323.78	1043.66
1328.03	1050.72
1332.27	729.719
1336.52	1038.19
1340.76	509.492
1345	1252.17
1349.23	708.031
1353.47	724.25
1357.7	1135.23
1361.93	831.523
1366.15	1277.09
1370.38	925.188
1374.6	1015.79
1378.82	967.219
1383.03	1263.4
1387.24	1032.63
1391.45	1157.57
1395.66	838.008
1399.87	1079.75
1404.07	838.539
1408.27	1083.64
1412.46	617.977
1416.66	592.352
1420.85	664.773
1425.04	1110.98
1429.22	651.875
1433.41	483.008
1437.59	634.469
1441.77	833.398
1445.94	54.7812
1450.12	859.898
1454.29	196.68
1458.45	421.18
1462.62	424.914
1466.78	214.203
1470.94	204.195
1475.1	578.766
1479.25	779.078
1483.4	523.695
1487.55	95.3438
1491.7	2.73438
1495.84	390.57
1499.98	148.023
1504.12	833.188
1508.26	529.656
1512.39	676.844
1516.52	670.922
1520.65	1020.68
1524.78	788.031
1528.9	908.703
1533.02	606.75
1537.13	846.891
1541.25	635.727
1545.36	913.445
1549.47	475.805
1553.58	487.695
1557.68	860.367
1561.78	872.709
1565.88	852.805
1569.98	860.203
1574.07	15.6641
1578.16	237.102
