Measurement: Raman, 514 nm, ccw, Raman Data Processed
Mineral: Triplite
Rruff sample: R050226
Ideal chemistry: Mn^2+^_2_(PO_4_)F
Locality: Fremont County, Colorado, USA
Source: Marcus Origlieri
Description: Reddish brown massive
Measured chemistry: (Mn^2+^_1.20_Mg_0.49_Fe^2+^_0.27_Ca_0.04_)_Σ=2_(P_1.00_O_4_)(F_0.95_(OH)_0.05_)_Σ=1_
Pin_id: L00426
Orientation: Laser parallel to c* (0 0 1). Fiducial mark perpendicular to laser is parallel to a [1 0 0]
Raman shift (cm-1)	intensity
129.026	0
133.958	16.4961
138.888	531.59
143.815	322.148
148.739	588.918
153.661	889.519
158.58	979.106
163.496	941.984
168.409	938.176
173.32	518.891
178.228	256.512
183.133	286.371
188.035	525.297
192.935	158.988
197.832	426.176
202.727	395.695
207.618	554.836
212.507	528.648
217.393	1466.78
222.277	2595.75
227.157	2419.92
232.035	1519.11
236.911	890.406
241.783	1508.24
246.653	1126.95
251.52	1212.82
256.385	1227.44
261.246	1187.91
266.105	835.703
270.962	1345.96
275.815	1738.66
280.666	3259.18
285.514	3673.92
290.36	5193.57
295.203	5235.63
300.043	4930.53
304.88	3553.99
309.715	2238.75
314.547	1321.61
319.376	1168.43
324.203	682.684
329.027	468.043
333.848	677.812
338.667	82.543
343.482	146.223
348.296	64.6953
353.106	148.125
357.914	16.3945
362.719	235.301
367.521	10.3047
372.321	411.231
377.118	436.481
381.912	1081.7
386.704	1746.6
391.493	2993.48
396.279	3127.3
401.063	4491.73
405.844	5797.58
410.622	5610.78
415.398	4791.5
420.171	4886.48
424.941	5532.15
429.709	7557.58
434.473	8628.95
439.236	8960.3
443.995	7602.63
448.752	6946.88
453.506	6998.91
458.258	6806.02
463.007	5377.56
467.753	3402.4
472.497	2658.27
477.238	1952.67
481.976	1804.75
486.712	1531.75
491.445	1481.84
496.175	1610.14
500.902	1082.67
505.627	860.137
510.35	462.047
515.069	447.594
519.786	198.297
524.501	110.125
529.213	513.344
533.922	32.7109
538.628	9.33594
543.332	360.594
548.033	402.461
552.731	608.941
557.427	522.141
562.121	998.91
566.811	1330.78
571.499	1770.18
576.184	2538.21
580.867	2602.4
585.547	2916.91
590.224	4025.2
594.899	5460.75
599.571	7781.45
604.241	8907.96
608.908	9162.94
613.572	7738.89
618.233	7007
622.892	6850.35
627.549	6848.15
632.202	7011.83
636.853	7762.91
641.502	8916.81
646.148	10198.7
650.791	11616
655.432	12376.6
660.069	13083.4
664.705	13677.2
669.338	13781.8
673.968	14687.9
678.595	15366.5
683.22	16225.5
687.842	16571.7
692.462	16435.2
697.079	16236.5
701.694	15091.4
706.305	12864.1
710.915	11082.3
715.521	9275.27
720.125	7840.37
724.727	5575.48
729.325	4235.34
733.922	3404.51
738.515	2419.82
743.106	1363.19
747.695	1435.13
752.28	948.594
756.864	768.07
761.444	1092.28
766.022	932.258
770.598	839.625
775.17	1367.31
779.741	1334.64
784.308	1607.84
788.873	1975.95
793.436	2205.28
797.996	3299.62
802.553	2761.16
807.108	2834.68
811.66	2672.53
816.209	2500.64
820.756	2205.35
825.301	2129.17
829.842	1402.02
834.382	957.484
838.918	783.359
843.452	110.664
847.984	446.609
852.513	204.734
857.039	63
861.563	423.875
866.084	136.141
870.603	382.918
875.119	97.6719
879.632	157.617
884.143	93.3984
888.651	445.219
893.157	201.086
897.66	145.641
902.161	408.539
906.659	415.164
911.154	582.117
915.647	931.922
920.138	884.477
924.626	1108.91
929.111	1243.11
933.594	1402.06
938.074	1884.78
942.551	2979.31
947.026	4096.65
951.499	5847.81
955.969	8242.04
960.436	10361.2
964.901	14849.4
969.363	21542.5
973.823	34084.9
978.28	54422.2
982.735	77243.5
987.187	73591.1
991.637	44457.8
996.084	22287.7
1000.53	12442.6
1004.97	9290.04
1009.41	8293.15
1013.85	7112.24
1018.28	7274.17
1022.71	7993.13
1027.14	7811.36
1031.57	7749.69
1035.99	7509.65
1040.41	8093.88
1044.83	7930.46
1049.25	7497.42
1053.66	7454.91
1058.08	6748.97
1062.48	6989.59
1066.89	7280.1
1071.3	7061.56
1075.7	6834
1080.1	6525.53
1084.49	6160.16
1088.89	5920.23
1093.28	4728.31
1097.67	4384.38
1102.05	2886.74
1106.44	2284.64
1110.82	3062.8
1115.2	2865.93
1119.57	3875.28
1123.95	3227.47
1128.32	2799.42
1132.69	2667.56
1137.05	1933.05
1141.42	854.031
1145.78	349.703
1150.14	105.023
1154.49	190.016
1158.85	258.141
1163.2	405.633
1167.55	198.781
1171.89	100.125
1176.24	312.047
1180.58	127.141
1184.92	347.469
1189.25	476.141
1193.59	286.938
1197.92	412.891
1202.25	496.516
1206.57	341.531
1210.9	415.797
1215.22	313.266
1219.54	130.656
1223.85	698.828
1228.17	736.359
1232.48	1017.48
1236.79	1806.22
1241.09	1381.33
1245.4	1739.78
1249.7	1410.52
1254	1656.55
1258.29	2147.86
1262.59	2202.42
1266.88	2420.19
1271.17	2537.16
1275.45	2743.25
1279.74	2303.98
1284.02	3403.25
1288.3	3744.56
1292.58	4605.53
1296.85	5179.39
1301.12	5214.7
1305.39	6314.67
1309.66	5543.5
1313.92	6803.33
1318.18	6673.8
1322.44	7118.98
1326.7	5652.81
1330.95	5338.47
1335.2	5560.11
1339.45	4628.48
1343.7	4597.95
1347.95	4258.55
1352.19	3572.89
1356.43	3474.72
1360.66	2779.56
1364.9	2628.36
1369.13	2295.7
1373.36	2400.27
1377.59	1834.48
1381.81	2295.02
1386.04	1754.59
1390.26	962.891
1394.47	933.5
1398.69	1212.88
1402.9	1161.25
1407.11	1447.19
1411.32	1371.38
1415.53	8.96875
1419.73	1037.16
1423.93	332.641
1428.13	1263.94
1432.32	697.953
1436.52	1044.53
1440.71	137.188
1444.89	585.328
1449.08	1278.5
1453.26	471.953
1457.44	361.156
1461.62	533.25
1465.8	328.453
1469.97	213.109
1474.14	411.578
1478.31	96
1482.48	107.594
1486.64	514.328
1490.81	12.1875
1494.96	1024.06
1499.12	1422.05
1503.28	339.453
1507.43	1208.47
1511.58	1427.55
1515.72	1078.31
1519.87	990.109
1524.01	1180.83
1528.15	1028.48
1532.29	1014.55
1536.42	425.219
1540.55	749.266
1544.68	523.156
1548.81	1245.67
1552.94	989.406
1557.06	636.719
1561.18	426.562
1565.3	831.391
1569.41	1356.08
1573.53	451.031
1577.64	1050
