Measurement: Raman, 514 nm, depolarized, Raman Data Processed
Mineral: Triplite
Rruff sample: R050226
Ideal chemistry: Mn^2+^_2_(PO_4_)F
Locality: Fremont County, Colorado, USA
Source: Marcus Origlieri
Description: Reddish brown massive
Measured chemistry: (Mn^2+^_1.20_Mg_0.49_Fe^2+^_0.27_Ca_0.04_)_Σ=2_(P_1.00_O_4_)(F_0.95_(OH)_0.05_)_Σ=1_
Pin_id: L00502
Orientation: Laser parallel to b* (0 1 0). Fiducial mark perpendicular to laser is parallel to c [0 0 1]
Raman shift (cm-1)	intensity
130.121	0
135.033	49.4492
139.942	394.67
144.849	612.803
149.754	807.025
154.656	1030.83
159.556	942.043
164.453	735.936
169.348	549.705
174.241	478.894
179.131	197.06
184.019	79.8691
188.904	78.7383
193.787	64.2637
198.667	66.9922
203.545	149.828
208.42	54.4844
213.294	32.0977
218.164	415.269
223.032	464.74
227.898	301.584
232.761	46.0605
237.622	182.252
242.481	273.584
247.337	565.885
252.19	620.236
257.041	387.996
261.89	218.162
266.736	216.481
271.58	621.736
276.421	495.162
281.26	844.953
286.096	1427.81
290.93	1870.9
295.761	2143.75
300.59	1922.24
305.417	1550.06
310.241	911.4
315.062	593.516
319.881	578.867
324.698	431.065
329.512	226.906
334.324	127.182
339.133	32.1621
343.94	99.7852
348.744	80.4629
353.546	115.266
358.345	288.998
363.142	73
367.937	34.6523
372.728	154.285
377.518	488.01
382.305	1035.9
387.089	1603.05
391.871	1207.95
396.651	1495.49
401.428	1341.94
406.202	1896.41
410.974	1920.69
415.744	2427.84
420.511	3340.34
425.276	4669
430.038	4806.8
434.797	4379.33
439.554	3123.66
444.309	1802.84
449.061	1170.95
453.811	1230.05
458.558	1009.77
463.303	668.719
468.045	421.414
472.784	128.34
477.521	3.98242
482.256	155.256
486.988	71.6562
491.718	10.2812
496.445	71.9394
501.17	19.4121
505.892	157.565
510.611	66.6367
515.328	205.799
520.043	422.139
524.755	886.312
529.465	1082.56
534.172	1075.63
538.876	1146.51
543.578	1393.63
548.278	1828.04
552.975	2759.52
557.669	3171.07
562.361	2837.58
567.05	2514.11
571.737	2804.97
576.422	2860.46
581.104	2903.44
585.783	3176.91
590.46	4014.81
595.134	5629.14
599.806	8038.13
604.475	9361.72
609.142	9316.4
613.806	8087.22
618.468	7602.05
623.127	6959.06
627.783	6401.58
632.437	5984.18
637.089	5725.5
641.738	5622.39
646.384	5618.6
651.028	6217.91
655.67	6050.82
660.308	6040.01
664.945	5980.21
669.579	6527.39
674.21	6894.52
678.838	7939.6
683.465	8924.62
688.088	9427.6
692.709	9683.37
697.328	9490.06
701.944	8371.12
706.557	7070.05
711.168	5877.04
715.776	4686.79
720.382	3405.13
724.985	2463.69
729.586	1496
734.184	726.973
738.78	555.879
743.373	274.438
747.963	57.9219
752.551	5.93945
757.136	7.88281
761.719	39.0059
766.299	91.1777
770.877	214.371
775.452	330.049
780.025	321.986
784.595	659.512
789.162	910.209
793.727	945
798.289	1258.85
802.849	1044.74
807.406	1260.67
811.961	1077.61
816.513	1201.56
821.063	874.51
825.609	698.449
830.154	655.367
834.696	169.26
839.235	131.035
843.771	16.6035
848.306	130.231
852.837	34.6543
857.366	2.46484
861.892	20.1523
866.416	7.03711
870.937	59.3652
875.456	106.76
879.972	94.1445
884.486	74.7207
888.996	104.59
893.505	14.1465
898.011	46.6016
902.514	30.2969
907.014	335.988
911.512	281.238
916.008	369.928
920.501	341.371
924.991	781.748
929.479	1028.95
933.964	1399.34
938.446	1660.89
942.926	1940.72
947.404	2791.86
951.878	4425.33
956.35	6419.23
960.82	8294.62
965.287	12255.5
969.751	20981.6
974.213	37757.5
978.673	67160
983.129	99941.3
987.583	100187
992.035	60252.3
996.483	27914.4
1000.93	13718.4
1005.37	9525.28
1009.82	7981.64
1014.25	7494.83
1018.69	7124.76
1023.12	7073.26
1027.55	7480.51
1031.98	7963.5
1036.41	8347.12
1040.83	9190.67
1045.25	9461.25
1049.67	8807.82
1054.08	8308.88
1058.49	7480.68
1062.9	6705.96
1067.31	6651.25
1071.72	6935.28
1076.12	7326.06
1080.52	6609.47
1084.91	5669.1
1089.31	5025.09
1093.7	3777.09
1098.09	3126.6
1102.48	2630.78
1106.86	2095.47
1111.24	2212.91
1115.62	1941.07
1120	2051.56
1124.37	2294.74
1128.74	2919.52
1133.11	3133.48
1137.47	2700.19
1141.84	1615.31
1146.2	960.564
1150.56	353.812
1154.91	78.4062
1159.26	179.332
1163.61	133.062
1167.96	27.75
1172.31	11.8477
1176.65	124.281
1180.99	89.6309
1185.32	305.057
1189.66	155.205
1193.99	259.957
1198.32	82.3594
1202.64	311.412
1206.97	88.9473
1211.29	118.004
1215.61	278.779
1219.92	245.004
1224.24	32.4512
1228.55	287.408
1232.86	264.619
1237.16	274.232
1241.46	400.522
1245.76	165.463
1250.06	249.033
1254.36	306.215
1258.65	371.383
1262.94	378.598
1267.22	269.742
1271.51	480.312
1275.79	564.803
1280.07	663.109
1284.35	776.195
1288.62	814.629
1292.89	1060.97
1297.16	1013.38
1301.42	1059.46
1305.69	1531.72
1309.95	1308.42
1314.21	1685.92
1318.46	1649.52
1322.71	1626.98
1326.96	1555.76
1331.21	1456.16
1335.46	1191
1339.7	1050.58
1343.94	1112.52
1348.18	1093.42
1352.41	813.852
1356.64	648.088
1360.87	810.617
1365.1	597.736
1369.32	316.559
1373.54	786.402
1377.76	549.787
1381.98	385.006
1386.19	437.59
1390.4	219.543
1394.61	249.719
1398.81	324.027
1403.02	373.106
1407.22	321.246
1411.41	156.633
1415.61	315.957
1419.8	339.598
1423.99	376.652
1428.18	101.504
1432.36	344.387
1436.54	135.879
1440.72	180.246
1444.9	160.391
1449.07	45.3633
1453.24	105.207
1457.41	98.625
1461.58	145.25
1465.74	51.832
1469.9	305.582
1474.06	196.106
1478.21	100.137
1482.37	264.887
1486.52	34.8281
1490.66	90.7969
1494.81	41.832
1498.95	99.0938
1503.09	147.57
1507.22	178.703
1511.36	243.156
1515.49	358.074
1519.62	585.602
1523.74	274.227
1527.87	238.527
1531.99	508.144
1536.11	93.6289
1540.22	185.504
1544.33	260.922
1548.44	142.043
1552.55	713.441
1556.66	322.68
1560.76	298.203
1564.86	137.68
1568.95	99.6562
1573.05	203.348
1577.14	66.5391
