Measurement: Raman, 514 nm, ccw, Raman Data Processed
Mineral: Triplite
Rruff sample: R050226
Ideal chemistry: Mn^2+^_2_(PO_4_)F
Locality: Fremont County, Colorado, USA
Source: Marcus Origlieri
Description: Reddish brown massive
Measured chemistry: (Mn^2+^_1.20_Mg_0.49_Fe^2+^_0.27_Ca_0.04_)_Σ=2_(P_1.00_O_4_)(F_0.95_(OH)_0.05_)_Σ=1_
Pin_id: L00496
Orientation: Laser parallel to a* (1 0 0). Fiducial mark perpendicular to laser is parallel to b [0 1 0]
Raman shift (cm-1)	intensity
130.624	0
135.529	2234.87
140.432	798.281
145.333	66.1992
150.232	872.848
155.128	989.816
160.022	1066.25
164.914	326.883
169.804	1172.07
174.691	1284.27
179.576	1380.28
184.459	691.394
189.339	2263.75
194.217	1583.48
199.093	1633.88
203.967	2173.88
208.838	631.422
213.707	869.953
218.573	540.715
223.438	430.07
228.3	1100.26
233.16	328.019
238.017	64.3203
242.872	817.508
247.725	580.762
252.575	834.277
257.424	1347.9
262.269	687.344
267.113	669.363
271.954	1409.34
276.793	1132.57
281.63	1002.52
286.464	1989.35
291.296	2609
296.125	2831.44
300.952	3073.17
305.777	2706.32
310.6	2284.74
315.42	1800.44
320.237	1864.16
325.053	1255.32
329.866	1118.28
334.676	776.16
339.485	385.465
344.291	640.164
349.094	330.469
353.895	53.0938
358.694	118.531
363.491	210.446
368.285	388.773
373.076	143.688
377.866	395.758
382.653	436.719
387.437	159.332
392.219	116.871
396.999	455.703
401.776	869.012
406.551	1483.53
411.324	2501.12
416.094	3547.88
420.861	4790.52
425.627	7176.07
430.389	8710.9
435.15	8329.63
439.908	6763.24
444.664	5019.85
449.417	4148.37
454.167	4108.84
458.916	4137.04
463.662	3826.85
468.405	3050.57
473.146	2706.52
477.885	2701.31
482.621	2935.64
487.355	3023.34
492.086	3236.12
496.815	3798.64
501.541	3919.58
506.265	3802.57
510.987	3066.07
515.706	2952.73
520.422	2947.32
525.136	2818.22
529.848	2684.8
534.557	2810.9
539.264	2693.85
543.968	2941.52
548.67	3285.51
553.369	4047.84
558.066	5021.95
562.76	5564.45
567.452	6619.86
572.141	7237.56
576.828	7790.5
581.513	7784.93
586.194	7977.83
590.874	8777.55
595.551	10738.8
600.225	12931.8
604.897	14397.3
609.567	15155.4
614.233	15540
618.898	15204.4
623.56	14285.8
628.219	13174.2
632.876	12824.7
637.53	12530.1
642.182	12601.3
646.832	12464.6
651.478	12402.9
656.123	11957.6
660.764	11164.9
665.404	10615
670.04	9992.01
674.675	9637.41
679.306	9500.99
683.935	9414.89
688.562	9297.84
693.186	9054.9
697.807	8398.6
702.426	7381.94
707.043	6712.62
711.657	5736
716.268	4796.63
720.877	4071.73
725.483	3396.8
730.086	2926.41
734.688	2433.85
739.286	1757.14
743.882	1314.61
748.475	886.926
753.066	600.785
757.654	296.711
762.24	211.914
766.823	81.0312
771.404	15.7422
775.982	245.004
780.557	146.473
785.13	230.465
789.7	179.445
794.268	135.863
798.833	218.969
803.395	158.496
807.955	161.746
812.513	48.1758
817.067	57.4609
821.619	23.9492
826.169	84.0234
830.716	5.44531
835.26	0.90625
839.802	209.644
844.341	109.086
848.877	106.832
853.411	86.9141
857.943	23.7852
862.471	89.8945
866.997	35.8164
871.521	130.324
876.042	50.1055
880.56	91.0117
885.075	87.6445
889.588	176.672
894.099	115.25
898.606	149.043
903.111	776.672
907.614	905.988
912.114	959.981
916.611	1181.32
921.105	1066.76
925.597	1436.13
930.087	1499.82
934.573	1868.79
939.057	2566.49
943.538	3628.56
948.017	4940.35
952.493	6441.71
956.967	8353.44
961.437	10361.5
965.905	13660.4
970.371	21199.5
974.834	36134.2
979.294	62746.5
983.751	92065
988.206	89487.7
992.658	55564.8
997.108	26933.1
1001.55	15498.6
1006	11428.9
1010.44	9696.23
1014.88	9340.98
1019.32	9029.71
1023.75	9402.66
1028.18	9850.48
1032.61	10207.4
1037.03	10609.2
1041.45	10920.2
1045.88	11075.7
1050.29	11179.6
1054.71	10143.9
1059.12	10135.7
1063.53	10083.9
1067.93	10865.9
1072.34	14227
1076.74	14575.2
1081.14	13027.3
1085.53	10206.8
1089.93	8125.64
1094.32	6843.64
1098.7	5439.03
1103.09	4627.14
1107.47	4217.5
1111.85	4015.7
1116.23	3954.43
1120.6	4006.14
1124.97	4369.99
1129.34	4507.51
1133.71	4838.88
1138.07	3913.88
1142.43	2302.4
1146.79	1575.78
1151.15	1109.23
1155.5	655.613
1159.85	456.84
1164.19	265.254
1168.54	158.281
1172.88	276.356
1177.22	112.664
1181.56	75.3398
1185.89	1.12891
1190.22	19.6133
1194.55	105.359
1198.87	38.1289
1203.19	190.731
1207.51	380.824
1211.83	66.4688
1216.14	60.3711
1220.46	9.25781
1224.77	74.957
1229.07	25.2852
1233.37	101.273
1237.67	114.289
1241.97	165.746
1246.27	78.1016
1250.56	139.883
1254.85	30.3086
1259.13	143.711
1263.42	5.17969
1267.7	51.1602
1271.98	309.516
1276.25	349.609
1280.53	443.277
1284.8	201.258
1289.06	452.055
1293.33	166.789
1297.59	667.016
1301.85	737.648
1306.11	700.609
1310.36	895.023
1314.61	934.644
1318.86	1145.97
1323.1	997.379
1327.34	954.047
1331.58	1104.67
1335.82	746.059
1340.05	787.508
1344.29	503.441
1348.51	712.566
1352.74	624.727
1356.96	435.633
1361.18	445.606
1365.4	657.637
1369.61	646.609
1373.82	674.969
1378.03	376.144
1382.24	560.258
1386.44	215.746
1390.64	277.168
1394.84	253.109
1399.04	279.426
1403.23	354.457
1407.42	288.609
1411.6	70.5078
1415.79	265.086
1419.97	295.664
1424.14	342.703
1428.32	15.7031
1432.49	295.965
1436.66	22.957
1440.83	78.1836
1444.99	49.8594
1449.15	368.883
1453.31	8.25781
1457.47	115.672
1461.62	73.2539
1465.77	65.4531
1469.91	93.8516
1474.06	159.656
1478.2	249.371
1482.34	357.144
1486.47	61.0312
1490.61	433.547
1494.74	223.394
1498.86	341.008
1502.99	374.543
1507.11	155.578
1511.23	170.184
1515.34	466.004
1519.46	529.402
1523.57	395.559
1527.67	117.75
1531.78	292.234
1535.88	394.008
1539.98	152.769
1544.07	109.965
1548.17	318.746
1552.26	393.699
1556.34	117.836
1560.43	114.441
1564.51	57.0039
1568.59	96.9961
1572.66	131.758
1576.74	340.445
