Measurement: Raman, 514 nm, depolarized, Raman Data Processed
Mineral: Triplite
Rruff sample: R050226
Ideal chemistry: Mn^2+^_2_(PO_4_)F
Locality: Fremont County, Colorado, USA
Source: Marcus Origlieri
Description: Reddish brown massive
Measured chemistry: (Mn^2+^_1.20_Mg_0.49_Fe^2+^_0.27_Ca_0.04_)_Σ=2_(P_1.00_O_4_)(F_0.95_(OH)_0.05_)_Σ=1_
Pin_id: L00312
Orientation: Laser parallel to (1 0 1). Fiducial mark perpendicular to laser is parallel to b [0 1 0]
Raman shift (cm-1)	intensity
129.209	0
134.127	681.975
139.043	416.918
143.956	847.773
148.867	1160.87
153.775	2036.36
158.681	361.071
163.585	104.85
168.486	729.417
173.385	722.298
178.282	266.697
183.176	262.508
188.067	562.42
192.956	914.135
197.843	1069.68
202.727	1617.06
207.609	472.685
212.489	63.9473
217.366	42.4502
222.24	8.38184
227.112	339.845
231.982	169.535
236.849	103.346
241.714	82.7549
246.577	320.295
251.437	297.446
256.294	352.599
261.149	305.791
266.002	507.476
270.852	274.988
275.7	409.631
280.545	648.604
285.388	591.945
290.229	493.129
295.067	567.102
299.902	749.994
304.735	458.275
309.566	350.514
314.394	177.648
319.22	151.496
324.043	74.0234
328.864	110.912
333.682	89.6406
338.498	71.3008
343.311	12.5469
348.122	106.586
352.931	32.4023
357.737	4.13867
362.54	50.6387
367.341	162.32
372.14	119.629
376.936	115.508
381.73	206.365
386.521	275.746
391.31	347.102
396.096	477.623
400.88	805.229
405.661	620.246
410.44	768.559
415.216	565.453
419.99	716.445
424.761	1267.46
429.53	1200.31
434.297	972.164
439.061	885.08
443.822	1902.13
448.581	2182.13
453.337	1168.36
458.091	783.451
462.843	555.307
467.592	322.617
472.338	449.69
477.082	19.9902
481.824	286.049
486.563	350.492
491.3	194.262
496.034	192.934
500.765	156.736
505.494	371.83
510.221	82.3672
514.945	135.428
519.666	166.111
524.385	115.99
529.102	200.799
533.816	17.3262
538.527	21.3359
543.236	17.457
547.943	404.322
552.647	229.838
557.348	212.106
562.047	313.982
566.744	417.701
571.438	617.219
576.129	699.344
580.818	632.465
585.504	632.918
590.188	1219.76
594.87	1139.01
599.549	1748.88
604.225	1931.8
608.899	2144.72
613.57	2018.14
618.239	1854.15
622.905	1661.1
627.569	1376.64
632.23	1252.13
636.889	1266.22
641.545	1271.95
646.198	1286.6
650.849	1006.8
655.498	1095.34
660.144	1087.77
664.787	837.9
669.428	817.537
674.067	644.055
678.703	695.49
683.336	453.943
687.967	392.828
692.595	436.519
697.221	483.369
701.844	282.033
706.465	449.736
711.083	456.611
715.698	323.207
720.311	248.522
724.922	116.002
729.53	134.717
734.135	201.467
738.738	77
743.338	274.342
747.936	7.55664
752.531	38.5332
757.124	78.5137
761.714	135.838
766.302	203.824
770.887	369.443
775.469	191.754
780.049	235.963
784.626	249.1
789.201	53.7363
793.773	457.191
798.343	297.459
802.91	22.5273
807.475	31.2324
812.037	245.478
816.596	213.539
821.153	2.28516
825.707	106.857
830.259	199.695
834.808	87.0078
839.355	58.2578
843.899	55.9863
848.441	51.6875
852.98	16.041
857.516	171.445
862.05	200.607
866.581	115.227
871.11	4.82617
875.636	84.0488
880.159	103.217
884.68	63.2617
889.199	111.672
893.714	97.8613
898.228	152.059
902.738	257.721
907.246	212.039
911.752	317.557
916.255	264.332
920.755	204.381
925.253	409.131
929.748	339.307
934.241	645.854
938.731	458.746
943.218	562.412
947.703	1102.69
952.186	1332.33
956.665	1625.45
961.142	2397.48
965.617	3405.11
970.089	5132.84
974.558	8210.54
979.025	14133.6
983.489	21598.4
987.951	21339.8
992.41	11372
996.866	5581.98
1001.32	3227.09
1005.77	2911.57
1010.22	2136.45
1014.67	1992.39
1019.11	2549.05
1023.55	2019.06
1027.99	2094.88
1032.42	2057.89
1036.86	2376.06
1041.29	2194.11
1045.72	2482.41
1050.14	2529.82
1054.56	2443.91
1058.98	2078.55
1063.4	1833.32
1067.82	2411.89
1072.23	2842.03
1076.64	2990.78
1081.05	2324.45
1085.45	2816.57
1089.85	1855.84
1094.25	1464.57
1098.65	1119.9
1103.04	1301.31
1107.43	827.016
1111.82	1386.16
1116.21	1168.56
1120.59	1469.5
1124.97	1802.54
1129.35	1265.72
1133.73	1261.51
1138.1	1004.36
1142.47	453.019
1146.84	431.543
1151.21	576.133
1155.57	16.4922
1159.93	184.805
1164.29	228.418
1168.64	28.3086
1172.99	244.172
1177.34	146.531
1181.69	87.8945
1186.04	30.1133
1190.38	25.2891
1194.72	162.324
1199.05	114.356
1203.39	305.367
1207.72	22.8398
1212.05	15.9141
1216.37	22.4492
1220.7	85.0938
1225.02	149.781
1229.34	115.152
1233.65	18.918
1237.97	293.711
1242.28	193.91
1246.59	80.8438
1250.89	145.863
1255.19	122.383
1259.49	61.4609
1263.79	249.988
1268.09	126.34
1272.38	239.629
1276.67	452.531
1280.95	351.695
1285.24	423.488
1289.52	430.367
1293.8	578.348
1298.08	515.934
1302.35	589.262
1306.62	487.848
1310.89	611
1315.15	436.871
1319.42	664.449
1323.68	503.918
1327.94	521.422
1332.19	574.715
1336.44	783.008
1340.69	621.234
1344.94	591.676
1349.19	690.488
1353.43	367.801
1357.67	559.734
1361.9	374.062
1366.14	207.918
1370.37	319.848
1374.6	452.594
1378.83	221.297
1383.05	270.164
1387.27	260.547
1391.49	117.426
1395.7	177.914
1399.92	120.215
1404.13	94.25
1408.34	34.25
1412.54	105.703
1416.74	579.176
1420.94	11.8477
1425.14	171.496
1429.34	104.445
1433.53	29.9219
1437.72	81.4023
1441.9	109.652
1446.09	358.434
1450.27	29.2344
1454.45	87.1719
1458.63	162.859
1462.8	90.1953
1466.97	156.125
1471.14	96.4219
1475.31	74.9609
1479.47	183.277
1483.63	138.016
1487.79	364.539
1491.94	368.266
1496.09	110.664
1500.24	46.9219
1504.39	145.793
1508.54	691.309
1512.68	135.676
1516.82	164.672
1520.95	277.246
1525.09	473.984
1529.22	387.863
1533.35	337.805
1537.47	345.676
1541.6	478.688
1545.72	474.098
1549.83	501.867
1553.95	330.367
1558.06	464.332
1562.17	273.168
1566.28	336.227
1570.38	254.871
