Measurement: Raman, 514 nm, ccw, Raman Data Processed
Mineral: Uvarovite
Rruff sample: R060477
Ideal chemistry: Ca_3_Cr^3+^_2_(SiO_4_)_3_
Locality: Saranovskiy mine, Sarany, Ural Mountains, Russia
Source: Michael Scott
Description: A druse of green dodecahedral crystals
Measured chemistry: Ca_3.00_(Cr_1.15_Al_0.82_Ti_0.03_)_Σ=2_((Si_0.99_Al_0.01_)_Σ=1_O_4_)_3_
Pin_id: M01260
Orientation: Laser parallel to a* (1 0 0). Fiducial mark perpendicular to laser is parallel to -c [0 0 -1]
Raman shift (cm-1)	intensity
160.834	0
165.771	89.6455
170.705	327.195
175.635	1525.91
180.563	1602.01
185.487	371.877
190.409	181.713
195.327	119.047
200.242	45.3467
205.155	35.9937
210.064	46.6016
214.97	45.1533
219.873	50.5083
224.773	33.4849
229.67	220.81
234.564	511.503
239.455	1409.14
244.342	1770.59
249.227	584.771
254.109	187.58
258.988	135.919
263.864	355.719
268.736	672.678
273.606	1554.4
278.473	852.946
283.337	593.331
288.197	398.578
293.055	345.705
297.91	276.885
302.762	284.461
307.611	245.955
312.456	380.793
317.299	422.605
322.139	551.818
326.976	696.175
331.81	881.648
336.641	1154.43
341.469	1548.69
346.294	1675.3
351.116	2002.01
355.936	3002.15
360.752	5902.41
365.565	12776.5
370.376	22189.3
375.183	15966.9
379.988	6786.06
384.789	3420.98
389.588	2168.55
394.384	1651.77
399.177	1619.52
403.967	1823.02
408.754	1225.32
413.538	624.349
418.319	202.008
423.097	111.266
427.873	28.0154
432.646	18.7495
437.415	12.0615
442.182	2.09473
446.946	153.596
451.707	116.437
456.465	220.667
461.221	219.273
465.973	350.244
470.723	129.571
475.47	43.2529
480.214	6.71875
484.955	28.6499
489.693	288.373
494.429	518.451
499.161	503.844
503.891	547.565
508.618	858.669
513.342	975.522
518.063	937.075
522.782	1770.27
527.497	4299.85
532.21	7219.14
536.92	4723.05
541.627	1868.35
546.332	979.087
551.034	690.366
555.732	681.057
560.428	765.914
565.122	655.742
569.812	569.027
574.5	481.948
579.185	435.85
583.867	454.592
588.546	745.706
593.223	1123.77
597.897	833.783
602.568	655.726
607.236	703.593
611.902	683.377
616.565	923.069
621.225	1020.31
625.882	777.794
630.537	429.16
635.189	279.401
639.838	114.511
644.484	145.486
649.128	113.32
653.769	6.93652
658.407	12.1763
663.043	3.97192
667.676	4.32275
672.306	2.15015
676.933	64.5537
681.558	55.3735
686.18	35.1294
690.799	50.6184
695.416	5.83521
700.03	33.5198
704.641	20.3496
709.25	11.0654
713.856	6.76782
718.459	30.196
723.059	65.8919
727.657	92.447
732.253	79.8652
736.845	152.152
741.435	172.311
746.022	347.201
750.607	444.669
755.189	528.088
759.768	791.802
764.345	951.425
768.919	1196.96
773.49	1116.43
778.059	1041.94
782.625	898.474
787.189	917.084
791.749	917.944
796.308	1325.11
800.863	1721.84
805.416	2328.76
809.967	3219.62
814.515	3985.23
819.06	4576.08
823.603	5125.58
828.143	5306.55
832.68	5648.09
837.215	5699.16
841.747	5055.33
846.277	4329.36
850.804	3744.75
855.328	3569.23
859.85	3646.41
864.37	4267.93
868.886	5054.6
873.401	6763.48
877.912	8387.55
882.421	8430.83
886.928	8285.32
891.432	9388.02
895.933	8337.95
900.432	5631.15
904.929	3308.54
909.423	1981.98
913.914	1146.66
918.403	812.467
922.889	635.115
927.373	565.629
931.854	485.589
936.332	531.268
940.809	665.344
945.282	625.81
949.753	543.528
954.222	317.303
958.688	282.419
963.152	328.211
967.613	288.25
972.071	419.465
976.527	552.611
980.981	604.025
985.432	601.426
989.881	650.119
994.327	618.121
998.771	734.114
1003.21	835.359
1007.65	595.76
1012.09	321.313
1016.52	147.011
1020.95	141.852
1025.38	98.8438
1029.81	85.9749
1034.23	14.2385
1038.65	20.3643
1043.07	11.6533
1047.49	50.4104
1051.9	33.8386
1056.31	19.0674
1060.72	41.3127
1065.13	57.8916
1069.54	18.8245
1073.94	38.3906
1078.34	0.626953
1082.73	33.103
1087.13	4.91357
1091.52	18.5923
1095.91	94.1992
1100.3	28.2087
1104.68	33.2383
1109.07	10.6465
1113.45	70.0034
1117.82	105.632
1122.2	97.5999
1126.57	94.6914
1130.94	130.318
1135.31	95.9741
1139.68	152.02
1144.04	159.995
1148.4	128.922
1152.76	95.7642
1157.12	140.005
1161.47	72.3259
1165.82	109.278
1170.17	74.818
1174.52	99.965
1178.87	0.511719
1183.21	9.32263
1187.55	45.8232
1191.88	64.7417
1196.22	62.9847
1200.55	67.8622
1204.88	44.869
1209.21	71.1116
1213.54	57.5886
1217.86	71.9628
1222.18	93.5486
1226.5	82.9106
1230.82	120.449
1235.13	110.061
1239.44	104.41
1243.75	101.17
1248.06	110.874
1252.37	5.52661
1256.67	66.9576
1260.97	92.4812
1265.27	48.3954
1269.56	85.0723
1273.86	50.2325
1278.15	24.4265
1282.44	27.5383
1286.72	42.4657
1291.01	10.0145
1295.29	1.91577
1299.57	25.4691
1303.85	0.443726
1308.12	8.90967
1312.39	14.8124
1316.67	27.4374
1320.93	7.47546
1325.2	41.1057
1329.46	9.36182
1333.73	24.0269
1337.98	46.3464
1342.24	57.683
1346.5	49.86
1350.75	40.1183
1355	0.585571
1359.25	48.5775
1363.49	56.7645
1367.74	51.8833
1371.98	42.001
1376.22	27.0508
1380.46	50.2084
1384.69	5.54858
1388.92	69.4078
1393.15	25.6906
1397.38	116.49
1401.61	69.3154
1405.83	65.973
1410.05	84.8152
1414.27	15.0162
1418.49	54.6246
1422.7	64.7982
1426.92	81.8546
1431.13	67.9341
1435.34	59.3383
1439.54	43.0461
1443.75	78.3932
1447.95	89.3009
1452.15	77.2601
1456.35	73.6694
1460.54	51.5227
1464.73	34.7798
1468.92	48.5413
1473.11	16.9465
1477.3	40.3419
1481.48	3.68811
1485.67	52.7739
1489.85	18.057
1494.02	38.8933
1498.2	25.5898
1502.37	54.7523
1506.55	7.8385
1510.71	74.7289
1514.88	30.9751
1519.05	83.3776
1523.21	43.9209
1527.37	50.5046
1531.53	8.89941
1535.68	54.6248
1539.84	32.0239
1543.99	52.688
1548.14	61.3274
1552.29	72.5008
1556.44	114.278
1560.58	60.6556
1564.72	47.0813
1568.86	23.6633
1573	2.81116
1577.13	4.80408
