Measurement: Raman, 514 nm, ccw, Raman Data Processed
Mineral: Uvarovite
Rruff sample: R061041
Ideal chemistry: Ca_3_Cr^3+^_2_(SiO_4_)_3_
Locality: Outokumpu, Finland
Source: Royal Ontario Museum
Description: Emerald-green euhedral crystal
Measured chemistry: (Ca_2.93_Mg_0.05_Mn_0.01_[box]_0.01_)_Σ=3.00_(Cr_1.23_Al_0.72_Fe^3+^_0.03_Ti_0.02_)_Σ=2_(Si_1.00_O_4_)_3_
Pin_id: M01830
Orientation: Laser parallel to a* (1 0 0). Fiducial mark perpendicular to laser is parallel to c [0 0 1]
Raman shift (cm-1)	intensity
167.005	0
171.938	234.967
176.868	1638.26
181.794	1241.14
186.718	318.278
191.639	217.297
196.556	181.005
201.471	94.1704
206.382	50.9741
211.29	34.0381
216.196	21.4439
221.098	37.8794
225.997	7.60986
230.894	72.376
235.787	251.699
240.677	800.098
245.564	765.778
250.448	241.981
255.329	175.662
260.207	68.7412
265.082	209.203
269.954	488.685
274.823	599.601
279.689	263.062
284.552	173.085
289.412	68.6743
294.269	69.8413
299.123	100.999
303.974	119.87
308.822	43.5659
313.667	140.922
318.509	138.898
323.349	291.76
328.185	312.954
333.018	396.297
337.848	672.782
342.676	785.778
347.5	910.543
352.321	1294.91
357.14	2086.1
361.955	4354.53
366.768	10157.9
371.578	18636.5
376.384	11441.2
381.188	4233.64
385.989	1917.53
390.787	1166.88
395.582	1134.71
400.374	1328.82
405.164	1243.55
409.95	479.687
414.733	279.218
419.514	59.1123
424.292	22.3193
429.066	30.2129
433.838	1.52539
438.607	27.8989
443.373	92.1397
448.137	247.441
452.897	109.031
457.655	111.793
462.409	144.769
467.161	209.947
471.91	0.314941
476.656	52.8667
481.399	41.5962
486.14	170.507
490.877	298.596
495.612	588.852
500.344	535.267
505.073	712.8
509.799	1062.84
514.523	978.8
519.243	1076.23
523.961	1778.66
528.676	4249.48
533.388	6909.79
538.097	3181.2
542.804	1145.7
547.508	727.023
552.209	529.707
556.907	576.865
561.602	691.086
566.295	767.512
570.984	629.879
575.671	545.874
580.356	536.304
585.037	452.295
589.716	994.194
594.392	1758.01
599.065	874.285
603.735	620.348
608.403	681.853
613.068	615.229
617.73	710.494
622.389	819.634
627.046	495.643
631.7	259.517
636.351	121.252
641	70.8481
645.645	28.7529
650.288	100.245
654.929	15.8799
659.566	76.8579
664.201	44.0283
668.833	52.6768
673.463	21.1904
678.09	26.4883
682.714	46.3091
687.335	10.2329
691.954	7.78369
696.57	32.419
701.183	18.2222
705.793	5.89111
710.401	104.864
715.007	7.34912
719.609	97.1079
724.209	78.3223
728.806	121.672
733.401	68.7969
737.993	62.5747
742.582	116.758
747.169	43.6065
751.753	210.373
756.334	114.065
760.913	179.691
765.489	356.255
770.062	424.763
774.633	328.291
779.201	305.844
783.766	304.464
788.329	351.729
792.889	364.103
797.447	350.819
802.002	487.351
806.554	819.062
811.104	1177.31
815.651	1541.42
820.196	2093.68
824.738	2388.32
829.277	2648.63
833.814	2964.97
838.348	3188.84
842.88	3025.26
847.409	2541.44
851.935	2301.33
856.459	2054.53
860.98	2292.21
865.499	2806.07
870.015	3325.11
874.529	4656.35
879.04	6025.78
883.548	6399.41
888.054	7350.26
892.558	9957.32
897.058	10398.6
901.557	7037.09
906.052	3866.19
910.546	2081.89
915.036	1152.44
919.524	758.175
924.01	634.876
928.493	374.482
932.974	429.957
937.452	432.206
941.927	369.175
946.4	498.539
950.871	275.019
955.339	283.427
959.804	241.023
964.267	217.574
968.728	294.927
973.185	325.104
977.641	270.134
982.094	493.173
986.544	536.477
990.992	500.031
995.438	490.759
999.881	475.656
1004.32	675.717
1008.76	438.941
1013.2	252.322
1017.63	42.8052
1022.06	166.506
1026.49	59.3501
1030.91	156.128
1035.34	115.313
1039.76	56.3843
1044.18	56.0102
1048.59	5.28906
1053.01	52.1065
1057.42	20.4326
1061.83	9.97021
1066.23	9.55713
1070.64	14.3599
1075.04	36.5464
1079.44	1.17481
1083.83	47.1865
1088.23	1.47803
1092.62	3.229
1097.01	110.036
1101.39	95.3345
1105.78	62.6094
1110.16	128.403
1114.54	55.4351
1118.92	125.48
1123.29	37.5342
1127.67	120.591
1132.04	170.65
1136.4	161.706
1140.77	48.7559
1145.13	67.8442
1149.49	49.8486
1153.85	101.821
1158.21	38.9019
1162.56	76.5137
1166.91	67.3975
1171.26	169.101
1175.61	83.625
1179.95	4.59326
1184.29	76.1411
1188.63	92.0508
1192.97	93.1069
1197.3	114.287
1201.64	158.553
1205.97	107.059
1210.29	141.362
1214.62	126.076
1218.94	113.324
1223.26	147.589
1227.58	121.046
1231.9	92.479
1236.21	48.1191
1240.52	125.479
1244.83	116.822
1249.14	170.148
1253.44	99.458
1257.74	157.223
1262.04	101.028
1266.34	149.287
1270.64	108.532
1274.93	106.751
1279.22	50.9951
1283.51	56.2017
1287.79	38.1377
1292.08	36.1885
1296.36	40.4639
1300.64	52.228
1304.92	113.189
1309.19	27.7895
1313.46	73.7266
1317.73	113.124
1322	69.1587
1326.27	18.1855
1330.53	15.7568
1334.79	26.3223
1339.05	25.4731
1343.31	106.836
1347.56	26.0879
1351.81	110.365
1356.06	93.7041
1360.31	76.0151
1364.56	17.5977
1368.8	187.09
1373.04	76.5791
1377.28	82.0737
1381.52	105.58
1385.75	161.106
1389.98	113.573
1394.21	179.166
1398.44	103.661
1402.66	78.0962
1406.89	113.257
1411.11	4.01562
1415.33	156.212
1419.54	81.416
1423.76	111.164
1427.97	86.7314
1432.18	268.325
1436.39	52.646
1440.59	96.0278
1444.8	56.398
1449	59.5855
1453.2	101.293
1457.39	90.0703
1461.59	121.744
1465.78	19.4629
1469.97	80.3477
1474.16	151.198
1478.35	75.0669
1482.53	110.94
1486.71	235.825
1490.89	58.7217
1495.07	146.612
1499.24	87.7773
1503.42	92.7339
1507.59	209.112
1511.76	47.1343
1515.92	33.4727
1520.09	88.937
1524.25	39.8921
1528.41	69.3711
1532.57	103.816
1536.72	66.4102
1540.88	4.8291
1545.03	23.0176
1549.18	43.081
1553.33	201.019
1557.47	16.147
1561.62	52.7007
1565.76	9.74658
1569.89	68.2998
1574.03	70.6592
1578.17	0
