Measurement: Raman, 514 nm, depolarized, Raman Data Processed
Mineral: Uvarovite
Rruff sample: R061041
Ideal chemistry: Ca_3_Cr^3+^_2_(SiO_4_)_3_
Locality: Outokumpu, Finland
Source: Royal Ontario Museum
Description: Emerald-green euhedral crystal
Measured chemistry: (Ca_2.93_Mg_0.05_Mn_0.01_[box]_0.01_)_Σ=3.00_(Cr_1.23_Al_0.72_Fe^3+^_0.03_Ti_0.02_)_Σ=2_(Si_1.00_O_4_)_3_
Pin_id: M01830
Orientation: Laser parallel to a* (1 0 0). Fiducial mark perpendicular to laser is parallel to c [0 0 1]
Raman shift (cm-1)	intensity
153.423	0
158.365	100.566
163.303	19.8779
168.238	77.7212
173.17	368.211
178.1	1272.69
183.026	647.1
187.948	197.805
192.868	132.417
197.785	39.9224
202.699	74.5523
207.609	16.8491
212.517	36.5972
217.422	1.15772
222.323	13.8677
227.222	133.715
232.117	126.144
237.01	392.89
241.899	1177
246.785	794.501
251.669	232.384
256.549	41.6103
261.426	139.128
266.3	197.975
271.172	833.281
276.04	756.06
280.905	309.316
285.767	186.062
290.627	82.2998
295.483	59.6841
300.336	101.727
305.186	57.6724
310.034	21.376
314.878	145.658
319.72	298.334
324.558	222.368
329.393	351.648
334.226	468.21
339.055	665.205
343.882	914.293
348.706	1027.74
353.526	1474.64
358.344	2737.41
363.159	5634.73
367.971	13869.7
372.78	21162.2
377.586	10646.8
382.389	4081.73
387.189	1959.06
391.986	1304.77
396.78	1062.83
401.572	1101.24
406.36	905.047
411.146	257.281
415.929	88.8823
420.709	139.178
425.486	12.9482
430.26	48.2974
435.031	28.8789
439.799	30.7207
444.564	83.6221
449.327	285.793
454.087	134.203
458.843	96.353
463.597	340.686
468.348	148.721
473.097	103.938
477.842	17.6743
482.585	30.8648
487.324	124.561
492.061	261.404
496.795	467.389
501.526	540.534
506.255	686.309
510.98	1065.98
515.703	965.401
520.423	1307.26
525.14	2623.88
529.854	6286.53
534.566	7452.9
539.274	2895.13
543.98	916.31
548.683	500.678
553.383	407.293
558.081	316.028
562.775	524.162
567.467	347.902
572.156	387.89
576.843	307.554
581.526	397.084
586.207	429.346
590.885	890.135
595.56	1032.62
600.233	512.779
604.902	615.812
609.569	597.077
614.234	630.925
618.895	872.208
623.554	612.739
628.21	413.133
632.863	296.386
637.514	117.494
642.161	69.4551
646.806	71.2222
651.449	38.7783
656.088	18.999
660.725	89.749
665.36	45.8428
669.991	10.8892
674.62	26.2935
679.246	21.9399
683.869	74.1577
688.49	31.7666
693.108	104.109
697.723	6.37988
702.336	43.8184
706.946	124.853
711.553	42.2852
716.158	21.2837
720.759	24.688
725.359	15.125
729.955	89.854
734.549	11.3237
739.14	127.329
743.729	0.870117
748.315	78.2871
752.898	87.5977
757.479	133.814
762.057	265.946
766.632	275.995
771.205	477.994
775.775	247.948
780.342	279.859
784.907	203.34
789.469	279.021
794.029	199.685
798.586	342.789
803.14	569.754
807.692	905.024
812.241	1125.52
816.788	1718.89
821.332	1977.27
825.873	2448.76
830.412	2698.45
834.948	3064.71
839.481	3246.35
844.012	3252.06
848.541	2527.01
853.066	2157.93
857.59	2165.02
862.11	2395.09
866.628	2852.55
871.144	3892.9
875.657	5170.65
880.167	6474.4
884.675	5925.27
889.18	6352.44
893.683	7633.84
898.183	6858.41
902.681	4353.43
907.176	2568.75
911.669	1430.32
916.159	838.552
920.646	596.436
925.131	397.255
929.613	335.831
934.093	419.833
938.571	485.618
943.046	467.724
947.518	467.826
951.988	298.437
956.455	239.117
960.92	106.734
965.382	269.213
969.842	290.84
974.3	265.001
978.754	537.333
983.207	433.815
987.657	506.612
992.104	557.593
996.549	507.316
1000.99	622.696
1005.43	563.261
1009.87	478.987
1014.3	115.856
1018.74	175.873
1023.17	125.028
1027.59	179.314
1032.02	78.1103
1036.44	26.3018
1040.86	53.084
1045.28	2.99609
1049.7	74.8555
1054.11	17.9062
1058.52	48.7773
1062.93	0.694336
1067.33	58.4043
1071.74	69.3389
1076.14	5.62695
1080.54	60.669
1084.93	71.0742
1089.33	4.89648
1093.72	41.7041
1098.11	6.53516
1102.49	75.1318
1106.88	124.856
1111.26	2.60059
1115.64	134.304
1120.01	187.981
1124.39	32.335
1128.76	124.264
1133.13	148.008
1137.49	224.695
1141.86	224.277
1146.22	159.845
1150.58	138.397
1154.94	134.929
1159.3	13.4404
1163.65	94.6641
1168	79.3906
1172.35	178.183
1176.69	114.967
1181.04	56.6299
1185.38	195.027
1189.72	69.1016
1194.05	124.678
1198.39	116.13
1202.72	117.029
1207.05	172.878
1211.38	215
1215.7	17.6699
1220.02	123.383
1224.34	106.848
1228.66	176.025
1232.97	112.514
1237.29	115.152
1241.6	136.401
1245.91	161.029
1250.21	197.585
1254.52	227.735
1258.82	11.9053
1263.12	180.537
1267.41	159.956
1271.71	191.352
1276	133.731
1280.29	36.0889
1284.58	35.4316
1288.87	56.4111
1293.15	68.29
1297.43	142.806
1301.71	40.2012
1305.98	107.151
1310.26	56.0147
1314.53	63.8252
1318.8	122.194
1323.07	101.374
1327.33	98.7588
1331.6	39.0527
1335.86	30.0742
1340.11	133.319
1344.37	73.6221
1348.62	167.942
1352.88	49.2666
1357.12	49.6592
1361.37	8.34277
1365.62	151.512
1369.86	169.948
1374.1	148.432
1378.34	137.974
1382.57	195.519
1386.81	136.069
1391.04	109.612
1395.27	38.2529
1399.49	59.958
1403.72	188.709
1407.94	54.5635
1412.16	182.424
1416.38	190.419
1420.6	81.4492
1424.81	157.778
1429.02	154.976
1433.23	157.325
1437.44	192.404
1441.64	152.298
1445.85	174.377
1450.05	176.029
1454.25	326.587
1458.44	129.342
1462.64	104.317
1466.83	43.5254
1471.02	156.676
1475.21	118.892
1479.39	85.4053
1483.58	75.6768
1487.76	97.4268
1491.93	143.44
1496.11	150.878
1500.29	49.3711
1504.46	57.2637
1508.63	119.248
1512.8	116.389
1516.96	104.522
1521.13	45
1525.29	116.688
1529.45	84.7656
1533.61	178.156
1537.76	81.8867
1541.92	117.924
1546.07	89.5166
1550.22	183.399
1554.36	143.246
1558.51	153.617
1562.65	5.41211
1566.79	231.793
1570.93	36.583
1575.07	36.4658
