Measurement: Raman, 514 nm, ccw, Raman Data Processed
Mineral: Uvarovite
Rruff sample: R060477
Ideal chemistry: Ca_3_Cr^3+^_2_(SiO_4_)_3_
Locality: Saranovskiy mine, Sarany, Ural Mountains, Russia
Source: Michael Scott
Description: A druse of green dodecahedral crystals
Measured chemistry: Ca_3.00_(Cr_1.15_Al_0.82_Ti_0.03_)_Σ=2_((Si_0.99_Al_0.01_)_Σ=1_O_4_)_3_
Pin_id: M01260
Orientation: Laser parallel to a* (1 0 0). Fiducial mark perpendicular to laser is parallel to -c [0 0 -1]
Raman shift (cm-1)	intensity
152.187	0
157.13	36.0203
162.069	11.3743
167.005	99.9399
171.938	370.721
176.868	2288.97
181.794	1845.9
186.718	428.67
191.639	313.451
196.556	156.139
201.471	142.468
206.382	137.117
211.29	235.82
216.196	15.4653
221.098	96.9609
225.997	39.6802
230.894	100.593
235.787	602.349
240.677	1628.07
245.564	1839.78
250.448	525.458
255.329	240.161
260.207	218.74
265.082	300.868
269.954	1107.18
274.823	1490.74
279.689	888.56
284.552	850.691
289.412	520.148
294.269	244.02
299.123	159.723
303.974	233.007
308.822	168.193
313.667	271.054
318.509	513.467
323.349	613.687
328.185	714.781
333.018	906.417
337.848	1329.19
342.676	1730.97
347.5	2231.71
352.321	3443.38
357.14	5863.94
361.955	12116.4
366.768	28674.8
371.578	47329.5
376.384	28330.6
381.188	11372.8
385.989	5776.97
390.787	3574.19
395.582	2528.45
400.374	2387.81
405.164	2162.28
409.95	1187.88
414.733	541.461
419.514	206.003
424.292	88.4243
429.066	6.38672
433.838	68.5166
438.607	87.8848
443.373	183.763
448.137	262.29
452.897	244.476
457.655	189.305
462.409	257.753
467.161	305.798
471.91	170.422
476.656	95.6089
481.399	97.3535
486.14	252.638
490.877	827.442
495.612	1192.74
500.344	1063.53
505.073	1141.77
509.799	1453.59
514.523	1403.68
519.243	1832.12
523.961	3760.96
528.676	9666.84
533.388	16264.1
538.097	9255.7
542.804	3469.38
547.508	1901.34
552.209	1383.75
556.907	1357.08
561.602	1292.54
566.295	1222.23
570.984	992.591
575.671	881.789
580.356	803.231
585.037	871.089
589.716	1138.92
594.392	1442.42
599.065	1053.42
603.735	1165.06
608.403	1171.62
613.068	1206.08
617.73	1279.43
622.389	1222.65
627.046	910.745
631.7	472.692
636.351	319.487
641	195.66
645.645	125.582
650.288	2.87012
654.929	1.84424
659.566	52.7871
664.201	34.2632
668.833	10.4553
673.463	28.3066
678.09	76.9861
682.714	6.35547
687.335	83.2493
691.954	61.8916
696.57	78.2183
701.183	30.666
705.793	13.9902
710.401	79.9009
715.007	26.5437
719.609	63.075
724.209	84.4731
728.806	118.736
733.401	161.872
737.993	273.89
742.582	415.799
747.169	498.607
751.753	802.325
756.334	1066.96
760.913	1487.53
765.489	1972.3
770.062	2176.51
774.633	2077.2
779.201	1838.44
783.766	1608.02
788.329	1560.58
792.889	1658.68
797.447	2206.82
802.002	3096.41
806.554	4525.81
811.104	6106.87
815.651	7001.44
820.196	7395.26
824.738	7616.14
829.277	7680.73
833.814	7840.49
838.348	7367.29
842.88	6607.07
847.409	5469.31
851.935	5078.49
856.459	4924.44
860.98	5383.16
865.499	6715.4
870.015	9326.43
874.529	13399.8
879.04	15934.8
883.548	14585.8
888.054	13381.3
892.558	13252.3
897.058	10468.6
901.557	6571.38
906.052	3844.98
910.546	2241.85
915.036	1409.83
919.524	1081.27
924.01	881.393
928.493	875.163
932.974	880.287
937.452	985.825
941.927	1168.37
946.4	1012.91
950.871	828.356
955.339	602.804
959.804	568.804
964.267	612.192
968.728	752.237
973.185	812.975
977.641	956.331
982.094	1046.06
986.544	1083.11
990.992	1105.41
995.438	1253.98
999.881	1561.78
1004.32	1678.82
1008.76	1118.08
1013.2	603.558
1017.63	349.233
1022.06	158.1
1026.49	179.15
1030.91	99.3784
1035.34	19.2092
1039.76	7.38208
1044.18	4.09985
1048.59	44.1279
1053.01	51.3415
1057.42	23.002
1061.83	21.8694
1066.23	47.823
1070.64	9.03906
1075.04	56.7551
1079.44	57.4582
1083.83	11.5554
1088.23	27.2671
1092.62	54.1628
1097.01	54.1367
1101.39	53.3411
1105.78	41.3962
1110.16	99.3418
1114.54	87.1882
1118.92	128.924
1123.29	239.541
1127.67	150.031
1132.04	176.388
1136.4	217.602
1140.77	230.713
1145.13	241.622
1149.49	254.369
1153.85	232.249
1158.21	246.15
1162.56	188.474
1166.91	175.624
1171.26	158.584
1175.61	152.911
1179.95	125.355
1184.29	138.663
1188.63	111.093
1192.97	141.904
1197.3	156.557
1201.64	195.819
1205.97	250.148
1210.29	275.232
1214.62	150.114
1218.94	142.32
1223.26	166.376
1227.58	209.36
1231.9	118.494
1236.21	212.94
1240.52	173.146
1244.83	150.023
1249.14	190.66
1253.44	237.13
1257.74	153.583
1262.04	110.809
1266.34	41.8423
1270.64	212.711
1274.93	96.5537
1279.22	85.2651
1283.51	61.658
1287.79	46.9734
1292.08	4.85938
1296.36	16.0813
1300.64	16.2012
1304.92	7.67212
1309.19	33.708
1313.46	73.9175
1317.73	36.3232
1322	12.7207
1326.27	5.93799
1330.53	8.65747
1334.79	1.41113
1339.05	58.8179
1343.31	24.2026
1347.56	0.872314
1351.81	41.9102
1356.06	3.28247
1360.31	40.9746
1364.56	32.1682
1368.8	50.272
1373.04	78.8581
1377.28	52.7929
1381.52	32.6493
1385.75	91.5242
1389.98	57.2492
1394.21	88.8605
1398.44	30.5206
1402.66	37.172
1406.89	96.3087
1411.11	74.7062
1415.33	88.2826
1419.54	81.451
1423.76	95.0295
1427.97	86.9488
1432.18	167.302
1436.39	144.526
1440.59	105.951
1444.8	121.594
1449	82.6368
1453.2	68.1549
1457.39	102.664
1461.59	60.0979
1465.78	39.2487
1469.97	58.7906
1474.16	58.2233
1478.35	12.9781
1482.53	46.5773
1486.71	48.1257
1490.89	74.4851
1495.07	33.7549
1499.24	50.9501
1503.42	56.2587
1507.59	28.7809
1511.76	69.4424
1515.92	78.1667
1520.09	33.0955
1524.25	98.014
1528.41	8.1731
1532.57	24.4501
1536.72	71.4912
1540.88	18.7932
1545.03	94.5482
1549.18	50.6108
1553.33	109.917
1557.47	85.5464
1561.62	45.2555
1565.76	62.7234
1569.89	64.3178
1574.03	18.0654
1578.17	0
