Measurement: Raman, 514 nm, ccw, Raman Data Processed
Mineral: Uvarovite
Rruff sample: R060477
Ideal chemistry: Ca_3_Cr^3+^_2_(SiO_4_)_3_
Locality: Saranovskiy mine, Sarany, Ural Mountains, Russia
Source: Michael Scott
Description: A druse of green dodecahedral crystals
Measured chemistry: Ca_3.00_(Cr_1.15_Al_0.82_Ti_0.03_)_Σ=2_((Si_0.99_Al_0.01_)_Σ=1_O_4_)_3_
Pin_id: M01260
Orientation: Laser parallel to a* (1 0 0). Fiducial mark perpendicular to laser is parallel to -c [0 0 -1]
Raman shift (cm-1)	intensity
160.834	0
165.771	56.8379
170.705	308.368
175.635	1593.39
180.563	1669.79
185.487	267.949
190.409	155.971
195.327	156.585
200.242	74.1148
205.155	114.195
210.064	66.4014
214.97	16.3867
219.873	34.123
224.773	9.18896
229.67	36.1728
234.564	249.996
239.455	673.775
244.342	843.396
249.227	331.815
254.109	107.911
258.988	100.674
263.864	85.8506
268.736	395.179
273.606	920.308
278.473	526.308
283.337	516.22
288.197	265.418
293.055	152.832
297.91	155.462
302.762	263.131
307.611	133.197
312.456	239.194
317.299	474.381
322.139	468.153
326.976	566.178
331.81	591.562
336.641	941.831
341.469	1248.8
346.294	1404.39
351.116	1902.69
355.936	3060.66
360.752	5710.51
365.565	12748.3
370.376	23518.2
375.183	16623.1
379.988	6872.3
384.789	3473.11
389.588	2169.74
394.384	1484.23
399.177	1574.66
403.967	1874.75
408.754	1243.55
413.538	613.987
418.319	295.938
423.097	191.456
427.873	40.5684
432.646	50.2134
437.415	23.6626
442.182	6.87939
446.946	83.812
451.707	115.141
456.465	192.921
461.221	360.141
465.973	513.787
470.723	197.852
475.47	99.3311
480.214	7.77734
484.955	24.5283
489.693	308.246
494.429	514.362
499.161	551.863
503.891	613.763
508.618	853.668
513.342	823.922
518.063	845.858
522.782	1769.35
527.497	4401.15
532.21	7728.48
536.92	5112.98
541.627	1846.18
546.332	1038.09
551.034	728.544
555.732	554.457
560.428	675.319
565.122	590.748
569.812	505.221
574.5	560.136
579.185	439.594
583.867	512.335
588.546	763.304
593.223	1228.32
597.897	842.398
602.568	669.527
607.236	659.703
611.902	796.917
616.565	703.16
621.225	836.366
625.882	645.646
630.537	304.94
635.189	211.24
639.838	189.537
644.484	151.827
649.128	23.0923
653.769	24.2778
658.407	65.2871
663.043	8.07666
667.676	64.7637
672.306	63.706
676.933	157.076
681.558	25.0439
686.18	36.8643
690.799	7.24072
695.416	25.1787
700.03	18.5454
704.641	98.6436
709.25	75.521
713.856	14.2329
718.459	42.8755
723.059	91.5093
727.657	101.14
732.253	68.7686
736.845	89.4033
741.435	150.047
746.022	295.705
750.607	332.382
755.189	509.083
759.768	674.816
764.345	802.585
768.919	1049.4
773.49	984.291
778.059	882.259
782.625	800.344
787.189	745.035
791.749	831.954
796.308	1055.72
800.863	1323.82
805.416	1905.4
809.967	2656.32
814.515	3154.02
819.06	3506.16
823.603	3679.74
828.143	3739.15
832.68	3739.09
837.215	3639.03
841.747	3229.15
846.277	2937.43
850.804	2629.27
855.328	2769.8
859.85	2940.77
864.37	3486
868.886	4542.63
873.401	6356.35
877.912	8078.46
882.421	8263.86
886.928	8494.56
891.432	9646.58
895.933	8734.89
900.432	5789.5
904.929	3364.95
909.423	1962.32
913.914	1178.75
918.403	762.554
922.889	558.136
927.373	557.079
931.854	422.135
936.332	501.909
940.809	546.716
945.282	412.267
949.753	494.827
954.222	313.419
958.688	274.022
963.152	269.554
967.613	332.567
972.071	355.012
976.527	485.263
980.981	578.107
985.432	547.26
989.881	524.66
994.327	609.287
998.771	689.132
1003.21	715.189
1007.65	444.452
1012.09	266.921
1016.52	164.6
1020.95	58.5
1025.38	136.606
1029.81	85.9343
1034.23	33.4526
1038.65	21.1899
1043.07	15.928
1047.49	17.7595
1051.9	15.1169
1056.31	22.2791
1060.72	28.5244
1065.13	48.3394
1069.54	27.1826
1073.94	30.688
1078.34	7.15015
1082.73	95.217
1087.13	0.35791
1091.52	34.834
1095.91	27.7964
1100.3	59.0586
1104.68	14.5283
1109.07	43.8579
1113.45	75.1477
1117.82	75.4294
1122.2	48.6951
1126.57	113.939
1130.94	148.159
1135.31	91.4993
1139.68	143.7
1144.04	132.032
1148.4	125.959
1152.76	95.7297
1157.12	78.4705
1161.47	125.819
1165.82	101.348
1170.17	70.2832
1174.52	118.883
1178.87	72.1291
1183.21	102.392
1187.55	93.3667
1191.88	105.779
1196.22	93.4514
1200.55	146.34
1204.88	107.293
1209.21	110.082
1213.54	119.873
1217.86	102.359
1222.18	71.0203
1226.5	133.376
1230.82	164.618
1235.13	89.3779
1239.44	182.659
1243.75	101.718
1248.06	77.8403
1252.37	95.7334
1256.67	121.756
1260.97	200.788
1265.27	87.4141
1269.56	86.1252
1273.86	4.53394
1278.15	48.9216
1282.44	2.03101
1286.72	27.3008
1291.01	25.1484
1295.29	20.273
1299.57	43.0842
1303.85	19.7224
1308.12	25.3142
1312.39	66.1108
1316.67	67.0991
1320.93	64.8845
1325.2	78.6787
1329.46	48.4326
1333.73	31.3696
1337.98	37.2754
1342.24	18.8325
1346.5	34.4836
1350.75	49.1848
1355	66.0305
1359.25	67.5212
1363.49	99.2029
1367.74	63.894
1371.98	37.5632
1376.22	56.8088
1380.46	70.2881
1384.69	106.572
1388.92	56.6313
1393.15	109.735
1397.38	108.499
1401.61	115.462
1405.83	81.096
1410.05	13.2075
1414.27	123.665
1418.49	96.5845
1422.7	35.1914
1426.92	97.7859
1431.13	87.8057
1435.34	78.626
1439.54	81.6323
1443.75	68.6072
1447.95	49.2031
1452.15	79.7803
1456.35	91.9634
1460.54	24.8914
1464.73	82.9807
1468.92	78.2454
1473.11	48.6736
1477.3	41.6133
1481.48	74.2593
1485.67	47.5591
1489.85	44.8627
1494.02	15.8307
1498.2	17.2096
1502.37	25.6899
1506.55	17.358
1510.71	62.7087
1514.88	15.7758
1519.05	103.57
1523.21	29.577
1527.37	58.1841
1531.53	94.6604
1535.68	88.563
1539.84	54.718
1543.99	67.4801
1548.14	50.1168
1552.29	78.559
1556.44	62.884
1560.58	46.8577
1564.72	84.547
1568.86	0.108276
1573	59.9406
1577.13	13.5546
