Measurement: Raman, 514 nm, ccw, Raman Data Processed
Mineral: Uvarovite
Rruff sample: R061041
Ideal chemistry: Ca_3_Cr^3+^_2_(SiO_4_)_3_
Locality: Outokumpu, Finland
Source: Royal Ontario Museum
Description: Emerald-green euhedral crystal
Measured chemistry: (Ca_2.93_Mg_0.05_Mn_0.01_[box]_0.01_)_Σ=3.00_(Cr_1.23_Al_0.72_Fe^3+^_0.03_Ti_0.02_)_Σ=2_(Si_1.00_O_4_)_3_
Pin_id: M01830
Orientation: Laser parallel to a* (1 0 0). Fiducial mark perpendicular to laser is parallel to c [0 0 1]
Raman shift (cm-1)	intensity
148.479	0
153.423	98.9429
158.365	30.8638
163.303	60.4565
168.238	120.994
173.17	445.06
178.1	1777.61
183.026	741.599
187.948	164.301
192.868	127.894
197.785	148.379
202.699	147.672
207.609	141.667
212.517	2.31348
217.422	106.595
222.323	97.7974
227.222	115.144
232.117	125.76
237.01	365.692
241.899	827.98
246.785	350.76
251.669	166.856
256.549	72.144
261.426	133.676
266.3	81.5537
271.172	559.808
276.04	437.443
280.905	310.469
285.767	231.89
290.627	24.9556
295.483	75.8897
300.336	148.474
305.186	191.805
310.034	147.505
314.878	89.5557
319.72	146.881
324.558	216.498
329.393	382.174
334.226	442.953
339.055	633.293
343.882	823.835
348.706	973.578
353.526	1448.6
358.344	2699.71
363.159	5938.27
367.971	13156.1
372.78	18006.1
377.586	8478.5
382.389	3197.18
387.189	1600.22
391.986	1298.58
396.78	959.197
401.572	1407.14
406.36	983.398
411.146	385.975
415.929	211.822
420.709	81.9043
425.486	48.706
430.26	43.9116
435.031	38.8262
439.799	141.583
444.564	93.5723
449.327	194.07
454.087	153.743
458.843	127.635
463.597	219.689
468.348	113.895
473.097	9.24805
477.842	42.3096
482.585	99.1709
487.324	124.777
492.061	281.498
496.795	347.329
501.526	462.116
506.255	574.161
510.98	828.28
515.703	611.716
520.423	926.008
525.14	2077.53
529.854	5383.6
534.566	5879.69
539.274	2178.39
543.98	639.026
548.683	320.335
553.383	315.349
558.081	362.363
562.775	400.321
567.467	325.409
572.156	250.147
576.843	307.134
581.526	351.821
586.207	356.628
590.885	1231.66
595.56	1330.15
600.233	632.403
604.902	525.171
609.569	565.773
614.234	700.256
618.895	719.488
623.554	643.717
628.21	448.735
632.863	263.711
637.514	195.098
642.161	47.2578
646.806	58.2227
651.449	2.03076
656.088	59.9648
660.725	9.79834
665.36	27.6724
669.991	5.54053
674.62	25.2861
679.246	5.84668
683.869	86.0147
688.49	39.1167
693.108	69.3008
697.723	41.4966
702.336	8.59082
706.946	66.937
711.553	16.2109
716.158	2.89062
720.759	0.279785
725.359	68.1655
729.955	118.492
734.549	3.31348
739.14	121.686
743.729	38.5835
748.315	96.3862
752.898	166.099
757.479	152.773
762.057	168.397
766.632	333.959
771.205	392.457
775.775	275.908
780.342	246.347
784.907	222.361
789.469	291.402
794.029	221.833
798.586	382.919
803.14	580.144
807.692	762.596
812.241	1203.98
816.788	1604.44
821.332	1991.35
825.873	2066.05
830.412	2259.86
834.948	2520.34
839.481	2552.64
844.012	2378.18
848.541	2054.06
853.066	1905.01
857.59	1779.39
862.11	2054.92
866.628	2588.77
871.144	3428.8
875.657	5020.91
880.167	6230.13
884.675	6252.55
889.18	7628.13
893.683	9912.86
898.183	8902.75
902.681	5468.43
907.176	2991.65
911.669	1673.05
916.159	1144.13
920.646	788.526
925.131	448.031
929.613	371.051
934.093	269.636
938.571	375.154
943.046	535.512
947.518	350.26
951.988	340.678
956.455	171.867
960.92	218.988
965.382	238.794
969.842	268.146
974.3	295.368
978.754	401.585
983.207	347.374
987.657	515.014
992.104	480.848
996.549	475.836
1000.99	506.961
1005.43	571.242
1009.87	371.682
1014.3	169.256
1018.74	130.956
1023.17	74.772
1027.59	8.70361
1032.02	24.2539
1036.44	51.9697
1040.86	30.7803
1045.28	92.0762
1049.7	103.236
1054.11	19.5395
1058.52	11.2573
1062.93	149.297
1067.33	94.2944
1071.74	55.8145
1076.14	108.569
1080.54	23.3193
1084.93	17.6865
1089.33	57.7148
1093.72	10.8101
1098.11	18.1108
1102.49	32.0605
1106.88	17.1279
1111.26	33.835
1115.64	111.101
1120.01	116.04
1124.39	105.983
1128.76	113.918
1133.13	99.8452
1137.49	152.761
1141.86	132.661
1146.22	109.135
1150.58	122.998
1154.94	64.8359
1159.3	244.649
1163.65	119.048
1168	48.8003
1172.35	49.5054
1176.69	13.8506
1181.04	93.2109
1185.38	48.0972
1189.72	100.072
1194.05	81.9814
1198.39	161.652
1202.72	24.04
1207.05	43.0566
1211.38	67.5654
1215.7	157.414
1220.02	102.659
1224.34	198.351
1228.66	118.933
1232.97	128.163
1237.29	56.6738
1241.6	179.031
1245.91	77.9038
1250.21	88.0918
1254.52	25.9404
1258.82	73.8936
1263.12	99.6479
1267.41	184.493
1271.71	7.67188
1276	15.1943
1280.29	97.001
1284.58	2.8042
1288.87	3.60498
1293.15	86.4312
1297.43	124.123
1301.71	45.8999
1305.98	20.7095
1310.26	24.145
1314.53	32.0649
1318.8	52.6748
1323.07	33.2993
1327.33	86.4141
1331.6	12.2271
1335.86	32.7168
1340.11	127.921
1344.37	141.189
1348.62	132.454
1352.88	14.7139
1357.12	71.9971
1361.37	141.331
1365.62	59.7402
1369.86	41.2612
1374.1	245.81
1378.34	88.5102
1382.57	105.498
1386.81	65.6973
1391.04	198.42
1395.27	75.1934
1399.49	85.4356
1403.72	123.693
1407.94	83.9077
1412.16	56.9707
1416.38	276.123
1420.6	97.0884
1424.81	69.5542
1429.02	118.713
1433.23	191.208
1437.44	192.732
1441.64	296.728
1445.85	196.762
1450.05	168.678
1454.25	182.379
1458.44	100.147
1462.64	159.779
1466.83	111.159
1471.02	226.887
1475.21	190.712
1479.39	143.562
1483.58	149.212
1487.76	113.21
1491.93	201.262
1496.11	144.492
1500.29	23.0737
1504.46	20.5347
1508.63	98.8398
1512.8	89.4507
1516.96	160.162
1521.13	143.285
1525.29	11.9849
1529.45	38.0283
1533.61	251.457
1537.76	146.176
1541.92	143.696
1546.07	67.019
1550.22	155.842
1554.36	233.732
1558.51	218.987
1562.65	86.8545
1566.79	29.7646
1570.93	118.677
1575.07	55.7778
