Measurement: Raman, 514 nm, depolarized, Raman Data Processed
Mineral: Uvarovite
Rruff sample: R060477
Ideal chemistry: Ca_3_Cr^3+^_2_(SiO_4_)_3_
Locality: Saranovskiy mine, Sarany, Ural Mountains, Russia
Source: Michael Scott
Description: A druse of green dodecahedral crystals
Measured chemistry: Ca_3.00_(Cr_1.15_Al_0.82_Ti_0.03_)_Σ=2_((Si_0.99_Al_0.01_)_Σ=1_O_4_)_3_
Pin_id: M01260
Orientation: Laser parallel to a* (1 0 0). Fiducial mark perpendicular to laser is parallel to -c [0 0 -1]
Raman shift (cm-1)	intensity
164.537	0
169.472	129.77
174.403	1218.38
179.331	2605.79
184.257	635.706
189.179	179.669
194.098	189.559
199.014	111.485
203.927	84.6406
208.837	29.6724
213.744	16.126
218.647	58.9976
223.548	78.1948
228.446	145.461
233.34	310.799
238.232	1105.25
243.121	2317.04
248.006	991.989
252.889	314.002
257.768	232.927
262.645	114.644
267.518	574.898
272.389	1529.8
277.256	1365.93
282.121	840.345
286.982	696.096
291.841	410.202
296.697	279.661
301.549	332.062
306.399	331.102
311.245	228.277
316.089	414.222
320.929	761.756
325.767	696.969
330.602	938.515
335.434	1326.28
340.262	1790.92
345.088	2172.84
349.911	2571.04
354.731	3847.48
359.548	7055.5
364.362	15633.3
369.173	31563.9
373.981	31319.7
378.787	13673.5
383.589	6161.36
388.388	3750.42
393.185	2610.53
397.979	2165.83
402.769	2443.24
407.557	2029.68
412.342	972.195
417.124	476.634
421.903	220.863
426.679	149.789
431.453	48.373
436.223	0.391113
440.991	38.458
445.755	219.916
450.517	180.915
455.276	145.464
460.032	186.639
464.785	453.425
469.536	409.805
474.283	84.77
479.028	146.315
483.77	75.4365
488.509	399.139
493.245	772.412
497.978	882.24
502.709	844.674
507.436	1218.66
512.161	1409.1
516.883	1312.91
521.602	2181.97
526.319	5305.96
531.032	10944.6
535.743	9755.99
540.451	3830.58
545.156	1886.39
549.858	1270.99
554.558	1134.97
559.255	1074.4
563.949	952.887
568.64	886.047
573.328	890.434
578.014	696.66
582.697	718.313
587.377	903.023
592.054	1583.6
596.729	1178.21
601.4	962.867
606.069	992.543
610.736	926.229
615.399	1136.91
620.06	1340.59
624.718	1143.24
629.373	766.865
634.026	358.446
638.676	222.978
643.323	126.453
647.967	148.864
652.609	24.854
657.248	93.9062
661.884	95.3726
666.518	47.0557
671.148	0.325195
675.777	94.2529
680.402	14.7398
685.025	65.9268
689.645	81.3657
694.262	56.4145
698.877	31.8179
703.489	55.9927
708.098	60.8892
712.704	22.0771
717.308	40.9556
721.909	13.7505
726.508	67.4399
731.104	84.085
735.697	242.693
740.288	258.269
744.876	274.822
749.461	511.358
754.044	693.886
758.624	1072.41
763.201	1396.95
767.776	1692.5
772.348	1872.14
776.917	1632.95
781.484	1494.88
786.048	1322.91
790.61	1309.58
795.168	1713.15
799.725	2286.15
804.278	3175.78
808.83	4339.36
813.378	5671.64
817.924	6271.11
822.467	6779
827.008	6936.41
831.546	7051.05
836.081	7095.48
840.614	6620.59
845.145	5587.39
849.672	4829.31
854.197	4614.66
858.72	4737.14
863.24	5259.43
867.757	6612.09
872.272	9032.13
876.785	11936.5
881.294	12512.4
885.802	11526.6
890.306	12302.2
894.808	12219.2
899.308	8499.63
903.805	5143.81
908.299	2923.52
912.791	1742.16
917.281	1140.26
921.768	926.173
926.252	777.957
930.734	740.807
935.213	796.06
939.69	893.085
944.164	1002.97
948.636	777.383
953.105	485.648
957.572	399.998
962.036	368.469
966.498	481.707
970.957	538.871
975.414	639.908
979.868	801.506
984.32	933.034
988.769	868.894
993.216	923.051
997.66	1013.44
1002.1	1138.19
1006.54	994.143
1010.98	521.334
1015.41	238.767
1019.84	174.453
1024.27	87.3857
1028.7	166.589
1033.12	55.0083
1037.55	33.4209
1041.97	86.1533
1046.38	21.3223
1050.8	35.2085
1055.21	60.0645
1059.62	43.3086
1064.03	72.7993
1068.43	1.47217
1072.84	67.3735
1077.24	31.5371
1081.63	6.30518
1086.03	76.9961
1090.42	20.3887
1094.81	16.8682
1099.2	9.45605
1103.59	28.7656
1107.97	118.953
1112.35	124.007
1116.73	71.9228
1121.11	63.7764
1125.48	88.5684
1129.85	215.28
1134.22	184.915
1138.59	112.446
1142.95	226.875
1147.31	170.167
1151.67	205.508
1156.03	209.681
1160.38	170.125
1164.74	179.557
1169.09	172.442
1173.43	175.166
1177.78	114.138
1182.12	99.2156
1186.46	104.207
1190.8	82.0305
1195.14	99.3581
1199.47	76.9219
1203.8	128.033
1208.13	150.524
1212.46	152.833
1216.78	153.422
1221.1	191.087
1225.42	175.557
1229.74	226.17
1234.05	150.709
1238.37	177.562
1242.68	153.568
1246.98	161.655
1251.29	145.209
1255.59	141.091
1259.89	44.8284
1264.19	51.4458
1268.49	126.924
1272.78	79.2747
1277.08	46.6836
1281.36	100.865
1285.65	19.6797
1289.94	19.2136
1294.22	54.5818
1298.5	25.8359
1302.78	0.822266
1307.05	37.4985
1311.33	8.62451
1315.6	34.3203
1319.87	33.2256
1324.13	76.323
1328.4	31.2478
1332.66	66.1382
1336.92	68.0652
1341.18	21.9355
1345.43	0.322998
1349.69	71.4146
1353.94	23.061
1358.19	28.7959
1362.43	63.8616
1366.68	32.3789
1370.92	69.8428
1375.16	78.9807
1379.4	57.2827
1383.63	105.316
1387.87	58.3403
1392.1	67.8938
1396.33	105.839
1400.55	86.655
1404.78	43.5234
1409	65.9429
1413.22	135.064
1417.43	68.7673
1421.65	173.728
1425.86	33.2188
1430.08	119.797
1434.28	44.9353
1438.49	157.083
1442.69	110.967
1446.9	149.3
1451.1	114.625
1455.3	120.645
1459.49	74.0669
1463.68	86.24
1467.88	114.123
1472.07	78.2705
1476.25	25.1748
1480.44	11.1558
1484.62	29.648
1488.8	44.9883
1492.98	106.757
1497.16	60.7935
1501.33	58.1025
1505.5	69.1936
1509.67	45.0996
1513.84	37.353
1518.01	18.2044
1522.17	98.4944
1526.33	27.7368
1530.49	98.6792
1534.65	77.6038
1538.8	100.888
1542.95	85.7461
1547.1	23.7454
1551.25	48.3506
1555.4	48.1528
1559.54	6.19971
1563.69	66.0588
1567.83	68.8303
1571.96	40.6196
1576.1	86.9441
