Measurement: Raman, 514 nm, ccw, Raman Data Processed
Mineral: Uvarovite
Rruff sample: R061041
Ideal chemistry: Ca_3_Cr^3+^_2_(SiO_4_)_3_
Locality: Outokumpu, Finland
Source: Royal Ontario Museum
Description: Emerald-green euhedral crystal
Measured chemistry: (Ca_2.93_Mg_0.05_Mn_0.01_[box]_0.01_)_Σ=3.00_(Cr_1.23_Al_0.72_Fe^3+^_0.03_Ti_0.02_)_Σ=2_(Si_1.00_O_4_)_3_
Pin_id: M01830
Orientation: Laser parallel to a* (1 0 0). Fiducial mark perpendicular to laser is parallel to c [0 0 1]
Raman shift (cm-1)	intensity
168.238	0
173.17	218.393
178.1	525.201
183.026	164.398
187.948	147.028
192.868	82.8806
197.785	39.2139
202.699	61.2839
207.609	12.3196
212.517	67.8618
217.422	6.2417
222.323	4.29272
227.222	98.4382
232.117	97.5615
237.01	333.642
241.899	1079.75
246.785	575.69
251.669	224.59
256.549	30.9692
261.426	37.6655
266.3	206.66
271.172	788.893
276.04	620.534
280.905	299.588
285.767	159.053
290.627	28.9302
295.483	58.7798
300.336	0.931152
305.186	61.5181
310.034	21.127
314.878	20.6152
319.72	95.2939
324.558	144.883
329.393	276.812
334.226	376.168
339.055	584.49
343.882	664.652
348.706	819.829
353.526	1282.9
358.344	2210.83
363.159	4787.48
367.971	12163.7
372.78	19230.7
377.586	9486.04
382.389	3586.56
387.189	1749.31
391.986	1047.36
396.78	874.682
401.572	629.332
406.36	516.286
411.146	228.878
415.929	50.9517
420.709	15.8267
425.486	46.0449
430.26	12.5684
435.031	2.28369
439.799	71.105
444.564	114.225
449.327	174.385
454.087	170.138
458.843	158.759
463.597	186.578
468.348	154.569
473.097	111.721
477.842	60.0283
482.585	64.4619
487.324	176.019
492.061	285.746
496.795	439.617
501.526	493.633
506.255	552.388
510.98	899.87
515.703	871.472
520.423	1247.38
525.14	2511.46
529.854	6022.01
534.566	6817.2
539.274	2430.62
543.98	788.627
548.683	444.663
553.383	359.707
558.081	420.364
562.775	416.928
567.467	440.744
572.156	226.981
576.843	282.669
581.526	187.502
586.207	180.557
590.885	460.673
595.56	559.76
600.233	416.891
604.902	434.847
609.569	400.754
614.234	479.608
618.895	559.015
623.554	496.539
628.21	278.633
632.863	261.83
637.514	91.3779
642.161	67.8579
646.806	17.2602
651.449	46.4346
656.088	22.4878
660.725	20.2036
665.36	4.71729
669.991	37.9688
674.62	4.92529
679.246	38.9941
683.869	41.6294
688.49	32.9136
693.108	25.3643
697.723	50.5283
702.336	29.0581
706.946	78.311
711.553	33.3511
716.158	43.6885
720.759	27.0962
725.359	114.194
729.955	11.5088
734.549	17.0698
739.14	82.5659
743.729	68.0073
748.315	84.4102
752.898	32.7773
757.479	100.117
762.057	98.4477
766.632	193.765
771.205	156.211
775.775	176.799
780.342	161.833
784.907	175.549
789.469	194.339
794.029	198.168
798.586	317.441
803.14	426.193
807.692	602.71
812.241	1005.97
816.788	1188.58
821.332	1543.87
825.873	1885.7
830.412	2170.61
834.948	2476.57
839.481	2827.32
844.012	2566.16
848.541	2173.66
853.066	1786.72
857.59	1636.61
862.11	1836.73
866.628	2310.95
871.144	3120.26
875.657	4380.69
880.167	5105.4
884.675	4349.27
889.18	3823.3
893.683	4234.49
898.183	3689.84
902.681	2328.97
907.176	1310.24
911.669	813.169
916.159	563.357
920.646	384.877
925.131	332.48
929.613	280.957
934.093	282.209
938.571	250.151
943.046	282.785
947.518	276.282
951.988	216.325
956.455	249.023
960.92	227.745
965.382	266.122
969.842	265.609
974.3	238.163
978.754	405.856
983.207	429.621
987.657	428.642
992.104	553.208
996.549	507.005
1000.99	537.396
1005.43	514.938
1009.87	469.627
1014.3	283.189
1018.74	113.381
1023.17	136.433
1027.59	123.6
1032.02	67.9409
1036.44	17.5679
1040.86	46.2778
1045.28	6.86719
1049.7	6.84131
1054.11	19.4936
1058.52	18.5938
1062.93	69.2812
1067.33	29.1338
1071.74	67.063
1076.14	10.0786
1080.54	53.4507
1084.93	22.0957
1089.33	33.6377
1093.72	94.7798
1098.11	21.79
1102.49	1.57617
1106.88	12.0185
1111.26	72.3731
1115.64	85.7925
1120.01	83.2168
1124.39	50.6426
1128.76	73.0703
1133.13	42.8687
1137.49	161.31
1141.86	117.784
1146.22	134.208
1150.58	138.618
1154.94	151.328
1159.3	186.307
1163.65	140.197
1168	193.686
1172.35	174.838
1176.69	35.0234
1181.04	92.5015
1185.38	16.2983
1189.72	20.2895
1194.05	108.531
1198.39	105.626
1202.72	108.371
1207.05	77.4917
1211.38	43.1011
1215.7	153.384
1220.02	184.909
1224.34	89.437
1228.66	117.822
1232.97	99.2524
1237.29	135.949
1241.6	72.9551
1245.91	174.474
1250.21	146.976
1254.52	157.285
1258.82	50.8149
1263.12	30.4092
1267.41	54.8506
1271.71	71.3144
1276	84.7563
1280.29	62.1787
1284.58	33.6103
1288.87	52.8472
1293.15	82.3442
1297.43	74.4702
1301.71	104.27
1305.98	6.44775
1310.26	15.0185
1314.53	99.4038
1318.8	49.0962
1323.07	29.3447
1327.33	110.683
1331.6	25.0654
1335.86	51.25
1340.11	10.8926
1344.37	71.3687
1348.62	82.8291
1352.88	105.305
1357.12	32.8154
1361.37	12.3354
1365.62	1.8457
1369.86	40.3662
1374.1	139.877
1378.34	94.3838
1382.57	106.905
1386.81	20.4477
1391.04	34.8003
1395.27	88.1558
1399.49	65.7119
1403.72	99.3887
1407.94	149.058
1412.16	18.7676
1416.38	206.031
1420.6	53.0317
1424.81	145.658
1429.02	118.279
1433.23	169.407
1437.44	52.1411
1441.64	143.905
1445.85	139.898
1450.05	65.0791
1454.25	21.4434
1458.44	200.71
1462.64	111.954
1466.83	79.2783
1471.02	112.223
1475.21	64.5039
1479.39	45.937
1483.58	56.1582
1487.76	103.91
1491.93	109.074
1496.11	83.5181
1500.29	47.8765
1504.46	100.503
1508.63	64.9858
1512.8	69.8188
1516.96	111.696
1521.13	132.655
1525.29	79.7964
1529.45	51.3506
1533.61	68.2075
1537.76	54.4565
1541.92	30.1963
1546.07	108.521
1550.22	86.9814
1554.36	64.9136
1558.51	155.657
1562.65	85.3657
1566.79	114.369
1570.93	89.0347
1575.07	2.10059
