Measurement: Raman, 514 nm, depolarized, Raman Data Processed
Mineral: Vanadinite
Rruff sample: R050171
Ideal chemistry: Pb^2+^_5_(V^5+^O_4_)_3_Cl
Locality: Hamburg mine, La Paz County, Arizona, USA
Source: Marcus Origlieri
Description: Red prismatic hexagonal crystals
Measured chemistry: Pb_5.00_((V_0.89_As_0.11_)O_4_)_3_Cl_1.00_
Pin_id: M00093
Orientation: Laser parallel to -a* (-1 0 0). Fiducial mark perpendicular to laser is parallel to -c [0 0 -1]
Raman shift (cm-1)	intensity
71.747	0
75.937	270.405
80.125	1583.83
84.311	2407.75
88.496	3783.36
92.678	5112.34
96.858	5956.8
101.036	5546.97
105.212	4137.79
109.387	3068.94
113.559	2452.26
117.729	2032.21
121.897	1747.74
126.063	1764.35
130.228	1962.28
134.39	2183.07
138.55	2448.77
142.709	2727.45
146.865	2672.89
151.019	2535
155.171	2546.88
159.322	2327.99
163.47	2131.42
167.617	2001.33
171.761	1842.65
175.904	1681.88
180.044	1514.46
184.183	1286.02
188.319	1027.29
192.454	825.174
196.586	595.004
200.717	424.58
204.846	286.574
208.972	83.965
213.097	25.75
217.22	47.078
221.341	108.487
225.46	162.652
229.577	163.316
233.692	252.588
237.805	197.22
241.916	192.951
246.025	155.472
250.132	81.902
254.237	51.023
258.34	157.416
262.442	331.658
266.541	532.373
270.639	876.388
274.734	1326.51
278.828	1888.39
282.919	2972.37
287.009	4335.75
291.097	5875.92
295.183	6361.01
299.266	6041.06
303.348	5249.21
307.428	5238.72
311.507	5908.24
315.583	7582.75
319.657	9820.56
323.729	11245.3
327.8	10877.6
331.868	9059.01
335.935	7121.75
339.999	5829.25
344.062	5179.51
348.123	5099.98
352.182	5905.17
356.239	6560.41
360.294	7090.83
364.347	7716.29
368.398	7591.68
372.448	6247.27
376.495	4716.84
380.54	3545.97
384.584	2898.73
388.626	2349.94
392.666	2068.26
396.704	1821.26
400.74	1618.21
404.774	1554.25
408.806	1514.93
412.836	1467.32
416.865	1446.93
420.891	1346.43
424.916	1084.95
428.939	859.563
432.959	774.231
436.978	676.878
440.996	554.368
445.011	510.76
449.024	498.747
453.036	452.363
457.045	405.236
461.053	347.167
465.059	314.907
469.063	289.163
473.065	262.806
477.065	269.467
481.063	268.333
485.06	223.209
489.054	210.223
493.047	140.422
497.038	183.772
501.027	174.32
505.014	151.988
508.999	101.823
512.982	105.827
516.964	87.014
520.944	57.709
524.921	65.844
528.897	43.529
532.871	29.418
536.844	37.545
540.814	30.057
544.783	11.902
548.749	15.771
552.714	36.667
556.677	40.27
560.638	34.968
564.597	26.762
568.555	67.659
572.511	4.884
576.464	27.452
580.416	20.102
584.366	63.051
588.315	51.292
592.261	44.195
596.206	17.656
600.148	63.927
604.089	17.554
608.028	27.416
611.965	16.634
615.901	25.924
619.834	1.516
623.766	27.512
627.696	32.43
631.624	68.755
635.551	1.747
639.475	2.231
643.398	29.815
647.318	1.385
651.237	12.792
655.155	31.266
659.07	45.628
662.984	46.36
666.895	73.636
670.805	132.217
674.713	166.558
678.62	238.567
682.524	322.77
686.427	404.855
690.328	463.413
694.227	522.379
698.124	693.638
702.02	814.036
705.913	1085.02
709.805	1400.53
713.695	1791.65
717.584	2326.57
721.47	2628.44
725.355	2806.58
729.238	2760.22
733.119	2604.38
736.998	2601.4
740.876	2722.21
744.752	2793.52
748.626	3174.25
752.498	3714.58
756.368	4206.46
760.237	5090.34
764.104	6206.08
767.969	7331.3
771.832	8628.66
775.693	10156.1
779.553	12193.6
783.411	14372
787.267	16860.8
791.122	19340
794.974	21679.4
798.825	23849.4
802.674	26769.7
806.522	30830.5
810.367	35881.6
814.211	41853.2
818.053	48025.2
821.893	53777.6
825.732	58940.5
829.568	59253.9
833.403	53997.7
837.236	45952
841.068	36726.8
844.898	28622.1
848.726	22460.4
852.552	17909.8
856.376	13841.5
860.199	10957.1
864.02	9043.97
867.839	7453.15
871.656	6314.27
875.472	5541.18
879.286	4832.41
883.098	4211.43
886.909	3578.94
890.717	3070.45
894.524	2717.46
898.33	2457.97
902.133	2235.35
905.935	1989.28
909.735	1797.98
913.533	1646.64
917.33	1447.12
921.124	1344.06
924.918	1254.98
928.709	1035.23
932.499	947.782
936.286	782.641
940.073	676.793
943.857	586.271
947.64	550.038
951.421	504.258
955.2	371.536
958.978	301.342
962.753	315.34
966.527	200.419
970.3	239.816
974.071	178.409
977.84	120.246
981.607	93.318
985.372	52.619
989.136	23.146
992.898	46.641
996.659	11.095
1000.42	1.921
1004.17	42.632
1007.93	76.319
1011.68	68.014
1015.43	89.753
1019.18	64.741
1022.93	87.619
1026.68	10.821
1030.42	67.04
1034.17	46.318
1037.91	6.367
1041.65	12.997
1045.39	21.566
1049.12	31.111
1052.86	11.598
1056.59	40.285
1060.33	80.892
1064.06	97.496
1067.78	46.09
1071.51	94.855
1075.23	116.51
1078.96	69.063
1082.68	108.641
1086.4	82.263
1090.12	94.779
1093.83	154.28
1097.55	139.939
1101.26	93.636
1104.97	125.217
1108.68	115.546
1112.39	124.156
1116.1	86.439
1119.8	101.929
1123.5	171.428
1127.2	145.717
1130.9	122.856
1134.6	175.951
1138.3	129.183
1141.99	172.823
1145.69	120.073
1149.38	121.687
1153.07	164.372
1156.76	149.676
1160.44	161.057
1164.13	125.371
1167.81	95.752
1171.49	137.526
1175.17	146.09
1178.85	123.533
1182.52	133.417
1186.2	161.333
1189.87	95.998
1193.54	105.957
1197.21	99.368
1200.88	95.972
1204.55	126.657
1208.21	122.903
1211.88	78.153
1215.54	47.129
1219.2	55.179
1222.86	105.214
1226.51	69.208
1230.17	65.199
1233.82	94.527
1237.47	84.709
1241.12	77.535
1244.77	62.748
1248.42	94.748
1252.06	42.91
1255.71	59.16
1259.35	12.612
1262.99	82.99
1266.63	36.755
1270.26	50.395
1273.9	50.4
1277.53	37.246
1281.16	46.868
1284.8	19.743
1288.42	23.797
1292.05	1.329
1295.68	50.605
1299.3	52.573
1302.92	17.027
1306.55	13.675
1310.16	2.281
1313.78	15.078
1317.4	8.495
1321.01	28.418
1324.62	52.512
1328.24	51.979
1331.85	38.254
1335.45	78.169
1339.06	113.507
1342.66	9.632
1346.27	43.641
1349.87	28.299
1353.47	20.781
1357.07	10.753
1360.66	36.164
1364.26	74.26
1367.85	74.074
1371.44	21.472
1375.04	42.497
1378.62	61.358
1382.21	59.43
1385.8	80.27
1389.38	117.384
1392.96	74.714
1396.54	20.534
1400.12	105.011
1403.7	41.311
1407.28	121.327
1410.85	74.767
1414.42	85.479
1417.99	80.627
1421.56	114.271
1425.13	45.239
1428.7	18.522
1432.26	37.158
1435.83	71.841
1439.39	49.233
1442.95	71.258
1446.51	122.676
1450.06	96.85
1453.62	66.675
1457.17	65.031
1460.73	59.863
1464.28	33.953
1467.83	68.332
1471.37	41.003
1474.92	50.614
1478.46	3.923
1482.01	7.46
1485.55	6.561
1489.09	29.28
1492.63	24.502
1496.16	77.782
1499.7	71.232
1503.23	41.516
1506.76	83.936
1510.29	32.388
1513.82	10.402
1517.35	0.819
1520.88	0
