Measurement: Raman, 514 nm, depolarized, Raman Data Processed
Mineral: Vanadinite
Rruff sample: R050171
Ideal chemistry: Pb^2+^_5_(V^5+^O_4_)_3_Cl
Locality: Hamburg mine, La Paz County, Arizona, USA
Source: Marcus Origlieri
Description: Red prismatic hexagonal crystals
Measured chemistry: Pb_5.00_((V_0.89_As_0.11_)O_4_)_3_Cl_1.00_
Pin_id: M00426
Orientation: Laser parallel to c* (0 0 1). Fiducial mark perpendicular to laser is parallel to a [1 0 0]
Raman shift (cm-1)	intensity
71.747	0
75.937	1246.1
80.125	2814.83
84.311	3603.76
88.496	5651.28
92.678	7357.09
96.858	7302.36
101.036	5739.18
105.212	3287.99
109.387	1742.6
113.559	934.969
117.729	618.629
121.897	139.032
126.063	14.738
130.228	95.703
134.39	60.004
138.55	260.762
142.709	476.438
146.865	497.16
151.019	629.199
155.171	789.227
159.322	889.456
163.47	848.769
167.617	815.354
171.761	809.585
175.904	857.733
180.044	863.062
184.183	673.21
188.319	675.199
192.454	573.306
196.586	463.835
200.717	412.914
204.846	251.785
208.972	140.325
213.097	69.485
217.22	70.191
221.341	32.493
225.46	94.631
229.577	47.941
233.692	195.382
237.805	193.642
241.916	77.602
246.025	49.033
250.132	33.116
254.237	45.792
258.34	165.373
262.442	202.618
266.541	294.106
270.639	402.55
274.734	483.457
278.828	615.691
282.919	731.265
287.009	815.804
291.097	956.018
295.183	1165.99
299.266	1258.28
303.348	1382.77
307.428	1601.8
311.507	1991.42
315.583	2302.91
319.657	2930.18
323.729	3484.12
327.8	4175.18
331.868	4407.34
335.935	4392.08
339.999	4192.84
344.062	4250.01
348.123	4744.26
352.182	5462.77
356.239	5537.88
360.294	4510.1
364.347	3760.5
368.398	3123.83
372.448	2681.1
376.495	2427.53
380.54	2313.41
384.584	2221.78
388.626	2210.92
392.666	2106.22
396.704	1998.18
400.74	1942.1
404.774	1845.15
408.806	1946.58
412.836	1907.6
416.865	1899.62
420.891	1792.94
424.916	1577.64
428.939	1293.02
432.959	1127.75
436.978	996.991
440.996	909.968
445.011	812.281
449.024	732.926
453.036	675.822
457.045	640.99
461.053	606.946
465.059	503.144
469.063	449.882
473.065	478.229
477.065	456.793
481.063	392.474
485.06	370.781
489.054	378.072
493.047	302.415
497.038	294.712
501.027	288.1
505.014	254.599
508.999	269.238
512.982	157.06
516.964	150.079
520.944	192.334
524.921	132.89
528.897	126.798
532.871	93.122
536.844	115.943
540.814	76.379
544.783	49.491
548.749	81.455
552.714	33.362
556.677	21.716
560.638	3.316
564.597	0.491
568.555	9.369
572.511	12.351
576.464	74.582
580.416	19.091
584.366	114.873
588.315	75.16
592.261	48.856
596.206	40.893
600.148	14.245
604.089	16.485
608.028	36.913
611.965	19.789
615.901	29.187
619.834	63.598
623.766	10.626
627.696	11.34
631.624	30.034
635.551	17.226
639.475	18.021
643.398	6.201
647.318	8.5
651.237	62.987
655.155	76.46
659.07	60.083
662.984	94.547
666.895	102.094
670.805	198.589
674.713	211.778
678.62	289.675
682.524	322.399
686.427	365.267
690.328	505.564
694.227	570.338
698.124	707.465
702.02	868.165
705.913	975.159
709.805	1294.46
713.695	1569.65
717.584	1930.29
721.47	2266.68
725.355	2646.11
729.238	3038.88
733.119	3126.86
736.998	3474.49
740.876	3792.05
744.752	4088.86
748.626	4723.94
752.498	5446.07
756.368	6085.59
760.237	7416.91
764.104	8692.13
767.969	10119.6
771.832	11774.7
775.693	13754
779.553	16072.9
783.411	18232.9
787.267	20433.1
791.122	22414.2
794.974	23625.4
798.825	24857.3
802.674	26569.7
806.522	28682.7
810.367	31386.2
814.211	35750.2
818.053	40034.7
821.893	42239.7
825.732	44545.2
829.568	43151.2
833.403	38947.7
837.236	33255
841.068	27282.6
844.898	22012.3
848.726	17564.5
852.552	14015.2
856.376	10828.9
860.199	8665.4
864.02	7014.9
867.839	5837.04
871.656	4913.79
875.472	4241.08
879.286	3776.71
883.098	3398.51
886.909	2980.4
890.717	2618.2
894.524	2425.46
898.33	2345.01
902.133	2135.07
905.935	1988.25
909.735	1846.37
913.533	1741.65
917.33	1541.23
921.124	1461.99
924.918	1332.17
928.709	1167.74
932.499	1010.61
936.286	900.803
940.073	784.331
943.857	601.705
947.64	595.867
951.421	506.576
955.2	374.771
958.978	313.85
962.753	258.256
966.527	185.074
970.3	189.908
974.071	138.128
977.84	144.514
981.607	33.772
985.372	8.207
989.136	33.424
992.898	3.275
996.659	26.15
1000.42	26.323
1004.17	30.985
1007.93	60.52
1011.68	48.936
1015.43	52.719
1019.18	40.838
1022.93	59.959
1026.68	46.195
1030.42	64.523
1034.17	47.847
1037.91	62.169
1041.65	58.47
1045.39	54.162
1049.12	61.854
1052.86	24.546
1056.59	35.727
1060.33	1.966
1064.06	49.649
1067.78	70.338
1071.51	101.031
1075.23	42.736
1078.96	121.435
1082.68	100.125
1086.4	83.811
1090.12	74.476
1093.83	98.119
1097.55	40.807
1101.26	64.46
1104.97	96.165
1108.68	63.612
1112.39	26.906
1116.1	34.521
1119.8	114.347
1123.5	130.68
1127.2	96.09
1130.9	75.589
1134.6	97.813
1138.3	103.801
1141.99	87.391
1145.69	66.125
1149.38	74.542
1153.07	89.222
1156.76	78.198
1160.44	77.679
1164.13	80.342
1167.81	82.417
1171.49	72.517
1175.17	114.284
1178.85	141.496
1182.52	157.892
1186.2	119.193
1189.87	83.715
1193.54	114.588
1197.21	103.458
1200.88	153.259
1204.55	147.536
1208.21	135.495
1211.88	147.717
1215.54	160.234
1219.2	148.948
1222.86	152.597
1226.51	165.069
1230.17	179.041
1233.82	169.333
1237.47	189.209
1241.12	165.122
1244.77	155.556
1248.42	151.298
1252.06	142.603
1255.71	148.58
1259.35	39.45
1262.99	116.75
1266.63	82.326
1270.26	137.813
1273.9	65.763
1277.53	109.073
1281.16	47.22
1284.8	13.728
1288.42	30.772
1292.05	1.102
1295.68	14.392
1299.3	34.659
1302.92	4.097
1306.55	57.906
1310.16	2.406
1313.78	17.122
1317.4	39.239
1321.01	10.479
1324.62	16.028
1328.24	40.049
1331.85	38.666
1335.45	24.996
1339.06	19.874
1342.66	36.147
1346.27	42.041
1349.87	10.443
1353.47	3.306
1357.07	23.936
1360.66	22.985
1364.26	1.181
1367.85	93.744
1371.44	25.242
1375.04	30.152
1378.62	61.236
1382.21	15.458
1385.8	9.101
1389.38	22.014
1392.96	12.96
1396.54	37.537
1400.12	51.141
1403.7	87.202
1407.28	106.686
1410.85	100.6
1414.42	98.454
1417.99	132.313
1421.56	105.305
1425.13	66.015
1428.7	56.998
1432.26	51.385
1435.83	45.729
1439.39	67.087
1442.95	96.97
1446.51	117.873
1450.06	118.625
1453.62	95.875
1457.17	125.404
1460.73	45.394
1464.28	62.664
1467.83	46.173
1471.37	68.892
1474.92	39.669
1478.46	20.138
1482.01	90.001
1485.55	81.417
1489.09	78.131
1492.63	30.293
1496.16	113.181
1499.7	101.762
1503.23	17.227
1506.76	85.633
1510.29	42.135
1513.82	44.68
1517.35	3.261
1520.88	34.205
