Measurement: Raman, 514 nm, depolarized, Raman Data Processed
Mineral: Vayrynenite
Rruff sample: R050243
Ideal chemistry: Mn^2+^Be(PO_4_)OH
Locality: Viitaniemi pegmatite, Erajarvi, Orivesi, Finland
Source: Marcus Origlieri
Description: Pink massive with defined cleavage planes
Measured chemistry: (Mn^2+^_0.95_Fe^2+^_0.05_)_Σ=1_Be_1.00_(P_1.00_O_4_)((OH)_0.94_F_0.06_)_Σ=1_ ; Be not measured but estimated by difference and charge balance.
Pin_id: M00264
Orientation: Laser parallel to (1 0 1). Fiducial mark perpendicular to laser is parallel to b [0 1 0]
Raman shift (cm-1)	intensity
56.365	0
60.563	31.69
64.758	5.962
68.952	9.739
73.144	119.264
77.333	282.878
81.521	469.681
85.706	1001.29
89.89	1872.18
94.071	2714.76
98.251	1787.31
102.428	879.254
106.604	1006.07
110.777	1094.48
114.949	1159.39
119.119	1867.96
123.286	2380.74
127.452	2270.42
131.615	1243.94
135.777	720.251
139.937	597.298
144.094	474.496
148.25	509.747
152.403	442.275
156.555	565.178
160.705	751.633
164.853	890.793
168.998	890.358
173.142	893.068
177.284	1702.38
181.424	3175.72
185.562	4333.6
189.698	2628.29
193.831	1057.38
197.963	621.885
202.093	520.78
206.221	587.055
210.347	796.714
214.472	741.765
218.594	945.209
222.714	951.468
226.832	1025.13
230.948	1579.22
235.063	1826.37
239.175	786.066
243.286	304.578
247.394	116.788
251.501	102.616
255.605	171.997
259.708	379.283
263.808	557.381
267.907	569.567
272.004	311.616
276.099	173.968
280.192	148.089
284.283	182.258
288.372	198.719
292.459	57.455
296.544	9.544
300.627	81.302
304.709	49.889
308.788	0.694
312.865	10.521
316.941	62.495
321.015	280.75
325.086	763.236
329.156	1302.94
333.224	1687.86
337.29	1651.98
341.354	1275.3
345.416	992.747
349.476	1118.34
353.534	1215.25
357.591	838.539
361.645	578.195
365.698	685.151
369.748	1085.42
373.797	2222.93
377.844	3909.64
381.889	4482.55
385.932	2936.63
389.973	1480.96
394.012	802.535
398.049	623.355
402.084	702.391
406.118	707.632
410.15	401.067
414.179	176.685
418.207	52.478
422.233	57.568
426.257	74.603
430.279	51.69
434.299	41.791
438.318	1.073
442.334	53.022
446.349	194.099
450.361	496.299
454.372	1207.62
458.381	2825.9
462.388	4342.06
466.394	3362.11
470.397	1490.14
474.398	508.939
478.398	146.877
482.396	13.905
486.391	13.836
490.385	55.213
494.377	174.483
498.368	612.839
502.356	1969.18
506.342	3592.06
510.327	2834.34
514.31	1277.92
518.291	651.91
522.27	351.905
526.247	343.773
530.222	728.904
534.196	2162.23
538.167	3454.44
542.137	2162.83
546.105	760.939
550.071	254.04
554.035	186.126
557.998	163.193
561.958	200.269
565.917	355.341
569.874	544.382
573.829	588.365
577.782	456.286
581.733	408.988
585.683	659.098
589.63	1209.48
593.576	2979.64
597.52	4990.24
601.462	4635.74
605.402	2869.16
609.341	2164.51
613.277	3557.77
617.212	6259.95
621.145	5867.06
625.076	2715.16
629.006	1254.24
632.933	665.231
636.859	550.125
640.783	540.91
644.705	411.583
648.625	249.141
652.543	120.583
656.46	50.902
660.375	30.067
664.288	11.168
668.199	27.856
672.108	99.202
676.016	59.427
679.921	15.263
683.825	43.058
687.727	93.653
691.628	59.342
695.526	181.682
699.423	228.59
703.318	330.087
707.211	395.34
711.102	341.34
714.992	281.082
718.879	452.984
722.765	661.375
726.649	1026.86
730.532	1764.17
734.412	2751.32
738.291	3775.32
742.168	3729.25
746.043	2697.11
749.916	1751.88
753.788	1148.57
757.658	857.101
761.526	697.83
765.392	649.688
769.257	585.744
773.119	630.644
776.98	467.388
780.839	362.977
784.697	472.414
788.552	472.698
792.406	652.832
796.258	794.817
800.108	1019.66
803.957	747.354
807.804	440.909
811.649	282.838
815.492	236.567
819.333	183.214
823.173	133.391
827.011	50.774
830.847	25.437
834.681	113.229
838.514	71.072
842.345	31.934
846.174	35.188
850.001	55.862
853.827	7.76
857.651	28.442
861.473	17.217
865.293	7.956
869.112	39.948
872.928	37.995
876.744	27.846
880.557	76.647
884.369	79.428
888.178	203.192
891.987	222.865
895.793	333.682
899.598	385.45
903.401	266.141
907.202	177.866
911.001	178.592
914.799	87.323
918.595	161.063
922.389	118.814
926.182	166.583
929.972	168.389
933.761	309.223
937.549	370.089
941.334	400.992
945.118	353.95
948.9	381.953
952.681	509
956.459	670.097
960.236	858.247
964.012	1133.47
967.785	1583.85
971.557	2110.38
975.327	2893.51
979.095	4871.86
982.862	7472.53
986.627	8923.09
990.39	7328.08
994.152	7516.41
997.912	11765.1
1001.67	26686.9
1005.43	50433.5
1009.18	38954.8
1012.93	18739
1016.68	9494.17
1020.43	5934.9
1024.18	3993.48
1027.93	3071
1031.67	2635.71
1035.42	2450.55
1039.16	2565.5
1042.9	2686.56
1046.63	2331.73
1050.37	1555.01
1054.11	997.407
1057.84	883.919
1061.57	916.536
1065.3	1234.25
1069.03	2385.07
1072.75	4583.99
1076.47	4803.12
1080.2	2388.81
1083.92	1136.2
1087.64	626.801
1091.36	369.764
1095.07	240.796
1098.79	240.829
1102.5	249.92
1106.21	281.211
1109.92	225.723
1113.62	356.313
1117.33	642.029
1121.04	1626.61
1124.74	4662.16
1128.44	4168.54
1132.14	1582.29
1135.83	875.435
1139.53	966.885
1143.22	795.011
1146.92	327.127
1150.61	194.293
1154.3	60.134
1157.98	9.278
1161.67	73.872
1165.35	11.648
1169.04	107.701
1172.72	78.85
1176.4	176.744
1180.07	296.974
1183.75	360.911
1187.42	390.942
1191.1	354.041
1194.77	111.958
1198.44	128.073
1202.1	32.667
1205.77	113.866
1209.43	47.886
1213.1	83.246
1216.76	102.907
1220.42	19.491
1224.07	1.279
1227.73	80.86
1231.38	50.576
1235.04	5.252
1238.69	4.48
1242.34	3.439
1245.99	40.126
1249.63	18.496
1253.28	25.446
1256.92	14.569
1260.56	11.936
1264.2	52.257
1267.84	72.429
1271.48	6.027
1275.11	14.828
1278.74	30.06
1282.38	88.609
1286.01	24.617
1289.63	79.641
1293.26	3.094
1296.89	36.857
1300.51	76.845
1304.13	22.83
1307.75	65.997
1311.37	14.879
1314.99	51.571
1318.6	15.971
1322.22	6.939
1325.83	4.148
1329.44	88.344
1333.05	55.578
1336.66	85.552
1340.26	73.263
1343.87	26.715
1347.47	80.898
1351.07	83.926
1354.67	89.613
1358.27	31.06
1361.86	102.414
1365.46	99.913
1369.05	102.524
1372.64	101.337
1376.23	144.387
1379.82	180.37
1383.41	84.051
1386.99	117.011
1390.57	89.253
1394.16	175.885
1397.74	169.426
1401.32	128.935
1404.89	205.85
1408.47	157.382
1412.04	187.656
1415.61	189.007
1419.18	140.606
1422.75	194.506
1426.32	24.691
1429.89	106.851
1433.45	123.546
1437.01	159.756
1440.58	237.972
1444.13	219.494
1447.69	218.395
1451.25	215.719
1454.81	285.187
1458.36	245.015
1461.91	270.101
1465.46	133.386
1469.01	184.945
1472.56	153.72
1476.1	102.999
1479.64	108.064
1483.19	104.379
1486.73	211.625
1490.27	37.859
1493.81	69.489
1497.34	131.319
1500.88	56.536
1504.41	14.113
1507.94	60.166
1511.47	66.012
1515	50.199
1518.53	121.88
1522.05	53.488
1525.57	1.261
1529.1	0
