Measurement: Raman, 514 nm, depolarized, Raman Data Processed
Mineral: Vayrynenite
Rruff sample: R050243
Ideal chemistry: Mn^2+^Be(PO_4_)OH
Locality: Viitaniemi pegmatite, Erajarvi, Orivesi, Finland
Source: Marcus Origlieri
Description: Pink massive with defined cleavage planes
Measured chemistry: (Mn^2+^_0.95_Fe^2+^_0.05_)_Σ=1_Be_1.00_(P_1.00_O_4_)((OH)_0.94_F_0.06_)_Σ=1_ ; Be not measured but estimated by difference and charge balance.
Pin_id: M00427
Orientation: Laser parallel to b* (0 1 0). Fiducial mark perpendicular to laser is parallel to c [0 0 1]
Raman shift (cm-1)	intensity
56.365	0
60.563	24.897
64.758	5.862
68.952	54.391
73.144	180.925
77.333	379.569
81.521	543.296
85.706	863.04
89.89	1738.57
94.071	3982.15
98.251	2070
102.428	990.458
106.604	1067.95
110.777	1334.15
114.949	1100.97
119.119	1553.65
123.286	2680.49
127.452	2628.33
131.615	1078.08
135.777	610.662
139.937	510.013
144.094	419.464
148.25	388.988
152.403	369.801
156.555	377.002
160.705	509.723
164.853	791.384
168.998	642.93
173.142	568.078
177.284	1142.84
181.424	2722.73
185.562	5181.7
189.698	2084.82
193.831	799.428
197.963	432.439
202.093	377.816
206.221	410.54
210.347	514.61
214.472	709.03
218.594	1001.81
222.714	999.062
226.832	961.045
230.948	1753.92
235.063	2839.71
239.175	783.545
243.286	298.24
247.394	104.665
251.501	97.726
255.605	221.352
259.708	425.004
263.808	877.695
267.907	973.22
272.004	399.49
276.099	155.907
280.192	175.459
284.283	214.152
288.372	262.87
292.459	46.764
296.544	56.1
300.627	36.783
304.709	57.292
308.788	43.641
312.865	10.034
316.941	127.21
321.015	352.481
325.086	1015.88
329.156	1855.1
333.224	2307.91
337.29	1901.9
341.354	1223.04
345.416	797.227
349.476	925.502
353.534	1117.02
357.591	808.856
361.645	525.998
365.698	633.404
369.748	998.132
373.797	2013.12
377.844	3932.32
381.889	4591.67
385.932	2709.15
389.973	1303.86
394.012	726.788
398.049	588.914
402.084	790.218
406.118	901.686
410.15	410.306
414.179	143.938
418.207	40.961
422.233	18.027
426.257	34.338
430.279	40.012
434.299	18.463
438.318	37.284
442.334	12.51
446.349	15.33
450.361	231.212
454.372	567.168
458.381	1378.58
462.388	2606.77
466.394	1832.24
470.397	638.007
474.398	198.206
478.398	44.525
482.396	30.881
486.391	0.777
490.385	99.567
494.377	241.946
498.368	736.356
502.356	2075.32
506.342	5066.65
510.327	3828.74
514.31	1318.44
518.291	606.074
522.27	348.033
526.247	320.81
530.222	636.172
534.196	1819.58
538.167	3543.26
542.137	1697.95
546.105	583.529
550.071	217.088
554.035	148.599
557.998	133.051
561.958	242.447
565.917	352.776
569.874	549.038
573.829	674.221
577.782	501.317
581.733	481.606
585.683	627.56
589.63	1162.51
593.576	2875.37
597.52	5642.33
601.462	5482.64
605.402	3334.81
609.341	2155.18
613.277	2909.44
617.212	5321.62
621.145	4686.77
625.076	1945.84
629.006	1065.88
632.933	636.834
636.859	719.684
640.783	748.6
644.705	618.48
648.625	327.99
652.543	189.384
656.46	122.66
660.375	64.809
664.288	8.205
668.199	47.509
672.108	52.427
676.016	68.409
679.921	29.467
683.825	31.437
687.727	6.188
691.628	2.391
695.526	92.177
699.423	184.508
703.318	366.155
707.211	426.712
711.102	345.717
714.992	243.35
718.879	358.425
722.765	568.454
726.649	852.511
730.532	1519.17
734.412	2572.69
738.291	3448.1
742.168	3512.43
746.043	2490.73
749.916	1545.98
753.788	1027.18
757.658	720.318
761.526	602.351
765.392	479.266
769.257	434.065
773.119	393.746
776.98	364.312
780.839	339.766
784.697	411.108
788.552	535.342
792.406	671.469
796.258	1051.5
800.108	1194.47
803.957	884.345
807.804	503.124
811.649	218.81
815.492	101.47
819.333	109.397
823.173	78.509
827.011	38.531
830.847	6.665
834.681	1.15
838.514	44.519
842.345	11.736
846.174	37.881
850.001	0.424
853.827	8.886
857.651	55.434
861.473	50.919
865.293	35.271
869.112	53.596
872.928	13.094
876.744	12.805
880.557	50.474
884.369	11.765
888.178	151.07
891.987	259.393
895.793	330.737
899.598	279.104
903.401	228.499
907.202	126.927
911.001	119.394
914.799	48.917
918.595	108.5
922.389	108.145
926.182	38.861
929.972	186.625
933.761	158.462
937.549	206.386
941.334	291.384
945.118	299.46
948.9	363.617
952.681	381.856
956.459	524.156
960.236	735.535
964.012	988.998
967.785	1311.55
971.557	1725.22
975.327	2275.05
979.095	3635.35
982.862	5753.31
986.627	6807.19
990.39	5960.6
994.152	6633.4
997.912	11184.6
1001.67	26460.4
1005.43	51993.2
1009.18	37830.4
1012.93	17376.5
1016.68	9011.96
1020.43	5614.64
1024.18	3833.57
1027.93	2952.05
1031.67	2477.3
1035.42	2260.88
1039.16	2396.55
1042.9	2532.34
1046.63	2127.27
1050.37	1443.34
1054.11	965.967
1057.84	771.256
1061.57	793.797
1065.3	1144.61
1069.03	2024.9
1072.75	4333.02
1076.47	4389.01
1080.2	1947.57
1083.92	869.768
1087.64	513.287
1091.36	377.817
1095.07	265.226
1098.79	284.635
1102.5	337.026
1106.21	315.49
1109.92	395.534
1113.62	541.345
1117.33	1006.07
1121.04	2754.11
1124.74	7701.02
1128.44	6419.19
1132.14	2190.93
1135.83	928.915
1139.53	571.846
1143.22	300.241
1146.92	146.746
1150.61	71.718
1154.3	18.336
1157.98	13.51
1161.67	23.656
1165.35	14.551
1169.04	35.911
1172.72	75.951
1176.4	132.066
1180.07	158.417
1183.75	206.513
1187.42	215.803
1191.1	164.831
1194.77	130.324
1198.44	21.853
1202.1	56.658
1205.77	23.274
1209.43	2.188
1213.1	14.306
1216.76	27.95
1220.42	1.422
1224.07	24.017
1227.73	121.864
1231.38	37.738
1235.04	10.552
1238.69	35.794
1242.34	23.279
1245.99	35.617
1249.63	77.276
1253.28	11.253
1256.92	4.025
1260.56	22.1
1264.2	5.901
1267.84	58.222
1271.48	20.9
1275.11	78.252
1278.74	120.453
1282.38	69.415
1286.01	15.185
1289.63	21.669
1293.26	9.885
1296.89	18.765
1300.51	12.62
1304.13	23.56
1307.75	22.217
1311.37	69.116
1314.99	3.191
1318.6	32.269
1322.22	39.521
1325.83	6.562
1329.44	60.365
1333.05	4.963
1336.66	31.315
1340.26	34.562
1343.87	89.3
1347.47	78.534
1351.07	96.02
1354.67	22.834
1358.27	38.105
1361.86	43.463
1365.46	25.253
1369.05	14.799
1372.64	90.513
1376.23	81.788
1379.82	103.334
1383.41	103.46
1386.99	48.512
1390.57	98.949
1394.16	180.128
1397.74	121.27
1401.32	143.003
1404.89	149.981
1408.47	49.426
1412.04	65.186
1415.61	153.063
1419.18	81.18
1422.75	112.591
1426.32	127.174
1429.89	163.634
1433.45	55.922
1437.01	176.994
1440.58	212.57
1444.13	231.543
1447.69	305.554
1451.25	322.487
1454.81	367.804
1458.36	393.939
1461.91	431.875
1465.46	258.74
1469.01	242.194
1472.56	243.237
1476.1	223.834
1479.64	176.603
1483.19	198.101
1486.73	77.287
1490.27	155.826
1493.81	133.423
1497.34	71.163
1500.88	65.381
1504.41	60.197
1507.94	65.702
1511.47	23.578
1515	49.485
1518.53	5.334
1522.05	18.037
1525.57	0
