Measurement: Raman, 514 nm, depolarized, Raman Data Processed
Mineral: Vayrynenite
Rruff sample: R050243
Ideal chemistry: Mn^2+^Be(PO_4_)OH
Locality: Viitaniemi pegmatite, Erajarvi, Orivesi, Finland
Source: Marcus Origlieri
Description: Pink massive with defined cleavage planes
Measured chemistry: (Mn^2+^_0.95_Fe^2+^_0.05_)_Σ=1_Be_1.00_(P_1.00_O_4_)((OH)_0.94_F_0.06_)_Σ=1_ ; Be not measured but estimated by difference and charge balance.
Pin_id: M00437
Orientation: Laser parallel to a* (1 0 0). Fiducial mark perpendicular to laser is parallel to -b [0 -1 0]
Raman shift (cm-1)	intensity
77.333	0
81.521	207.653
85.706	738.673
89.89	1721.65
94.071	2328.56
98.251	1012.1
102.428	619.484
106.604	617.45
110.777	630.673
114.949	761.317
119.119	1715.7
123.286	2513.53
127.452	1564.41
131.615	521.563
135.777	114.059
139.937	26.839
144.094	55.036
148.25	106.326
152.403	8.807
156.555	153.695
160.705	705.318
164.853	963.984
168.998	551.756
173.142	540.672
177.284	1546.01
181.424	4062.39
185.562	3809.94
189.698	1339.24
193.831	432.625
197.963	237.557
202.093	187.467
206.221	260.456
210.347	603.47
214.472	666.473
218.594	820.428
222.714	656.295
226.832	1158.1
230.948	2791.85
235.063	2350.57
239.175	609.256
243.286	129.487
247.394	26.171
251.501	68.468
255.605	16.654
259.708	169.102
263.808	114.771
267.907	116.845
272.004	30.163
276.099	17.62
280.192	60.547
284.283	230.544
288.372	146.414
292.459	6.127
296.544	76.444
300.627	38.449
304.709	3.024
308.788	32.976
312.865	8.446
316.941	85.509
321.015	259.027
325.086	581.262
329.156	964.172
333.224	1359.48
337.29	1509.65
341.354	1297.6
345.416	1571.24
349.476	2227.74
353.534	2320.69
357.591	1450.07
361.645	890.399
365.698	876.915
369.748	1291.61
373.797	2470.45
377.844	3946.4
381.889	3602.38
385.932	2009.28
389.973	1066.11
394.012	786.212
398.049	931.877
402.084	1441.9
406.118	1114.68
410.15	549.216
414.179	278.646
418.207	113.533
422.233	86.432
426.257	92.146
430.279	70.62
434.299	8.945
438.318	76.331
442.334	137.768
446.349	335.887
450.361	665.409
454.372	1448.81
458.381	3333.72
462.388	4594.79
466.394	2805.5
470.397	1079.42
474.398	439.906
478.398	243.364
482.396	173.024
486.391	182.556
490.385	262.961
494.377	414.245
498.368	1013.41
502.356	3188.45
506.342	5520.77
510.327	3239.77
514.31	1213.67
518.291	536.446
522.27	364.89
526.247	361.787
530.222	743.755
534.196	2160.67
538.167	2703.14
542.137	1140.51
546.105	404.322
550.071	178.856
554.035	87.216
557.998	101.426
561.958	128.406
565.917	310.211
569.874	493.86
573.829	572.46
577.782	413.607
581.733	584.049
585.683	1006.6
589.63	1974.3
593.576	5073.72
597.52	7701.84
601.462	5366.14
605.402	2894.82
609.341	2299.34
613.277	3982.77
617.212	6752.26
621.145	4781.85
625.076	2237.53
629.006	1342.23
632.933	658.847
636.859	497.35
640.783	520.705
644.705	444.909
648.625	408.964
652.543	350.869
656.46	271.626
660.375	154.486
664.288	0.677
668.199	8.84
672.108	65.066
676.016	109.709
679.921	90.087
683.825	62.056
687.727	7.099
691.628	84.878
695.526	28.02
699.423	134.063
703.318	279.968
707.211	320.671
711.102	198.521
714.992	161.183
718.879	390.286
722.765	630.752
726.649	1001.96
730.532	1866.05
734.412	3214.05
738.291	4168.96
742.168	3817.78
746.043	2523.52
749.916	1579.2
753.788	1064.81
757.658	858.346
761.526	772.801
765.392	719.178
769.257	793.998
773.119	718.201
776.98	457.631
780.839	394.725
784.697	484.753
788.552	521.718
792.406	739.622
796.258	1220.47
800.108	1316.27
803.957	893.016
807.804	461.722
811.649	269.387
815.492	193.92
819.333	50.978
823.173	116.815
827.011	33.567
830.847	43.114
834.681	25.064
838.514	81.546
842.345	50.352
846.174	32.292
850.001	129.975
853.827	191.026
857.651	182.669
861.473	416.493
865.293	309.466
869.112	109.498
872.928	90.664
876.744	138.917
880.557	85.261
884.369	142.701
888.178	285.24
891.987	517.881
895.793	610.628
899.598	497.484
903.401	373.452
907.202	279.537
911.001	265.74
914.799	45.066
918.595	71.632
922.389	20.344
926.182	57.787
929.972	75.362
933.761	162.771
937.549	50.342
941.334	265.055
945.118	269.911
948.9	287.921
952.681	378.082
956.459	454.392
960.236	664.86
964.012	931.481
967.785	1293.28
971.557	1706.27
975.327	3066.49
979.095	4551.99
982.862	6651.5
986.627	7479.98
990.39	6037.35
994.152	6998.61
997.912	11352.8
1001.67	27499.8
1005.43	49241.7
1009.18	31832.2
1012.93	14304
1016.68	7635.49
1020.43	4751
1024.18	3420.65
1027.93	2822.28
1031.67	2348.21
1035.42	2394.49
1039.16	2664.45
1042.9	3046.79
1046.63	2675.33
1050.37	1615.02
1054.11	1051.83
1057.84	920.961
1061.57	1067.16
1065.3	1725.09
1069.03	3426.26
1072.75	7178.75
1076.47	6515.85
1080.2	2724.11
1083.92	1202.26
1087.64	730.534
1091.36	381.475
1095.07	249.034
1098.79	145.619
1102.5	140.844
1106.21	172.974
1109.92	162.245
1113.62	239.577
1117.33	526.434
1121.04	1333.96
1124.74	3769.16
1128.44	2986.38
1132.14	959.596
1135.83	688.81
1139.53	777.136
1143.22	535.614
1146.92	113.434
1150.61	13.325
1154.3	127.38
1157.98	70.167
1161.67	20.9
1165.35	121.496
1169.04	101.406
1172.72	155.58
1176.4	249.638
1180.07	549.468
1183.75	643.887
1187.42	720.862
1191.1	444.159
1194.77	164.473
1198.44	88.411
1202.1	19.37
1205.77	98.48
1209.43	84.635
1213.1	40.411
1216.76	51.113
1220.42	65.812
1224.07	32.736
1227.73	58.537
1231.38	48.254
1235.04	80.894
1238.69	79.98
1242.34	18.772
1245.99	88.27
1249.63	142.544
1253.28	140.49
1256.92	140.112
1260.56	7.568
1264.2	64.468
1267.84	198.502
1271.48	115.98
1275.11	241.168
1278.74	175.069
1282.38	157.891
1286.01	211.985
1289.63	65.056
1293.26	13.18
1296.89	183.443
1300.51	134.596
1304.13	230.643
1307.75	210.591
1311.37	239.181
1314.99	258.324
1318.6	399.302
1322.22	231.93
1325.83	181.478
1329.44	217.288
1333.05	3.883
1336.66	2.102
1340.26	45.193
1343.87	43.575
1347.47	7.746
1351.07	57.358
1354.67	195.804
1358.27	211.632
1361.86	175.882
1365.46	8.169
1369.05	199.468
1372.64	144.39
1376.23	71.542
1379.82	162.646
1383.41	167.903
1386.99	124.345
1390.57	79.374
1394.16	131.303
1397.74	60.417
1401.32	77.402
1404.89	20.004
1408.47	3.044
1412.04	93.057
1415.61	143.396
1419.18	93.607
1422.75	82.823
