Measurement: Raman, 514 nm, depolarized, Raman Data Processed
Mineral: Vayrynenite
Rruff sample: R050243
Ideal chemistry: Mn^2+^Be(PO_4_)OH
Locality: Viitaniemi pegmatite, Erajarvi, Orivesi, Finland
Source: Marcus Origlieri
Description: Pink massive with defined cleavage planes
Measured chemistry: (Mn^2+^_0.95_Fe^2+^_0.05_)_Σ=1_Be_1.00_(P_1.00_O_4_)((OH)_0.94_F_0.06_)_Σ=1_ ; Be not measured but estimated by difference and charge balance.
Pin_id: M00471
Orientation: Laser parallel to c* (0 0 1). Fiducial mark perpendicular to laser is parallel to a [1 0 0]
Raman shift (cm-1)	intensity
75.937	0
80.125	38.816
84.311	307.565
88.496	1133.86
92.678	2271.58
96.858	2199.2
101.036	476.619
105.212	304.951
109.387	432.058
113.559	468.162
117.729	1069.05
121.897	1954.16
126.063	2163.46
130.228	818.631
134.39	185.795
138.55	28.537
142.709	14.925
146.865	31.045
151.019	50.285
155.171	30.729
159.322	67.058
163.47	256.258
167.617	277.428
171.761	295.674
175.904	741.228
180.044	2402.96
184.183	4080.65
188.319	2906.99
192.454	849.056
196.586	313.649
200.717	152.493
204.846	164.517
208.972	227.707
213.097	349.042
217.22	551.504
221.341	532.068
225.46	388.732
229.577	411.503
233.692	521.381
237.805	251.359
241.916	4.223
246.025	56.25
250.132	21.366
254.237	0.477
258.34	163.913
262.442	410.162
266.541	502.801
270.639	265.29
274.734	41.633
278.828	13.9
282.919	91.938
287.009	124.053
291.097	90.23
295.183	30.459
299.266	91.326
303.348	37.275
307.428	27.359
311.507	16.759
315.583	26.815
319.657	133.491
323.729	363.145
327.8	841.641
331.868	1266.25
335.935	1469.63
339.999	1161.04
344.062	690.4
348.123	484.79
352.182	557.162
356.239	533.284
360.294	389.271
364.347	462.382
368.398	908.655
372.448	1965.06
376.495	3856.58
380.54	5100.16
384.584	3805.78
388.626	1948.43
392.666	1025.1
396.704	681.793
400.74	691.507
404.774	721.54
408.806	515.446
412.836	204.038
416.865	66.67
420.891	95.513
424.916	58.344
428.939	21.098
432.959	49.796
436.978	90.479
440.996	104.603
445.011	200.258
449.024	435.898
453.036	902.523
457.045	2371.95
461.053	4076.41
465.059	3748.89
469.063	1656.28
473.065	575.578
477.065	286.303
481.063	103.947
485.06	34.591
489.054	45.229
493.047	51.854
497.038	142.469
501.027	498.113
505.014	1400.28
508.999	1749.38
512.982	1166.41
516.964	912.165
520.944	477.675
524.921	321.971
528.897	531.535
532.871	1605.37
536.844	3165.94
540.814	2476.2
544.783	918.869
548.749	378.491
552.714	151.068
556.677	152.597
560.638	289.078
564.597	460.514
568.555	808.959
572.511	1023.43
576.464	658.903
580.416	438.322
584.366	462.249
588.315	597.672
592.261	1289.92
596.206	2421.11
600.148	2839.27
604.089	2176.38
608.028	1696.44
611.965	2940.43
615.901	6382.36
619.834	7903.34
623.766	4226.39
627.696	1797.51
631.624	898.679
635.551	561.86
639.475	424.986
643.398	369.044
647.318	255.035
651.237	198.724
655.155	91.578
659.07	35.367
662.984	49.068
666.895	37.902
670.805	0.031
674.713	41.206
678.62	8.529
682.524	25.341
686.427	31.368
690.328	32.917
694.227	45.559
698.124	161.784
702.02	327.206
705.913	430.353
709.805	399.517
713.695	264.602
717.584	259.658
721.47	405.732
725.355	658.5
729.238	1217.51
733.119	2109.2
736.998	3208.83
740.876	3589.38
744.752	2677.91
748.626	1788.38
752.498	1106.77
756.368	762.655
760.237	575.348
764.104	441.536
767.969	433.66
771.832	305.722
775.693	278.721
779.553	205.206
783.411	219.535
787.267	307.35
791.122	313.104
794.974	328.801
798.825	331.184
802.674	293.025
806.522	146.564
810.367	127.056
814.211	62.188
818.053	66.202
821.893	52.517
825.732	0.699
829.568	6.628
833.403	54.258
837.236	5.417
841.068	17.535
844.898	36.914
848.726	44.226
852.552	20.712
856.376	44.375
860.199	107.062
864.02	134.771
867.839	50.506
871.656	9.267
875.472	20.958
879.286	4.809
883.098	33.6
886.909	95.425
890.717	98.291
894.524	159.199
898.33	194.154
902.133	180.157
905.935	131.21
909.735	108.456
913.533	126.498
917.33	96.737
921.124	103.036
924.918	184.401
928.709	230.87
932.499	366.409
936.286	437.026
940.073	463.725
943.857	453.521
947.64	475.396
951.421	598.359
955.2	801.421
958.978	1021.77
962.753	1292.13
966.527	1692.59
970.3	2480.22
974.071	3415.77
977.84	5672.58
981.607	9792.39
985.372	13232.6
989.136	10531
992.898	7931.96
996.659	9494.17
1000.42	18788.6
1004.17	43928.3
1007.93	45477.3
1011.68	22465.1
1015.43	11042
1019.18	6417.99
1022.93	4244.07
1026.68	3106.62
1030.42	2527.6
1034.17	2136.84
1037.91	2121.42
1041.65	2027.12
1045.39	1703.95
1049.12	1158.89
1052.86	916.958
1056.59	705.147
1060.33	554.154
1064.06	636.844
1067.78	1091.37
1071.51	2266
1075.23	2909.75
1078.96	1560.59
1082.68	773.717
1086.4	392.46
1090.12	280.962
1093.83	133.084
1097.55	43.373
1101.26	38.771
1104.97	2.195
1108.68	67.455
1112.39	79.497
1116.1	155.066
1119.8	434.19
1123.5	1544.97
1127.2	2470.92
1130.9	1142.03
1134.6	770.352
1138.3	1087.81
1141.99	1574.41
1145.69	895.625
1149.38	368.667
1153.07	166.333
1156.76	77.403
1160.44	57.43
1164.13	99.793
1167.81	84.561
1171.49	104.197
1175.17	17.879
1178.85	42.646
1182.52	128.533
1186.2	190.835
1189.87	105.052
1193.54	35.201
1197.21	18.283
1200.88	70.995
1204.55	12.604
1208.21	5
1211.88	24.719
1215.54	52.065
1219.2	64.373
1222.86	79.585
1226.51	1.372
1230.17	10.413
1233.82	43.385
1237.47	11.175
1241.12	78.511
1244.77	8
1248.42	15.332
1252.06	54.135
1255.71	12.392
1259.35	5.254
1262.99	26.766
1266.63	54.131
1270.26	62.378
1273.9	30.309
1277.53	16.986
1281.16	16.455
1284.8	50.845
1288.42	43.102
1292.05	21.394
1295.68	34.596
1299.3	64.219
1302.92	68.112
1306.55	22.965
1310.16	59.895
1313.78	86.567
1317.4	135.253
1321.01	98.829
1324.62	147.104
1328.24	51.427
1331.85	21.636
1335.45	116.448
1339.06	75.104
1342.66	41.476
1346.27	37.514
1349.87	79.604
1353.47	34.627
1357.07	128.885
1360.66	119.337
1364.26	61.74
1367.85	92.831
1371.44	95.773
1375.04	128.943
1378.62	41.809
1382.21	114.683
1385.8	104.478
1389.38	31.577
1392.96	54.478
1396.54	95.161
1400.12	91.969
1403.7	50.654
1407.28	81.596
1410.85	34.897
1414.42	23.852
1417.99	119.076
1421.56	55.624
1425.13	64.653
1428.7	20.602
1432.26	34.611
1435.83	1.27
