Measurement: Raman, 514 nm, depolarized, Raman Data Processed
Mineral: Vesuvianite
Rruff sample: R050233
Ideal chemistry: (Ca,Na)_19_(Al,Mg,Fe^3+^)_13_(SiO_4_)_10_(Si_2_O_7_)_4_(OH,F,O)_10_
Locality: Ludwig, Nevada, USA
Source: Marcus Origlieri
Description: Pale green euhedral single crystal
Measured chemistry: Ca_19.00_(Al_10.04_Mg_2.54_Fe^2+^_0.42_)_Σ=13_(Si_17.96_Al_0.04_)_Σ=18_O_68_((OH)_9.66_F_0.34_)_Σ=10_ ; Boron not analyzed.
Pin_id: L00161
Orientation: Laser parallel to -c* (0 0 -1). Fiducial mark perpendicular to laser is parallel to -a [-1 0 0]
Raman shift (cm-1)	intensity
114.254	0
118.424	39.475
122.592	140.105
126.758	47.162
130.922	53.014
135.083	400.486
139.243	357.312
143.401	323.324
147.557	186.883
151.711	59.312
155.863	493.498
160.013	1097.27
164.161	1603.32
168.308	1854.84
172.452	2410.36
176.594	2278.53
180.734	2329.24
184.872	1824.59
189.008	1128.4
193.143	771.422
197.275	1028.34
201.405	794.326
205.534	1536.78
209.66	2093.1
213.784	2738.66
217.907	3143.62
222.027	2859.03
226.146	2339.95
230.263	1877.37
234.377	1318.29
238.49	1350.84
242.601	1334.03
246.709	1790.6
250.816	3126.71
254.921	4151.36
259.024	3386.32
263.125	2681.53
267.224	2091.83
271.321	2148.11
275.416	2556.38
279.51	3035.45
283.601	3367.28
287.69	4263.08
291.778	4049.82
295.863	3513.4
299.947	3074.89
304.029	2747.34
308.108	2569.55
312.186	2050.38
316.262	2251.63
320.336	2396.32
324.408	2542.28
328.478	2858.45
332.546	2551.74
336.612	2677.12
340.677	2788.53
344.739	2818.93
348.799	3274.25
352.858	4032.45
356.915	5165.5
360.969	6481.93
365.022	6696.84
369.073	6289.06
373.122	5536.96
377.169	4759.42
381.215	3799.17
385.258	2967.07
389.299	3055.44
393.339	2862.75
397.376	3627.96
401.412	4442.9
405.446	4941.9
409.478	5490.89
413.508	5009.23
417.536	3956.33
421.562	2356.22
425.586	1757.55
429.609	866.438
433.629	586.838
437.648	573.908
441.665	250.756
445.68	375.662
449.693	407.553
453.704	237.387
457.713	609.127
461.721	850.59
465.726	1016.8
469.73	1574.4
473.731	1360.38
477.731	1738.69
481.729	1699.26
485.725	1227.07
489.72	864.102
493.712	921.318
497.703	481.707
501.691	314.238
505.678	478.893
509.663	389.645
513.646	348.477
517.627	92.365
521.607	133.916
525.584	365.607
529.56	25.898
533.534	196.35
537.506	47.678
541.476	55.553
545.444	142.299
549.41	244.785
553.375	54.85
557.337	166.227
561.298	254.494
565.257	478.592
569.214	683.299
573.17	996.596
577.123	974.941
581.075	1730.23
585.024	2355.89
588.972	3509.37
592.918	3763.44
596.863	4118.67
600.805	4600.01
604.746	5390.44
608.685	5483.59
612.621	5335.34
616.557	5623.18
620.49	5245.09
624.421	6413.87
628.351	6764.61
632.279	8271.42
636.205	8930.85
640.129	9432.97
644.051	8384.35
647.972	6582.14
651.89	4936.31
655.807	2889.88
659.722	2379.81
663.636	2169.12
667.547	1706.8
671.457	1812.83
675.365	2640.21
679.271	3155.42
683.175	4890.33
687.077	6126.77
690.978	8143.77
694.877	7909.66
698.774	6773.88
702.669	3956.24
706.562	2710.19
710.454	1276.38
714.344	735.395
718.232	611.801
722.118	255.078
726.002	540.969
729.885	334.902
733.766	29.578
737.645	153.066
741.522	139.777
745.397	9.469
749.271	244.773
753.143	28.539
757.013	150.262
760.881	136.449
764.748	461.473
768.613	212.891
772.476	309.363
776.337	134.523
780.196	652.805
784.054	227.535
787.91	686.719
791.764	544.441
795.616	766.875
799.467	957.973
803.316	1461.69
807.163	1431.02
811.008	1412.94
814.851	1542.47
818.693	2159.61
822.533	2380.41
826.371	2438.87
830.208	3201.2
834.042	3353.57
837.875	4404.22
841.706	5091.26
845.536	6558.04
849.363	8442.01
853.189	9777.14
857.013	11764.3
860.836	12209.4
864.656	11226.4
868.475	10708.4
872.292	10314.7
876.108	9415.88
879.922	9754.12
883.733	9677.91
887.544	10295.9
891.352	9583.23
895.159	8977.96
898.964	8880.34
902.767	8861.39
906.568	8795.25
910.368	8606.25
914.166	9797.6
917.962	10845.4
921.757	11618.9
925.55	13451.6
929.341	14956
933.13	14937.3
936.918	14921.6
940.703	13460.8
944.488	11842.8
948.27	10646.2
952.051	9895.6
955.83	9583.36
959.607	9017.01
963.383	8447.26
967.156	7283.59
970.928	6150.35
974.699	6128.02
978.468	5565.02
982.234	5418.6
986	4080.16
989.763	3515.95
993.525	2892.95
997.285	2709.77
1001.04	2181.2
1004.8	2624.28
1008.55	2594.39
1012.31	2551.92
1016.06	2606.83
1019.81	2426.25
1023.56	2833.29
1027.31	2677.09
1031.05	2512.53
1034.79	2513.09
1038.53	2784.63
1042.27	2527.52
1046.01	2285.23
1049.75	1382.63
1053.48	1326.97
1057.22	939.578
1060.95	733.781
1064.68	610.527
1068.4	207.773
1072.13	307.168
1075.86	246.73
1079.58	252.523
1083.3	223.738
1087.02	99.125
1090.74	73.16
1094.45	224.387
1098.17	182.234
1101.88	366.789
1105.59	213.426
1109.3	956.109
1113.01	764.297
1116.71	534.227
1120.42	285.293
1124.12	449.242
1127.82	241.527
1131.52	22.234
1135.22	515.34
1138.91	167.707
1142.61	196.973
1146.3	255.215
1149.99	118.562
1153.68	48.773
1157.37	73.387
1161.06	211.414
1164.74	236.922
1168.42	67.41
1172.1	122.336
1175.78	352.074
1179.46	164.129
1183.14	371.668
1186.81	160.383
1190.48	461.5
1194.15	540.621
1197.83	277.379
1201.49	1086.26
1205.16	690.895
1208.82	565.418
1212.49	781.234
1216.15	618.918
1219.81	651.418
1223.46	800.277
1227.12	958.762
1230.78	690.09
1234.43	620.738
1238.08	485.359
1241.73	713.066
1245.38	972.246
1249.03	913.699
1252.67	766.887
1256.31	6.348
1259.95	62.332
1263.6	779.48
1267.23	418.707
1270.87	456.238
1274.51	236.395
1278.14	497.289
1281.77	331.777
1285.4	160.359
1289.03	308.352
1292.66	377.457
1296.28	537.254
1299.91	619.184
1303.53	446.102
1307.15	730.914
1310.77	418.359
1314.38	710.453
1318	231.105
1321.61	0.012
