Measurement: Raman, 514 nm, depolarized, Raman Data Processed
Mineral: Vesuvianite
Rruff sample: R050035
Ideal chemistry: (Ca,Na)_19_(Al,Mg,Fe^3+^)_13_(SiO_4_)_10_(Si_2_O_7_)_4_(OH,F,O)_10_
Locality: Olmsteadville, New York, USA
Source: University of Arizona Mineral Museum
Description: Brown single crystal fragment
Measured chemistry: (Ca_18.66_Na_0.34_)_Σ=19_(Al_9.16_Mg_1.28_Ti_1.21_Fe^3+^_0.89_Fe^2+^_0.46_)_Σ=13_Si_18_O_68_((OH)_4.70_F_3.18_O_2.12_)_Σ=10_
Pin_id: M00130
Orientation: Laser parallel to a* (1 0 0). Fiducial mark perpendicular to laser is parallel to c [0 0 1]
Raman shift (cm-1)	intensity
130.342	0
134.518	1.323
138.692	160.248
142.864	207.601
147.034	56.594
151.201	16.463
155.367	105.059
159.53	275.632
163.692	505.92
167.851	437.932
172.008	422.88
176.163	704.025
180.316	1129.8
184.467	1544.47
188.616	1512.7
192.762	833.075
196.907	404.289
201.049	250.106
205.189	498.345
209.328	763.843
213.464	1167.4
217.598	1719.17
221.73	1776.03
225.86	1437.8
229.988	846.227
234.113	731.738
238.237	853.546
242.359	858.43
246.478	792.59
250.595	1228.16
254.711	1560.13
258.824	1692.47
262.935	1262.15
267.044	935.155
271.151	885.941
275.256	772.145
279.359	1142.13
283.46	1601.27
287.559	2005.56
291.656	1953.94
295.75	1465.57
299.843	926.036
303.933	495.961
308.022	378.89
312.108	593.885
316.193	844.678
320.275	1122.17
324.355	1545.99
328.434	1943.94
332.51	2016.93
336.584	2107.94
340.656	2524.32
344.726	2881.23
348.794	3489.27
352.86	3888.78
356.924	4349.89
360.986	5022.28
365.046	5855.27
369.104	6938.38
373.159	7091.6
377.213	6164.92
381.265	4918.31
385.315	3901.77
389.362	3275.29
393.408	3058.83
397.451	2872.33
401.493	2935.76
405.533	3099.14
409.57	3273.89
413.606	3279.71
417.639	2764.59
421.671	2004.22
425.7	1222.12
429.728	833.893
433.753	341.533
437.777	155.031
441.798	109.377
445.818	82.566
449.835	415.593
453.851	523.45
457.864	567.152
461.876	629.806
465.885	450.409
469.893	221.939
473.898	17.38
477.902	9.412
481.903	181.804
485.903	167.466
489.9	146.564
493.896	6.847
497.889	152.371
501.881	277.863
505.87	470.439
509.858	663.715
513.844	830.562
517.827	854.319
521.809	989.424
525.789	867.799
529.766	625.793
533.742	810.404
537.716	838.636
541.688	986.489
545.657	1107.97
549.625	1142.07
553.591	1005.8
557.555	757.167
561.517	569.172
565.477	422.821
569.435	396.096
573.391	244.943
577.345	295.358
581.297	439.415
585.248	611.144
589.196	860.558
593.142	1165.66
597.086	1541.47
601.029	2041.99
604.969	2331.23
608.908	2924.19
612.844	3050.89
616.779	3277.35
620.712	3403.56
624.642	3369.55
628.571	3395.32
632.498	3329.65
636.423	3273.71
640.346	3105.84
644.267	2622.41
648.186	1958.82
652.103	1092.81
656.019	361.053
659.932	133.903
663.843	452.609
667.753	525.312
671.66	569.504
675.566	457.313
679.47	46.127
683.372	490.311
687.271	1574.62
691.169	3240.08
695.065	4025.71
698.96	3121.52
702.852	1616.54
706.742	630.772
710.631	210.245
714.517	108.973
718.402	471.974
722.284	880.265
726.165	1643.41
730.044	2680.99
733.921	4238.67
737.796	5997.25
741.669	7686.26
745.54	9435.67
749.41	10415.5
753.277	10765.7
757.143	10186.4
761.006	8707.56
764.868	7049.18
768.728	5991.31
772.586	5434.05
776.442	5597.6
780.297	5592.1
784.149	5507.71
787.999	5094.38
791.848	4692.22
795.695	4281.48
799.54	3942.43
803.382	3705.16
807.224	3149.31
811.063	2664.55
814.9	2310.53
818.736	2423.4
822.569	2089.27
826.401	1828.91
830.231	1527.03
834.059	1390.11
837.885	1490.01
841.709	1775.82
845.532	2244.55
849.352	2748.15
853.171	3392.64
856.988	3887.99
860.803	4524.19
864.616	5091.25
868.427	5279.16
872.236	5177.9
876.044	5147.49
879.849	4877.91
883.653	4279.21
887.455	4211.35
891.255	4024.3
895.054	3658.05
898.85	3632.59
902.645	3657.9
906.438	4053.98
910.229	4720.81
914.018	5668.38
917.805	6276.67
921.59	7429.68
925.374	8047.71
929.156	8165.15
932.936	8014.98
936.714	7940.55
940.49	7672.03
944.264	7485.38
948.037	7673.12
951.808	8068.38
955.577	8091.9
959.344	8361.8
963.109	7913.22
966.872	7399.3
970.634	6547.33
974.394	5565.6
978.152	5095.76
981.908	4780.53
985.663	4212.09
989.415	3719.53
993.166	3304.45
996.915	2913.71
1000.66	2677.21
1004.41	2651.92
1008.15	2631.37
1011.89	2589.84
1015.63	2434.42
1019.37	2426.29
1023.11	2341.65
1026.84	2232.5
1030.57	2416.03
1034.31	2471.77
1038.03	2812.03
1041.76	3513.11
1045.49	3689.29
1049.21	2983.1
1052.93	1980.18
1056.65	1214
1060.37	620.112
1064.09	97.106
1067.8	83.022
1071.52	118.035
1075.23	137.817
1078.94	152.431
1082.64	194.794
1086.35	56.226
1090.05	221.027
1093.76	176.481
1097.46	149.845
1101.16	159.871
1104.85	4.426
1108.55	50.244
1112.24	49.256
1115.93	126.731
1119.62	210.834
1123.31	331.049
1127	105.087
1130.68	124.16
1134.37	181.195
1138.05	194.393
1141.72	149.076
1145.4	270.462
1149.08	168.172
1152.75	247.253
1156.42	225.728
1160.1	335.174
1163.76	391.824
1167.43	400.369
1171.1	326.009
1174.76	332.126
1178.42	304.358
1182.08	360.492
1185.74	394.115
1189.4	437.404
1193.05	503.56
1196.7	482.857
1200.36	444.26
1204.01	471.676
1207.65	445.381
1211.3	451.116
1214.94	501.597
1218.59	594.8
1222.23	617.884
1225.87	557.859
1229.5	462.02
1233.14	429.717
1236.77	406.8
1240.41	253.138
1244.04	304.346
1247.66	303.952
1251.29	326.548
1254.92	283.223
1258.54	264.541
1262.16	176
1265.78	186.809
1269.4	133.959
1273.02	118.283
1276.63	190.349
1280.25	250.096
1283.86	207.106
1287.47	265.315
1291.08	287.873
1294.68	131.462
1298.29	128.364
1301.89	139.368
1305.49	114.856
1309.09	213.043
1312.69	204.334
1316.29	225.249
1319.88	238.631
1323.47	174.547
1327.06	7.067
1330.65	59.769
1334.24	25.552
1337.83	46.801
1341.41	137.806
1344.99	234.362
1348.57	245.222
1352.15	212.942
1355.73	197.192
1359.31	172.106
1362.88	131.99
1366.45	45.603
1370.02	24.679
1373.59	28.388
1377.16	88.166
1380.73	80.766
1384.29	185.715
1387.85	119.541
1391.41	230.369
1394.97	208.634
1398.53	142.45
1402.09	68.628
1405.64	56.39
1409.19	17.795
1412.74	125.816
1416.29	38.083
1419.84	110.325
1423.38	184.451
1426.93	97.263
1430.47	175.991
1434.01	72.665
1437.55	74.279
1441.09	76.805
1444.62	124.777
1448.16	6.312
1451.69	34.565
1455.22	122.429
1458.75	79.539
1462.28	207.758
1465.8	140.33
1469.33	175.865
1472.85	170.705
1476.37	188.215
1479.89	56.866
1483.4	18.539
1486.92	126.298
1490.43	86.456
1493.95	111.524
1497.46	127.262
1500.97	54.53
1504.47	133.719
1507.98	289.778
1511.48	267.149
1514.99	137.179
