Measurement: Raman, 514 nm, depolarized, Raman Data Processed
Mineral: Vesuvianite
Rruff sample: R050035
Ideal chemistry: (Ca,Na)_19_(Al,Mg,Fe^3+^)_13_(SiO_4_)_10_(Si_2_O_7_)_4_(OH,F,O)_10_
Locality: Olmsteadville, New York, USA
Source: University of Arizona Mineral Museum
Description: Brown single crystal fragment
Measured chemistry: (Ca_18.66_Na_0.34_)_Σ=19_(Al_9.16_Mg_1.28_Ti_1.21_Fe^3+^_0.89_Fe^2+^_0.46_)_Σ=13_Si_18_O_68_((OH)_4.70_F_3.18_O_2.12_)_Σ=10_
Pin_id: L00076
Orientation: Laser parallel to c* (0 0 1). Fiducial mark perpendicular to laser is parallel to a [1 0 0]
Raman shift (cm-1)	intensity
119.461	0
123.643	103.241
127.823	10.551
132.001	10.022
136.176	132.437
140.35	386.515
144.521	281.799
148.691	167.639
152.858	18.045
157.024	21.652
161.187	200.153
165.348	310.935
169.507	522.325
173.664	615.687
177.819	804.526
181.971	1040.9
186.122	1076.11
190.271	780.976
194.417	358.328
198.562	274.017
202.704	220.071
206.844	288.885
210.983	625.838
215.119	1158.09
219.253	1681.29
223.385	1967.48
227.515	1265.5
231.643	723.804
235.769	702.448
239.893	701.655
244.014	554.547
248.134	722.104
252.252	903.274
256.367	1145.01
260.481	927.264
264.592	296.981
268.702	143.119
272.809	122.631
276.915	295.477
281.018	362.612
285.119	693.146
289.218	1039.64
293.316	954.198
297.411	660.456
301.504	237.886
305.595	322.342
309.684	323.653
313.771	650.926
317.856	1247.17
321.939	1808.36
326.02	2345.03
330.099	2618.8
334.176	2251.45
338.251	1766.94
342.323	1418.85
346.394	1294.82
350.463	1162.65
354.53	1322.34
358.594	1403.57
362.657	1665.57
366.718	2067.77
370.777	2580.12
374.833	2592.59
378.888	2125.18
382.941	1557.88
386.992	1250.64
391.04	1313.42
395.087	1596.22
399.132	2069.01
403.174	3021.79
407.215	3564.54
411.254	3967.24
415.29	3939.9
419.325	3062.48
423.358	1894.98
427.389	1147.38
431.417	540.68
435.444	252.863
439.469	100.923
443.492	91.176
447.512	11.612
451.531	123.812
455.548	191.167
459.563	187.481
463.576	113.73
467.587	168.896
471.596	83.085
475.603	54.14
479.608	118.898
483.611	0.714
487.612	23.454
491.611	208.948
495.608	284.147
499.603	680.853
503.596	1101.8
507.587	1610.9
511.577	1702.5
515.564	1937.95
519.549	1869.13
523.533	1577.87
527.514	1362.35
531.493	1356.33
535.471	1309.83
539.447	1442.84
543.42	1635.36
547.392	1667.4
551.362	1778.95
555.329	1600.03
559.295	1430.63
563.259	1170.77
567.221	1180.43
571.181	897.644
575.139	955.4
579.095	1116.71
583.049	1334.58
587.002	1522.02
590.952	1879.04
594.9	2215.64
598.847	2891.84
602.792	3189.7
606.734	3542.97
610.675	3645.73
614.614	3710.41
618.55	3424.75
622.485	3018.75
626.418	2522.43
630.349	2065.8
634.279	1698.53
638.206	1461.87
642.131	1091.32
646.055	710.057
649.976	421.054
653.896	2.217
657.814	367.321
661.729	601.007
665.643	587.836
669.555	543.943
673.465	448.184
677.373	10.27
681.28	418.117
685.184	1304.97
689.087	3201.88
692.987	5158.87
696.886	5175.97
700.783	3293.2
704.677	1530.59
708.57	1088.15
712.462	815.913
716.351	1303.9
720.238	1962.12
724.124	3320.61
728.007	5129.39
731.889	7938.48
735.769	10497.9
739.647	13147.7
743.523	16227.8
747.397	18218.4
751.269	19579.3
755.139	18801.6
759.008	16732.6
762.875	13775
766.739	10818
770.602	9111.59
774.463	8575.9
778.323	8171.07
782.18	7857.27
786.035	7134.54
789.889	6353.07
793.741	5693.15
797.591	5004.9
801.439	4628.28
805.285	4003.04
809.129	3543.36
812.971	3212.31
816.812	3282.16
820.651	2960.04
824.488	2547.99
828.323	2246
832.156	2070.88
835.987	2011.5
839.817	2065.55
843.644	2310.78
847.47	2667.12
851.294	3234.56
855.116	3803.09
858.936	4542.72
862.755	5163.43
866.571	5245.21
870.386	4958.07
874.199	5102.01
878.01	4824.09
881.82	4573.02
885.627	4540.08
889.433	4348.19
893.236	3997.33
897.038	3787.47
900.838	3648.62
904.637	4060.77
908.433	4753.9
912.228	5117.99
916.021	5703.05
919.812	7189.04
923.601	8057.8
927.388	8815.18
931.174	8690.95
934.958	8470.46
938.739	8364.3
942.52	8443.96
946.298	8902.47
950.074	9227
953.849	9091.18
957.622	9230.82
961.393	8640.46
965.162	8109.86
968.93	7227.31
972.696	6128.17
976.459	5370.57
980.222	4895.83
983.982	4167.42
987.74	3639.6
991.497	3230.29
995.252	2814.81
999.005	2596.36
1002.76	2316.97
1006.51	2207.85
1010.25	2290.01
1014	2489.58
1017.74	2740.79
1021.49	2741.19
1025.23	2822.03
1028.96	2881.43
1032.7	2790.72
1036.44	3181.02
1040.17	4200.07
1043.9	5348.97
1047.63	4957.61
1051.36	3565.76
1055.09	2193.8
1058.81	1241.11
1062.54	521.392
1066.26	205.07
1069.97	24.884
1073.69	69.011
1077.41	91.729
1081.12	221.462
1084.84	177.579
1088.55	327.756
1092.25	191.23
1095.96	100.836
1099.67	88.147
1103.37	102.296
1107.07	102.208
1110.77	5.334
1114.47	51.012
1118.16	132.324
1121.86	244.639
1125.55	297.614
1129.24	139.024
1132.93	145.982
1136.62	21.289
1140.31	45.658
1143.99	182.987
1147.67	163.884
1151.35	246.51
1155.03	195.873
1158.71	292.884
1162.39	263.782
1166.06	242.715
1169.73	221.41
1173.4	344.47
1177.07	435.911
1180.74	472.103
1184.4	509.742
1188.07	485.57
1191.73	460.871
1195.39	536.529
1199.05	432.9
1202.7	510.918
1206.36	564.346
1210.01	651.703
1213.66	644.108
1217.31	594.622
1220.96	647.674
1224.6	519.323
1228.25	426.077
1231.89	484.014
1235.53	602.243
1239.17	458.331
1242.81	556.092
1246.44	434.475
1250.08	379.938
1253.71	314.366
1257.34	206.812
1260.97	88.588
1264.6	211.399
1268.22	326.311
1271.85	330.236
1275.47	243.339
1279.09	347.474
1282.71	138.562
1286.33	118.755
1289.94	160.427
1293.56	90.748
1297.17	101.166
1300.78	147.545
1304.39	176.061
1307.99	298.24
1311.6	282.2
1315.2	141.312
1318.8	57.176
1322.4	12.171
1326	75.604
1329.6	71.975
1333.19	178.938
1336.79	194.428
1340.38	179.978
1343.97	254.842
1347.56	160.478
1351.14	175.668
1354.73	110.029
1358.31	54.369
1361.89	58.068
1365.47	151.929
1369.05	94.639
1372.63	207.576
1376.2	161.313
1379.78	186.25
1383.35	202.063
1386.92	508.228
1390.49	35.157
1394.05	42.584
1397.62	69.013
1401.18	133.924
1404.74	11.947
1408.3	170.906
1411.86	254.433
1415.42	186.977
1418.97	95.773
1422.53	177.096
1426.08	29.937
1429.63	11.051
1433.18	32.542
1436.72	4.512
1440.27	176.864
1443.81	178.436
1447.36	259.167
1450.89	269.225
1454.43	211.063
1457.97	292.781
1461.51	93.311
1465.04	122.935
1468.57	174.147
1472.1	199.704
1475.63	140.347
1479.16	161.299
1482.68	134.462
1486.21	228.083
1489.73	268.426
1493.25	312.63
1496.77	398.44
1500.29	235.999
1503.8	235.886
1507.32	251.267
1510.83	116.316
1514.34	1.242
