Measurement: Raman, 514 nm, depolarized, Raman Data Processed
Mineral: Vesuvianite
Rruff sample: R050233
Ideal chemistry: (Ca,Na)_19_(Al,Mg,Fe^3+^)_13_(SiO_4_)_10_(Si_2_O_7_)_4_(OH,F,O)_10_
Locality: Ludwig, Nevada, USA
Source: Marcus Origlieri
Description: Pale green euhedral single crystal
Measured chemistry: Ca_19.00_(Al_10.04_Mg_2.54_Fe^2+^_0.42_)_Σ=13_(Si_17.96_Al_0.04_)_Σ=18_O_68_((OH)_9.66_F_0.34_)_Σ=10_ ; Boron not analyzed.
Pin_id: L00354
Orientation: Laser parallel to a* (1 0 0). Fiducial mark perpendicular to laser is parallel to c [0 0 1]
Raman shift (cm-1)	intensity
118.424	0
122.592	152.938
126.758	1.104
130.922	71.605
135.083	363.814
139.243	289.037
143.401	393.668
147.557	307.648
151.711	14.191
155.863	23.77
160.013	450.607
164.161	959.307
168.308	1386.71
172.452	1966.13
176.594	1951.14
180.734	2330.45
184.872	1844.07
189.008	1251.07
193.143	844.23
197.275	597.301
201.405	783.01
205.534	1421.67
209.66	2080.75
213.784	2441.74
217.907	2813.88
222.027	3198.29
226.146	3045.06
230.263	2416.23
234.377	1833.81
238.49	1771.81
242.601	1671.55
246.709	1950.58
250.816	2672.66
254.921	3304.2
259.024	2789.56
263.125	1823.77
267.224	1378.98
271.321	1293.19
275.416	1789.39
279.51	2156.59
283.601	2415.26
287.69	2854
291.778	3074.1
295.863	2756.17
299.947	2314.66
304.029	2096.16
308.108	2106.48
312.186	1752.45
316.262	2250.82
320.336	2724.71
324.408	2837.91
328.478	3118.34
332.546	3198.92
336.612	2741.6
340.677	2285.34
344.739	1879.08
348.799	1808.8
352.858	2277.43
356.915	2806.93
360.969	3530.69
365.022	3663
369.073	3595.86
373.122	3328.47
377.169	3338.72
381.215	2665.99
385.258	2374.96
389.299	2907.92
393.339	3282.02
397.376	4228.77
401.412	5575.09
405.446	6380.99
409.478	6801.54
413.508	6257.83
417.536	4967.62
421.562	2935
425.586	2365.94
429.609	1314.71
433.629	662.158
437.648	511.488
441.665	44.709
445.68	472.947
449.693	221.449
453.704	11.076
457.713	409.229
461.721	701.42
465.726	882.396
469.73	1195.94
473.731	1025.92
477.731	1505.31
481.729	1528.09
485.725	1202.2
489.72	665.648
493.712	998.385
497.703	693.402
501.691	861.674
505.678	483.18
509.663	557.895
513.646	678.809
517.627	452.891
521.607	135.936
525.584	457.014
529.56	43.934
533.534	48.535
537.506	59.85
541.476	70.439
545.444	5.555
549.41	387.5
553.375	100.424
557.337	228.252
561.298	305.025
565.257	432.344
569.214	827.465
573.17	996.994
577.123	1181.33
581.075	1962.32
585.024	2527.56
588.972	3694.45
592.918	3480.5
596.863	3741.17
600.805	3628.18
604.746	4239.93
608.685	4041.49
612.621	3911.38
616.557	4276.27
620.49	4042.82
624.421	4415.26
628.351	4345.47
632.279	5667.92
636.205	5866.68
640.129	6279.77
644.051	5704.16
647.972	4552.07
651.89	3248.49
655.807	1693.43
659.722	1500.86
663.636	1259.78
667.547	1030.18
671.457	1463.07
675.365	2213.42
679.271	2808.88
683.175	4677.8
687.077	5831.55
690.978	8073.55
694.877	8109.9
698.774	6895.31
702.669	4134.31
706.562	2744.98
710.454	1324.98
714.344	849.496
718.232	384.176
722.118	51.258
726.002	266.016
729.885	184.047
733.766	44.473
737.645	142.164
741.522	2
745.397	38.402
749.271	208.973
753.143	55.902
757.013	154.32
760.881	220.039
764.748	66.016
768.613	47.773
772.476	245.777
776.337	85.352
780.196	496.605
784.054	365.062
787.91	751.125
791.764	449.797
795.616	669.137
799.467	867.117
803.316	1426.76
807.163	1445.06
811.008	1533.02
814.851	1579.65
818.693	2057.95
822.533	2647.93
826.371	2671.61
830.208	3390.16
834.042	3662.71
837.875	4477.7
841.706	5451.22
845.536	6809.6
849.363	8550.83
853.189	10738.9
857.013	12787.6
860.836	13575.6
864.656	12532.6
868.475	12140.4
872.292	11113.1
876.108	10403.2
879.922	10875.8
883.733	10821.9
887.544	10485.9
891.352	10468.6
895.159	10046.8
898.964	9770.91
902.767	9591.19
906.568	9626.1
910.368	9684.51
914.166	10962.9
917.962	12061.1
921.757	13386
925.55	15787.6
929.341	17466.2
933.13	17928.5
936.918	17678.2
940.703	15816.6
944.488	13696.4
948.27	12293.8
952.051	11141.1
955.83	10602.8
959.607	10005.1
963.383	9107.55
967.156	8005.86
970.928	6766.38
974.699	6693.77
978.468	6018.07
982.234	5955.22
986	4553.85
989.763	3711.73
993.525	3261.02
997.285	3205.72
1001.04	2447.02
1004.8	2699.16
1008.55	2851.14
1012.31	2776.05
1016.06	3003.36
1019.81	3180.25
1023.56	3458.58
1027.31	3166.73
1031.05	2628.14
1034.79	3118.01
1038.53	3283.57
1042.27	3058.75
1046.01	2388.61
1049.75	1687.22
1053.48	1345.44
1057.22	1097.02
1060.95	837.582
1064.68	407.27
1068.4	308.586
1072.13	319.195
1075.86	16.277
1079.58	249.879
1083.3	494.484
1087.02	141.707
1090.74	122.852
1094.45	415.434
1098.17	334.297
1101.88	211.992
1105.59	120.105
1109.3	489.656
1113.01	575.742
1116.71	331.559
1120.42	376.199
1124.12	468.484
1127.82	206.191
1131.52	59.664
1135.22	640.098
1138.91	217.594
1142.61	389.477
1146.3	5.496
1149.99	147.219
1153.68	203.859
1157.37	21.348
1161.06	6.504
1164.74	127.555
1168.42	301.441
1172.1	94.469
1175.78	276.879
1179.46	80.59
1183.14	558.543
1186.81	394.219
1190.48	408.309
1194.15	381.141
1197.83	186.566
1201.49	883.672
1205.16	803.133
1208.82	660.449
1212.49	692.992
1216.15	448.25
1219.81	474.449
1223.46	820.566
1227.12	366.398
1230.78	772.477
1234.43	671.656
1238.08	558.781
1241.73	690.176
1245.38	746.16
1249.03	878.316
1252.67	568.359
1256.31	39.098
1259.95	28.797
1263.6	606.379
1267.23	153.508
1270.87	380.914
1274.51	226.152
1278.14	435.328
1281.77	256.246
1285.4	339.781
1289.03	293.086
1292.66	388.375
1296.28	488.656
1299.91	237.414
1303.53	268.469
1307.15	438.949
1310.77	220.906
1314.38	530.102
1318	135.129
1321.61	8.07
1325.23	645.535
1328.84	51
