Measurement: Raman, 514 nm, depolarized, Raman Data Processed
Mineral: Vivianite
Rruff sample: R040185
Ideal chemistry: Fe^2+^_3_(PO_4_)_2_8H_2_O
Locality: Siglo XX mine, Llallagua, Bustillos, Potosi, Bolivia
Source: University of Arizona Mineral Museum
Description: Green acicular single crystal
Measured chemistry: (Fe_1.00_Mn_0.01_)_3_(P_0.97_Si_0.03_O_3.94_F_0.07_)_2_Â·8H_2_O
Pin_id: M00443
Orientation: Laser parallel to -c* (0 0 -1). Fiducial mark perpendicular to laser is parallel to a [1 0 0]
Raman shift (cm-1)	intensity
102.428	0
106.604	6.426
110.777	96.442
114.949	370.77
119.119	227.272
123.286	934.461
127.452	1810
131.615	396.256
135.777	293.228
139.937	885.475
144.094	1659.05
148.25	2540.91
152.403	2308.45
156.555	1306.39
160.705	2052.91
164.853	2421.39
168.998	1746.13
173.142	969.838
177.284	679.912
181.424	907.62
185.562	2101.67
189.698	4424.59
193.831	9098.57
197.963	10885.5
202.093	5767.38
206.221	2506
210.347	1540.09
214.472	1655.92
218.594	2752.65
222.714	5739.02
226.832	6774.82
230.948	4410.94
235.063	3339.76
239.175	2848.55
243.286	1540.25
247.394	735.104
251.501	403.076
255.605	305.175
259.708	224.576
263.808	98.361
267.907	196.635
272.004	241.008
276.099	147.774
280.192	106.112
284.283	58.792
288.372	19.934
292.459	24.287
296.544	63.402
300.627	32.944
304.709	40.758
308.788	37.977
312.865	7.227
316.941	13.447
321.015	44.992
325.086	49.586
329.156	92.092
333.224	286.923
337.29	512.092
341.354	770.072
345.416	642.304
349.476	402.774
353.534	135.625
357.591	56.788
361.645	115.052
365.698	64.205
369.748	15.496
373.797	30.895
377.844	1.818
381.889	23.253
385.932	50.36
389.973	56.93
394.012	42.927
398.049	89.914
402.084	172.775
406.118	201.766
410.15	330.143
414.179	440.038
418.207	630.512
422.233	693.186
426.257	529.771
430.279	421.415
434.299	354.427
438.318	374.061
442.334	329.412
446.349	423.859
450.361	645.488
454.372	713.132
458.381	534.651
462.388	358.498
466.394	361.359
470.397	260.248
474.398	174.668
478.398	104.695
482.396	120.845
486.391	137.905
490.385	145.017
494.377	170.57
498.368	207.402
502.356	177.881
506.342	218.019
510.327	268.83
514.31	342.428
518.291	426.735
522.27	552.598
526.247	653.148
530.222	620.479
534.196	852.872
538.167	836.738
542.137	842.195
546.105	684.014
550.071	610.443
554.035	467.765
557.998	391.86
561.958	407.787
565.917	532.725
569.874	612.965
573.829	463.461
577.782	361.503
581.733	151.801
585.683	231.02
589.63	204.165
593.576	253.201
597.52	245.816
601.462	182.492
605.402	221.417
609.341	407.365
613.277	461.406
617.212	457.574
621.145	289.588
625.076	328.735
629.006	308.82
632.933	310.156
636.859	223.9
640.783	91.052
644.705	138.861
648.625	140.64
652.543	133.565
656.46	105.006
660.375	92.115
664.288	110.843
668.199	129.966
672.108	164.142
676.016	168.425
679.921	64.983
683.825	31.863
687.727	215.074
691.628	105.634
695.526	101.489
699.423	25.542
703.318	94.791
707.211	163.208
711.102	101.785
714.992	37.517
718.879	43.612
722.765	104.347
726.649	62.413
730.532	166.558
734.412	39.8
738.291	51.147
742.168	122.61
746.043	148.191
749.916	237.893
753.788	181.722
757.658	74.68
761.526	103.766
765.392	124.978
769.257	199.321
773.119	58.792
776.98	44.675
780.839	105.117
784.697	34.601
788.552	27.046
792.406	24.488
796.258	32.963
800.108	43.446
803.957	34.156
807.804	114.911
811.649	244.78
815.492	274.819
819.333	289.007
823.173	360.334
827.011	491.803
830.847	674.424
834.681	625.179
838.514	641.061
842.345	576.086
846.174	531.249
850.001	641.54
853.827	585.963
857.651	467.524
861.473	500.259
865.293	316.143
869.112	377.16
872.928	448.612
876.744	441.87
880.557	523.774
884.369	428.317
888.178	377.327
891.987	462.099
895.793	587.989
899.598	748.994
903.401	880.11
907.202	823.356
911.001	912.733
914.799	1281.22
918.595	1546.82
922.389	2027.52
926.182	2570.33
929.972	3264.54
933.761	4669.7
937.549	7636.68
941.334	14072.8
945.118	25421.8
948.9	28224.8
952.681	15341.1
956.459	7093.53
960.236	3773.9
964.012	2179.4
967.785	1522.35
971.557	996.899
975.327	693.036
979.095	384.013
982.862	437.33
986.627	358.737
990.39	390.223
994.152	262.773
997.912	354.259
1001.67	357.126
1005.43	253.049
1009.18	490.764
1012.93	792.503
1016.68	770.937
1020.43	564.23
1024.18	363.88
1027.93	245.072
1031.67	108.366
1035.42	66.261
1039.16	175.047
1042.9	175.014
1046.63	264.37
1050.37	258.328
1054.11	116.894
1057.84	119.532
1061.57	105.867
1065.3	155.119
1069.03	208.623
1072.75	148.744
1076.47	160.114
1080.2	116.845
1083.92	51.315
1087.64	45.377
1091.36	65.92
1095.07	46.247
1098.79	76.709
1102.5	31.784
1106.21	47.4
1109.92	12.175
1113.62	13.459
1117.33	25.465
1121.04	220.004
1124.74	140.173
1128.44	59.267
1132.14	6.629
1135.83	36.378
1139.53	25.281
1143.22	93.942
1146.92	134.599
1150.61	70.19
1154.3	119.326
1157.98	72.218
1161.67	10.704
1165.35	18.591
1169.04	33.813
1172.72	63.322
1176.4	151.428
1180.07	142.188
1183.75	100.743
1187.42	96.541
1191.1	37.663
1194.77	136.801
1198.44	69.177
1202.1	176.045
1205.77	169.93
1209.43	276.829
1213.1	222.729
1216.76	221.121
1220.42	76.652
1224.07	49.704
1227.73	249.299
1231.38	175.022
1235.04	271.266
1238.69	191.044
1242.34	218.777
1245.99	252.15
1249.63	127.474
1253.28	204.259
1256.92	60.32
1260.56	177.796
1264.2	277.58
1267.84	262.541
1271.48	270.576
1275.11	277.657
1278.74	233.001
1282.38	47.982
1286.01	58.972
1289.63	159.543
1293.26	87.898
1296.89	198.865
1300.51	242.692
1304.13	163.406
1307.75	89.669
1311.37	143.684
1314.99	97.62
1318.6	6.268
1322.22	57.457
1325.83	29.899
1329.44	57.606
1333.05	184.398
1336.66	75.79
1340.26	217.426
1343.87	164.121
1347.47	71.403
1351.07	44.325
1354.67	24.419
1358.27	64.484
1361.86	90.146
1365.46	249.906
1369.05	253.205
1372.64	256.993
1376.23	291.584
1379.82	227.401
1383.41	215.75
1386.99	127.952
1390.57	47.443
1394.16	127.065
1397.74	129.151
1401.32	140.844
1404.89	417.245
1408.47	296.565
1412.04	374.538
1415.61	280.181
1419.18	268.755
1422.75	198.843
1426.32	66.746
1429.89	87.237
1433.45	142.825
1437.01	178.018
1440.58	229.391
1444.13	441.522
1447.69	345.798
1451.25	404.957
1454.81	447.57
1458.36	290.738
1461.91	214.67
1465.46	223.319
1469.01	198.324
1472.56	77.143
1476.1	159.88
1479.64	205.842
1483.19	351.464
1486.73	354.838
1490.27	497.375
1493.81	383.829
1497.34	330.309
1500.88	267.969
1504.41	290.338
1507.94	124.014
1511.47	138.509
1515	31.115
1518.53	199.2
1522.05	170.363
1525.57	168.024
1529.1	0
