Measurement: Raman, 514 nm, depolarized, Raman Data Processed
Mineral: Vivianite
Rruff sample: R040185
Ideal chemistry: Fe^2+^_3_(PO_4_)_2_8H_2_O
Locality: Siglo XX mine, Llallagua, Bustillos, Potosi, Bolivia
Source: University of Arizona Mineral Museum
Description: Green acicular single crystal
Measured chemistry: (Fe_1.00_Mn_0.01_)_3_(P_0.97_Si_0.03_O_3.94_F_0.07_)_2_Â·8H_2_O
Pin_id: L00515
Orientation: Laser parallel to -a* (-1 0 0). Fiducial mark perpendicular to laser is parallel to b [0 1 0]
Raman shift (cm-1)	intensity
92.926	0
97.121	40.176
101.314	4.2
105.505	81.909
109.694	136.354
113.881	306.602
118.066	340.165
122.249	450.284
126.43	860.714
130.608	1222.83
134.785	872.675
138.959	679.516
143.131	685.708
147.301	771.881
151.469	874.793
155.635	732.277
159.799	531.205
163.961	478.511
168.121	441.916
172.278	394.648
176.434	398.017
180.587	576.694
184.739	1085.89
188.888	1374.79
193.035	937.479
197.18	634.002
201.324	461.394
205.465	330.667
209.603	258.832
213.74	277.89
217.875	547.84
222.008	1005.68
226.139	1683.43
230.267	1940.12
234.394	1586.19
238.518	1462.42
242.641	1140.2
246.761	638.696
250.879	374.017
254.996	285.521
259.11	179.874
263.222	201.953
267.332	210.888
271.44	277.821
275.546	347.267
279.65	357.074
283.752	379.141
287.852	317.391
291.95	279.769
296.046	297.233
300.14	264.74
304.231	287.257
308.321	276.758
312.409	285.226
316.495	158.645
320.578	138.007
324.66	112.302
328.739	146.519
332.817	173.638
336.892	191.64
340.966	311.517
345.037	399.291
349.107	370.978
353.174	206.593
357.24	100.141
361.303	34.598
365.365	31.091
369.424	59.021
373.481	53.266
377.537	19.087
381.59	44.564
385.642	44.613
389.691	5.959
393.738	0.621
397.784	15.8
401.827	23.458
405.868	61.207
409.908	133.608
413.945	203.792
417.98	259.828
422.014	389.745
426.045	478.557
430.075	447.252
434.102	387.814
438.127	462.231
442.151	585.495
446.172	815.601
450.192	1217.54
454.209	1653.32
458.225	1814.92
462.238	1537.35
466.25	1065.6
470.259	770.679
474.267	549.577
478.273	479.322
482.276	367.096
486.278	279.855
490.278	279.694
494.276	271.9
498.271	287.793
502.265	303.382
506.257	309.709
510.247	340.098
514.235	400.879
518.221	451.58
522.205	497.265
526.187	561.788
530.167	606.593
534.145	657.298
538.122	714.821
542.096	758.104
546.068	776.213
550.039	781.107
554.007	764.496
557.973	791.534
561.938	941.728
565.901	1213.98
569.861	1705.87
573.82	1632.34
577.777	1083.68
581.732	774.88
585.685	710.946
589.636	590.879
593.585	533.681
597.532	532.353
601.477	425.897
605.42	424.315
609.361	378.61
613.301	355.783
617.238	269.838
621.174	256.776
625.108	210.601
629.039	139.315
632.969	120.921
636.897	57.947
640.823	56.814
644.747	56.099
648.669	50.264
652.589	25.714
656.508	10.874
660.424	24.802
664.339	7.704
668.251	10.431
672.162	60.362
676.071	11.451
679.978	13.117
683.883	34.729
687.786	13.611
691.687	19.876
695.586	11.262
699.484	19.362
703.379	10.454
707.273	0.362
711.165	16.272
715.055	17.816
718.943	10.091
722.829	41
726.713	15.887
730.595	39.751
734.476	52.601
738.354	61.442
742.231	16.276
746.106	93.107
749.978	105.939
753.849	118.775
757.719	95.618
761.586	146.473
765.451	108.001
769.315	102.229
773.177	137.139
777.036	102.073
780.894	139.035
784.75	132.029
788.605	131.058
792.457	125.007
796.307	121.886
800.156	165.074
804.003	169.169
807.848	209.61
811.691	184.841
815.532	219.798
819.371	248.249
823.209	205.615
827.045	255.54
830.878	314.771
834.71	285.44
838.54	285.239
842.369	288.093
846.195	262.941
850.02	235.579
853.842	163.611
857.663	148.491
861.482	134.107
865.299	109.75
869.115	99.132
872.928	76.238
876.74	85.454
880.55	49.058
884.358	86.501
888.164	109.054
891.969	148.719
895.771	171.498
899.572	129.413
903.371	212.442
907.168	235.599
910.963	343.896
914.757	395.318
918.548	517.881
922.338	570.573
926.126	848.385
929.912	1235.32
933.697	1708.37
937.479	2588.54
941.26	4436.84
945.039	8213.27
948.816	15299.8
952.591	16626.5
956.365	10183.3
960.136	5392.34
963.906	2890.56
967.674	1715.02
971.441	1075.03
975.205	886.736
978.968	656.854
982.729	501.75
986.488	477.485
990.245	329.623
994	329.082
997.754	342.805
1001.51	312.098
1005.26	520.998
1009	779.261
1012.75	966.83
1016.5	1225.12
1020.24	1170.58
1023.98	1410.06
1027.72	693.766
1031.46	645.432
1035.19	722.18
1038.93	789.002
1042.66	1046.93
1046.39	1558.57
1050.12	2530.64
1053.85	3032.8
1057.57	2241.47
1061.29	1154.05
1065.02	679.73
1068.74	458.558
1072.45	403.98
1076.17	351.522
1079.88	296.035
1083.6	239.605
1087.31	112.028
1091.02	105.034
1094.72	66.362
1098.43	37.242
1102.13	12.198
1105.84	29.343
1109.54	56.324
1113.24	8.685
1116.93	5.937
1120.63	0.875
1124.32	26.952
1128.01	43.935
1131.7	23.997
1135.39	31.095
1139.08	12.089
1142.76	22.879
1146.45	26.307
1150.13	9.053
1153.81	1.63
1157.48	10.262
1161.16	21.146
1164.84	21.822
1168.51	49.04
1172.18	88.77
1175.85	15.667
1179.52	38.056
1183.18	68.861
1186.85	13.62
1190.51	53.364
1194.17	59.291
1197.83	60.261
1201.48	57.843
1205.14	44.246
1208.79	12.584
1212.44	22.125
1216.09	33.504
1219.74	62.902
1223.39	100.792
1227.03	38.693
1230.68	93.244
1234.32	63.593
1237.96	4.48
1241.6	30.175
1245.23	30.747
1248.87	59.205
1252.5	44.821
1256.13	97.186
1259.76	112.324
1263.39	67.207
1267.02	40.969
1270.64	22.895
1274.26	24.171
1277.88	39.463
1281.5	25.401
1285.12	56.742
1288.74	69.603
1292.35	44.474
1295.96	21.884
1299.57	14.604
1303.18	20.854
1306.79	11.531
1310.4	63.411
1314	16.365
1317.6	108.496
1321.2	88.999
1324.8	89.578
1328.4	80.025
1331.99	85.294
1335.59	22.503
1339.18	12.921
1342.77	53.881
1346.36	100.766
1349.95	76.045
1353.53	109.989
1357.12	74.068
1360.7	114.536
1364.28	33.937
1367.86	78.18
1371.44	3.373
1375.01	24.505
1378.59	29.885
1382.16	69.04
1385.73	29.599
1389.3	113.272
1392.87	89.602
1396.43	28.588
1399.99	51.883
1403.56	69.257
1407.12	30.514
1410.68	11.344
1414.23	29.461
1417.79	12.944
1421.34	52.273
1424.9	78.976
1428.45	41.328
1431.99	57.075
1435.54	63.421
1439.09	49.48
1442.63	7.632
1446.17	36.245
1449.71	30.936
1453.26	7.226
1456.79	3.313
1460.33	93.678
1463.86	77.891
1467.39	128.786
1470.92	130.256
1474.45	98.121
1477.98	83.525
1481.51	43.268
1485.03	61.424
1488.56	30.03
1492.08	42.089
1495.6	48.083
1499.11	34.25
1502.63	46.663
1506.14	124.865
1509.66	73.007
1513.17	132.627
1516.68	121.001
1520.19	110.784
1523.69	0
