Measurement: Raman, 514 nm, depolarized, Raman Data Processed
Mineral: Vivianite
Rruff sample: R040185
Ideal chemistry: Fe^2+^_3_(PO_4_)_2_8H_2_O
Locality: Siglo XX mine, Llallagua, Bustillos, Potosi, Bolivia
Source: University of Arizona Mineral Museum
Description: Green acicular single crystal
Measured chemistry: (Fe_1.00_Mn_0.01_)_3_(P_0.97_Si_0.03_O_3.94_F_0.07_)_2_Â·8H_2_O
Pin_id: S00041
Orientation: Laser parallel to b* (0 1 0). Fiducial mark perpendicular to laser is parallel to -c [0 0 -1]
Raman shift (cm-1)	intensity
107.995	0
112.168	355.111
116.339	281.388
120.508	423.657
124.675	777.658
128.84	1173.65
133.003	887.724
137.164	464.503
141.323	538.395
145.48	887.216
149.635	956.998
153.788	586.881
157.939	541.135
162.088	1476.72
166.235	1781.14
170.38	864.727
174.523	487.69
178.664	535.191
182.803	1279.3
186.94	2069.53
191.076	3190.05
195.209	5488.65
199.34	6105.65
203.47	3661.8
207.597	1782.98
211.722	889.895
215.846	850.621
219.967	1600.4
224.087	2973.01
228.204	4044.73
232.32	3596.29
236.434	3264.98
240.545	2875.82
244.655	1809.02
248.763	954.188
252.869	714.782
256.973	685.721
261.075	537.808
265.175	655.613
269.273	977.07
273.369	992.562
277.463	772.589
281.556	596.152
285.646	364.644
289.734	77.347
293.821	9.816
297.905	278.749
301.988	589.934
306.069	648.215
310.147	504.467
314.224	312.055
318.299	232.157
322.372	70.967
326.443	14.15
330.512	214.625
334.579	401.61
338.645	445.11
342.708	546.516
346.769	581.312
350.829	402.491
354.887	180.016
358.942	102.104
362.996	37.029
367.048	18.495
371.098	128.771
375.146	168.847
379.192	117.706
383.236	85.49
387.279	55.108
391.319	47.473
395.358	107.532
399.394	43.841
403.429	50.874
407.462	0.483
411.493	2.407
415.522	53.601
419.549	64.429
423.575	58.175
427.598	5.23
431.619	256.454
435.639	257.452
439.657	436.957
443.673	687.851
447.687	1287.22
451.699	1766
455.709	1804
459.717	1531.55
463.724	1068.47
467.728	714.762
471.731	510.408
475.732	275.403
479.731	339.723
483.728	312.587
487.723	234.613
491.716	196.548
495.708	357.937
499.697	448.831
503.685	659.089
507.671	930.545
511.655	919.572
515.637	1350.75
519.617	1578.68
523.596	1571.14
527.572	1739.41
531.547	1956.77
535.52	2250.17
539.491	2065.38
543.46	1811.41
547.427	1718.13
551.393	1418.01
555.356	1297.04
559.318	1215.8
563.278	1266.04
567.236	2052.61
571.192	2438.89
575.147	1709.01
579.099	690.686
583.05	491.74
586.999	469.648
590.946	485.12
594.891	389.958
598.834	247.067
602.776	214.649
606.715	471.898
610.653	538.822
614.589	535.435
618.523	571.747
622.456	797.769
626.386	1263.51
630.315	1078.99
634.242	542.984
638.167	407.035
642.09	650.458
646.012	942.538
649.931	804.823
653.849	547.608
657.765	181.422
661.679	215.288
665.592	278.995
669.502	92.534
673.411	85.903
677.318	90.812
681.223	17.719
685.126	185.229
689.028	158.152
692.927	138.964
696.825	96.11
700.721	46.878
704.616	90.021
708.508	193.17
712.399	213.859
716.288	231.226
720.175	141.312
724.06	264.043
727.944	306.952
731.825	110.182
735.705	206.192
739.584	37.427
743.46	371.312
747.334	435.451
751.207	389.812
755.078	64.383
758.947	179.155
762.815	464.144
766.68	519.358
770.544	414.812
774.406	10.517
778.267	206.483
782.125	192.727
785.982	569.253
789.837	426.086
793.69	343.24
797.542	180.729
801.391	398.573
805.239	596.785
809.085	795.372
812.93	734.329
816.772	743.753
820.613	681.785
824.452	1142.12
828.29	1439.72
832.125	1333.28
835.959	1152.42
839.791	1206.38
843.621	1234.9
847.45	1624.26
851.277	1682.06
855.102	1453.44
858.925	1475.17
862.746	1342.66
866.566	1243.63
870.384	1414.25
874.2	1138.03
878.015	902.219
881.828	674.889
885.639	703.559
889.448	1083.3
893.256	1253.09
897.061	1353.43
900.865	1194.44
904.668	976.129
908.468	1188.39
912.267	1531.24
916.064	1684.65
919.86	1908.64
923.653	2063.2
927.445	2418.3
931.236	3423.96
935.024	5070.15
938.811	8286.86
942.596	14504.1
946.379	26671.8
950.161	32610.2
953.94	21959
957.719	11218.5
961.495	6338.51
965.27	3705.78
969.043	2337.8
972.814	1349.62
976.583	784.277
980.351	707.998
984.117	984.105
987.882	1218.09
991.644	1055.02
995.405	510.912
999.165	637.645
1002.92	1345.08
1006.68	713.191
1010.43	783.461
1014.18	842.143
1017.93	792.477
1021.68	693.641
1025.43	655.684
1029.18	831.574
1032.92	1315.11
1036.66	1538.42
1040.4	2362.39
1044.14	3217.04
1047.88	5298.17
1051.62	7631.69
1055.35	6617.08
1059.08	4093.09
1062.81	2479.07
1066.54	1464.77
1070.27	1000.63
1073.99	456.275
1077.72	421.312
1081.44	615.42
1085.16	938.652
1088.88	792.562
1092.59	874.762
1096.31	261.971
1100.02	30.113
1103.73	19.133
1107.44	28.789
1111.15	289.123
1114.86	310.184
1118.57	461.604
1122.27	243.785
1125.97	33.322
1129.67	49.957
1133.37	114.115
1137.07	358.707
1140.76	443.945
1144.45	359.738
1148.15	245.713
1151.84	152.242
1155.53	10.535
1159.21	122.494
1162.9	246.611
1166.58	457.02
1170.26	768.641
1173.94	801.359
1177.62	507.121
1181.3	309.414
1184.97	136.568
1188.65	148.17
1192.32	141.818
1195.99	339.793
1199.66	656.438
1203.33	818.146
1206.99	430.307
1210.65	202.979
1214.32	195.898
1217.98	98.461
1221.64	73.324
1225.29	180.895
1228.95	672.199
1232.6	823.973
1236.26	364.463
