Measurement: Raman, 514 nm, depolarized, Raman Data Processed
Mineral: Vivianite
Rruff sample: R040185
Ideal chemistry: Fe^2+^_3_(PO_4_)_2_8H_2_O
Locality: Siglo XX mine, Llallagua, Bustillos, Potosi, Bolivia
Source: University of Arizona Mineral Museum
Description: Green acicular single crystal
Measured chemistry: (Fe_1.00_Mn_0.01_)_3_(P_0.97_Si_0.03_O_3.94_F_0.07_)_2_Â·8H_2_O
Pin_id: M00228
Orientation: Laser parallel to (-1 0 -1). Fiducial mark perpendicular to laser is parallel to b [0 1 0]
Raman shift (cm-1)	intensity
109.387	0
113.559	41.81
117.729	49.582
121.897	630.275
126.063	1553.07
130.228	1060.43
134.39	115.274
138.55	39.396
142.709	148.349
146.865	466.806
151.019	518.073
155.171	368.183
159.322	382.184
163.47	413.847
167.617	403.876
171.761	306.922
175.904	624.752
180.044	1611.94
184.183	3379.83
188.319	4935.62
192.454	6838.49
196.586	7860.27
200.717	5397.64
204.846	2876.87
208.972	1855.11
213.097	2063.84
217.22	3285.7
221.341	5431.15
225.46	6669.94
229.577	5597.87
233.692	4441.08
237.805	3741.4
241.916	2421.15
246.025	1535.35
250.132	1179.9
254.237	1069.44
258.34	1139.09
262.442	1368.47
266.541	1748.21
270.639	1996.32
274.734	1841.12
278.828	1393.98
282.919	885.982
287.009	636.947
291.097	500.278
295.183	550.748
299.266	615.197
303.348	809.519
307.428	656.632
311.507	406.46
315.583	269.929
319.657	137.989
323.729	124.595
327.8	102.723
331.868	155.336
335.935	205.43
339.999	264.946
344.062	259.786
348.123	165.937
352.182	63.401
356.239	101.867
360.294	117.088
364.347	132.329
368.398	95.598
372.448	51.836
376.495	51.011
380.54	17.098
384.584	12.072
388.626	152.163
392.666	146.748
396.704	234.49
400.74	326.888
404.774	455.302
408.806	682.655
412.836	913.184
416.865	1239.19
420.891	1469.8
424.916	1391.1
428.939	1179.11
432.959	895.83
436.978	837.271
440.996	949.354
445.011	1199.07
449.024	1469.38
453.036	1731.27
457.045	1780.74
461.053	1443.82
465.059	1243.49
469.063	1034.74
473.065	957.655
477.065	904.293
481.063	962.193
485.06	975.59
489.054	1059.66
493.047	1252.56
497.038	1459.52
501.027	1655.65
505.014	1896.53
508.999	2328.09
512.982	2694.37
516.964	3045.81
520.944	3488.54
524.921	3846.89
528.897	4122.99
532.871	4284.87
536.844	4170.41
540.814	3953.47
544.783	3531.54
548.749	2931.89
552.714	2258.32
556.677	1823.81
560.638	1683.81
564.597	1883.09
568.555	2010.14
572.511	1508.07
576.464	981.959
580.416	698.848
584.366	564.449
588.315	427.556
592.261	363.16
596.206	318.53
600.148	334.116
604.089	301.259
608.028	308.322
611.965	407.313
615.901	332.572
619.834	347.433
623.766	315.36
627.696	215.92
631.624	242.916
635.551	217.334
639.475	189.982
643.398	156.635
647.318	115.082
651.237	108.868
655.155	102.474
659.07	104.105
662.984	102.844
666.895	151.435
670.805	151.303
674.713	172.627
678.62	172.816
682.524	173.282
686.427	207.194
690.328	170.376
694.227	203.835
698.124	227.274
702.02	180.153
705.913	176.781
709.805	183.351
713.695	168.611
717.584	114.269
721.47	103.648
725.355	68.068
729.238	69.526
733.119	17.022
736.998	54.557
740.876	75.133
744.752	1.747
748.626	26.608
752.498	13.05
756.368	34.738
760.237	14.435
764.104	20.186
767.969	13.009
771.832	15.013
775.693	24.316
779.553	41.481
783.411	57.309
787.267	43.907
791.122	14.859
794.974	16.683
798.825	0.569
802.674	24.501
806.522	15.608
810.367	21.712
814.211	27.191
818.053	8.116
821.893	44.067
825.732	41.049
829.568	10.946
833.403	45.078
837.236	12.151
841.068	27.742
844.898	11.652
848.726	13.381
852.552	18.398
856.376	21.418
860.199	6.453
864.02	31.444
867.839	31.438
871.656	55.463
875.472	40.515
879.286	41.604
883.098	113.749
886.909	158.87
890.717	191.938
894.524	203.267
898.33	336.982
902.133	321.155
905.935	474.598
909.735	571.719
913.533	694.243
917.33	894.804
921.124	1215.91
924.918	1608.71
928.709	2301.27
932.499	3347.99
936.286	5198.94
940.073	9295.15
943.857	17572.5
947.64	25260.4
951.421	18818.3
955.2	9873.33
958.978	5370.82
962.753	3232.81
966.527	2145.21
970.3	1499.47
974.071	1266.95
977.84	1102.28
981.607	1177.72
985.372	1350.17
989.136	1463.19
992.898	1505.71
996.659	1464.85
1000.42	1440.15
1004.17	1507.15
1007.93	1716.92
1011.68	1937.16
1015.43	2017.65
1019.18	1694.7
1022.93	1459.89
1026.68	1337.05
1030.42	1472.79
1034.17	1647.76
1037.91	2243.96
1041.65	3148.55
1045.39	4947.86
1049.12	7166.23
1052.86	6392.42
1056.59	3980.38
1060.33	2359.42
1064.06	1532.44
1067.78	1221.19
1071.51	987.416
1075.23	876.008
1078.96	671.884
1082.68	486.909
1086.4	391.663
1090.12	371.773
1093.83	295.997
1097.55	250.553
1101.26	214.993
1104.97	115.608
1108.68	129.241
1112.39	92.888
1116.1	63.52
1119.8	150.136
1123.5	53.201
1127.2	38.401
1130.9	38.833
1134.6	26.543
1138.3	33.247
1141.99	49.417
1145.69	70.589
1149.38	4.94
1153.07	23.01
1156.76	24.531
1160.44	59.34
1164.13	13.108
1167.81	6.948
1171.49	4.849
1175.17	18.239
1178.85	25.714
1182.52	64.428
1186.2	45.096
1189.87	17.471
1193.54	42.919
1197.21	48.56
1200.88	31.661
1204.55	30.149
1208.21	39.038
1211.88	53.091
1215.54	3.247
1219.2	65.779
1222.86	36.588
1226.51	18.662
1230.17	19.634
1233.82	28.463
1237.47	54.498
1241.12	32.465
1244.77	4.3
1248.42	40.495
1252.06	36.259
1255.71	27.18
1259.35	40.612
1262.99	64.301
1266.63	38.996
1270.26	19.973
1273.9	14.651
1277.53	47.1
1281.16	73.467
1284.8	64.948
1288.42	51.954
1292.05	12.928
1295.68	0.616
1299.3	14.298
1302.92	60.932
1306.55	152.098
1310.16	112.141
1313.78	130.814
1317.4	11.295
1321.01	97.211
1324.62	32.792
1328.24	4.229
1331.85	40.663
1335.45	4.811
1339.06	23.525
1342.66	28.032
1346.27	56.722
1349.87	99.421
1353.47	112.942
1357.07	64.368
1360.66	58.471
1364.26	101.922
1367.85	17.458
1371.44	55.539
1375.04	32.433
1378.62	65.598
1382.21	92.017
1385.8	72.529
1389.38	52.139
1392.96	17.246
1396.54	59.816
1400.12	8.664
1403.7	11.85
1407.28	7.32
1410.85	23.696
1414.42	34.134
1417.99	64.842
1421.56	56.118
1425.13	50.029
1428.7	81.002
1432.26	35.45
1435.83	74.855
1439.39	29.336
1442.95	20.87
1446.51	75.841
1450.06	61.406
1453.62	56.148
1457.17	35.112
1460.73	97.33
1464.28	132.023
1467.83	113.981
1471.37	87.382
1474.92	75.159
1478.46	67.064
1482.01	90.397
1485.55	10.445
1489.09	42.753
1492.63	97.162
1496.16	85.707
1499.7	127.849
1503.23	101.831
1506.76	92.072
1510.29	71.894
1513.82	21.572
1517.35	41.637
1520.88	5.723
1524.4	34.822
1527.92	3.396
1531.44	42.006
