Measurement: Raman, , ccw, Raman Data RAW
Mineral: Vladimirivanovite
Rruff sample: R130034
Ideal chemistry: Na_6_Ca_2_[Al_6_Si_6_O_24_](S^6+^O_4_,(S_3_)^2-^,(S_2_)^2-^,Cl)_2_H_2_O
Locality: Southwestern Baikal region (Irkutsk region), Russia
Source: Anatoly Sapozhnikov
Description: Dark blue to ink-blue, non-uniform and spotty, massive. Associated with lazurite, calcite, afganite, tounkite, phlogopite and marialite. Data from Sapozhnikov et al (2011)
Measured chemistry: Na_6.36_Ca_1.52_(Si_6.03_Al_5.97_)_Σ=12_O_23.99_(SO_4_)_1.58_(S_3_)_0.17_(S_2_)_0.08_·Cl_0.04_·0.62H_2_O
Raman shift (cm-1)	intensity
0	21.962
10.6085	2.92558
21.2169	4.08254
31.8254	2.52971
42.4339	-0.258087
53.0423	-1.45658
63.6508	3.674
74.2592	-1.08376
84.8677	4.28845
95.4762	21.6446
106.085	46.4529
116.693	60.092
127.302	62.9583
137.91	64.7434
148.518	62.396
159.127	57.2067
169.735	59.3268
180.344	63.8539
190.952	62.0078
201.561	63.1523
212.169	61.1269
222.778	67.2599
233.386	62.6339
243.995	60.2313
254.603	58.2312
265.212	63.574
275.82	60.4585
286.429	56.4253
297.037	56.3433
307.645	58.2129
318.254	60.0013
328.862	63.0492
339.471	62.0422
350.079	67.0517
360.688	65.9198
371.296	65.4125
381.905	58.0258
392.513	59.6384
403.122	58.3712
413.73	60.5145
424.339	69.2973
434.947	68.5268
445.555	70.2015
456.164	64.1581
466.772	63.7247
477.381	59.2433
487.989	58.9077
498.598	63.3187
509.206	52.0812
519.815	50.4025
530.423	56.2154
541.032	88.9633
551.64	69.7076
562.249	51.7557
572.857	42.0948
583.465	50.5359
594.074	50.1583
604.682	48.7744
615.291	60.1244
625.899	54.9725
636.508	56.6647
647.116	54.025
657.725	58.971
668.333	59.1212
678.942	64.173
689.55	76.7205
700.159	77.4791
710.767	78.7318
721.375	84.149
731.984	83.7914
742.592	80.0293
753.201	84.9904
763.809	86.9528
774.418	95.224
785.026	98.8238
795.635	99.0545
806.243	97.2461
816.852	95.6439
827.46	86.3209
838.069	78.5355
848.677	73.8841
859.286	65.9016
869.894	65.7917
880.502	63.9539
891.111	57.2295
901.719	47.6876
912.328	65.7317
922.936	55.8496
933.545	49.5168
944.153	58.9677
954.762	47.9558
965.37	55.2831
975.979	74.2845
986.587	70.1911
997.196	67.3085
1007.8	73.1078
1018.41	64.3584
1029.02	51.6389
1039.63	44.4006
1050.24	41.3666
1060.85	62.3287
1071.45	52.1594
1082.06	62.5019
1092.67	54.9432
1103.28	50.9158
1113.89	49.8414
1124.5	55.7714
1135.11	61.3229
1145.71	54.562
1156.32	61.0078
1166.93	55.6878
1177.54	59.8759
1188.15	61.8229
1198.76	61.1947
1209.36	61.1861
1219.97	55.7949
1230.58	53.5605
1241.19	50.23
1251.8	47.2702
1262.41	53.3463
1273.02	53.9909
1283.62	47.4267
1294.23	49.2782
1304.84	44.5992
1315.45	51.5657
1326.06	51.3142
1336.67	44.319
1347.27	50.8123
1357.88	46.5142
1368.49	47.4766
1379.1	47.7552
1389.71	48.2719
1400.32	45.4469
1410.93	44.9639
1421.53	46.5198
1432.14	46.8247
1442.75	50.776
1453.36	49.3422
1463.97	47.6147
1474.58	43.4845
1485.18	46.9974
1495.79	49.553
1506.4	45.572
1517.01	51.0822
1527.62	44.338
1538.23	43.5357
1548.84	48.4707
1559.44	38.9767
1570.05	42.6231
1580.66	49.1158
1591.27	47.972
1601.88	47.1846
1612.49	48.4728
1623.09	40.5007
1633.7	46.6608
1644.31	46.0157
1654.92	54.2553
1665.53	31.4973
1676.14	37.6721
1686.75	32.1208
1697.35	43.0471
1707.96	41.7063
1718.57	39.1398
1729.18	39.306
1739.79	36.9156
1750.4	37.6055
1761	36.9857
1771.61	37.603
1782.22	40.6311
1792.83	37.1762
1803.44	39.8525
1814.05	36.2175
1824.66	35.4608
1835.26	45.6824
1845.87	35.1049
1856.48	41.2288
1867.09	30.5642
1877.7	38.8574
1888.31	32.9916
1898.91	44.6323
1909.52	40.1423
1920.13	37.9011
1930.74	46.3384
1941.35	29.9482
1951.96	36.7223
1962.57	28.7918
1973.17	32.5777
1983.78	44.7673
1994.39	25.1991
2005	28.825
2015.61	23.3291
2026.22	37.4938
2036.82	30.8271
2047.43	23.5429
2058.04	29.0787
2068.65	17.6961
2079.26	30.7476
2089.87	37.8704
2100.48	27.2427
2111.08	26.1466
2121.69	28.9893
2132.3	25.4225
2142.91	24.9167
2153.52	26.4979
2164.13	24.7384
2174.73	28.3693
2185.34	28.8591
2195.95	30.9236
2206.56	21.6228
2217.17	26.2145
2227.78	26.4016
2238.39	24.5355
2248.99	27.9243
2259.6	20.168
2270.21	27.1961
2280.82	26.5523
2291.43	23.8755
2302.04	25.4556
2312.64	21.9318
2323.25	24.2252
2333.86	23.9831
2344.47	25.967
2355.08	22.0764
2365.69	23.5414
2376.3	22.5751
2386.9	21.9019
2397.51	23.8522
2408.12	21.5233
2418.73	16.7083
2429.34	20.6178
2439.95	24.0406
2450.55	26.3472
2461.16	23.1736
2471.77	29.1413
2482.38	25.5106
2492.99	24.8007
2503.6	23.1526
2514.21	28.2817
2524.81	31.0839
2535.42	29.836
2546.03	25.7758
2556.64	26.5688
2567.25	19.7048
2577.86	30.8066
2588.46	24.7021
2599.07	25.7765
2609.68	23.7004
2620.29	21.116
2630.9	18.8892
2641.51	24.8767
2652.12	25.9698
2662.72	21.4402
2673.33	21.0737
2683.94	29.3112
2694.55	28.7069
2705.16	24.9205
2715.77	27.0753
2726.38	25.2155
2736.98	25.021
2747.59	29.2669
2758.2	28.5104
2768.81	32.7036
2779.42	26.0909
2790.03	20.611
2800.63	24.7558
2811.24	29.0392
2821.85	25.2594
2832.46	32.9303
2843.07	28.89
2853.68	27.9089
2864.29	35.2366
2874.89	35.6608
2885.5	29.6377
2896.11	28.0355
2906.72	31.436
2917.33	31.4337
2927.94	31.4155
2938.54	32.04
2949.15	35.4686
2959.76	35.2384
2970.37	29.8596
2980.98	28.2199
2991.59	37.274
3002.2	31.4838
3012.8	26.4482
3023.41	35.3739
3034.02	26.6663
3044.63	33.0693
3055.24	36.1231
3065.85	33.875
3076.45	26.7365
3087.06	29.8831
3097.67	34.2078
3108.28	31.2493
3118.89	35.0662
3129.5	34.8759
3140.11	30.2795
3150.71	40.0314
3161.32	28.9141
3171.93	33.5518
3182.54	33.8079
3193.15	32.1978
3203.76	34.0614
3214.36	30.8544
3224.97	30.9854
3235.58	32.4569
3246.19	29.3282
3256.8	30.4353
3267.41	30.7957
3278.02	25.3232
3288.62	21.5035
3299.23	23.6288
3309.84	15.7388
3320.45	16.9925
3331.06	19.8107
3341.67	14.9169
3352.27	13.4864
3362.88	15.2846
3373.49	15.1317
3384.1	12.3249
3394.71	10.206
3405.32	15.5941
3415.93	2.91798
3426.53	4.03948
3437.14	6.43622
3447.75	5.42211
3458.36	1.8565
3468.97	10.8295
3479.58	1.33425
3490.18	5.83469
3500.79	2.64647
3511.4	5.87876
3522.01	9.36028
3532.62	1.63514
3543.23	5.84761
3553.84	6.3149
3564.44	-2.19235
3575.05	-0.46096
3585.66	1.06477
3596.27	7.05092
3606.88	2.3167
3617.49	1.51357
3628.09	-3.9402
3638.7	-5.94259
3649.31	1.85549
3659.92	3.67223
3670.53	10.0626
3681.14	1.58044
3691.75	-5.63359
3702.35	-2.13992
3712.96	3.83661
3723.57	5.43351
3734.18	6.76978
3744.79	-5.02523
3755.4	-2.73436
3766	7.6646
3776.61	-8.09644
3787.22	3.43922
3797.83	3.39287
3808.44	2.08597
3819.05	-0.903685
3829.66	5.74503
3840.26	-1.65414
3850.87	4.97964
3861.48	-1.06274
3872.09	0.0496419
3882.7	6.06112
3893.31	0.895073
3903.91	-0.387257
3914.52	2.94989
3925.13	7.38929
3935.74	-7.01977
3946.35	-0.473624
3956.96	7.67397
3967.57	4.32669
3978.17	0.414358
3988.78	1.61361
3999.39	1.31931
