Measurement: Raman, 514 nm, depolarized, Raman Data Processed
Mineral: Wavellite
Rruff sample: R040176
Ideal chemistry: Al_3_(PO_4_)_2_(OH)_3_5H_2_O
Locality: Montgomery County, Arkansas, USA
Source: University of Arizona Mineral Museum
Description: Pale green radial aggregates
Measured chemistry: (Al_0.88_V_0.03_)_3_(P_0.97_O_4_)_2_((OH)_1.74_F_0.26_)_3_Â·5H_2_O
Pin_id: M00066
Orientation: Laser parallel to b* (0 1 0). Fiducial mark perpendicular to laser is parallel to c [0 0 1]
Raman shift (cm-1)	intensity
100.34	0
104.516	82.917
108.691	349.192
112.864	1159.78
117.034	3042.6
121.203	3039.17
125.369	2056.49
129.534	995.5
133.696	475.854
137.857	392.606
142.016	1004.69
146.172	1049.74
150.327	760.653
154.48	804.976
158.63	717.445
162.779	731.642
166.926	525.778
171.07	67.999
175.213	235.041
179.354	303.259
183.493	137.84
187.63	1222.43
191.765	1760.75
195.898	1309.59
200.029	1278.64
204.158	1669.81
208.285	3446.34
212.41	4265.84
216.533	2797.15
220.654	1188.56
224.773	645.064
228.891	488.269
233.006	453.054
237.119	468.399
241.231	604.288
245.34	731.691
249.448	999.596
253.553	1192
257.657	1368.91
261.758	1671.31
265.858	2189.75
269.956	3251.67
274.052	4878.93
278.146	5830.78
282.237	5720.51
286.327	5105.74
290.416	4423.83
294.502	3569.23
298.586	2657.73
302.668	2502.39
306.749	3836.82
310.827	5765.61
314.903	6799.55
318.978	5615.23
323.051	3713.5
327.121	2389.35
331.19	1725.94
335.257	1414.08
339.322	1124.94
343.385	1495.45
347.446	1567.1
351.505	2460.76
355.563	2913.71
359.618	2958.92
363.672	2709.36
367.723	2449.03
371.773	2968.9
375.821	3773.95
379.866	4507.15
383.91	5831.5
387.952	7452.03
391.992	8821.96
396.031	10401.2
400.067	12232.9
404.101	13500.8
408.134	13630
412.165	13340.5
416.193	11911.4
420.22	10200.7
424.245	8418.36
428.268	7231.19
432.289	5558.27
436.309	4131.53
440.326	2433.97
444.342	1340.51
448.355	794.251
452.367	299.117
456.377	162.109
460.385	52.833
464.391	19.781
468.395	106.654
472.398	146.84
476.398	177.436
480.397	107.704
484.394	8.365
488.389	36.855
492.382	9.032
496.373	3.089
500.362	150.363
504.349	35.387
508.335	256.916
512.319	456.382
516.3	389.744
520.28	531.988
524.259	1175.12
528.235	1994.12
532.209	2651.97
536.182	3808.67
540.152	4414.46
544.121	4366.81
548.088	4371.36
552.053	4284.64
556.017	4141.19
559.978	4092.14
563.938	3871
567.895	3703.85
571.851	3583.11
575.805	3142.97
579.758	2984.33
583.708	3192.79
587.657	3066.45
591.603	3063.73
595.548	3593.8
599.491	3835.71
603.432	4398.44
607.372	5053.86
611.309	5904.98
615.245	6377.42
619.179	7022.2
623.111	7528.12
627.041	7350.48
630.97	7765.55
634.896	7519.32
638.821	7023.93
642.744	6847.44
646.665	6303.99
650.584	5309.72
654.502	4726.27
658.418	4131.19
662.331	3491.44
666.244	2770.43
670.154	2468.85
674.062	2010.81
677.969	1321.28
681.874	982.344
685.777	883.861
689.678	726.902
693.577	415.469
697.475	251.559
701.371	176.156
705.265	144.113
709.157	129.684
713.047	60.367
716.936	201.23
720.823	90.436
724.708	98.465
728.591	231.402
732.472	57.426
736.352	15.393
740.23	80.797
744.106	57.322
747.98	156.883
751.853	49.953
755.723	31.105
759.592	166.502
763.459	13.98
767.325	266.836
771.188	40.965
775.05	174.281
778.91	170.748
782.768	16.586
786.625	73.936
790.479	42.391
794.332	38.865
798.183	278.137
802.033	98.182
805.88	110.096
809.726	35.773
813.57	68.318
817.413	3.791
821.253	19.904
825.092	156.418
828.929	114.768
832.764	60.033
836.598	104
840.429	78.908
844.259	92.713
848.088	61.424
851.914	244.428
855.739	292.654
859.562	71.484
863.383	65.641
867.203	119.385
871.02	63.004
874.836	230.709
878.65	413.691
882.463	432.564
886.274	399.129
890.083	531.77
893.89	656.855
897.695	619.588
901.499	797.729
905.301	862.854
909.102	1218.25
912.9	1130.31
916.697	1104.96
920.492	1179.82
924.285	1506.54
928.077	1255.15
931.867	1507.86
935.655	1493.35
939.442	1140.88
943.226	1472.24
947.009	1529.92
950.791	1365.31
954.57	1378.63
958.348	1507.07
962.124	1249.77
965.899	1456.05
969.671	1337.77
973.442	1721
977.211	2036.78
980.979	2280.14
984.745	2477.1
988.509	3251.64
992.271	4579.72
996.032	5243.31
999.791	6045.37
1003.55	8293.98
1007.3	11137.1
1011.06	15381.8
1014.81	20901.3
1018.56	27036.6
1022.31	30474.4
1026.06	27544.8
1029.8	21656.9
1033.55	14846.7
1037.29	10884.2
1041.03	8952.35
1044.77	7649.26
1048.5	6652.38
1052.24	6409.99
1055.97	6130.52
1059.7	5185.6
1063.43	4690.1
1067.16	4708.78
1070.89	4289.84
1074.61	3660.02
1078.34	2739.04
1082.06	2477.92
1085.78	2280.13
1089.5	2449.6
1093.21	2658.58
1096.93	2520.42
1100.64	2587.07
1104.35	2215.72
1108.06	1952.45
1111.77	1955.78
1115.48	1988.59
1119.18	2064.73
1122.89	2818.83
1126.59	2273.03
1130.29	2336.53
1133.99	2286.62
1137.68	2599.66
1141.38	3357.75
1145.07	3952.46
1148.76	3817.79
1152.45	3302.3
1156.14	2549.72
1159.83	1761.67
1163.51	1329.49
1167.19	926.631
1170.88	343.008
1174.56	198.41
1178.23	102.023
1181.91	29.582
1185.59	55.723
1189.26	56.58
1192.93	21.898
1196.6	105.475
1200.27	18.369
1203.94	120.443
1207.6	81.867
1211.27	1.686
1214.93	119.656
1218.59	61.084
1222.25	117.293
1225.9	172.641
1229.56	43.029
1233.21	5.613
1236.86	28.588
1240.51	106.396
1244.16	99.492
1247.81	288.725
1251.45	34.512
1255.1	120.471
1258.74	213.455
1262.38	144.621
1266.02	42.113
1269.66	258.98
1273.29	125.982
1276.93	23.812
1280.56	86.621
1284.19	72.732
1287.82	192.049
1291.45	214.105
1295.07	69.453
1298.7	136.033
1302.32	152.922
1305.94	47.104
1309.56	19.488
1313.18	219.066
1316.8	96.926
1320.41	121.998
1324.02	253.604
1327.63	182.326
1331.24	265.436
1334.85	180.604
1338.46	204.516
1342.06	220.682
1345.67	354.934
1349.27	260.701
1352.87	221.555
1356.47	119.174
1360.07	228.609
1363.66	310.295
1367.25	429.994
1370.85	248.389
1374.44	352.174
1378.03	331.641
1381.61	427.426
1385.2	548.57
1388.78	591.516
1392.37	515.291
1395.95	314.111
1399.53	669.211
1403.1	726.002
1406.68	412.045
1410.26	429.766
1413.83	287.875
1417.4	444.992
1420.97	290.104
1424.54	344.715
1428.1	236.893
1431.67	212.115
1435.23	258.359
1438.8	316.707
1442.36	497.643
1445.91	439.844
1449.47	374.064
1453.03	509.904
1456.58	383.24
1460.13	330.045
1463.68	312.916
1467.23	722.799
1470.78	615.061
1474.33	584.338
1477.87	551.299
1481.42	575.334
1484.96	445.553
1488.5	306.969
1492.04	313.633
1495.57	229.809
1499.11	398.949
1502.64	23.699
1506.17	217.08
1509.71	209.229
1513.23	279.35
1516.76	405.072
