Measurement: Raman, 514 nm, depolarized, Raman Data Processed
Mineral: Wavellite
Rruff sample: R040176
Ideal chemistry: Al_3_(PO_4_)_2_(OH)_3_5H_2_O
Locality: Montgomery County, Arkansas, USA
Source: University of Arizona Mineral Museum
Description: Pale green radial aggregates
Measured chemistry: (Al_0.88_V_0.03_)_3_(P_0.97_O_4_)_2_((OH)_1.74_F_0.26_)_3_Â·5H_2_O
Pin_id: L00054
Orientation: Laser parallel to -a* (-1 0 0). Fiducial mark perpendicular to laser is parallel to b [0 1 0]
Raman shift (cm-1)	intensity
79.427	0
83.614	389.973
87.798	588.419
91.981	1606.52
96.161	3331.99
100.34	5929.41
104.516	6307.89
108.691	4537.66
112.864	3638.47
117.034	5080.48
121.203	3328.07
125.369	1849.45
129.534	1308.77
133.696	1096.87
137.857	1277.19
142.016	1130.74
146.172	1345.31
150.327	1415.79
154.48	1874.19
158.63	2767.07
162.779	3540.97
166.926	3097.16
171.07	1810.4
175.213	593.097
179.354	396.783
183.493	448.449
187.63	497.435
191.765	54.211
195.898	125.643
200.029	472.254
204.158	1327.37
208.285	2933.54
212.41	3808.45
216.533	3357.86
220.654	2455.93
224.773	2085.71
228.891	1398.34
233.006	861.73
237.119	641.853
241.231	919.653
245.34	955.527
249.448	1261.63
253.553	1705.97
257.657	1858.73
261.758	1702.79
265.858	2216.95
269.956	3391.64
274.052	4333.98
278.146	5092.55
282.237	5319.47
286.327	5163.79
290.416	4994.04
294.502	3793.52
298.586	3057.33
302.668	3718.53
306.749	6012.89
310.827	9380.1
314.903	10551.1
318.978	7849.51
323.051	4962.19
327.121	2751.11
331.19	1926.16
335.257	1383.21
339.322	1579.79
343.385	2559.94
347.446	4082.89
351.505	5694.74
355.563	5998.72
359.618	4781.45
363.672	3452.2
367.723	3044.05
371.773	3316.96
375.821	4329.93
379.866	6552.95
383.91	9076.07
387.952	12116.3
391.992	15217.6
396.031	17402
400.067	18000.5
404.101	18251.1
408.134	18287.9
412.165	17238.4
416.193	14671.7
420.22	11435.4
424.245	7708.27
428.268	4748.18
432.289	3090.15
436.309	1512.17
440.326	758.229
444.342	312.534
448.355	44.132
452.367	97.677
456.377	126.287
460.385	146.297
464.391	135.165
468.395	168.946
472.398	123.513
476.398	118.701
480.397	93.225
484.394	113.688
488.389	131.788
492.382	49.534
496.373	175.861
500.362	310.797
504.349	586.567
508.335	743.812
512.319	918.561
516.3	1439.36
520.28	1636.85
524.259	1899.95
528.235	2714.62
532.209	3579.88
536.182	4509.62
540.152	5063.93
544.121	5604.05
548.088	5649.73
552.053	5880.13
556.017	5971.36
559.978	5767.24
563.938	6031.23
567.895	6470.27
571.851	6390.02
575.805	6159.67
579.758	6094.57
583.708	5626.61
587.657	5212.93
591.603	4712.9
595.548	4573.07
599.491	4484.4
603.432	4483.31
607.372	4592.85
611.309	5166.23
615.245	5830.63
619.179	6770.5
623.111	8046
627.041	9105.65
630.97	9326.84
634.896	9001.42
638.821	9344.93
642.744	9176.85
646.665	8615.83
650.584	7620.17
654.502	6682.3
658.418	5140.86
662.331	3795.19
666.244	3070.17
670.154	2516.82
674.062	2019.73
677.969	1675.9
681.874	1386.33
685.777	910.037
689.678	770.014
693.577	709.267
697.475	379.804
701.371	228.621
705.265	440.662
709.157	284.935
713.047	82.338
716.936	133.497
720.823	6.464
724.708	96.147
728.591	110.72
732.472	48.382
736.352	61.062
740.23	32.73
744.106	54.514
747.98	84.281
751.853	106.895
755.723	203.23
759.592	119.057
763.459	5.709
767.325	157.465
771.188	38.295
775.05	50.463
778.91	111.168
782.768	85.316
786.625	165.031
790.479	25.891
794.332	109.131
798.183	22.039
802.033	148.861
805.88	196.734
809.726	39.031
813.57	139.846
817.413	128.596
821.253	126.594
825.092	217.549
828.929	325.285
832.764	250.818
836.598	391.172
840.429	585.361
844.259	643.408
848.088	560.33
851.914	890.781
855.739	1104.39
859.562	1185.93
863.383	1362.42
867.203	946.23
871.02	686.207
874.836	652.986
878.65	787.109
882.463	763.746
886.274	750.139
890.083	937.879
893.89	976.59
897.695	1248.42
901.499	1408.06
905.301	1593.13
909.102	1671.48
912.9	1815.37
916.697	1816.46
920.492	2079.79
924.285	2040.93
928.077	2158.98
931.867	2077.45
935.655	1987.88
939.442	1927.09
943.226	1748.46
947.009	2091
950.791	2409.99
954.57	2503.8
958.348	2297.18
962.124	2208.32
965.899	2162.7
969.671	2037.79
973.442	2089.28
977.211	2446.35
980.979	3050.98
984.745	3935.2
988.509	5238
992.271	6278.4
996.032	7785.41
999.791	10738
1003.55	13073.3
1007.3	15089.1
1011.06	19423.7
1014.81	25104.9
1018.56	30988.9
1022.31	33603.6
1026.06	29464
1029.8	21621.3
1033.55	15413.4
1037.29	11553.3
1041.03	9806.06
1044.77	9089.73
1048.5	9264.66
1052.24	8458.65
1055.97	7314.08
1059.7	5892.65
1063.43	4966.35
1067.16	4890.83
1070.89	4080.77
1074.61	3287.7
1078.34	2962.19
1082.06	2682.21
1085.78	2304.63
1089.5	2011.97
1093.21	1572.89
1096.93	1352.28
1100.64	1178.15
1104.35	1407.58
1108.06	1354.41
1111.77	1502.62
1115.48	1652.29
1119.18	1777.79
1122.89	2050.89
1126.59	1744.72
1130.29	1999.84
1133.99	2070.24
1137.68	2927.89
1141.38	3256.77
1145.07	4276.31
1148.76	5058.65
1152.45	5798.45
1156.14	5382.69
1159.83	4568.05
1163.51	3621.26
1167.19	2731.76
1170.88	1593.57
1174.56	1278.42
1178.23	620.1
1181.91	422.428
1185.59	167.004
1189.26	190.197
1192.93	103.254
1196.6	77.969
1200.27	86.115
1203.94	124.434
1207.6	46.893
1211.27	115.643
1214.93	59.508
1218.59	30.131
1222.25	292.504
1225.9	107.873
1229.56	78.213
1233.21	109.229
1236.86	334.441
1240.51	324.129
1244.16	70.158
1247.81	37.84
1251.45	284.098
1255.1	249.018
1258.74	224.861
1262.38	298.246
1266.02	266.348
1269.66	495.098
1273.29	521.197
1276.93	454.996
1280.56	457.807
1284.19	417.361
1287.82	427.588
1291.45	269.994
1295.07	414.619
1298.7	489.277
1302.32	242.898
1305.94	271.463
1309.56	575.953
1313.18	661.189
1316.8	688.137
1320.41	873.611
1324.02	712.947
1327.63	380.689
1331.24	380.957
1334.85	63.928
1338.46	60.059
1342.06	39.613
1345.67	45.98
1349.27	78.49
1352.87	270.967
1356.47	382.93
1360.07	250.539
1363.66	401.059
1367.25	276.996
1370.85	272.473
1374.44	424.559
1378.03	261.898
1381.61	519.238
1385.2	387.023
1388.78	261.395
1392.37	181.619
1395.95	304.375
1399.53	181.318
1403.1	196.785
1406.68	19.539
1410.26	1.209
1413.83	176.43
1417.4	260.379
1420.97	235.848
1424.54	128.9
1428.1	125.031
1431.67	158.402
