Measurement: Raman, 514 nm, depolarized, Raman Data Processed
Mineral: Wavellite
Rruff sample: R040176
Ideal chemistry: Al_3_(PO_4_)_2_(OH)_3_5H_2_O
Locality: Montgomery County, Arkansas, USA
Source: University of Arizona Mineral Museum
Description: Pale green radial aggregates
Measured chemistry: (Al_0.88_V_0.03_)_3_(P_0.97_O_4_)_2_((OH)_1.74_F_0.26_)_3_Â·5H_2_O
Pin_id: S00512
Orientation: Laser parallel to -c* (0 0 -1). Fiducial mark perpendicular to laser is parallel to a [1 0 0]
Raman shift (cm-1)	intensity
91.981	0
96.161	1384.88
100.34	4501.67
104.516	5104.68
108.691	3209.04
112.864	3048.29
117.034	4856.42
121.203	5691.45
125.369	4497.82
129.534	2709.66
133.696	1423.56
137.857	1164.93
142.016	1589.89
146.172	1954.79
150.327	1931.11
154.48	1805.72
158.63	1774.7
162.779	1783.07
166.926	1365.39
171.07	832.367
175.213	218.694
179.354	309.374
183.493	495.812
187.63	224.574
191.765	66.106
195.898	226.878
200.029	46.57
204.158	1168.45
208.285	4169.62
212.41	6258.12
216.533	4663.98
220.654	2587.73
224.773	1726.27
228.891	1720.67
233.006	1732.07
237.119	1734.98
241.231	2315.33
245.34	2818.1
249.448	3306.25
253.553	3476.78
257.657	3435.93
261.758	3211.27
265.858	3195.57
269.956	3961.67
274.052	5464.99
278.146	7052.35
282.237	8014.79
286.327	8467.22
290.416	8404.96
294.502	7554.43
298.586	6098.89
302.668	6210.08
306.749	8687.65
310.827	12900.5
314.903	15349.8
318.978	13197.2
323.051	8980.77
327.121	6168.37
331.19	4104.97
335.257	3142.51
339.322	2816.11
343.385	3661.6
347.446	5282.84
351.505	7486.34
355.563	8479.82
359.618	7540.7
363.672	5408.19
367.723	4399.75
371.773	4460.91
375.821	5421.66
379.866	6841.02
383.91	8929.99
387.952	11124.6
391.992	12370
396.031	12759.1
400.067	12705
404.101	11783.7
408.134	9767.23
412.165	7327.59
416.193	4985.7
420.22	3076.63
424.245	2268.24
428.268	1783.6
432.289	1123.62
436.309	764.051
440.326	348.877
444.342	214.02
448.355	170.476
452.367	120.187
456.377	458.16
460.385	525.324
464.391	798.702
468.395	1055.35
472.398	1065.28
476.398	1001.52
480.397	922.025
484.394	802.793
488.389	611.792
492.382	299.001
496.373	72.4
500.362	13.072
504.349	130.282
508.335	177.882
512.319	223.065
516.3	172.812
520.28	147.66
524.259	143.685
528.235	440.088
532.209	782.415
536.182	1048.23
540.152	1204.94
544.121	1359.67
548.088	1455
552.053	1652.94
556.017	1880.43
559.978	2161.26
563.938	2411.14
567.895	2700.76
571.851	3124.24
575.805	3163.63
579.758	3380.28
583.708	3466.07
587.657	3484.94
591.603	3459.36
595.548	3581.97
599.491	3676.44
603.432	3974.84
607.372	4456.66
611.309	4843.19
615.245	5159.74
619.179	5680.01
623.111	5860.9
627.041	5618.9
630.97	5829.25
634.896	5496.44
638.821	5031.19
642.744	4397.57
646.665	3853.88
650.584	3301.94
654.502	2755.3
658.418	2361.16
662.331	1868.18
666.244	1440.58
670.154	1231
674.062	995.597
677.969	815.966
681.874	801.166
685.777	398.283
689.678	327.665
693.577	40.424
697.475	208.433
701.371	34.718
705.265	23.126
709.157	13.448
713.047	12.042
716.936	76.831
720.823	8.979
724.708	103.161
728.591	25.711
732.472	6.573
736.352	62.518
740.23	27.185
744.106	99.51
747.98	41.507
751.853	34.471
755.723	41.462
759.592	1.666
763.459	32.991
767.325	163.596
771.188	119.52
775.05	4.854
778.91	145.59
782.768	56.788
786.625	65.446
790.479	71.575
794.332	6.182
798.183	132.261
802.033	66.835
805.88	32.072
809.726	40.532
813.57	36.271
817.413	23.572
821.253	13.672
825.092	16.152
828.929	160.088
832.764	138.913
836.598	196.504
840.429	114.771
844.259	226.596
848.088	159.089
851.914	150.548
855.739	137.818
859.562	76.803
863.383	48.495
867.203	98.585
871.02	88.082
874.836	66.219
878.65	179.099
882.463	44.723
886.274	26.562
890.083	24.133
893.89	173.757
897.695	84.151
901.499	148.062
905.301	134.012
909.102	309.467
912.9	268.65
916.697	243.567
920.492	432.406
924.285	502.684
928.077	582.135
931.867	689.101
935.655	815.102
939.442	766.096
943.226	810.299
947.009	858.78
950.791	980.091
954.57	937.641
958.348	1049.25
962.124	1190.52
965.899	1207.79
969.671	1468.42
973.442	1653.91
977.211	2047.44
980.979	2551.88
984.745	3123.65
988.509	3910.79
992.271	4785.32
996.032	5890.21
999.791	7078.51
1003.55	9505.23
1007.3	12744.4
1011.06	17574.2
1014.81	23924.5
1018.56	31407.4
1022.31	35893.1
1026.06	33211.6
1029.8	26183.6
1033.55	18487.7
1037.29	14056.9
1041.03	11854.3
1044.77	10530.6
1048.5	9740.76
1052.24	9195.13
1055.97	7753.09
1059.7	6440.61
1063.43	5393.26
1067.16	4699.78
1070.89	4008.43
1074.61	3310.3
1078.34	2561.57
1082.06	2039.68
1085.78	1649.53
1089.5	1504.98
1093.21	1424.77
1096.93	1349.08
1100.64	1395.82
1104.35	1272.34
1108.06	1391.81
1111.77	1353.33
1115.48	1480.02
1119.18	1773.38
1122.89	2169.08
1126.59	2020.61
1130.29	2237.38
1133.99	2615.74
1137.68	3254.71
1141.38	3975.92
1145.07	4766.92
1148.76	5070.04
1152.45	5155.75
1156.14	4925.05
1159.83	3917.85
1163.51	3108.08
1167.19	1935.96
1170.88	1484.99
1174.56	964.986
1178.23	494.064
1181.91	394.354
1185.59	158.098
1189.26	112.11
1192.93	60.084
1196.6	16.384
1200.27	17.526
1203.94	105.159
1207.6	16.861
1211.27	37.426
1214.93	134.199
1218.59	68.152
1222.25	21.403
1225.9	113.104
1229.56	57.002
1233.21	87.949
1236.86	54.512
1240.51	9.696
1244.16	30.189
1247.81	93.364
1251.45	90.009
1255.1	98.222
1258.74	185.798
1262.38	36.485
1266.02	23.706
1269.66	88.848
1273.29	43.924
1276.93	153.186
1280.56	18.317
1284.19	23.93
1287.82	68.263
1291.45	30.271
1295.07	266.892
1298.7	179.018
1302.32	139.62
1305.94	0.622
1309.56	18.051
1313.18	72.902
1316.8	117.191
1320.41	116.947
1324.02	13.129
1327.63	61.626
1331.24	64.513
1334.85	119.803
1338.46	9.535
1342.06	39.317
1345.67	141.299
1349.27	109.295
1352.87	219.239
1356.47	68.146
1360.07	91.284
1363.66	56.885
1367.25	161.719
1370.85	76.271
1374.44	123.807
1378.03	19.668
1381.61	102.345
1385.2	225.393
1388.78	123.6
1392.37	87.502
1395.95	158.886
1399.53	252.698
1403.1	119.73
1406.68	271.035
1410.26	233.088
1413.83	293.045
1417.4	203.661
1420.97	378.211
1424.54	167.269
1428.1	175.672
1431.67	162.036
1435.23	219.746
1438.8	311.464
1442.36	208.697
1445.91	202.188
1449.47	280.544
1453.03	344.57
1456.58	252.575
1460.13	322.987
1463.68	175.774
1467.23	339.603
1470.78	200.202
1474.33	318.425
1477.87	149.474
1481.42	206.497
1484.96	165.679
1488.5	152.976
1492.04	144.656
1495.57	119.706
1499.11	205.432
1502.64	4.005
1506.17	14.222
1509.71	1.667
1513.23	129.351
1516.76	205.846
1520.29	28.247
