Measurement: Raman, 514 nm, ccw, Raman Data Processed
Mineral: Weloganite
Rruff sample: R050217
Ideal chemistry: Na_2_Sr_3_Zr^4+^(C^4+^O_3_)_6_3H_2_O
Locality: Francon Quarry, Montréal, Québec, Canada
Source: Marcus Origlieri
Description: Tan colored tapered hexagonal single crystals
Measured chemistry: Na_2.00_(Sr_2.93_Ca_0.07_)_Σ=3_(Zr_0.90_Hf_0.10_)_Σ=1_(CO_3_)_6_·3H_2_O
Pin_id: M01339
Orientation: Laser parallel to (0 1 1). Fiducial mark perpendicular to laser is parallel to -a [-1 0 0]
Raman shift (cm-1)	intensity
101.62	0
106.542	1880.75
111.461	4713.16
116.377	4675.11
121.292	5567.3
126.204	6250.66
131.113	8634.08
136.02	9850.03
140.925	13352
145.828	19982.9
150.728	26351.4
155.625	29232.1
160.521	24640.4
165.414	14977.6
170.304	8431.78
175.193	5351.64
180.078	2535.16
184.962	501.422
189.843	377.656
194.722	2261.47
199.598	2745.64
204.472	3841
209.343	4233.27
214.213	3904.28
219.079	5178.27
223.944	6313.72
228.806	6835.22
233.665	7707.06
238.522	6446.58
243.377	5129.24
248.23	2828.3
253.08	1521.88
257.927	1337.13
262.772	2279.34
267.615	2483.28
272.456	2006.24
277.294	2819.51
282.129	2986.72
286.962	1523.29
291.793	220.797
296.621	1026.56
301.447	982.281
306.271	597.508
311.092	2704.77
315.911	4847.52
320.727	6368.69
325.541	6569.54
330.352	5190.52
335.161	3300.47
339.968	3484.8
344.772	4745.47
349.573	7407.11
354.373	10062.1
359.17	12193.3
363.964	10848.8
368.756	9413.11
373.545	6460.82
378.333	4663.12
383.117	2268.93
387.899	937.109
392.679	585.227
397.457	65.0234
402.231	535.062
407.004	210.82
411.774	545.703
416.542	95.6953
421.307	220.273
426.069	100.328
430.83	7.85156
435.587	264.07
440.343	427.906
445.096	214.211
449.846	516.883
454.594	515.391
459.339	944.25
464.082	1280.62
468.823	1046.61
473.561	1767.3
478.297	1504.12
483.03	1744.19
487.761	2068.05
492.489	2111.41
497.215	1991.66
501.938	2150.98
506.659	2755.53
511.377	2516.7
516.093	2871.86
520.807	3051.41
525.518	3129.11
530.226	3549.89
534.932	3674.91
539.636	3467.47
544.337	2849.55
549.035	2996.11
553.731	2940.08
558.425	2723.02
563.116	2797.72
567.805	2462.97
572.491	2810.03
577.174	2049.67
581.856	1911.67
586.534	1137.14
591.211	2018.98
595.884	1362.19
600.555	1260.41
605.224	1184.06
609.89	753.047
614.554	1171.53
619.215	1214.67
623.874	853.141
628.53	1125.05
633.184	739.25
637.835	1023
642.484	1189.42
647.13	1201.86
651.774	1240.25
656.415	1665.48
661.054	2278.62
665.69	2246.36
670.324	3070.81
674.955	3172.89
679.583	5701.8
684.21	4155.44
688.833	3265.39
693.454	2384.77
698.073	2165.95
702.689	2308.94
707.303	1621.33
711.914	1662.77
716.522	1816.59
721.128	2528.06
725.732	3814.58
730.333	5615.41
734.931	5952.58
739.527	4823.5
744.12	5033.62
748.711	6877.42
753.299	7008.02
757.885	6588.64
762.469	11319.8
767.049	6841.59
771.627	2709.12
776.203	1179.42
780.776	588.328
785.347	166.562
789.915	1127.03
794.481	162.453
799.043	218.047
803.604	351.844
808.162	207.953
812.717	124.531
817.27	36.4688
821.82	953.016
826.368	27.4375
830.913	377.641
835.456	668.516
839.996	954.547
844.534	373.406
849.069	428.234
853.601	1609.52
858.131	929.594
862.658	1360.09
867.183	1687.41
871.706	1637.77
876.225	1687.91
880.742	1668.67
885.257	1297.72
889.769	2268.06
894.279	2723.59
898.785	2654.91
903.29	2919.44
907.792	2838.16
912.291	3271.31
916.788	2800.62
921.282	2639.09
925.773	3574.56
930.262	3058.41
934.749	2954.28
939.233	2388.03
943.714	2355.88
948.193	1617.44
952.669	1182
957.142	2733.31
961.613	2331.72
966.082	1908.62
970.548	2421.84
975.011	1238.62
979.472	483.438
983.93	569.625
988.386	338.156
992.839	155.093
997.289	310.375
1001.74	254.969
1006.18	1.15625
1010.62	1162.41
1015.07	655.844
1019.5	574.441
1023.94	222.156
1028.37	1083.25
1032.8	1600.59
1037.23	2130.41
1041.65	3724.5
1046.07	3738.22
1050.49	4053.72
1054.91	7315.03
1059.32	11891.8
1063.74	15173.1
1068.14	23140.1
1072.55	39436.6
1076.95	54854.2
1081.36	74844.7
1085.76	54025.7
1090.15	22643.8
1094.55	12506.8
1098.94	8476.53
1103.33	6826.56
1107.71	5235
1112.09	5017.06
1116.47	4504.88
1120.85	3268
1125.23	4133.47
1129.6	4297.84
1133.97	3460.84
1138.34	4337.44
1142.7	4516.25
1147.07	2710.41
1151.42	3198.69
1155.78	3625.59
1160.14	2711
1164.49	3808.53
1168.84	2800.38
1173.18	1844.38
1177.53	3181.66
1181.87	2888.31
1186.21	2065.22
1190.55	2671.44
1194.88	2717.09
1199.21	1679.56
1203.54	2131.53
1207.87	1354.72
1212.19	1929.16
1216.51	1755.81
1220.83	1407.69
1225.14	1902.44
1229.46	2075.34
1233.77	2451.53
1238.07	1949.31
1242.38	1225.56
1246.68	1813.5
1250.98	2152.66
1255.28	1641.56
1259.57	2027
1263.86	1513.81
1268.15	834.531
1272.44	1059.88
1276.72	1057.88
1281.01	680.969
1285.28	879.969
1289.56	514.219
1293.83	573.844
1298.11	1098.44
1302.37	1492.91
1306.64	284.938
1310.9	1342.31
1315.16	1597.78
1319.42	1239.06
1323.67	1978.25
1327.93	1298.34
1332.18	2489.03
1336.42	2977.66
1340.67	3728.78
1344.91	5089.41
1349.15	6174.78
1353.39	6771.19
1357.62	6465.78
1361.85	6038.59
1366.08	6512.5
1370.31	6567.16
1374.53	6191.5
1378.75	4437.31
1382.97	5304.66
1387.19	4113.38
1391.4	4159.66
1395.61	2378
1399.82	2156.25
1404.02	3075.59
1408.23	4874.03
1412.43	5541.91
1416.62	6360.38
1420.82	5275.97
1425.01	3884.78
1429.2	2137.75
1433.38	1527.47
1437.57	1122.62
1441.75	566.979
1445.93	200.125
1450.11	276.312
1454.28	382.156
1458.45	479.5
1462.62	1063.94
1466.78	983.219
1470.95	590.844
1475.11	301.5
1479.26	453.844
1483.42	989.625
1487.57	424.594
1491.72	52.4062
1495.87	2.625
1500.01	871.938
1504.15	1493.91
1508.29	801
1512.43	2451.16
1516.56	2825.59
1520.69	3147.44
1524.82	2470.59
1528.95	3206.25
1533.07	2427.88
1537.19	1853.09
1541.31	1603.91
1545.42	1548.34
1549.54	2218.97
1553.65	2649.31
1557.75	1498.16
1561.86	884.844
1565.96	1294.34
1570.06	896.281
1574.16	2123.19
1578.25	6.59375
