Measurement: Raman, 514 nm, depolarized, Raman Data Processed
Mineral: Weloganite
Rruff sample: R050217
Ideal chemistry: Na_2_Sr_3_Zr^4+^(C^4+^O_3_)_6_3H_2_O
Locality: Francon Quarry, Montréal, Québec, Canada
Source: Marcus Origlieri
Description: Tan colored tapered hexagonal single crystals
Measured chemistry: Na_2.00_(Sr_2.93_Ca_0.07_)_Σ=3_(Zr_0.90_Hf_0.10_)_Σ=1_(CO_3_)_6_·3H_2_O
Pin_id: L00360
Orientation: Laser parallel to c* (0 0 1). Fiducial mark perpendicular to laser is parallel to [1 1 0]
Raman shift (cm-1)	intensity
82.218	0
86.404	41.87
90.587	303.331
94.768	669.087
98.947	1435.87
103.124	2054.32
107.3	2701.58
111.473	1437.37
115.644	1646.16
119.813	2525.04
123.981	2964.68
128.146	3160.72
132.309	3744.63
136.47	4325.71
140.63	5886.69
144.787	7979.41
148.942	10878.8
153.096	11519.8
157.247	11087.7
161.396	7124.77
165.544	5397.93
169.689	4232.98
173.833	3354.73
177.974	2837.87
182.114	2114.78
186.251	1571.75
190.387	2258.53
194.52	3155.91
198.652	3339.3
202.782	3213.16
206.909	3287.2
211.035	2631.13
215.159	2945.84
219.281	3791.21
223.4	5012.03
227.518	5137.17
231.634	4942.52
235.748	4953.99
239.86	4173.5
243.97	2842.74
248.079	1968.12
252.185	1493.27
256.289	2009.73
260.391	2860.88
264.492	3484.31
268.59	2913.82
272.687	2570.23
276.781	2457.37
280.874	2000.9
284.964	1365.83
289.053	728.652
293.14	400.51
297.225	436.83
301.308	813.815
305.389	1520.43
309.468	2836.03
313.545	4531.95
317.62	5885.05
321.693	5505.41
325.765	4293.58
329.834	3133.95
333.902	2467
337.967	1978.26
342.031	1861.53
346.093	2257.37
350.153	3147.48
354.21	4306.62
358.267	5799.88
362.321	7205.23
366.373	6626.99
370.423	4608.24
374.471	2901.38
378.518	1845.98
382.563	972.064
386.605	552.6
390.646	193.575
394.685	78.97
398.722	12.225
402.757	45.973
406.79	134.13
410.821	101.145
414.851	50.199
418.878	170.979
422.904	183.501
426.927	92.973
430.949	105.723
434.969	40.379
438.987	36.348
443.003	98.33
447.018	57.317
451.03	55.393
455.041	4.345
459.049	34.499
463.056	7.582
467.061	47.395
471.064	130.145
475.065	98.795
479.064	161.433
483.062	192.853
487.057	214.805
491.051	264.788
495.043	270.906
499.032	252.132
503.02	299.453
507.007	295.842
510.991	366.464
514.973	449.123
518.954	438.955
522.933	449.93
526.91	464.002
530.885	612.164
534.858	659.427
538.829	593.797
542.799	678.274
546.766	684.869
550.732	680.578
554.696	706.58
558.658	680.398
562.618	625.038
566.576	619.496
570.533	552.526
574.488	576.53
578.44	352.502
582.391	391.746
586.341	338.391
590.288	383.733
594.233	364.292
598.177	286.404
602.119	290.402
606.059	296.812
609.997	303.559
613.933	214.802
617.868	307.723
621.801	264.629
625.731	379.341
629.66	273.791
633.588	254.651
637.513	372.469
641.437	425.705
645.358	394.074
649.278	437.514
653.196	616.7
657.113	488.014
661.027	612.749
664.94	821.277
668.851	731.072
672.76	938.059
676.667	1609.21
680.572	2134.31
684.476	1150.51
688.378	643.715
692.278	581.717
696.176	510.321
700.072	647.508
703.967	540.898
707.86	372.387
711.751	170.396
715.64	347.031
719.527	466.227
723.413	737.92
727.297	1614.64
731.179	1628.06
735.059	2393.71
738.937	1648.83
742.814	1182.18
746.689	2442.87
750.562	3297.62
754.433	2201.7
758.303	4790.46
762.17	8397.12
766.036	2285.85
769.901	706.391
773.763	400.913
777.624	150.158
781.482	123.378
785.339	102.571
789.195	150.016
793.048	151.728
796.9	33.222
800.75	45.116
804.598	74.881
808.445	28.583
812.289	22.733
816.132	55.101
819.973	27.186
823.813	19.552
827.65	25.833
831.486	4.463
835.32	11.825
839.152	32.103
842.983	51.394
846.812	77.684
850.639	105.983
854.464	24.703
858.288	5.613
862.11	166.962
865.93	323.038
869.748	488.475
873.564	117.967
877.379	51.523
881.192	106.152
885.004	64.861
888.813	64.655
892.621	76.552
896.427	93.547
900.232	162.641
904.034	60.52
907.835	131.135
911.634	72.548
915.432	172.127
919.227	198.781
923.021	122.54
926.813	233.416
930.604	132.393
934.393	60.486
938.18	279.69
941.965	210.216
945.749	155.112
949.53	262.823
953.311	95.237
957.089	285.396
960.866	242.559
964.641	313.169
968.414	77.931
972.185	53.599
975.955	207.972
979.723	119.944
983.49	406.283
987.254	291.912
991.017	171.012
994.779	327.383
998.538	357.963
1002.3	372.728
1006.05	334.99
1009.81	310.188
1013.56	369.558
1017.31	291.896
1021.06	408.826
1024.81	384.713
1028.55	498.767
1032.3	462.995
1036.04	637.387
1039.78	788.949
1043.52	785.683
1047.26	944.437
1050.99	1142.51
1054.73	1925.77
1058.46	3685.19
1062.19	4374.19
1065.92	6582.56
1069.65	9301.5
1073.37	20668.6
1077.1	26525.9
1080.82	46627.4
1084.54	25456.1
1088.26	7913.73
1091.97	3252.73
1095.69	2025.95
1099.4	1247.36
1103.12	1021.57
1106.83	643.688
1110.54	489.8
1114.24	422.602
1117.95	439.625
1121.65	484.517
1125.35	681.938
1129.06	204.279
1132.75	340.037
1136.45	336.896
1140.15	92.671
1143.84	10.694
1147.53	116.03
1151.22	42.347
1154.91	64.233
1158.6	226.88
1162.28	7.153
1165.97	130.039
1169.65	101.061
1173.33	76.215
1177.01	114.502
1180.69	84.929
1184.36	160.488
1188.04	24.247
1191.71	43.994
1195.38	109.938
1199.05	60.009
1202.71	233.205
1206.38	191.533
1210.04	95.944
1213.71	73.403
1217.37	195.52
1221.03	40.829
1224.68	161.762
1228.34	47.18
1231.99	156.924
1235.65	118.094
1239.3	77.33
1242.95	118.672
1246.59	69.086
1250.24	112.529
1253.88	135.997
1257.53	84.55
1261.17	3.15
1264.81	89.273
1268.45	71.303
1272.08	26.003
1275.72	23.679
1279.35	92.68
1282.98	29.915
1286.61	114.642
1290.24	106.842
1293.87	155.657
1297.49	63.779
1301.11	85.762
1304.73	19.333
1308.36	275.94
1311.97	91.594
1315.59	185.299
1319.2	138.06
1322.82	137.881
1326.43	365.801
1330.04	421.773
1333.65	466.83
1337.26	545.979
1340.86	756.704
1344.47	1171.62
1348.07	2207.33
1351.67	2962.85
1355.27	3041.58
1358.87	2388.74
1362.46	2229.35
1366.06	2508.67
1369.65	2741.58
1373.24	2659.8
1376.83	2543.85
1380.42	2321.87
1384	2367.95
1387.59	2310.77
1391.17	2068.01
1394.75	1575.1
1398.33	920.188
1401.91	975.672
1405.49	1053.59
1409.06	1652.28
1412.64	3154.69
1416.21	4455.51
1419.78	3519.37
1423.35	1809.27
1426.91	933.17
1430.48	705.084
1434.05	499.01
1437.61	519.907
1441.17	358.884
1444.73	418.651
1448.29	310.159
1451.84	373.771
1455.4	403.509
1458.95	297.415
1462.5	195.848
1466.05	13.037
1469.6	120.029
1473.15	188.899
1476.69	192.254
1480.24	211.445
1483.78	157.482
1487.32	168.232
1490.86	18.939
1494.39	111.825
1497.93	95.225
1501.46	135.841
1505	209.497
1508.53	230.723
1512.06	188.752
1515.59	154.641
1519.11	113.353
1522.64	0
