Measurement: Raman, 514 nm, ccw, Raman Data Processed
Mineral: Weloganite
Rruff sample: R050217
Ideal chemistry: Na_2_Sr_3_Zr^4+^(C^4+^O_3_)_6_3H_2_O
Locality: Francon Quarry, Montréal, Québec, Canada
Source: Marcus Origlieri
Description: Tan colored tapered hexagonal single crystals
Measured chemistry: Na_2.00_(Sr_2.93_Ca_0.07_)_Σ=3_(Zr_0.90_Hf_0.10_)_Σ=1_(CO_3_)_6_·3H_2_O
Pin_id: M01339
Orientation: Laser parallel to (0 1 1). Fiducial mark perpendicular to laser is parallel to -a [-1 0 0]
Raman shift (cm-1)	intensity
107.772	0
112.69	467.672
117.606	1642.94
122.52	2391.77
127.431	4248.41
132.34	5831.81
137.247	9303.88
142.151	14834.5
147.053	21945.3
151.952	29104.7
156.849	29474.2
161.744	21412.1
166.637	11640.5
171.527	6674.49
176.414	3320.97
181.299	534.742
186.182	297.758
191.063	450.352
195.941	1243.19
200.817	2217.95
205.69	3720.53
210.561	3990.49
215.429	4576.56
220.296	5575.56
225.159	7625.26
230.021	9489.67
234.88	9497.9
239.736	8548.09
244.591	6230.38
249.442	3717.88
254.292	3053.19
259.139	3067.82
263.983	2718.01
268.826	2512.05
273.665	2136.68
278.503	2650.48
283.338	2463.51
288.17	1369.39
293	10.9531
297.828	439.812
302.653	126.547
307.476	1564.11
312.297	3528.16
317.115	5607.62
321.93	7037.48
326.744	6375.91
331.555	5362.11
336.363	4007.21
341.169	4742.91
345.972	6043.5
350.773	9720.97
355.572	12768.1
360.368	13321.2
365.162	12074.7
369.954	10064.1
374.742	6937.71
379.529	4004.86
384.313	2584.58
389.095	744.406
393.874	761.242
398.651	20.2969
403.425	366.828
408.197	148.406
412.966	242.484
417.733	272.047
422.498	317.703
427.26	363.141
432.019	426.078
436.776	638.969
441.531	366.594
446.283	230.578
451.033	442.359
455.78	466.109
460.525	1051.06
465.268	988.562
470.008	1184.62
474.745	1416.84
479.48	1904.05
484.213	1949.08
488.943	1691.64
493.671	1740.27
498.396	1785.86
503.118	2068.14
507.839	1850.7
512.556	1744.73
517.272	2180.31
521.985	2466
526.695	3118.56
531.403	3216.3
536.108	3068.67
540.811	2894.92
545.512	2844.86
550.209	2448
554.905	2123.41
559.598	2228.91
564.288	2606.23
568.976	2243.41
573.662	2487.11
578.345	1800.44
583.026	1071.34
587.704	908.75
592.379	1035.14
597.052	1238.83
601.723	482.578
606.391	487.969
611.057	712.875
615.72	991.656
620.38	38.4844
625.038	65.0781
629.694	199.875
634.347	943.453
638.998	711.688
643.646	548.859
648.291	259.891
652.934	1411.47
657.575	1261.03
662.213	1823.83
666.849	1727.45
671.482	2454.88
676.112	3601.25
680.74	5864.72
685.366	4081.72
689.989	2286.2
694.609	2464.92
699.227	2097.53
703.843	1585
708.456	1727.95
713.066	1609.69
717.674	2913.92
722.279	2897.27
726.882	4498.06
731.482	7335.52
736.08	6468.72
740.675	4090.97
745.268	5131.02
749.858	7664.11
754.446	7149.16
759.031	8005.42
763.614	10638.1
768.194	3970.25
772.772	860.203
777.347	610.922
781.919	95.5781
786.489	158.088
791.057	230.109
795.621	65.875
800.184	47.7188
804.744	58.5469
809.301	739.828
813.856	160.078
818.408	328.578
822.958	290.938
827.505	421.844
832.049	54.9219
836.591	362.094
841.131	804.094
845.668	629.75
850.202	865.094
854.734	779.469
859.263	1131.81
863.79	2032.75
868.314	2258.16
872.836	2694.38
877.355	2122.16
881.871	2323.19
886.385	2206.97
890.897	2658.16
895.405	2783.94
899.912	3576.44
904.415	3267.84
908.917	3409.25
913.415	2705.53
917.911	3880.84
922.405	4157.25
926.896	3397.72
931.384	3145.59
935.87	2662.66
940.353	2499.56
944.834	2520.06
949.312	2526.44
953.787	3277.19
958.26	2716.69
962.731	3020.81
967.199	2803.09
971.664	2034.25
976.126	1109.03
980.587	1041.06
985.044	140.719
989.499	241.844
993.951	8.15625
998.401	66.6875
1002.85	883.25
1007.29	421.469
1011.74	87.4688
1016.17	1054.25
1020.61	1269.47
1025.05	764.125
1029.48	2468.28
1033.91	2996.47
1038.33	3578.88
1042.76	3235.78
1047.18	3982.94
1051.6	6411.19
1056.01	8597.47
1060.43	12190.7
1064.84	18047.2
1069.25	25959.4
1073.65	41893.9
1078.06	60199.2
1082.46	79887.5
1086.86	42457.4
1091.25	20106.9
1095.64	11224.2
1100.03	8569.09
1104.42	6598.66
1108.81	6326.03
1113.19	4698.66
1117.57	4153.47
1121.95	5197.69
1126.32	4849.03
1130.69	4878.12
1135.06	3492.53
1139.43	3823.12
1143.79	4493.78
1148.16	5224.66
1152.52	3197.47
1156.87	2882.75
1161.22	3226.53
1165.58	2598.28
1169.92	3992.91
1174.27	3314.59
1178.62	1973.75
1182.96	3857.66
1187.29	3833.75
1191.63	2677.47
1195.96	1988.81
1200.29	2364.38
1204.62	1702.03
1208.95	1956.16
1213.27	1931.22
1217.59	2253.16
1221.91	1935.09
1226.22	1862.81
1230.53	1418.06
1234.84	2003.81
1239.15	1774.12
1243.45	2916
1247.76	1462.56
1252.06	1433.94
1256.35	1765.06
1260.65	1579.03
1264.94	623.594
1269.22	839.938
1273.51	1169.69
1277.8	147.312
1282.08	1082.22
1286.35	947.062
1290.63	829.656
1294.9	450.812
1299.17	712.125
1303.44	855.438
1307.7	2254.5
1311.97	955.031
1316.23	1611.06
1320.48	1337.06
1324.74	1490.84
1328.99	2432
1333.24	2397.97
1337.49	3628.69
1341.73	4460.94
1345.97	5807.72
1350.21	7676.22
1354.45	6892.5
1358.68	6153.66
1362.91	6324.31
1367.14	6662.69
1371.37	6057.72
1375.59	5138.78
1379.81	5728.12
1384.03	4969.62
1388.24	4264.28
1392.45	3980.12
1396.66	2270.5
1400.87	1951.69
1405.07	3038.06
1409.28	4607.31
1413.47	7778.1
1417.67	7761.54
1421.87	4587.06
1426.06	3146.53
1430.25	800.094
1434.43	345.719
1438.62	384.75
1442.8	660.969
1446.97	198.656
1451.15	24.8125
1455.32	758.781
1459.49	171.438
1463.66	77.1562
1467.82	142.188
1471.99	412.656
1476.15	504.031
1480.3	28.125
1484.46	756.875
1488.61	1368.09
1492.76	1286.12
1496.9	614.719
1501.05	189.281
1505.19	1519.59
1509.33	1865.28
1513.46	2164.09
1517.6	1654.88
1521.73	3344.66
1525.85	3661.06
1529.98	2561.34
1534.1	2661.53
1538.22	2079.91
1542.34	686.219
1546.45	3334.12
1550.56	2805.66
1554.67	1997.69
1558.78	2286.16
1562.88	648.5
1566.98	1504.81
1571.08	840.781
1575.18	1313.84
1579.27	0
