Measurement: Raman, 514 nm, depolarized, Raman Data Processed
Mineral: Weloganite
Rruff sample: R050217
Ideal chemistry: Na_2_Sr_3_Zr^4+^(C^4+^O_3_)_6_3H_2_O
Locality: Francon Quarry, Montréal, Québec, Canada
Source: Marcus Origlieri
Description: Tan colored tapered hexagonal single crystals
Measured chemistry: Na_2.00_(Sr_2.93_Ca_0.07_)_Σ=3_(Zr_0.90_Hf_0.10_)_Σ=1_(CO_3_)_6_·3H_2_O
Pin_id: M00939
Orientation: Laser parallel to (1 0 1). Fiducial mark perpendicular to laser is parallel to -b [0 -1 0]
Raman shift (cm-1)	intensity
95.465	0
100.39	461.812
105.312	4525.55
110.231	8235.6
115.148	4537.28
120.063	4207.43
124.976	10033.7
129.886	18554.2
134.794	25694.6
139.699	36677.5
144.602	60185
149.503	81016.6
154.401	90881
159.297	76573.2
164.191	43963.4
169.082	21772.3
173.971	14779.2
178.857	9340.04
183.741	6510.44
188.623	7826.11
193.502	10629.1
198.379	14677.5
203.254	17729
208.126	18161.7
212.996	17773.5
217.863	20870.8
222.728	28643.2
227.59	36813.1
232.451	38207.3
237.308	34462.1
242.164	28563.8
247.017	19786.1
251.867	13248.1
256.716	8185.88
261.561	6842.84
266.405	5026.88
271.246	3691.15
276.084	5933.61
280.92	9614.25
285.754	8564.82
290.586	4689.81
295.415	966.785
300.241	1685.31
305.065	5650.21
309.887	10619
314.706	15190
319.523	19002.7
324.337	21569.1
329.149	19959.7
333.959	15836.5
338.766	15988.3
343.571	24171.3
348.373	42072.9
353.173	64506.3
357.971	68238.7
362.766	52444.6
367.558	39780.9
372.348	31404.3
377.136	22253.3
381.921	13105.7
386.704	7195.68
391.485	3259.9
396.262	1025.59
401.038	331.527
405.811	472.688
410.582	615.18
415.35	979.906
420.116	999.102
424.879	554.106
429.64	683.789
434.398	526.731
439.154	591.133
443.908	10.1953
448.659	117.805
453.407	430.231
458.153	674.555
462.897	99.2578
467.638	793.602
472.377	915.43
477.113	1015.19
481.847	1242.1
486.578	1804.91
491.307	1731.29
496.034	2063.05
500.757	2472.5
505.479	2526.05
510.198	2876.32
514.914	2800.39
519.629	3433.54
524.34	3556.1
529.049	3600.05
533.756	3608.7
538.46	3893.05
543.162	4060.93
547.861	4154.59
552.558	4103.2
557.252	3614.44
561.943	3476.09
566.633	2968.51
571.32	2667.46
576.004	2310.31
580.686	1798.62
585.365	1637.44
590.042	1569.77
594.716	1351.05
599.388	1116.56
604.057	1239.21
608.724	1252.27
613.388	1302.96
618.05	1037.78
622.71	1521.23
627.366	954.305
632.021	1477.96
636.673	1675.16
641.322	1739.98
645.969	2226.78
650.613	2013.18
655.255	2123.78
659.894	2242.55
664.531	2639.01
669.165	3149.66
673.797	5580.47
678.427	11704.8
683.053	13689.5
687.678	6913.27
692.299	5109.81
696.918	4766.83
701.535	3904.74
706.149	2705.66
710.761	2233.79
715.37	2104.11
719.977	3326.46
724.581	7697.34
729.183	15883.2
733.782	16480
738.378	17068.3
742.972	12373.5
747.564	17836.2
752.153	22121.5
756.739	19662.3
761.323	36013.9
765.904	32428
770.483	8371.48
775.059	2519.8
779.633	1154.41
784.204	978.578
788.773	570.094
793.339	24.25
797.903	146.578
802.464	58.3125
807.023	256.906
811.579	86.9609
816.132	141.25
820.683	510.055
825.231	14.6953
829.777	255.188
834.321	55.2266
838.861	70.0938
843.4	273.086
847.935	603.109
852.468	1165.32
856.999	890.898
861.527	974.805
866.052	2152.03
870.575	3647.12
875.096	1911.59
879.613	783.609
884.129	30.3281
888.641	677.234
893.151	714.695
897.659	824.883
902.164	1143.81
906.666	600.469
911.166	898.836
915.664	972.898
920.158	889.695
924.651	704.312
929.14	853.602
933.627	907.414
938.112	863.727
942.594	433.094
947.073	622.062
951.55	667.172
956.024	71.875
960.496	629.531
964.965	369.531
969.431	565.625
973.895	91.4141
978.357	543.906
982.816	241.812
987.272	318.094
991.726	42.5234
996.177	108.859
1000.62	329.258
1005.07	187.852
1009.51	62.3516
1013.96	250.43
1018.39	18.6016
1022.83	215.812
1027.26	1122.48
1031.69	1324.31
1036.12	1879.34
1040.55	2308.67
1044.97	3179.34
1049.39	5141.42
1053.81	9416.97
1058.22	18261
1062.63	28538.9
1067.04	43672.8
1071.45	79113.9
1075.86	151543
1080.26	239785
1084.66	253322
1089.05	80338.4
1093.45	26795.5
1097.84	13569.3
1102.23	8238.23
1106.61	5586.47
1111	3496.26
1115.38	2573.46
1119.76	2451.5
1124.13	1652.84
1128.51	1608.02
1132.88	1511.3
1137.25	1201.84
1141.61	794.734
1145.97	842.055
1150.34	622.109
1154.69	651.305
1159.05	683.211
1163.4	157.133
1167.75	804.078
1172.1	478.109
1176.44	261.195
1180.79	361.391
1185.12	589.672
1189.46	379.289
1193.8	346.609
1198.13	301.242
1202.46	304.922
1206.78	194.742
1211.11	476.422
1215.43	198.438
1219.75	2.17969
1224.06	684.766
1228.38	929.477
1232.69	48.6016
1237	228.555
1241.3	67.2578
1245.61	260.672
1249.91	276.164
1254.2	533.523
1258.5	47.7266
1262.79	56.6641
1267.08	128.672
1271.37	267.219
1275.65	198.148
1279.93	103.062
1284.21	225.93
1288.49	375.492
1292.77	952.602
1297.04	813.125
1301.31	1520.96
1305.57	1122.02
1309.84	1592.47
1314.1	1704.32
1318.36	2174.38
1322.61	2466.23
1326.87	3336.77
1331.12	3539.02
1335.36	4976.41
1339.61	6953.19
1343.85	9926.23
1348.09	15279
1352.33	18339.5
1356.56	15966.8
1360.8	14378.1
1365.03	14720
1369.25	15433
1373.48	15258.8
1377.7	13465.9
1381.92	12784.1
1386.13	11243.6
1390.35	10207.4
1394.56	7656.77
1398.77	6127.12
1402.97	6502.47
1407.17	9987.91
1411.38	19366.7
1415.57	32690
1419.77	29712.8
1423.96	16344.8
1428.15	7331.66
1432.34	4029.42
1436.52	2246.85
1440.71	1793.65
1444.88	1533.2
1449.06	1764.26
1453.24	61.2656
1457.41	477.055
1461.58	188.352
1465.74	158.789
1469.91	39.1562
1474.07	100.344
1478.22	191.695
1482.38	213.43
1486.53	538.648
1490.68	176.57
1494.83	77.2969
1498.98	248.703
1503.12	532.539
1507.26	197.273
1511.39	1608.16
1515.53	1578.62
1519.66	2019.94
1523.79	1671.33
1527.92	2681.46
1532.04	2743.05
1536.16	1517.59
1540.28	1301.31
1544.4	1789.12
1548.51	2891.21
1552.62	3441.1
1556.73	4000.38
1560.83	3907.6
1564.93	2753.28
1569.04	1108
1573.13	539.531
1577.23	570.953
