Measurement: Raman, 514 nm, ccw, Raman Data Processed
Mineral: Weloganite
Rruff sample: R050217
Ideal chemistry: Na_2_Sr_3_Zr^4+^(C^4+^O_3_)_6_3H_2_O
Locality: Francon Quarry, Montréal, Québec, Canada
Source: Marcus Origlieri
Description: Tan colored tapered hexagonal single crystals
Measured chemistry: Na_2.00_(Sr_2.93_Ca_0.07_)_Σ=3_(Zr_0.90_Hf_0.10_)_Σ=1_(CO_3_)_6_·3H_2_O
Pin_id: M00939
Orientation: Laser parallel to (1 0 1). Fiducial mark perpendicular to laser is parallel to -b [0 -1 0]
Raman shift (cm-1)	intensity
95.465	0
100.39	1172.5
105.312	9813.51
110.231	13779.4
115.148	9000.89
120.063	12548.8
124.976	27630.7
129.886	43069
134.794	49137.7
139.699	61017.9
144.602	94589.6
149.503	126306
154.401	134677
159.297	103677
164.191	57871.6
169.082	32228.2
173.971	21277
178.857	11664.5
183.741	7356.33
188.623	8325.74
193.502	14400.2
198.379	23841.5
203.254	28615.6
208.126	29962.5
212.996	25371.6
217.863	25396.3
222.728	34114.9
227.59	45868
232.451	48162
237.308	47604.5
242.164	39923.2
247.017	26649.8
251.867	17343.6
256.716	10239.8
261.561	6369.17
266.405	2217.3
271.246	387.844
276.084	707.594
280.92	2547.98
285.754	1152.06
290.586	1435.96
295.415	1404.61
300.241	4339.17
305.065	15192.1
309.887	25904.7
314.706	37293.4
319.523	46947
324.337	51542.5
329.149	43995.6
333.959	29698
338.766	23067.6
343.571	27703.7
348.373	43811.5
353.173	61685.1
357.971	61342.3
362.766	47373.9
367.558	38341.8
372.348	31682.6
377.136	22802.1
381.921	13467.7
386.704	6824.8
391.485	2728.11
396.262	1028.49
401.038	168.477
405.811	947.324
410.582	821.324
415.35	953.707
420.116	1053.03
424.879	916.484
429.64	780.949
434.398	447.586
439.154	243.746
443.908	291.363
448.659	462.406
453.407	708.664
458.153	1249.18
462.897	1090.67
467.638	1514.01
472.377	2077.53
477.113	2107.3
481.847	2660.45
486.578	2839.05
491.307	3089.59
496.034	3019.45
500.757	3768.34
505.479	4212.66
510.198	4646.66
514.914	4672.54
519.629	4967.44
524.34	5198.75
529.049	5728.97
533.756	6168.04
538.46	6490.83
543.162	6393.84
547.861	6401.16
552.558	5900.08
557.252	5440.94
561.943	5123.28
566.633	4301.68
571.32	3911.9
576.004	3178.3
580.686	2585.81
585.365	2393.05
590.042	2052.87
594.716	1916.02
599.388	2095.16
604.057	1848.13
608.724	1755.19
613.388	1874.14
618.05	1720.42
622.71	1509.11
627.366	1969.25
632.021	1876.49
636.673	2341.52
641.322	2501.08
645.969	2731.43
650.613	3026.14
655.255	3145.63
659.894	3293.24
664.531	4104.21
669.165	4366.62
673.797	6031.27
678.427	10185.2
683.053	10763.9
687.678	6401.06
692.299	5788.91
696.918	6061.71
701.535	5596.26
706.149	3513.16
710.761	2785.83
715.37	2103.43
719.977	3270.48
724.581	6650.93
729.183	13707.2
733.782	13396.2
738.378	13899
742.972	8994.66
747.564	12106.7
752.153	15016.9
756.739	22958.2
761.323	52525.6
765.904	39609.6
770.483	9834.73
775.059	4047.2
779.633	1330.38
784.204	597.641
788.773	777
793.339	281.461
797.903	154.961
802.464	48.9922
807.023	132.32
811.579	253.367
816.132	276.141
820.683	127.578
825.231	151.023
829.777	36.4297
834.321	140.086
838.861	25.0156
843.4	331.75
847.935	329.961
852.468	531.492
856.999	713.125
861.527	850.859
866.052	1133.56
870.575	2106.4
875.096	881.758
879.613	818.234
884.129	163.75
888.641	281.914
893.151	806.398
897.659	718.227
902.164	910.398
906.666	1416.87
911.166	725.664
915.664	1155.79
920.158	781.25
924.651	1061.09
929.14	1026.27
933.627	802.711
938.112	894.461
942.594	929.07
947.073	856.023
951.55	594.492
956.024	470.938
960.496	495.891
964.965	759.711
969.431	636
973.895	20.4688
978.357	850.547
982.816	210.383
987.272	86.4766
991.726	110.859
996.177	77.9531
1000.62	187.742
1005.07	187.789
1009.51	102.531
1013.96	432.68
1018.39	33.6719
1022.83	363.758
1027.26	808.938
1031.69	1407.94
1036.12	2025.82
1040.55	3200.62
1044.97	4441.41
1049.39	7035.27
1053.81	12546.2
1058.22	26608.4
1062.63	40364.9
1067.04	67647.8
1071.45	120905
1075.86	210830
1080.26	294516
1084.66	261251
1089.05	80457.9
1093.45	28314.6
1097.84	14747.2
1102.23	8755.93
1106.61	5431.65
1111	3946.84
1115.38	2547.83
1119.76	2433.57
1124.13	1846.84
1128.51	1262.89
1132.88	1898.84
1137.25	1499.28
1141.61	1147.56
1145.97	775.875
1150.34	867.547
1154.69	356.5
1159.05	288.992
1163.4	512.047
1167.75	547.656
1172.1	134.844
1176.44	286.609
1180.79	452.945
1185.12	330.867
1189.46	15.6562
1193.8	250.359
1198.13	774.977
1202.46	175.203
1206.78	138.805
1211.11	279.297
1215.43	317.25
1219.75	93.8281
1224.06	829.852
1228.38	15.4453
1232.69	501.312
1237	301.195
1241.3	122.32
1245.61	39.9062
1249.91	1126.54
1254.2	356.938
1258.5	406.516
1262.79	223
1267.08	301.797
1271.37	385.922
1275.65	90.9922
1279.93	557.023
1284.21	734.492
1288.49	682.383
1292.77	1102.7
1297.04	1030.31
1301.31	1462.02
1305.57	1209.59
1309.84	1612.17
1314.1	1876.31
1318.36	2189.83
1322.61	2169.91
1326.87	3124.95
1331.12	3794.92
1335.36	4766.67
1339.61	6018.09
1343.85	8843.06
1348.09	13572.3
1352.33	15401.1
1356.56	15501.9
1360.8	15093.8
1365.03	16876.2
1369.25	18869.5
1373.48	18416.4
1377.7	16525
1381.92	16086.1
1386.13	14378.3
1390.35	12124.7
1394.56	8464.66
1398.77	5725.38
1402.97	5758
1407.17	7942.31
1411.38	14161.6
1415.57	22245.2
1419.77	18555.7
1423.96	9758.25
1428.15	5271.28
1432.34	3110.36
1436.52	1521.14
1440.71	1190.58
1444.88	996.531
1449.06	589.547
1453.24	65.8281
1457.41	74.3281
1461.58	248.281
1465.74	269.875
1469.91	73.2344
1474.07	152.281
1478.22	554.859
1482.38	101.969
1486.53	371.266
1490.68	101.344
1494.83	125.156
1498.98	31.9531
1503.12	387.953
1507.26	199.5
1511.39	838.609
1515.53	986.547
1519.66	1756.2
1523.79	1955.84
1527.92	1721.56
1532.04	1456.19
1536.16	1352.75
1540.28	1465.17
1544.4	2614.64
1548.51	4172.81
1552.62	5760.81
1556.73	6649.12
1560.83	6207.64
1564.93	5231.56
1569.04	1853.64
1573.13	942.375
1577.23	64.9531
