Measurement: Raman, 514 nm, depolarized, Raman Data Processed
Mineral: Weloganite
Rruff sample: R050217
Ideal chemistry: Na_2_Sr_3_Zr^4+^(C^4+^O_3_)_6_3H_2_O
Locality: Francon Quarry, Montréal, Québec, Canada
Source: Marcus Origlieri
Description: Tan colored tapered hexagonal single crystals
Measured chemistry: Na_2.00_(Sr_2.93_Ca_0.07_)_Σ=3_(Zr_0.90_Hf_0.10_)_Σ=1_(CO_3_)_6_·3H_2_O
Pin_id: M01339
Orientation: Laser parallel to (0 1 1). Fiducial mark perpendicular to laser is parallel to -a [-1 0 0]
Raman shift (cm-1)	intensity
115.148	0
120.063	1888.5
124.976	1789.52
129.886	4150.72
134.794	6374.67
139.699	10351
144.602	17053.2
149.503	25372.7
154.401	30473.4
159.297	27380.3
164.191	16560.1
169.082	8479.38
173.971	4879.55
178.857	1956.08
183.741	54.3828
188.623	564.461
193.502	317.344
198.379	1616.54
203.254	2946.15
208.126	4089.99
212.996	4398.28
217.863	5361.59
222.728	7261.54
227.59	10129.8
232.451	10098.5
237.308	9325.15
242.164	8195.72
247.017	5198.38
251.867	3339.35
256.716	1974.92
261.561	2764.16
266.405	3139.82
271.246	2640.71
276.084	2857.89
280.92	2990.31
285.754	2655.24
290.586	1385.93
295.415	452.289
300.241	26.6875
305.065	754.906
309.887	2562.23
314.706	5079.55
319.523	7424.62
324.337	7466.34
329.149	6705.88
333.959	5402.93
338.766	5065.44
343.571	6127.45
348.373	9141.3
353.173	13450.8
357.971	15608.7
362.766	14851.2
367.558	12649.7
372.348	9647.91
377.136	6268.6
381.921	4030.02
386.704	1855.48
391.485	944.211
396.262	672.281
401.038	11.9375
405.811	142.273
410.582	102.805
415.35	777
420.116	505.859
424.879	577.953
429.64	118.984
434.398	123.648
439.154	3.14062
443.908	397.742
448.659	414.492
453.407	452.797
458.153	1138.34
462.897	528.367
467.638	1119.47
472.377	1536.59
477.113	1541.41
481.847	1673.76
486.578	1891.05
491.307	1353.48
496.034	1860.58
500.757	1569.75
505.479	1708.92
510.198	2033.28
514.914	1661.64
519.629	2718.19
524.34	2548.61
529.049	2730.75
533.756	2856.41
538.46	2843.22
543.162	2754.42
547.861	2997.64
552.558	2583.72
557.252	2511.66
561.943	1922.81
566.633	1520.56
571.32	1769.8
576.004	1905.39
580.686	992.594
585.365	898.594
590.042	516.625
594.716	1255.7
599.388	458.688
604.057	789.094
608.724	1035.62
613.388	1203.98
618.05	1338.55
622.71	741.078
627.366	543.375
632.021	692.797
636.673	573.297
641.322	1080.77
645.969	732.375
650.613	906.844
655.255	1227.17
659.894	1119.91
664.531	1678.52
669.165	1962.39
673.797	2999.84
678.427	5176.66
683.053	5621.98
687.678	3247.2
692.299	2585.67
696.918	2075.22
701.535	2027.8
706.149	1520.88
710.761	1810.27
715.37	2085.56
719.977	2427.84
724.581	3685.34
729.183	6780.05
733.782	6818.92
738.378	6506.78
742.972	4241.69
747.564	7259.64
752.153	7634.62
756.739	6949.41
761.323	10808.6
765.904	8633.48
770.483	2952.81
775.059	299.781
779.633	336.266
784.204	66.0312
788.773	267.938
793.339	342.109
797.903	25.5
802.464	467.578
807.023	691.016
811.579	223.047
816.132	65.4688
820.683	754.438
825.231	12.3125
829.777	834.406
834.321	131.406
838.861	83.4844
843.4	547.062
847.935	917.641
852.468	1190.75
856.999	1662.55
861.527	1537.47
866.052	1404.19
870.575	2851.23
875.096	1677.83
879.613	1071.89
884.129	1580.61
888.641	2315.3
893.151	2087.52
897.659	2944.98
902.164	3687.66
906.666	2274.97
911.166	2935.16
915.664	3665.88
920.158	2962.97
924.651	2522.59
929.14	2673.41
933.627	2749
938.112	1524.16
942.594	2519.78
947.073	1851.66
951.55	2267.28
956.024	2650.41
960.496	1933.28
964.965	2367.28
969.431	1698.91
973.895	851.438
978.357	1056.56
982.816	730.625
987.272	31.625
991.726	605.062
996.177	13.9688
1000.62	837
1005.07	633.469
1009.51	245
1013.96	674.344
1018.39	92.5
1022.83	150.406
1027.26	635.188
1031.69	1273
1036.12	2462.28
1040.55	2899.09
1044.97	2774.97
1049.39	5356
1053.81	6163.81
1058.22	9755.22
1062.63	14834.1
1067.04	21107.7
1071.45	34459.4
1075.86	55994.7
1080.26	79089.7
1084.66	73274.6
1089.05	30085.6
1093.45	15671
1097.84	9942.66
1102.23	7039.03
1106.61	6518.19
1111	4855.59
1115.38	4452.66
1119.76	4714.62
1124.13	3816.84
1128.51	3644.47
1132.88	4149.47
1137.25	3037.12
1141.61	3856.69
1145.97	3200.25
1150.34	2192.5
1154.69	2787.94
1159.05	3337.12
1163.4	2426.62
1167.75	3524.75
1172.1	2987.59
1176.44	2337.22
1180.79	2997.62
1185.12	2523.78
1189.46	1795.84
1193.8	1660.81
1198.13	2832.94
1202.46	1204.91
1206.78	1943.41
1211.11	1213.84
1215.43	1783.41
1219.75	2292
1224.06	2066.78
1228.38	2262.34
1232.69	1751.66
1237	1819.56
1241.3	502.75
1245.61	1631.78
1249.91	1402.31
1254.2	1620
1258.5	1581.69
1262.79	982.406
1267.08	1454.25
1271.37	914.188
1275.65	229.062
1279.93	1092.44
1284.21	740.438
1288.49	194.719
1292.77	1798.97
1297.04	858.938
1301.31	1378.44
1305.57	1380.22
1309.84	802.062
1314.1	1923.41
1318.36	1217.69
1322.61	1079.62
1326.87	1465.59
1331.12	1715.66
1335.36	2987.31
1339.61	3631.22
1343.85	4246.5
1348.09	7425.44
1352.33	7496.25
1356.56	7623
1360.8	7816.19
1365.03	6572.47
1369.25	7323.88
1373.48	6935.78
1377.7	5346.69
1381.92	6555.56
1386.13	5153.25
1390.35	3883.09
1394.56	3528.72
1398.77	1975.16
1402.97	3664.22
1407.17	4396.88
1411.38	6169.62
1415.57	9310.78
1419.77	7402.75
1423.96	3994.84
1428.15	2551.19
1432.34	1686.09
1436.52	1403.12
1440.71	573.844
1444.88	953.875
1449.06	1062.88
1453.24	132.375
1457.41	523.312
1461.58	474.344
1465.74	155.094
1469.91	416.5
1474.07	236.5
1478.22	412.875
1482.38	365.562
1486.53	497.656
1490.68	259.625
1494.83	96.6875
1498.98	906.188
1503.12	261.656
1507.26	1841.19
1511.39	1106.31
1515.53	2126.16
1519.66	3079.94
1523.79	2700.78
1527.92	1969.69
1532.04	1294.53
1536.16	2545.44
1540.28	1918.88
1544.4	2001.12
1548.51	2779.53
1552.62	1698.91
1556.73	2260.25
1560.83	1811.84
1564.93	1362.88
1569.04	346
1573.13	460.562
1577.23	3494.78
