Measurement: Raman, 514 nm, ccw, Raman Data Processed
Mineral: Weloganite
Rruff sample: R050217
Ideal chemistry: Na_2_Sr_3_Zr^4+^(C^4+^O_3_)_6_3H_2_O
Locality: Francon Quarry, Montréal, Québec, Canada
Source: Marcus Origlieri
Description: Tan colored tapered hexagonal single crystals
Measured chemistry: Na_2.00_(Sr_2.93_Ca_0.07_)_Σ=3_(Zr_0.90_Hf_0.10_)_Σ=1_(CO_3_)_6_·3H_2_O
Pin_id: M00939
Orientation: Laser parallel to (1 0 1). Fiducial mark perpendicular to laser is parallel to -b [0 -1 0]
Raman shift (cm-1)	intensity
95.465	0
100.39	785.812
105.312	5188.13
110.231	8342.64
115.148	5622.59
120.063	5464.19
124.976	10431.5
129.886	17732.8
134.794	24465.8
139.699	33232.7
144.602	51806.8
149.503	68205.1
154.401	76147
159.297	66074
164.191	39517.8
169.082	20064.3
173.971	13828.9
178.857	9135.97
183.741	5987.53
188.623	6485.77
193.502	8743.74
198.379	11469.2
203.254	12842.6
208.126	14450.1
212.996	14643.5
217.863	17278.1
222.728	22372.6
227.59	26914.8
232.451	26878
237.308	24188.6
242.164	19976.3
247.017	13785.9
251.867	8692.04
256.716	5577.18
261.561	4529.56
266.405	3701.52
271.246	3610.15
276.084	7269.52
280.92	10194.9
285.754	8822.9
290.586	4418.27
295.415	1452.85
300.241	1551.23
305.065	4191.16
309.887	7502.39
314.706	11446.4
319.523	13954
324.337	15761.9
329.149	13826
333.959	10676.2
338.766	10236.9
343.571	15410.7
348.373	26774.2
353.173	38942.6
357.971	40293.8
362.766	31076.8
367.558	24457.1
372.348	19218.9
377.136	13688.2
381.921	6969.32
386.704	3596.87
391.485	1194.37
396.262	12.082
401.038	317.644
405.811	681.336
410.582	974.664
415.35	923.449
420.116	672.555
424.879	775.949
429.64	745.289
434.398	363.422
439.154	82.5391
443.908	309.086
448.659	118.062
453.407	451.68
458.153	801.656
462.897	305.102
467.638	1215.55
472.377	1156.02
477.113	1331.35
481.847	1436.11
486.578	1956.9
491.307	2102.28
496.034	2303.58
500.757	2110.86
505.479	2490.19
510.198	2869.48
514.914	2621.2
519.629	3135.37
524.34	3352.3
529.049	3746.72
533.756	4028.71
538.46	3715.86
543.162	3818.87
547.861	3764.85
552.558	3521.73
557.252	3554.79
561.943	3460.87
566.633	2810.6
571.32	2087.88
576.004	1868.15
580.686	1299.09
585.365	1407.09
590.042	1157.6
594.716	1440.56
599.388	968.492
604.057	1152.62
608.724	872.516
613.388	1123.05
618.05	1070.47
622.71	1200.43
627.366	589.836
632.021	1235.37
636.673	1461.41
641.322	1228.77
645.969	1536.92
650.613	1491.11
655.255	2104.41
659.894	2370.12
664.531	2761.95
669.165	3011.88
673.797	5239.05
678.427	10474.7
683.053	12142.7
687.678	5964.33
692.299	4653.23
696.918	3733.52
701.535	3063.08
706.149	2482.99
710.761	1432.91
715.37	2129.74
719.977	3208.8
724.581	7222
729.183	13829.4
733.782	13952.2
738.378	12538.3
742.972	11410.7
747.564	18299.5
752.153	22195.8
756.739	16670.6
761.323	26214.7
765.904	21492.7
770.483	5370.55
775.059	1703.75
779.633	260.758
784.204	24.1953
788.773	351.039
793.339	535.172
797.903	77.3125
802.464	60.9062
807.023	131.961
811.579	262.336
816.132	135.172
820.683	546.031
825.231	519.812
829.777	521.477
834.321	272.516
838.861	31.4531
843.4	484.023
847.935	680.555
852.468	923.688
856.999	1250.39
861.527	1071.38
866.052	2353.95
870.575	2721.09
875.096	1774.3
879.613	1112.99
884.129	1276.93
888.641	805.719
893.151	1361.69
897.659	1195.55
902.164	1762.94
906.666	1657.93
911.166	1312.44
915.664	1535.19
920.158	1843.96
924.651	1399.95
929.14	1875.38
933.627	1263.06
938.112	1186.17
942.594	1274.51
947.073	770.836
951.55	824.188
956.024	943.844
960.496	1205.32
964.965	1572.33
969.431	952.07
973.895	662.477
978.357	799.297
982.816	742.859
987.272	69.6875
991.726	358.859
996.177	149.305
1000.62	473.609
1005.07	109.93
1009.51	26.0547
1013.96	362.852
1018.39	27.7734
1022.83	163.32
1027.26	974.828
1031.69	1454.05
1036.12	1992.19
1040.55	2703.32
1044.97	2960.48
1049.39	4998.74
1053.81	8946.25
1058.22	17051.1
1062.63	24999.5
1067.04	38925.4
1071.45	66973.4
1075.86	119776
1080.26	183164
1084.66	172543
1089.05	54353.6
1093.45	20486.1
1097.84	10371.9
1102.23	6758.44
1106.61	4733.34
1111	3579.64
1115.38	2203.8
1119.76	2094.66
1124.13	2442.53
1128.51	1920.64
1132.88	1065.55
1137.25	1119.86
1141.61	1263.62
1145.97	1253.92
1150.34	481.75
1154.69	498.328
1159.05	1065.73
1163.4	592.094
1167.75	347.734
1172.1	1046.75
1176.44	775.109
1180.79	1081.88
1185.12	277.094
1189.46	299.766
1193.8	343.938
1198.13	245.172
1202.46	68.7812
1206.78	84.625
1211.11	439.109
1215.43	306.953
1219.75	428.625
1224.06	71.7492
1228.38	478.156
1232.69	462.859
1237	823.078
1241.3	12.2969
1245.61	680.078
1249.91	198.688
1254.2	559.703
1258.5	163.922
1262.79	599.984
1267.08	82.3438
1271.37	45.7031
1275.65	96.5938
1279.93	126.094
1284.21	750.359
1288.49	316.109
1292.77	619.125
1297.04	885.266
1301.31	805.406
1305.57	1812.47
1309.84	1165.31
1314.1	1896.84
1318.36	1753.98
1322.61	1798.64
1326.87	3029.73
1331.12	3989.59
1335.36	4731
1339.61	5942.66
1343.85	8981.59
1348.09	13819
1352.33	15514.4
1356.56	13818.1
1360.8	13437.7
1365.03	13510.4
1369.25	14700.2
1373.48	14017.4
1377.7	11068.5
1381.92	10538
1386.13	9726.31
1390.35	8246.56
1394.56	6505.97
1398.77	4969.55
1402.97	5643.39
1407.17	8533.53
1411.38	15432.1
1415.57	24486.2
1419.77	19912.6
1423.96	10132.4
1428.15	5602.36
1432.34	2392.08
1436.52	1951.17
1440.71	1234
1444.88	825.156
1449.06	821.391
1453.24	206.578
1457.41	823.141
1461.58	218.641
1465.74	156.547
1469.91	350.469
1474.07	199.422
1478.22	69.9062
1482.38	83.5156
1486.53	118.625
1490.68	395.125
1494.83	439.938
1498.98	369.625
1503.12	514.422
1507.26	507.531
1511.39	511.203
1515.53	920.797
1519.66	2154.06
1523.79	1361.38
1527.92	2026.81
1532.04	1729.52
1536.16	1822.75
1540.28	1061.84
1544.4	2008.72
1548.51	2336.08
1552.62	2988.25
1556.73	3766.03
1560.83	3176.5
1564.93	2350.98
1569.04	1619.05
1573.13	297.141
1577.23	862.656
