Measurement: Raman, 514 nm, ccw, Raman Data Processed
Mineral: Weloganite
Rruff sample: R050217
Ideal chemistry: Na_2_Sr_3_Zr^4+^(C^4+^O_3_)_6_3H_2_O
Locality: Francon Quarry, Montréal, Québec, Canada
Source: Marcus Origlieri
Description: Tan colored tapered hexagonal single crystals
Measured chemistry: Na_2.00_(Sr_2.93_Ca_0.07_)_Σ=3_(Zr_0.90_Hf_0.10_)_Σ=1_(CO_3_)_6_·3H_2_O
Pin_id: M00939
Orientation: Laser parallel to (1 0 1). Fiducial mark perpendicular to laser is parallel to -b [0 -1 0]
Raman shift (cm-1)	intensity
89.307	0
94.234	1350.28
99.159	4608.87
104.081	8175.4
109.002	10956.1
113.919	8322.87
118.835	5945.62
123.748	6329.53
128.659	9904.91
133.567	17300.5
138.473	29093.3
143.377	47414.4
148.278	63395.4
153.177	74702.3
158.073	69091.1
162.968	42507.5
167.859	21840
172.749	15691
177.636	12061.9
182.52	12082.8
187.403	15104.2
192.283	16995.5
197.16	17689.1
202.035	19504.2
206.908	18978.6
211.778	20182.3
216.646	25532.9
221.512	36332.2
226.375	44139.4
231.236	44472.9
236.094	38070.8
240.95	32341.7
245.804	24003.3
250.655	16079.7
255.504	11572.3
260.35	11893.1
265.194	11254
270.036	9278.4
274.875	10791.7
279.712	14411.1
284.546	14642.1
289.378	10315.2
294.208	6009.32
299.035	2934.54
303.859	3733.27
308.682	5809.74
313.502	7106.04
318.319	7739.94
323.134	8776.13
327.947	10534.3
332.757	12902.6
337.565	19757.4
342.37	33712.5
347.173	60965.4
351.973	96306.2
356.771	105980
361.567	83810.3
366.36	64866
371.151	51320.1
375.939	36575.2
380.725	22638.9
385.509	12157
390.29	6721.88
395.068	3386.26
399.844	2039.39
404.618	679.664
409.389	94.2031
414.158	470.391
418.924	822.68
423.688	837.203
428.45	1301.41
433.209	1053.48
437.965	1068.59
442.719	511.125
447.471	143.125
452.22	415.273
456.967	195.641
461.711	56.375
466.453	179.492
471.192	353.297
475.929	453.117
480.664	447.797
485.396	539.562
490.125	1478.9
494.852	1345.25
499.577	1616.82
504.299	1669.82
509.018	1948.36
513.736	1591.15
518.45	2035.39
523.162	2237.41
527.872	2171.59
532.579	2757.21
537.284	2798.1
541.986	2638.1
546.686	2505.99
551.384	2863.94
556.078	3006.95
560.771	2599.32
565.461	2665.56
570.148	2792.77
574.833	2118.59
579.515	1816.33
584.195	1867.43
588.873	1684.48
593.548	1374.79
598.22	1819.94
602.89	1393.58
607.558	1487.05
612.223	1609.2
616.885	1318.38
621.545	1437.72
626.202	1374.44
630.857	1573.19
635.51	1547.5
640.16	1782.72
644.807	1964.58
649.452	2375.62
654.095	1887.02
658.735	2195.71
663.372	2998.96
668.007	3436.2
672.64	5844.21
677.269	13471.7
681.897	17845.8
686.522	8607.69
691.144	5215.05
695.764	4721.86
700.381	4212.47
704.996	2733.86
709.608	2119.62
714.218	2381.84
718.825	3666.66
723.43	8456.71
728.032	17765.5
732.632	20819.7
737.229	22661.7
741.824	14883.1
746.416	17919.5
751.006	23243.2
755.593	21109
760.177	37575.3
764.759	40519.4
769.339	11120.7
773.916	2904.14
778.49	1577.77
783.062	385.508
787.631	401.711
792.198	488.391
796.762	145.969
801.324	393.781
805.883	557.32
810.44	6.38281
814.994	111.789
819.546	909.172
824.095	201.148
828.641	57.5234
833.185	238
837.726	69.3906
842.265	435.578
846.801	559.094
851.335	1169.47
855.866	1604.73
860.395	1412.19
864.921	2936.12
869.445	5660.45
873.966	4251.77
878.484	1705.98
883	618.82
887.513	1552.34
892.024	1153.89
896.532	1324.32
901.038	1543.05
905.541	1004.06
910.042	1226.26
914.54	1196.67
919.035	967.695
923.528	1085.91
928.018	1249.65
932.506	1322.51
936.991	985.602
941.474	1639.58
945.954	900.625
950.431	1251.14
954.906	951.297
959.378	739.906
963.848	1002.41
968.315	1200.81
972.78	624.484
977.242	711.422
981.701	37.3906
986.158	1.32812
990.612	66.1875
995.064	64.2812
999.513	295.031
1003.96	273.328
1008.4	370.172
1012.85	267.672
1017.28	520
1021.72	624.953
1026.15	531.797
1030.59	1517.73
1035.01	1893.84
1039.44	2588.17
1043.86	3376.81
1048.28	5777.83
1052.7	9052.28
1057.12	17916.3
1061.53	25194.9
1065.94	36220.2
1070.35	69302.4
1074.75	147194
1079.16	268438
1083.56	342564
1087.95	117160
1092.35	38116.9
1096.74	18210.5
1101.13	11188.2
1105.52	7305.34
1109.9	5356.75
1114.28	3518.23
1118.66	2993.88
1123.04	2209.89
1127.41	2447.5
1131.79	1696.66
1136.15	1554.34
1140.52	1488.28
1144.88	733.281
1149.25	1263.28
1153.6	371.141
1157.96	910.203
1162.31	432.375
1166.66	825.312
1171.01	1141.05
1175.36	920.609
1179.7	769.094
1184.04	259.5
1188.38	416.922
1192.71	756.328
1197.05	65.2188
1201.38	232.266
1205.7	585.891
1210.03	370.625
1214.35	579.531
1218.67	198.625
1222.99	147.922
1227.3	171.969
1231.61	549.656
1235.92	588.969
1240.23	611.203
1244.53	657.062
1248.83	27.4375
1253.13	548.562
1257.42	384.828
1261.72	58.0938
1266.01	423.578
1270.3	648.422
1274.58	325.359
1278.87	856.406
1283.14	141.859
1287.42	1093.66
1291.7	1383.61
1295.97	1186.61
1300.24	2081.56
1304.51	1135.41
1308.77	1664.03
1313.03	2393.34
1317.29	2656.28
1321.55	3247.72
1325.8	4190.89
1330.05	5148.25
1334.3	6792.25
1338.55	8889.73
1342.79	11983.3
1347.03	19534.5
1351.27	21962
1355.51	17290.9
1359.74	13215.8
1363.97	12695.9
1368.2	13995.7
1372.42	14603.3
1376.64	12913.1
1380.86	12653.4
1385.08	11932.9
1389.29	11283.6
1393.51	9362.19
1397.71	7573.11
1401.92	8896.41
1406.12	14152.1
1410.33	29070.9
1414.53	51670.7
1418.72	50396.5
1422.91	27113.2
1427.1	13662.9
1431.29	7363.86
1435.48	4618.05
1439.66	2593.02
1443.84	2444.38
1448.02	1833.42
1452.19	1887.12
1456.37	800.172
1460.53	554.062
1464.7	325.219
1468.87	108.969
1473.03	346.062
1477.18	315
1481.34	138.844
1485.49	171.25
1489.65	526.984
1493.79	345.219
1497.94	369.516
1502.08	0.21875
1506.22	466.203
1510.36	898.719
1514.5	980.656
1518.63	2220.95
1522.76	2786.23
1526.88	3394.41
1531.01	3439.06
1535.13	3216.42
1539.25	1536.16
1543.37	1315
1547.48	2118.02
1551.59	1620.95
1555.7	2867.02
1559.81	3646.48
1563.91	2292.55
1568.01	552.359
1572.11	45.6562
1576.2	483.125
