Measurement: Raman, 514 nm, ccw, Raman Data Processed
Mineral: Weloganite
Rruff sample: R050217
Ideal chemistry: Na_2_Sr_3_Zr^4+^(C^4+^O_3_)_6_3H_2_O
Locality: Francon Quarry, Montréal, Québec, Canada
Source: Marcus Origlieri
Description: Tan colored tapered hexagonal single crystals
Measured chemistry: Na_2.00_(Sr_2.93_Ca_0.07_)_Σ=3_(Zr_0.90_Hf_0.10_)_Σ=1_(CO_3_)_6_·3H_2_O
Pin_id: M01339
Orientation: Laser parallel to (0 1 1). Fiducial mark perpendicular to laser is parallel to -a [-1 0 0]
Raman shift (cm-1)	intensity
106.542	0
111.461	1011.41
116.377	1400.48
121.292	1457.88
126.204	3422.76
131.113	5531.24
136.02	8691.09
140.925	15411.8
145.828	23355.4
150.728	30621
155.625	32753.1
160.521	26585.7
165.414	15115.6
170.304	7776.16
175.193	4282.27
180.078	1898.7
184.962	204.086
189.843	625.023
194.722	1884.65
199.598	2833.12
204.472	4086.16
209.343	4865.66
214.213	5370.63
219.079	7931.07
223.944	11519.4
228.806	14047.4
233.665	14069.1
238.522	12352.4
243.377	9763.94
248.23	6682.27
253.08	4621.68
257.927	3464.38
262.772	3627.47
267.615	3995.45
272.456	2755.92
277.294	3095.66
282.129	3635.86
286.962	2102.38
291.793	742.851
296.621	1003.14
301.447	285.781
306.271	1062.06
311.092	3568.8
315.911	6156.12
320.727	8199.25
325.541	8467.28
330.352	7971.83
335.161	6821.25
339.968	7099.3
344.772	11170.8
349.573	17208.6
354.373	23875.9
359.17	25014.7
363.964	21596.1
368.756	17276.8
373.545	12054.1
378.333	6952
383.117	4072.52
387.899	2429.05
392.679	1829.44
397.457	169.453
402.231	162.891
407.004	57.375
411.774	122.344
416.542	88.6562
421.307	352.938
426.069	173.734
430.83	397.578
435.587	1.57812
440.343	53.625
445.096	131.594
449.846	138.453
454.594	489.859
459.339	407.062
464.082	1114.61
468.823	1203.5
473.561	1231.36
478.297	1363.22
483.03	807.344
487.761	1061.06
492.489	1552.73
497.215	1594.55
501.938	1901.14
506.659	1816.03
511.377	1605.56
516.093	1803.44
520.807	2656.69
525.518	2094.2
530.226	2463.86
534.932	2067.28
539.636	2371.67
544.337	2555.38
549.035	1856.69
553.731	2136.17
558.425	2579.03
563.116	2395.66
567.805	1846.27
572.491	1642.38
577.174	1845.86
581.856	723.266
586.534	1213.8
591.211	1468.75
595.884	619.906
600.555	854.297
605.224	350.859
609.89	390.859
614.554	1106.69
619.215	1136.06
623.874	288.938
628.53	735.484
633.184	1070.67
637.835	760.875
642.484	999.469
647.13	1216.09
651.774	651.188
656.415	2297.8
661.054	2526.25
665.69	2001.41
670.324	2436.97
674.955	4593.81
679.583	7089.17
684.21	5776.02
688.833	3895.55
693.454	2243
698.073	2391.95
702.689	1534.38
707.303	1588.89
711.914	1190.27
716.522	2100.64
721.128	2918.73
725.732	5828.16
730.333	7293.31
734.931	7986.8
739.527	5976.67
744.12	6577.62
748.711	10058.2
753.299	9329.17
757.885	9520.8
762.469	14754.8
767.049	6903.8
771.627	1373.78
776.203	1061.72
780.776	267.906
785.347	281.156
789.915	211.562
794.481	179.219
799.043	375.5
803.604	145.781
808.162	316.188
812.717	555.656
817.27	272.25
821.82	94.4375
826.368	436.312
830.913	441.875
835.456	169.938
839.996	97.25
844.534	709.844
849.069	729.031
853.601	1032.38
858.131	2581.03
862.658	1120.44
867.183	1931
871.706	2545.41
876.225	1972.84
880.742	1496.5
885.257	1674.19
889.769	1803.19
894.279	2214.34
898.785	2183
903.29	3083.59
907.792	2641.69
912.291	4046.97
916.788	2951.75
921.282	2956.84
925.773	3496.31
930.262	3291.47
934.749	2625.94
939.233	2328.88
943.714	2340.66
948.193	2341.31
952.669	2177.34
957.142	2164.97
961.613	2735.53
966.082	3033.22
970.548	1316.31
975.011	1758.5
979.472	1114.25
983.93	73.625
988.386	361
992.839	452.406
997.289	351.156
1001.74	454.219
1006.18	102.031
1010.62	522.656
1015.07	779.188
1019.5	76.7812
1023.94	154.5
1028.37	1457.16
1032.8	2041.38
1037.23	2985.44
1041.65	3431.56
1046.07	4394.31
1050.49	4970.66
1054.91	7757.5
1059.32	13032.1
1063.74	17500.9
1068.14	25672.7
1072.55	44963.3
1076.95	70822.8
1081.36	114153
1085.76	72447.1
1090.15	28705.3
1094.55	14734.4
1098.94	10363.2
1103.33	7827.38
1107.71	6677.16
1112.09	6325.03
1116.47	5725.72
1120.85	4599.16
1125.23	4874.66
1129.6	4704.47
1133.97	4115.59
1138.34	4607.12
1142.7	4537.41
1147.07	2770.81
1151.42	4317.44
1155.78	3739.84
1160.14	2358.94
1164.49	4045.91
1168.84	3299.69
1173.18	3298.5
1177.53	2799.38
1181.87	2526.41
1186.21	2099.56
1190.55	2001.97
1194.88	2666.69
1199.21	1630
1203.54	2178.81
1207.87	1630.25
1212.19	2174.34
1216.51	1431.66
1220.83	1168.94
1225.14	2022.59
1229.46	2342.06
1233.77	1438.06
1238.07	1967.41
1242.38	1590.09
1246.68	1577.75
1250.98	1848.09
1255.28	1079.12
1259.57	2282
1263.86	958.531
1268.15	169.625
1272.44	530.562
1276.72	2004.12
1281.01	253.5
1285.28	1352.41
1289.56	1470.5
1293.83	97.5625
1298.11	1023.31
1302.37	1507.69
1306.64	2630.53
1310.9	3190.12
1315.16	1624.81
1319.42	2101.84
1323.67	2772.5
1327.93	1869.41
1332.18	3670.25
1336.42	5072.25
1340.67	3924.47
1344.91	7262.03
1349.15	7800
1353.39	7685.44
1357.62	7616.62
1361.85	7532.34
1366.08	6831.28
1370.31	6984.19
1374.53	6415.75
1378.75	6456.25
1382.97	6206.34
1387.19	5045.56
1391.4	5046.53
1395.61	3247.44
1399.82	3831.22
1404.02	4101.06
1408.23	6359.09
1412.43	10881.4
1416.62	12073.2
1420.82	8761.62
1425.01	4814.12
1429.2	2528.94
1433.38	1353.81
1437.57	396
1441.75	1810.75
1445.93	187.25
1450.11	168.5
1454.28	274.5
1458.45	318.438
1462.62	304.188
1466.78	955.812
1470.95	123.312
1475.11	942
1479.26	707.625
1483.42	763.5
1487.57	336.938
1491.72	257.562
1495.87	400.5
1500.01	121.812
1504.15	419.875
1508.29	1691.44
1512.43	2899.25
1516.56	3389.88
1520.69	1161.81
1524.82	4305.12
1528.95	2264
1533.07	3396.38
1537.19	2844
1541.31	2365.5
1545.42	1839.38
1549.54	1629.94
1553.65	2548.94
1557.75	2043.31
1561.86	1985.56
1565.96	1111.25
1570.06	528
1574.16	1557.44
1578.25	7.5
