Measurement: Raman, 514 nm, depolarized, Raman Data Processed
Mineral: Weloganite
Rruff sample: R050217
Ideal chemistry: Na_2_Sr_3_Zr^4+^(C^4+^O_3_)_6_3H_2_O
Locality: Francon Quarry, Montréal, Québec, Canada
Source: Marcus Origlieri
Description: Tan colored tapered hexagonal single crystals
Measured chemistry: Na_2.00_(Sr_2.93_Ca_0.07_)_Σ=3_(Zr_0.90_Hf_0.10_)_Σ=1_(CO_3_)_6_·3H_2_O
Pin_id: L00260
Orientation: Laser parallel to a* (1 0 0). Fiducial mark perpendicular to laser is parallel to -c [0 0 -1]
Raman shift (cm-1)	intensity
96.161	0
100.34	159.285
104.516	447.853
108.691	679.554
112.864	262.111
117.034	455.565
121.203	1189.36
125.369	1997.45
129.534	2219.5
133.696	2900.36
137.857	3687.44
142.016	5556.73
146.172	7816.35
150.327	9743.77
154.48	10506.4
158.63	9394.68
162.779	6207.81
166.926	4210.92
171.07	3189.34
175.213	2369.95
179.354	1717.09
183.493	1357.69
187.63	1255.04
191.765	1723.68
195.898	2265.2
200.029	2724.07
204.158	2601.54
208.285	2532.77
212.41	2343.71
216.533	2682.29
220.654	3405.2
224.773	4282.28
228.891	4522.38
233.006	4397.42
237.119	4098.34
241.231	3409.02
245.34	2323.41
249.448	1635.01
253.553	1350.52
257.657	1644.67
261.758	2458.54
265.858	2783.32
269.956	2274.22
274.052	2224.21
278.146	2204.86
282.237	1732.36
286.327	1098.51
290.416	625.635
294.502	406.251
298.586	429.775
302.668	894.441
306.749	1645.11
310.827	2848.42
314.903	4196.7
318.978	5061.58
323.051	4794.88
327.121	4100.07
331.19	3011.62
335.257	2363.07
339.322	2074.31
343.385	2240.5
347.446	2936.35
351.505	4333.44
355.563	5250.55
359.618	6126.68
363.672	6362.94
367.723	5833.21
371.773	4436.11
375.821	2918.86
379.866	1748.12
383.91	931.791
387.952	540.996
391.992	206.803
396.031	88.547
400.067	82.648
404.101	45.302
408.134	103.07
412.165	97.167
416.193	147.47
420.22	105.058
424.245	178.785
428.268	0.851
432.289	90.141
436.309	42.408
440.326	81.771
444.342	36.3
448.355	85.893
452.367	27.042
456.377	58.286
460.385	112.774
464.391	119.16
468.395	203.333
472.398	100.676
476.398	137.651
480.397	255.056
484.394	192.107
488.389	159.764
492.382	185.468
496.373	309.036
500.362	309.522
504.349	297.097
508.335	417.702
512.319	421.358
516.3	466.905
520.28	499.263
524.259	513.339
528.235	508.037
532.209	483.69
536.182	562.359
540.152	561.007
544.121	485.643
548.088	555.328
552.053	613.946
556.017	610.237
559.978	641.909
563.938	577.156
567.895	503.5
571.851	461.521
575.805	433.119
579.758	349.723
583.708	367.458
587.657	443.058
591.603	327.477
595.548	249.113
599.491	258.688
603.432	42.81
607.372	197.895
611.309	163.268
615.245	226.94
619.179	239.128
623.111	299.654
627.041	54.992
630.97	228.859
634.896	358.217
638.821	187.435
642.744	447.519
646.665	290.353
650.584	391.825
654.502	495.567
658.418	619.877
662.331	613.912
666.244	584.468
670.154	783.832
674.062	1073.08
677.969	1784.45
681.874	1838.29
685.777	1010.56
689.678	737.862
693.577	441.36
697.475	671.868
701.371	557.543
705.265	407.105
709.157	156.866
713.047	430.267
716.936	106.303
720.823	487.265
724.708	1018.21
728.591	1976.89
732.472	2115.01
736.352	2291.38
740.23	1573.13
744.106	1493
747.98	2439.38
751.853	3016.43
755.723	2636.8
759.592	5565.78
763.459	6739.54
767.325	2384.19
771.188	692.791
775.05	235.595
778.91	307.484
782.768	45.063
786.625	57.293
790.479	45.368
794.332	19.05
798.183	21.248
802.033	14.753
805.88	111.843
809.726	57.211
813.57	139.764
817.413	75.637
821.253	28.787
825.092	60.883
828.929	36.389
832.764	4.185
836.598	129.152
840.429	8.36
844.259	20.546
848.088	122.687
851.914	153.846
855.739	196.034
859.562	154.195
863.383	258.428
867.203	428.113
871.02	381.823
874.836	67.261
878.65	182.808
882.463	17.443
886.274	5.172
890.083	125.003
893.89	136.938
897.695	63.976
901.499	16.107
905.301	186.339
909.102	204.671
912.9	210.123
916.697	160.705
920.492	207.4
924.285	189.215
928.077	149.143
931.867	245.182
935.655	366.116
939.442	198.254
943.226	214.253
947.009	377.647
950.791	167.984
954.57	98.343
958.348	295.687
962.124	68.914
965.899	163.87
969.671	87.59
973.442	264.12
977.211	225.67
980.979	215.973
984.745	49.032
988.509	35.546
992.271	241.235
996.032	298.861
999.791	114.947
1003.55	434.231
1007.3	324.813
1011.06	204.605
1014.81	305.58
1018.56	411.774
1022.31	428.661
1026.06	482.293
1029.8	483.9
1033.55	479.57
1037.29	546.725
1041.03	890.065
1044.77	952.589
1048.5	973.297
1052.24	1410.19
1055.97	2193.27
1059.7	4052.53
1063.43	4775.98
1067.16	6975.61
1070.89	11415.4
1074.61	23073.4
1078.34	28025.6
1082.06	44664.6
1085.78	21003.2
1089.5	7189.93
1093.21	3155.41
1096.93	1779.54
1100.64	1394.92
1104.35	881.816
1108.06	767.283
1111.77	532.48
1115.48	559.447
1119.18	336.219
1122.89	345.449
1126.59	175.699
1130.29	95.314
1133.99	184.908
1137.68	16.812
1141.38	163.75
1145.07	262.717
1148.76	48.537
1152.45	161.639
1156.14	39.086
1159.83	108.145
1163.51	175.092
1167.19	24.59
1170.88	148.59
1174.56	61.117
1178.23	113.59
1181.91	112.049
1185.59	132.617
1189.26	41.301
1192.93	369.092
1196.6	143.99
1200.27	273.994
1203.94	325.881
1207.6	135.312
1211.27	173.627
1214.93	47.092
1218.59	73.686
1222.25	147.4
1225.9	280.223
1229.56	192.133
1233.21	156.113
1236.86	41.16
1240.51	150.26
1244.16	127.447
1247.81	231.604
1251.45	23.287
1255.1	58.75
1258.74	175.764
1262.38	84.637
1266.02	32.547
1269.66	206.182
1273.29	39.186
1276.93	10.396
1280.56	61.92
1284.19	40.582
1287.82	3.084
1291.45	120.424
1295.07	118.939
1298.7	27.42
1302.32	52.824
1305.94	77.246
1309.56	42.324
1313.18	143.58
1316.8	51.984
1320.41	212.814
1324.02	342.242
1327.63	336.684
1331.24	459.17
1334.85	443.699
1338.46	676.281
1342.06	983.92
1345.67	1596.62
1349.27	2487.39
1352.87	3035.28
1356.47	2541.66
1360.07	2291.61
1363.66	2168.93
1367.25	2310
1370.85	2357.84
1374.44	2462.75
1378.03	2848.45
1381.61	2520.39
1385.2	2238.05
1388.78	2180.89
1392.37	1664.48
1395.95	1084.37
1399.53	975.566
1403.1	916.449
1406.68	1331.52
1410.26	2188.85
1413.83	3342.36
1417.4	4277.16
1420.97	3148.53
1424.54	1765.28
1428.1	1050.92
1431.67	658.52
1435.23	395.066
1438.8	393.541
1442.36	409.83
1445.91	318.752
1449.47	211.4
1453.03	304.938
1456.58	106.361
1460.13	119.102
1463.68	188.316
1467.23	460.438
1470.78	207.502
1474.33	339.266
1477.87	159.465
1481.42	369.977
1484.96	237.918
1488.5	172.867
1492.04	45.09
1495.57	206.848
1499.11	163.855
1502.64	34.203
1506.17	126.303
1509.71	84.316
1513.23	94.562
1516.76	192.924
1520.29	238.127
1523.81	0
