Measurement: Raman, 514 nm, depolarized, Raman Data Processed
Mineral: Whewellite
Rruff sample: R050240
Ideal chemistry: Ca(C_2_)^6+^O_4_H_2_O
Locality: Huron River, Milan, Ohio, USA
Source: Marcus Origlieri
Description: White fragment
Measured chemistry: Ca_1.00_C_2_O_4_Â·H_2_O
Pin_id: L00839
Orientation: Laser parallel to c* (0 0 1). Fiducial mark perpendicular to laser is parallel to a [1 0 0]
Raman shift (cm-1)	intensity
107.047	0
111.976	15.8262
116.903	410.89
121.827	1420.17
126.749	2874.21
131.668	4998.35
136.585	7481.04
141.5	7300.55
146.412	3708.14
151.321	1441.28
156.229	728.789
161.134	527.516
166.036	364.664
170.936	311.011
175.834	936.519
180.729	1451.58
185.622	2843.64
190.512	5152.5
195.4	5927.09
200.286	5368.24
205.169	6014.72
210.049	4693.09
214.928	3421.43
219.803	3191.48
224.677	2655.59
229.548	1352.26
234.416	1226.54
239.282	1149.23
244.146	1316.64
249.007	1552.45
253.866	1009.49
258.722	606.751
263.576	393.623
268.427	458.69
273.276	310.01
278.123	230.863
282.967	206.369
287.809	225.903
292.648	211.653
297.485	212.509
302.319	62.4355
307.151	120.074
311.98	1.28906
316.807	32.0059
321.631	40.0166
326.454	64.1045
331.273	16.7363
336.09	76.6973
340.905	51.1728
345.717	157.788
350.527	6.56738
355.334	146.023
360.139	129.245
364.941	240.389
369.741	98.5898
374.538	196.19
379.333	18.2871
384.126	52.9551
388.916	71.0801
393.703	48.416
398.488	187.648
403.271	61.1328
408.051	161.065
412.828	40.6602
417.603	78.666
422.376	196.727
427.146	14.125
431.914	54.1992
436.679	169.373
441.442	122.043
446.202	126.596
450.96	21.3105
455.715	212.543
460.467	100.434
465.218	276.272
469.965	145.853
474.711	230.336
479.454	154.018
484.194	288.629
488.932	382.856
493.667	764.141
498.4	1262
503.13	1382.11
507.858	856
512.583	1016.71
517.306	1324.4
522.026	1317.9
526.744	613.441
531.459	391.678
536.172	399.832
540.882	248.596
545.59	96.668
550.295	42.4043
554.998	308.93
559.698	203.441
564.396	338.203
569.091	414.023
573.784	281.133
578.474	394.654
583.162	663.16
587.847	1112.57
592.529	1325.86
597.209	1199.69
601.887	1021.9
606.562	413.359
611.235	307.906
615.905	222.459
620.572	249.269
625.237	295.518
629.9	235.652
634.56	312.773
639.217	389.846
643.872	242.963
648.524	327.777
653.174	310.787
657.821	89.8047
662.466	91.7539
667.108	141.621
671.748	88.4336
676.385	204.906
681.02	129.701
685.652	76.4629
690.281	100.707
694.908	148.451
699.533	51.5781
704.155	2.11914
708.774	110.098
713.391	305.084
718.005	34.9434
722.617	214.467
727.226	246.002
731.833	194.523
736.437	106.059
741.039	105.502
745.638	22.8027
750.234	68.9727
754.828	336.867
759.419	248.627
764.008	109.248
768.595	125.83
773.178	301.373
777.759	128.904
782.338	23.7129
786.914	265.693
791.488	126.09
796.059	60.5078
800.627	192.902
805.193	31.8066
809.756	50.5391
814.317	92.8613
818.875	69.1211
823.431	104.381
827.984	31.7031
832.534	391.086
837.082	55.2285
841.627	266.398
846.17	114.322
850.71	379.023
855.248	681.674
859.783	1319.5
864.316	1471.75
868.846	1093.29
873.373	1026.87
877.898	1369.94
882.42	1677.37
886.94	1891.31
891.457	3211.86
895.971	6045.37
900.483	1458.67
904.993	473.08
909.5	547.59
914.004	746.481
918.505	672.367
923.004	838.238
927.501	847.906
931.995	1271.66
936.486	1267.96
940.975	1245.41
945.461	952.023
949.945	802.199
954.426	551.084
958.904	446.055
963.38	402.951
967.853	150.883
972.324	172.269
976.792	209.592
981.258	44.5703
985.72	101.394
990.181	78.3652
994.639	176.992
999.094	475.973
1003.55	332.477
1008	233.113
1012.44	357.008
1016.89	203.859
1021.33	78.707
1025.77	427.602
1030.21	337.516
1034.64	206.947
1039.07	169.127
1043.5	29.8906
1047.93	174.809
1052.35	135.615
1056.78	174.547
1061.19	358.522
1065.61	0.521484
1070.02	200.611
1074.43	150.199
1078.84	154.496
1083.25	203.887
1087.65	462.359
1092.05	374.152
1096.45	415.705
1100.85	203.338
1105.24	139.096
1109.63	265.951
1114.02	239.51
1118.4	143.484
1122.78	421.91
1127.16	154.416
1131.54	176.643
1135.92	32.7793
1140.29	107.967
1144.66	30.4824
1149.02	338.684
1153.39	81.7402
1157.75	377.871
1162.11	39.084
1166.46	239.56
1170.82	405.172
1175.17	489.894
1179.52	227.685
1183.86	230.475
1188.21	193.262
1192.55	169.857
1196.89	248.4
1201.22	36.1953
1205.55	291.916
1209.88	130.56
1214.21	149.207
1218.54	241.856
1222.86	199.494
1227.18	110.383
1231.5	495.029
1235.81	186.352
1240.12	235.037
1244.43	46.6992
1248.74	191.394
1253.04	70.082
1257.34	16.168
1261.64	274.996
1265.94	80.7695
1270.23	60.4414
1274.52	76.1992
1278.81	508.094
1283.1	103.652
1287.38	191.496
1291.66	130.184
1295.94	137.086
1300.21	0.144531
1304.48	114.152
1308.75	205.941
1313.02	322.844
1317.29	245.859
1321.55	363.023
1325.81	117.262
1330.06	124.547
1334.32	73.5078
1338.57	214.926
1342.82	80.4062
1347.06	34.9258
1351.31	35.2891
1355.55	272.031
1359.79	14.1328
1364.02	273.785
1368.26	307.801
1372.49	373.945
1376.71	388.227
1380.94	251.109
1385.16	462.742
1389.38	584.547
1393.6	960.57
1397.81	893.301
1402.02	479.023
1406.23	578.84
1410.44	808.598
1414.64	541.062
1418.85	664.039
1423.04	586.066
1427.24	475.602
1431.43	655.691
1435.62	701.758
1439.81	1237.73
1444	1619.02
1448.18	2026.64
1452.36	2929.71
1456.54	7490.16
1460.71	21267.8
1464.89	11430.7
1469.06	4885.85
1473.22	4667.19
1477.39	6492.82
1481.55	12104.8
1485.71	22528.2
1489.86	25549.1
1494.02	11937.2
1498.17	4181.17
1502.32	2009.09
1506.46	1109.21
1510.61	620.656
1514.75	488.887
1518.88	595.07
1523.02	398.543
1527.15	383.367
1531.28	14.7383
1535.41	1.94531
1539.53	100.121
1543.66	252.773
1547.78	298.539
1551.89	26.8477
1556.01	15.6523
1560.12	191.836
1564.23	1.59766
1568.33	9.56641
