Measurement: Raman, 514 nm, depolarized, Raman Data Processed
Mineral: Whewellite
Rruff sample: R050240
Ideal chemistry: Ca(C_2_)^6+^O_4_H_2_O
Locality: Huron River, Milan, Ohio, USA
Source: Marcus Origlieri
Description: White fragment
Measured chemistry: Ca_1.00_C_2_O_4_Â·H_2_O
Pin_id: L01310
Orientation: Laser parallel to (-1 0 -1). Fiducial mark perpendicular to laser is parallel to b [0 1 0]
Raman shift (cm-1)	intensity
108.28	0
113.208	268.745
118.134	990.868
123.058	2923.56
127.979	5864.73
132.898	9505.4
137.814	11110
142.728	9114.56
147.639	3983.09
152.549	1166.05
157.455	131.775
162.359	28.2446
167.261	52.9932
172.161	254.514
177.058	936.835
181.952	2347.22
186.845	4512.85
191.734	7000.05
196.622	8362.98
201.507	8468.82
206.389	9438.24
211.269	8269.93
216.147	5706.97
221.022	4691.13
225.895	3474.34
230.765	1737.95
235.633	1410.62
240.498	1549.81
245.361	1846.75
250.222	1822.92
255.08	1091.81
259.936	702.063
264.789	452.656
269.64	402.964
274.488	430.294
279.334	509.329
284.178	311.358
289.019	246.492
293.857	93.6103
298.693	59.0654
303.527	24.5767
308.358	131.028
313.187	13.957
318.013	128.293
322.837	32.312
327.659	1.12012
332.478	2.42871
337.294	24.3862
342.108	60.7022
346.92	0.613281
351.729	2.32861
356.535	47.4912
361.34	33.3037
366.141	134.926
370.94	43.3335
375.737	126.364
380.531	221.272
385.323	14.4146
390.113	129.199
394.9	178.315
399.684	30.0327
404.466	278.474
409.245	121.591
414.022	200.323
418.797	83.6865
423.569	74.584
428.338	146.043
433.105	135.093
437.87	204.651
442.632	126.445
447.391	184.473
452.149	236.63
456.903	189.106
461.655	237.747
466.405	181.247
471.152	196.441
475.897	379.106
480.639	441.422
485.378	648.163
490.116	1072.15
494.85	2262.53
499.582	3109.06
504.312	3259.22
509.039	2090.97
513.764	1587.41
518.486	1607.76
523.206	1669.69
527.923	919.704
532.638	440.683
537.35	263.833
542.059	351.748
546.766	141.667
551.471	217.024
556.173	214.235
560.873	201.595
565.57	304.252
570.264	456.322
574.957	601.559
579.646	765.39
584.333	1069.93
589.018	1495.21
593.7	1727.99
598.379	1582.02
603.056	1141.25
607.73	555.425
612.402	616.678
617.072	273.968
621.739	311.803
626.403	316.255
631.065	194.15
635.724	209.526
640.381	175.352
645.035	13.2305
649.687	242.119
654.336	59.0654
658.983	169.73
663.627	51.5684
668.268	213.352
672.907	58.9766
677.544	99.6318
682.178	130.6
686.809	135.981
691.438	13.8623
696.065	3.80078
700.688	26.5449
705.31	27.8281
709.929	38.4863
714.545	2.30469
719.158	3.85352
723.77	53.9766
728.378	43.0732
732.984	66.0986
737.588	98.0947
742.189	44.168
746.787	43.2246
751.383	53.2676
755.976	21.7002
760.567	132.267
765.155	108.224
769.741	168.211
774.324	394.199
778.904	487.173
783.482	442.063
788.058	45.0098
792.631	26.0566
797.201	12.2656
801.769	138.015
806.334	76.6602
810.897	26.8125
815.457	42.7305
820.014	16.6279
824.569	159.14
829.122	128.591
833.671	17.1836
838.219	170.299
842.763	250.756
847.306	300.233
851.845	431.937
856.382	980.106
860.917	2033.06
865.448	2291.56
869.978	1611.18
874.505	1521.44
879.029	2290.7
883.55	2653.36
888.069	3824.16
892.586	6744.51
897.1	7242.4
901.611	1760.54
906.12	915.691
910.626	969.82
915.129	1021.04
919.63	1213.32
924.129	1280.67
928.625	1529.41
933.118	1616.22
937.609	1936.87
942.097	1937.81
946.582	1645.49
951.065	1194.38
955.546	812.402
960.023	612.038
964.499	430.228
968.971	203.323
973.441	197.861
977.909	115.911
982.374	13.835
986.836	99.8828
991.295	179.013
995.753	100.225
1000.21	45.5713
1004.66	162.106
1009.11	132.374
1013.55	44.9131
1018	298.478
1022.44	148.14
1026.88	155.94
1031.32	5.45508
1035.75	65.4814
1040.18	169.52
1044.61	45.1885
1049.04	223.223
1053.46	112.468
1057.88	159.918
1062.3	68.2295
1066.71	118.773
1071.13	139.421
1075.54	75.1162
1079.94	113.818
1084.35	215.542
1088.75	60.8145
1093.15	11.6475
1097.55	102.497
1101.94	146.571
1106.34	47.5684
1110.73	85.6973
1115.11	87.8574
1119.5	352.178
1123.88	354.518
1128.26	38.6435
1132.63	26.5361
1137.01	20.4658
1141.38	12.4297
1145.75	162.44
1150.12	78.4248
1154.48	126.246
1158.84	63.6494
1163.2	45.7734
1167.55	157.101
1171.91	26.6797
1176.26	17.8945
1180.61	63.3496
1184.95	197.573
1189.29	247.628
1193.63	171.528
1197.97	71.8398
1202.31	160.724
1206.64	59.2695
1210.97	207.722
1215.29	100.576
1219.62	115.019
1223.94	42.2656
1228.26	12.1016
1232.57	154.857
1236.89	109.269
1241.2	82.5449
1245.51	75.1269
1249.81	87.2119
1254.12	185.598
1258.42	192.892
1262.72	39.0654
1267.01	123.053
1271.3	80.0762
1275.59	61.8984
1279.88	66.7383
1284.17	45.2578
1288.45	44.6094
1292.73	105.158
1297.01	99.3535
1301.28	101.344
1305.55	116.84
1309.82	12.6855
1314.09	235.522
1318.35	169.219
1322.61	2.4082
1326.87	64.7246
1331.13	115.268
1335.38	25.6855
1339.63	47.9102
1343.88	0.679688
1348.12	138.809
1352.37	72.7227
1356.61	165.787
1360.85	211.285
1365.08	19.0332
1369.31	280.103
1373.54	81.3731
1377.77	231.873
1381.99	213.572
1386.22	535.307
1390.43	860.273
1394.65	1135.32
1398.87	884.068
1403.08	639.996
1407.29	749.203
1411.49	766.076
1415.69	658.805
1419.89	693.6
1424.09	738.961
1428.29	847.734
1432.48	1101.16
1436.67	1203.08
1440.86	1487.09
1445.04	2107.44
1449.23	2687.3
1453.4	4193.42
1457.58	12592.4
1461.76	24677.8
1465.93	11207.6
1470.1	6136.41
1474.26	7056.75
1478.43	10555
1482.59	20874.5
1486.75	37067.2
1490.9	35234.5
1495.06	14677.2
1499.21	5341.33
1503.35	2407.93
1507.5	1355.53
1511.64	761.174
1515.78	249.68
1519.92	362.137
1524.05	282.91
1528.18	256.961
1532.31	244.482
1536.44	169.744
1540.56	115.232
1544.69	70.8125
1548.8	94.2969
1552.92	183.674
1557.03	104.203
1561.14	19.8262
1565.25	88.7656
1569.36	316.441
