Measurement: Raman, 514 nm, depolarized, Raman Data Processed
Mineral: Whewellite
Rruff sample: R050240
Ideal chemistry: Ca(C_2_)^6+^O_4_H_2_O
Locality: Huron River, Milan, Ohio, USA
Source: Marcus Origlieri
Description: White fragment
Measured chemistry: Ca_1.00_C_2_O_4_Â·H_2_O
Pin_id: L01615
Orientation: Laser parallel to -a* (-1 0 0). Fiducial mark perpendicular to laser is parallel to b [0 1 0]
Raman shift (cm-1)	intensity
100.883	0
105.815	59.7075
110.744	282.386
115.671	1869.42
120.596	5152.13
125.519	10083.5
130.439	19486.3
135.356	30349.4
140.271	29969.7
145.184	14705.1
150.094	5226.63
155.002	1551.12
159.908	424.943
164.811	66.8491
169.711	507.918
174.61	1962.62
179.505	4086.03
184.399	8641.98
189.29	16536.9
194.178	18089.2
199.064	16748
203.948	19025.3
208.829	16165.2
213.708	10706
218.585	7269.2
223.459	4769.99
228.33	2235.25
233.199	1789.64
238.066	1825.61
242.93	1975.67
247.792	2021.5
252.651	1510.47
257.508	1117.03
262.363	1066.6
267.215	1213.04
272.064	1478.13
276.912	1380.08
281.756	954.727
286.598	469.134
291.438	279.334
296.276	206.221
301.111	57.71
305.943	68.5005
310.773	55.8862
315.601	123.829
320.426	80.5352
325.248	110.032
330.068	90.3608
334.886	93.2876
339.701	68.8252
344.514	0.899902
349.324	9.58691
354.132	10.9268
358.938	89.1812
363.741	74.4194
368.541	101.261
373.339	162.287
378.135	208.759
382.928	205.017
387.718	306.313
392.506	209.286
397.292	237.686
402.075	314.87
406.856	413.226
411.634	308.76
416.41	400.361
421.183	356.598
425.954	407.541
430.722	415.127
435.488	470.81
440.251	511.593
445.012	504.402
449.77	572.983
454.526	633.776
459.28	620.214
464.03	884.137
468.779	891.899
473.525	1160.15
478.268	1597.6
483.009	2746.34
487.747	5180.59
492.483	10851.6
497.217	21298.6
501.948	25082.4
506.676	13925.6
511.402	6581.44
516.125	4543.32
520.846	3785.21
525.565	2386.16
530.281	1398.18
534.994	844.422
539.705	634.87
544.413	558.225
549.119	451.399
553.822	570.421
558.523	558.752
563.222	661.746
567.917	713.499
572.611	896.615
577.302	1142.15
581.99	1588.88
586.676	2150.34
591.359	2649.22
596.04	2750.46
600.718	2200.07
605.394	1597.03
610.067	1083.49
614.737	808.95
619.406	637.231
624.071	513.776
628.734	372.642
633.395	308.731
638.053	275.021
642.708	370.516
647.361	230.174
652.012	255.903
656.66	211.663
661.305	141.384
665.948	121.736
670.588	80.0908
675.226	110.128
679.861	69.8106
684.494	140.444
689.124	53.9932
693.752	4.30322
698.377	18.4795
702.999	25.6577
707.619	21.2436
712.237	63.3052
716.852	15.7036
721.464	7.60693
726.074	15.8364
730.681	27.9814
735.286	12.0185
739.888	15.7114
744.488	47.7139
749.085	16.3599
753.68	31.1411
758.272	44.9238
762.861	34.9429
767.448	262.921
772.033	318.858
776.614	464.752
781.194	377.601
785.77	204.405
790.345	75.1616
794.916	25.874
799.485	4.47656
804.052	10.9536
808.616	25.5283
813.177	3.78809
817.736	26.9385
822.292	38.0513
826.846	55.6343
831.397	169.988
835.945	112.773
840.491	227.743
845.035	424.551
849.576	663.751
854.114	1078.11
858.65	2993.08
863.183	5262.1
867.713	3898.59
872.241	2786.43
876.767	3335.32
881.29	4717.39
885.81	5910.9
890.328	12623
894.843	24409
899.356	6686.1
903.866	2061.37
908.373	1631.76
912.878	2043.25
917.38	2330.95
921.88	2667.68
926.377	3194.58
930.872	3536.64
935.364	4018.41
939.853	4254.89
944.34	3937.12
948.824	2987.74
953.306	2084.47
957.785	1474.33
962.261	1111.49
966.735	581.755
971.207	392.691
975.675	264.248
980.141	277.891
984.605	194.15
989.066	106.04
993.524	138.529
997.98	98.1719
1002.43	0.007813
1006.88	71.0415
1011.33	47.3071
1015.78	78.106
1020.22	20.7671
1024.66	81.4541
1029.1	157.873
1033.53	139.299
1037.97	74.208
1042.4	58.8335
1046.82	206.442
1051.25	53.0049
1055.67	126.112
1060.09	58.0527
1064.51	72.9639
1068.92	28.0117
1073.33	19.1645
1077.74	130.604
1082.15	244.847
1086.55	637.15
1090.95	223.702
1095.35	52.0947
1099.75	3.46875
1104.14	147.965
1108.53	51.1055
1112.92	140.429
1117.31	69.9106
1121.69	344.697
1126.07	173.256
1130.45	32.4141
1134.82	22.6958
1139.19	82.5991
1143.57	30.5049
1147.93	95.6333
1152.3	83.7935
1156.66	46.4507
1161.02	65.2417
1165.38	21.5918
1169.73	96.9863
1174.08	105.101
1178.43	142.16
1182.78	165.11
1187.12	84.7812
1191.46	76.1177
1195.8	82.2095
1200.14	64.3984
1204.47	45.6431
1208.8	8.6748
1213.13	203.981
1217.46	47.2368
1221.78	69.2349
1226.1	153.169
1230.42	106.953
1234.73	117.715
1239.04	170.702
1243.35	71.8628
1247.66	79.4175
1251.97	38.7559
1256.27	12.8677
1260.57	44.7178
1264.86	104.345
1269.16	47.7808
1273.45	98.0088
1277.74	74.6611
1282.03	129.404
1286.31	82.4497
1290.59	77.7046
1294.87	143.242
1299.14	67.4048
1303.42	109.697
1307.69	10.0474
1311.95	2.83887
1316.22	227.77
1320.48	224.538
1324.74	158.293
1329	21.8042
1333.26	3.05615
1337.51	26.2266
1341.76	34.417
1346	50.2163
1350.25	65.9814
1354.49	125.184
1358.73	15.2163
1362.96	44.1338
1367.2	60.228
1371.43	205.959
1375.66	192.577
1379.88	318.371
1384.11	532.859
1388.33	936.481
1392.54	1222.22
1396.76	1174.66
1400.97	1111.98
1405.18	932.455
1409.39	917.784
1413.59	904.378
1417.8	956.556
1421.99	911.709
1426.19	892.116
1430.38	1178.21
1434.58	1318.98
1438.77	1668.9
1442.95	2304.9
1447.13	2981.87
1451.32	4224.86
1455.49	9517.38
1459.67	30693.6
1463.84	22211.8
1468.01	9233.52
1472.18	8852.19
1476.35	11845.8
1480.51	21671.5
1484.67	43678.5
1488.83	56706.7
1492.98	29498.5
1497.13	10207
1501.28	4277.67
1505.43	2241.51
1509.57	1217.36
1513.71	750.382
1517.85	581.88
1521.99	386.068
1526.12	249.478
1530.25	149.147
1534.38	170.309
1538.5	87.2451
1542.62	64.6191
1546.74	94.1934
1550.86	7.44043
1554.98	66.9981
1559.09	181.498
1563.2	33.044
1567.31	65.3603
