Measurement: Raman, 514 nm, depolarized, Raman Data Processed
Mineral: Whewellite
Rruff sample: R050240
Ideal chemistry: Ca(C_2_)^6+^O_4_H_2_O
Locality: Huron River, Milan, Ohio, USA
Source: Marcus Origlieri
Description: White fragment
Measured chemistry: Ca_1.00_C_2_O_4_Â·H_2_O
Pin_id: L01973
Orientation: Laser parallel to b* (0 1 0). Fiducial mark perpendicular to laser is parallel to -c [0 0 -1]
Raman shift (cm-1)	intensity
100.883	0
105.815	97.8144
110.744	72.7769
115.671	659.646
120.596	1686.97
125.519	3346.97
130.439	5891.95
135.356	7536.46
140.271	7011.11
145.184	4368.5
150.094	2055.64
155.002	930.541
159.908	317.912
164.811	219.353
169.711	236.141
174.61	570.074
179.505	1465.08
184.399	3046.51
189.29	5559.99
194.178	7024.83
199.064	8208.15
203.948	9238.3
208.829	7711.5
213.708	5418.97
218.585	4473.95
223.459	3795.12
228.33	1878.16
233.199	1151.82
238.066	939.106
242.93	950.845
247.792	1017.3
252.651	736.532
257.508	521.212
262.363	303.815
267.215	354.477
272.064	309.109
276.912	331.892
281.756	479.801
286.598	298.197
291.438	231.027
296.276	235.081
301.111	59.3945
305.943	6.66846
310.773	10.3545
315.601	17.6982
320.426	92.4497
325.248	34.6343
330.068	85.207
334.886	125.235
339.701	16.2739
344.514	14.5479
349.324	17.7495
354.132	27.5962
358.938	59.7114
363.741	2.0415
368.541	110.728
373.339	22.9302
378.135	66.4648
382.928	30.645
387.718	105.793
392.506	117.866
397.292	46.8511
402.075	105.063
406.856	146.878
411.634	166.413
416.41	145.628
421.183	127.527
425.954	104.059
430.722	152.185
435.488	131.935
440.251	88.311
445.012	117.299
449.77	149.929
454.526	122.273
459.28	248.281
464.03	341.413
468.779	400.674
473.525	501.243
478.268	674.261
483.009	1127.99
487.747	1889.3
492.483	4225.64
497.217	7861
501.948	9069.09
506.676	5242.76
511.402	2304.41
516.125	1368.96
520.846	1037.68
525.565	646.074
530.281	316.643
534.994	209.7
539.705	255.088
544.413	168.633
549.119	70.8335
553.822	134.001
558.523	71.2778
563.222	127.988
567.917	201.165
572.611	185.089
577.302	206.693
581.99	307.217
586.676	484.71
591.359	587.446
596.04	641.241
600.718	523.414
605.394	216.697
610.067	96.6113
614.737	66.3633
619.406	78.5977
624.071	35.8359
628.734	134.029
633.395	116.234
638.053	43.4463
642.708	127.681
647.361	117.036
652.012	158.523
656.66	114.92
661.305	146.369
665.948	90.6289
670.588	25.9844
675.226	163.259
679.861	50.6387
684.494	30.3389
689.124	51.8467
693.752	27.4795
698.377	77.0947
702.999	168.632
707.619	129.135
712.237	191.612
716.852	81.9482
721.464	9.71484
726.074	20.4766
730.681	17.6064
735.286	124.703
739.888	13.7119
744.488	41.3154
749.085	213.566
753.68	63.3906
758.272	76.1045
762.861	138.495
767.448	229.852
772.033	379.335
776.614	451.813
781.194	293.291
785.77	212.76
790.345	51.1934
794.916	37.623
799.485	173.026
804.052	40.3613
808.616	115.518
813.177	35.7549
817.736	197.1
822.292	113.117
826.846	5.52441
831.397	202.478
835.945	176.232
840.491	248.122
845.035	266.876
849.576	662.565
854.114	937.94
858.65	1804.31
863.183	2231
867.713	1611.68
872.241	1745.82
876.767	2352.62
881.29	2885.24
885.81	3492.92
890.328	5893.07
894.843	9941.17
899.356	3096.33
903.866	1105.51
908.373	922.717
912.878	962.944
917.38	1229.2
921.88	1290.48
926.377	1382.79
930.872	1476.78
935.364	1629.99
939.853	1503.5
944.34	1337.95
948.824	1094.45
953.306	698.814
957.785	557.592
962.261	247.033
966.735	137.235
971.207	142.115
975.675	56.4463
980.141	89.5908
984.605	132.699
989.066	121.76
993.524	41.0781
997.98	47.3691
1002.43	64.8945
1006.88	106.413
1011.33	103.057
1015.78	96.4482
1020.22	46.3018
1024.66	23.0771
1029.1	61.667
1033.53	56.7207
1037.97	54.0205
1042.4	130.713
1046.82	175.545
1051.25	145.266
1055.67	31.3965
1060.09	42.6621
1064.51	24.9941
1068.92	81.6816
1073.33	164.379
1077.74	174.997
1082.15	697.369
1086.55	1220.06
1090.95	377.448
1095.35	104.783
1099.75	120.226
1104.14	49.1025
1108.53	175.123
1112.92	70.0527
1117.31	192.216
1121.69	233.071
1126.07	74.3389
1130.45	131.183
1134.82	95.3428
1139.19	30.8398
1143.57	74.29
1147.93	93.082
1152.3	43.9668
1156.66	136.363
1161.02	31.1133
1165.38	200.18
1169.73	139.602
1174.08	114.122
1178.43	179.194
1182.78	138.823
1187.12	218.675
1191.46	102.714
1195.8	147.279
1200.14	65.6719
1204.47	60.5137
1208.8	346.699
1213.13	219.69
1217.46	155.005
1221.78	184.506
1226.1	6.19141
1230.42	274.958
1234.73	52.4346
1239.04	201.223
1243.35	268.384
1247.66	25.1143
1251.97	97.4609
1256.27	60.8574
1260.57	68.5498
1264.86	61.6172
1269.16	54.4228
1273.45	43.208
1277.74	148.987
1282.03	89.8701
1286.31	65.9326
1290.59	94.7871
1294.87	180.676
1299.14	52.5469
1303.42	8.91211
1307.69	13.8916
1311.95	178.234
1316.22	145.875
1320.48	49.6611
1324.74	67.5762
1329	14.1846
1333.26	34.6826
1337.51	121.256
1341.76	21.8232
1346	209.94
1350.25	58.209
1354.49	84.3603
1358.73	10.2324
1362.96	75.8623
1367.2	79.9375
1371.43	191.006
1375.66	107.18
1379.88	32.9853
1384.11	346.745
1388.33	316.66
1392.54	549.636
1396.76	490.59
1400.97	660.519
1405.18	659.672
1409.39	632.385
1413.59	624.857
1417.8	934.595
1421.99	769.834
1426.19	827.139
1430.38	890.379
1434.58	1180.32
1438.77	1233.91
1442.95	1605.12
1447.13	1902.32
1451.32	2545.34
1455.49	4784.51
1459.67	12196.6
1463.84	10231.7
1468.01	6445.81
1472.18	7170.09
1476.35	10039
1480.51	18746
1484.67	37231.2
1488.83	48063.7
1492.98	25017.9
1497.13	8907.41
1501.28	3688.26
1505.43	1816.63
1509.57	1169.11
1513.71	714.935
1517.85	347.615
1521.99	184.074
1526.12	238.747
1530.25	8.64746
1534.38	167.816
1538.5	106.494
1542.62	31.1055
1546.74	43.2715
1550.86	10.6758
1554.98	43.3418
1559.09	134.447
1563.2	176.135
1567.31	2.39648
