Measurement: Raman, 514 nm, depolarized, Raman Data Processed
Mineral: Whitlockite
Rruff sample: R070675
Ideal chemistry: Ca_9_Mg(PO_4_)_6_(PO_3_OH)
Locality: Palermo mine, North Groton, New Hampshire, USA
Source: Rock Currier
Description: Colorless blocky modified rhombic crystals
Measured chemistry: (Ca_8.70_Na_0.27_Sr_0.02_Mn_0.01_)_Σ=9_(Mg_0.73_Fe^3+^_0.19_Al_0.08_)_Σ=1_(P_1.00_O_4_)_6_(P_1.00_O_3_((OH)_0.58_F_0.42_)_Σ=1_); OH estimated by charge balance
Pin_id: M00691
Orientation: Laser parallel to a* (1 0 0). Fiducial mark perpendicular to laser is parallel to c [0 0 1]
Raman shift (cm-1)	intensity
136.104	0
141.056	2.53516
146.005	256.531
150.951	344.615
155.894	325.954
160.834	253.771
165.771	143.391
170.705	163.544
175.635	196.572
180.563	113.602
185.487	17.0464
190.409	54.6489
195.327	127.154
200.242	39.3154
205.155	9.54346
210.064	51.0073
214.97	160.812
219.873	184.284
224.773	134.587
229.67	189.918
234.564	214.682
239.455	169.425
244.342	195.3
249.227	325.204
254.109	418.954
258.988	335.537
263.864	509.34
268.736	585.003
273.606	568.611
278.473	831.172
283.337	874.237
288.197	948.013
293.055	791.468
297.91	689.892
302.762	556.714
307.611	231.784
312.456	187.003
317.299	102.291
322.139	25.3965
326.976	125.842
331.81	30.0469
336.641	38.7612
341.469	43.6797
346.294	23.3779
351.116	54.7158
355.936	24.6909
360.752	6.44678
365.565	6.20019
370.376	36.7231
375.183	88.728
379.988	220.816
384.789	422.409
389.588	759.648
394.384	1273.8
399.177	2034.7
403.967	2569.59
408.754	2524.5
413.538	2070.45
418.319	1658.43
423.097	1542.41
427.873	1601.41
432.646	1720.43
437.415	1626.49
442.182	1508.51
446.946	1384.51
451.707	1219.52
456.465	1106.48
461.221	933.363
465.973	810.172
470.723	681.963
475.47	535.562
480.214	460.247
484.955	487.361
489.693	349.125
494.429	219.737
499.161	21.4688
503.891	67.022
508.618	70.0898
513.342	55.9722
518.063	107.817
522.782	151.861
527.497	184.171
532.21	251.745
536.92	463.609
541.627	743.365
546.332	1102.19
551.034	1111.24
555.732	952.988
560.428	910.264
565.122	747.889
569.812	590.867
574.5	401.443
579.185	369.959
583.867	410.153
588.546	577.847
593.223	683.482
597.897	700.662
602.568	825.604
607.236	976.988
611.902	1007.35
616.565	1020.31
621.225	1470.47
625.882	1752.87
630.537	2434.04
635.189	2222.24
639.838	868.937
644.484	380.864
649.128	245.597
653.769	144.786
658.407	164.443
663.043	74.2046
667.676	3.93701
672.306	80.855
676.933	77.5371
681.558	0.45166
686.18	5.99756
690.799	16.6499
695.416	91.7139
700.03	60.1528
704.641	78.8633
709.25	27.9858
713.856	39.3379
718.459	126.312
723.059	67.9702
727.657	100.257
732.253	69.1201
736.845	92.6782
741.435	58.9565
746.022	107.936
750.607	82.6177
755.189	32.9951
759.768	13.9243
764.345	93.4561
768.919	0.414063
773.49	11.6958
778.059	2.57324
782.625	64.4253
787.189	17.7817
791.749	81.8374
796.308	35.5029
800.863	43.6558
805.416	51.167
809.967	3.85644
814.515	19.5576
819.06	102.64
823.603	65.9414
828.143	6.36133
832.68	38.106
837.215	19.4966
841.747	124.691
846.277	110.412
850.804	134.517
855.328	120.786
859.85	147.536
864.37	36.9243
868.886	145.041
873.401	115.683
877.912	175.286
882.421	124.563
886.928	389.774
891.432	594.839
895.933	857.376
900.432	903.563
904.929	1169.25
909.423	1305.83
913.914	1935.73
918.403	3038.41
922.889	3163.67
927.373	1964.66
931.854	1093.61
936.332	1128.11
940.809	1390.35
945.282	1934.93
949.753	3761.98
954.222	8998.85
958.688	21699.5
963.152	32625.8
967.613	33836.8
972.071	21357.3
976.527	8361.19
980.981	3663.57
985.432	3225.41
989.881	3362.68
994.327	2924.39
998.771	2068.59
1003.21	1438.26
1007.65	1233.37
1012.09	1195.92
1016.52	1523.91
1020.95	1661.36
1025.38	1915.32
1029.81	1911.43
1034.23	1511.66
1038.65	1067.92
1043.07	920.657
1047.49	689.252
1051.9	613.746
1056.31	618.605
1060.72	707.631
1065.13	909.946
1069.54	1097.33
1073.94	1206.15
1078.34	1540.42
1082.73	2120.64
1087.13	2405.45
1091.52	2240.62
1095.91	1925.37
1100.3	1712.3
1104.68	1437.47
1109.07	1192.15
1113.45	793.886
1117.82	572.862
1122.2	460.152
1126.57	289.645
1130.94	188.788
1135.31	167.648
1139.68	99.104
1144.04	77.3154
1148.4	129.843
1152.76	48.2832
1157.12	49.8613
1161.47	63.6191
1165.82	14.46
1170.17	87.333
1174.52	35.417
1178.87	32.3823
1183.21	0.106445
1187.55	53.667
1191.88	32.1621
1196.22	28.187
1200.55	18.3755
1204.88	76.9883
1209.21	62.1836
1213.54	18.0064
1217.86	32.8413
1222.18	97.2964
1226.5	51.8965
1230.82	68.4736
1235.13	217.874
1239.44	184.107
1243.75	54.2353
1248.06	41.2573
1252.37	164.159
1256.67	84.9307
1260.97	83.9971
1265.27	151.487
1269.56	150.82
1273.86	55.0205
1278.15	66.042
1282.44	143.299
1286.72	151.298
1291.01	82.2422
1295.29	63.4971
1299.57	41.2578
1303.85	1.24219
1308.12	130.375
1312.39	8.26855
1316.67	165.368
1320.93	87.1562
1325.2	137.575
1329.46	60.3877
1333.73	213.993
1337.98	59.0801
1342.24	249.253
1346.5	95.9873
1350.75	138.919
1355	59.5498
1359.25	135.352
1363.49	78.9053
1367.74	193.129
1371.98	105.415
1376.22	74.792
1380.46	83.7314
1384.69	101.391
1388.92	215.043
1393.15	93.6689
1397.38	40.7441
1401.61	132.991
1405.83	29.7236
1410.05	14.4365
1414.27	127.794
1418.49	81.8867
1422.7	24.7324
1426.92	31.8691
1431.13	118.487
1435.34	56.9004
1439.54	66.5225
1443.75	144.526
1447.95	172.602
1452.15	215.035
1456.35	185.603
1460.54	216.65
1464.73	147.892
1468.92	116.758
1473.11	132.684
1477.3	252.493
1481.48	70.4648
1485.67	87.04
1489.85	94.6846
1494.02	59.791
1498.2	141.26
1502.37	51.9697
1506.55	83.8984
1510.71	114.542
1514.88	58.3818
1519.05	59.7832
1523.21	168.7
1527.37	116.592
1531.53	164.445
1535.68	88.0459
1539.84	43.4268
1543.99	128.432
1548.14	145.752
1552.29	134.736
1556.44	84.0674
1560.58	76.5781
1564.72	84.8564
1568.86	25.665
1573	124.688
1577.13	102.523
