Measurement: Raman, 514 nm, depolarized, Raman Data Processed
Mineral: Whitlockite
Rruff sample: R070675
Ideal chemistry: Ca_9_Mg(PO_4_)_6_(PO_3_OH)
Locality: Palermo mine, North Groton, New Hampshire, USA
Source: Rock Currier
Description: Colorless blocky modified rhombic crystals
Measured chemistry: (Ca_8.70_Na_0.27_Sr_0.02_Mn_0.01_)_Σ=9_(Mg_0.73_Fe^3+^_0.19_Al_0.08_)_Σ=1_(P_1.00_O_4_)_6_(P_1.00_O_3_((OH)_0.58_F_0.42_)_Σ=1_); OH estimated by charge balance
Pin_id: M00295
Orientation: Laser parallel to c* (0 0 1). Fiducial mark perpendicular to laser is parallel to a [1 0 0]
Raman shift (cm-1)	intensity
132.388	0
137.342	37.6318
142.294	127.157
147.242	381.825
152.187	706.785
157.13	959.618
162.069	1093.57
167.005	1127.64
171.938	1263.43
176.868	1257.65
181.794	1010.4
186.718	626.29
191.639	448.994
196.556	322.853
201.471	378.553
206.382	287.516
211.29	362.533
216.196	416.955
221.098	522.148
225.997	591.251
230.894	579.957
235.787	620.374
240.677	781.109
245.564	782.482
250.448	833.714
255.329	909.97
260.207	876.464
265.082	853.947
269.954	740.356
274.823	860.689
279.689	931.904
284.552	919.82
289.412	763.522
294.269	537.127
299.123	357.721
303.974	273.947
308.822	223.587
313.667	129.465
318.509	96.4644
323.349	28.5142
328.185	70.4426
333.018	58.6072
337.848	67.1189
342.676	26.1497
347.5	27.3621
352.321	102.476
357.14	19.8076
361.955	46.5046
366.768	19.0095
371.578	18.3557
376.384	108.023
381.188	189.175
385.989	446.592
390.787	791.302
395.582	1292.48
400.374	1877.56
405.164	2433.63
409.95	2497.69
414.733	2091.72
419.514	1768.77
424.292	1808.8
429.066	2071.84
433.838	2383.88
438.607	2732.85
443.373	2821.74
448.137	2958.53
452.897	2765.18
457.655	2396.73
462.409	2068.15
467.161	1660.65
471.91	1414.37
476.656	1306.02
481.399	1445.19
486.14	1187.88
490.877	859.254
495.612	471.926
500.344	235.413
505.073	156.564
509.799	129.177
514.523	82.8013
519.243	53.2769
523.961	232.323
528.676	347.918
533.388	433.002
538.097	795.946
542.804	1432.57
547.508	2356.23
552.209	2527.73
556.907	2450.26
561.602	2273.67
566.295	1581.73
570.984	1056.2
575.671	580.814
580.356	597.305
585.037	905.73
589.716	1561.02
594.392	1802.27
599.065	2129.06
603.735	2606.32
608.403	2140.06
613.068	1627.66
617.73	1593.12
622.389	1499.89
627.046	1392.09
631.7	1328.4
636.351	745.362
641	229.371
645.645	54.8179
650.288	96.8921
654.929	171.302
659.566	34.0322
664.201	25.5771
668.833	17.977
673.463	96.2817
678.09	15.9541
682.714	55.0312
687.335	70.228
691.954	80.1548
696.57	98.4717
701.183	108.326
705.793	139.39
710.401	56.3887
715.007	84.9394
719.609	35.0376
724.209	23.6562
728.806	112.8
733.401	3.53125
737.993	103.737
742.582	105.531
747.169	10.0679
751.753	41.7593
756.334	40.9209
760.913	33.4878
765.489	37.561
770.062	24.2646
774.633	5.49756
779.201	44.2158
783.766	25.2861
788.329	18.1211
792.889	4.66016
797.447	75.2148
802.002	136.19
806.554	46.8833
811.104	41.6182
815.651	17.4097
820.196	20.458
824.738	42.4692
829.277	38.6313
833.814	101.226
838.348	15.353
842.88	6.28809
847.409	71.3516
851.935	62.6079
856.459	129.543
860.98	109.814
865.499	118.711
870.015	189.885
874.529	169.773
879.04	116.834
883.548	349.436
888.054	279.344
892.558	540.075
897.058	769.444
901.557	819.949
906.052	1069.3
910.546	1484.88
915.036	2327.57
919.524	3687.03
924.01	4748.13
928.493	3600.56
932.974	1898.52
937.452	1803.69
941.927	2459.65
946.4	4002.49
950.871	8286.96
955.339	20136.5
959.804	41985.9
964.267	57365.4
968.728	57103.8
973.185	33152.2
977.641	12949.5
982.094	6160.81
986.544	5096.56
990.992	5368.91
995.438	5554.85
999.881	4822.39
1004.32	3702.55
1008.76	3063.42
1013.2	3135.9
1017.63	3640.01
1022.06	4271.87
1026.49	4554.52
1030.91	4123.12
1035.34	3221.68
1039.76	2406.47
1044.18	1862.94
1048.59	1471.57
1053.01	1504.18
1057.42	1848.83
1061.83	1998.19
1066.23	1845.58
1070.64	1693.31
1075.04	1796.78
1079.44	1921.15
1083.83	2055.43
1088.23	2111.19
1092.62	2122.07
1097.01	1861.27
1101.39	1531.48
1105.78	1311.82
1110.16	982.585
1114.54	723.72
1118.92	519.175
1123.29	298.923
1127.67	293.957
1132.04	127.005
1136.4	250.32
1140.77	148.255
1145.13	222.991
1149.49	204.851
1153.85	165.866
1158.21	178.643
1162.56	95.6235
1166.91	39.3599
1171.26	79.7192
1175.61	71.7978
1179.95	28.1162
1184.29	14.2085
1188.63	58.5395
1192.97	16.9873
1197.3	18.8975
1201.64	77.2134
1205.97	54.3179
1210.29	15.7398
1214.62	24.8306
1218.94	31.8628
1223.26	110.364
1227.58	37.2432
1231.9	155.825
1236.21	160.949
1240.52	80.1641
1244.83	150.125
1249.14	180.47
1253.44	81.0562
1257.74	60.9746
1262.04	58.1616
1266.34	70.6572
1270.64	193.221
1274.93	111.332
1279.22	26.3921
1283.51	29.3008
1287.79	201.806
1292.08	32.1528
1296.36	120.143
1300.64	129.033
1304.92	154.293
1309.19	79.6973
1313.46	61.5
1317.73	130.765
1322	90.4761
1326.27	99.4146
1330.53	7.99707
1334.79	53.9341
1339.05	209.406
1343.31	46.3145
1347.56	183.868
1351.81	36.1826
1356.06	33.1069
1360.31	200.385
1364.56	0.962891
1368.8	79.9351
1373.04	111.26
1377.28	118.7
1381.52	144.848
1385.75	148.517
1389.98	123.527
1394.21	55.8003
1398.44	156.94
1402.66	139.334
1406.89	236.315
1411.11	82.0601
1415.33	34.146
1419.54	52.3999
1423.76	133.171
1427.97	110.264
1432.18	28.2231
1436.39	140.909
1440.59	164.162
1444.8	261.678
1449	244.966
1453.2	221.81
1457.39	214.032
1461.59	224.781
1465.78	236.228
1469.97	156.266
1474.16	153.19
1478.35	75.4404
1482.53	123.202
1486.71	59.2549
1490.89	124.208
1495.07	110.421
1499.24	64.2881
1503.42	78.8975
1507.59	12.3887
1511.76	102.818
1515.92	109.162
1520.09	244.392
1524.25	7.43066
1528.41	56.0156
1532.57	90.3467
1536.72	64.4111
1540.88	130.176
1545.03	24.9375
1549.18	23.54
1553.33	23.8574
1557.47	135.211
1561.62	66.4883
1565.76	90.2393
1569.89	41.6426
1574.03	1.36621
1578.17	0
