Measurement: Raman, 514 nm, depolarized, Raman Data Processed
Mineral: Witherite
Rruff sample: R040040
Ideal chemistry: BaCO_3_
Locality: Cave-in-Rock, Hardin County, Illinois, USA
Source: University of Arizona Mineral Museum
Description: Tan colored prismatic group of columnar crystals
Measured chemistry: (Ba_0.98_Sr_0.02_)_Î£=1_CO_3_; CO_2_ estimated by difference
Pin_id: L00131
Orientation: Laser parallel to -b* (0 -1 0). Fiducial mark perpendicular to laser is parallel to c [0 0 1]
Raman shift (cm-1)	intensity
102.428	0
106.604	23.996
110.777	493.881
114.949	662.754
119.119	626.712
123.286	952.424
127.452	2174.71
131.615	4998.25
135.777	13109.4
139.937	8815.93
144.094	3649
148.25	2113.46
152.403	1927.97
156.555	2902.1
160.705	4766.92
164.853	1843.62
168.998	700.124
173.142	446.625
177.284	363.282
181.424	1010.21
185.562	743.914
189.698	504.667
193.831	225.289
197.963	366.575
202.093	688.608
206.221	301.405
210.347	244.939
214.472	549.16
218.594	831.708
222.714	665.868
226.832	1170.68
230.948	1176.02
235.063	572.023
239.175	248.578
243.286	386.043
247.394	683.378
251.501	353.085
255.605	151.26
259.708	269.867
263.808	1.186
267.907	423.862
272.004	254.542
276.099	369.637
280.192	435.852
284.283	73.542
288.372	242.342
292.459	611.996
296.544	502.312
300.627	83.178
304.709	264.484
308.788	616.253
312.865	378.144
316.941	100.256
321.015	412.578
325.086	565.147
329.156	142.16
333.224	239.491
337.29	303.221
341.354	646.056
345.416	169.946
349.476	52.376
353.534	424.092
357.591	665.896
361.645	474.052
365.698	228.567
369.748	492.725
373.797	855.31
377.844	428.045
381.889	10.657
385.932	563.171
389.973	727.39
394.012	280.183
398.049	15.052
402.084	435.092
406.118	948.214
410.15	431.593
414.179	218.621
418.207	302.026
422.233	805.52
426.257	593.38
430.279	212.7
434.299	298.94
438.318	756.146
442.334	630.329
446.349	174.644
450.361	189.388
454.372	764.755
458.381	760.553
462.388	325.226
466.394	9.913
470.397	685.255
474.398	684.359
478.398	329.271
482.396	223.786
486.391	418.742
490.385	855.744
494.377	620.199
498.368	75.198
502.356	120.26
506.342	675.371
510.327	734.74
514.31	317.773
518.291	96.995
522.27	512.584
526.247	687.754
530.222	562.86
534.196	57.982
538.167	153.094
542.137	757.799
546.105	752.935
550.071	238.246
554.035	16.286
557.998	536.983
561.958	812.354
565.917	517.245
569.874	45.806
573.829	159.18
577.782	743.897
581.733	1049.95
585.683	174.646
589.63	80.203
593.576	284.662
597.52	849.629
601.462	797.075
605.402	22.272
609.341	7.488
613.277	362.566
617.212	790.79
621.145	465.267
625.076	19.83
629.006	174.141
632.933	624.367
636.859	784.106
640.783	437.925
644.705	52.114
648.625	155.713
652.543	610.35
656.46	754.504
660.375	316.521
664.288	30.922
668.199	232.709
672.108	825.57
676.016	965.686
679.921	623.389
683.825	193.547
687.727	588.928
691.628	3861.33
695.526	1933.75
699.423	519.77
703.318	117.393
707.211	307.645
711.102	807.986
714.992	839.896
718.879	410.303
722.765	15.207
726.649	192.561
730.532	753.527
734.412	1254.53
738.291	615.205
742.168	77.553
746.043	302.244
749.916	772.486
753.788	1222.59
757.658	682.613
761.526	62.025
765.392	70.822
769.257	500.621
773.119	1028.65
776.98	947.693
780.839	408.076
784.697	63.117
788.552	266.357
792.406	1054.98
796.258	1283.52
800.108	711.309
803.957	9.635
807.804	129.434
811.649	587.064
815.492	1044.44
819.333	809.135
823.173	306.184
827.011	202.943
830.847	391.748
834.681	843.83
838.514	877.689
842.345	761.715
846.174	117.766
850.001	46.285
853.827	580.904
857.651	1206.59
861.473	1212.65
865.293	438.344
869.112	85.621
872.928	159.381
876.744	823.082
880.557	1378.24
884.369	933.135
888.178	298.844
891.987	22.42
895.793	86.873
899.598	781.861
903.401	1126.89
907.202	911.863
911.001	334.252
914.799	158.336
918.595	312.711
922.389	877.42
926.182	1228.43
929.972	1293.21
933.761	497.418
937.549	93.844
941.334	440.688
945.118	1179.99
948.9	1324.65
952.681	1378.82
956.459	657.525
960.236	211.984
964.012	215.51
967.785	772.016
971.557	1387.12
975.327	1492.17
979.095	952.629
982.862	157.566
986.627	144.322
990.39	319.232
994.152	1119.27
997.912	1425.35
1001.67	1242.16
1005.43	328.688
1009.18	107.562
1012.93	402.08
1016.68	855.322
1020.43	1084.69
1024.18	1375.83
1027.93	807.83
1031.67	233.248
1035.42	67.723
1039.16	712.141
1042.9	1356.67
1046.63	1640.13
1050.37	1702.1
1054.11	1440.1
1057.84	4315.14
1061.57	25620.6
1065.3	1733.74
1069.03	1657.54
1072.75	1860.53
1076.47	1873.21
1080.2	1075.97
1083.92	217.307
1087.64	224.611
1091.36	517.084
1095.07	1019.17
1098.79	1891.43
1102.5	1555.55
1106.21	1089.81
1109.92	461.697
1113.62	73.357
1117.33	285.84
1121.04	955.953
1124.74	1527.69
1128.44	1557
1132.14	1051.78
1135.83	550.746
1139.53	61.535
1143.22	6.232
1146.92	858.291
1150.61	1359.85
1154.3	1911.52
1157.98	1641.61
1161.67	947.609
1165.35	41.26
1169.04	65.383
1172.72	364.059
1176.4	699.658
1180.07	1304.29
1183.75	1858.6
1187.42	1545.58
1191.1	896.309
1194.77	56.961
1198.44	5.863
1202.1	403.705
1205.77	1160.82
1209.43	1701.9
1213.1	1853.05
1216.76	1675.34
1220.42	1187.19
1224.07	576.908
1227.73	386.992
1231.38	695.805
1235.04	1273.4
1238.69	1902.75
1242.34	2029.41
1245.99	1875.43
1249.63	1581.72
1253.28	551.82
1256.92	558.473
1260.56	322.422
1264.2	737.238
1267.84	1560.2
1271.48	2040.55
1275.11	1931.44
1278.74	1780.27
1282.38	1249.88
1286.01	496.855
1289.63	127.176
1293.26	390.725
1296.89	919.799
1300.51	1112.13
1304.13	1910.62
1307.75	1903.88
1311.37	1323.93
1314.99	907.99
1318.6	578.496
1322.22	32.717
1325.83	205.447
1329.44	291.998
1333.05	928.861
1336.66	1794.04
1340.26	2071.05
1343.87	2091.79
1347.47	1635.07
1351.07	757.707
1354.67	388.098
1358.27	150.031
1361.86	140.898
1365.46	932.074
1369.05	1522.43
1372.64	1541.71
1376.23	1271.7
1379.82	2122.84
1383.41	1570.7
1386.99	811.332
1390.57	259.838
1394.16	399.164
1397.74	147.236
1401.32	722.807
1404.89	1210.42
1408.47	1797.96
1412.04	2434.51
1415.61	2678.79
1419.18	2511.91
1422.75	2757.97
1426.32	935.199
1429.89	339.107
1433.45	138.996
1437.01	299.338
1440.58	393.859
1444.13	1180.53
1447.69	2059.65
1451.25	2280.12
1454.81	2472.08
1458.36	2054.96
1461.91	1631.81
1465.46	1187.24
1469.01	624.656
1472.56	137.549
1476.1	262.043
1479.64	706.678
1483.19	1076.5
1486.73	1644.66
1490.27	2195.78
1493.81	2784.41
1497.34	2446.07
1500.88	2176.66
1504.41	1301.22
1507.94	1112.87
1511.47	193.775
1515	70.379
1518.53	6.746
1522.05	0
