Measurement: Raman, 514 nm, depolarized, Raman Data Processed
Mineral: Witherite
Rruff sample: R040040
Ideal chemistry: BaCO_3_
Locality: Cave-in-Rock, Hardin County, Illinois, USA
Source: University of Arizona Mineral Museum
Description: Tan colored prismatic group of columnar crystals
Measured chemistry: (Ba_0.98_Sr_0.02_)_Î£=1_CO_3_; CO_2_ estimated by difference
Pin_id: L00241
Orientation: Laser parallel to -a* (-1 0 0). Fiducial mark perpendicular to laser is parallel to -c [0 0 -1]
Raman shift (cm-1)	intensity
102.428	0
106.604	14.114
110.777	69.792
114.949	239.34
119.119	441.138
123.286	839.262
127.452	1987.86
131.615	5279.38
135.777	14478
139.937	11114.1
144.094	4782.72
148.25	3643.42
152.403	4641.78
156.555	5648.93
160.705	5525.4
164.853	2200.28
168.998	652.473
173.142	353.991
177.284	309.981
181.424	992.539
185.562	565.284
189.698	254.855
193.831	222.258
197.963	240.276
202.093	304.299
206.221	185.37
210.347	310.275
214.472	627.487
218.594	1327.22
222.714	1089.76
226.832	1111.94
230.948	784.808
235.063	349.815
239.175	212.917
243.286	225.317
247.394	219.542
251.501	114.901
255.605	74.386
259.708	35.936
263.808	258.459
267.907	178.471
272.004	147.758
276.099	72.392
280.192	63.615
284.283	12.443
288.372	82.984
292.459	170.741
296.544	88.747
300.627	16.135
304.709	131.067
308.788	206.386
312.865	77.537
316.941	15.562
321.015	101.616
325.086	123.424
329.156	17.1
333.224	17.316
337.29	77.23
341.354	188.774
345.416	105.862
349.476	3.333
353.534	158.067
357.591	190.634
361.645	128.753
365.698	98.431
369.748	215.897
373.797	191.387
377.844	198.843
381.889	38.304
385.932	210.626
389.973	248.011
394.012	98.377
398.049	108.448
402.084	235.445
406.118	272.647
410.15	166.939
414.179	132.247
418.207	178.42
422.233	266.564
426.257	187.767
430.279	65.339
434.299	164.685
438.318	253.49
442.334	189.579
446.349	85.792
450.361	144.856
454.372	306.699
458.381	217.631
462.388	109.063
466.394	24.906
470.397	255.301
474.398	186.409
478.398	9.99
482.396	72.515
486.391	175.234
490.385	180.241
494.377	83.313
498.368	14.846
502.356	4.638
506.342	185.657
510.327	153.36
514.31	109.295
518.291	18.542
522.27	184.696
526.247	187.737
530.222	119.722
534.196	72.67
538.167	76.533
542.137	192.241
546.105	207.075
550.071	20.902
554.035	30.326
557.998	101.253
561.958	196.814
565.917	27.316
569.874	25.51
573.829	142.137
577.782	202.503
581.733	323.104
585.683	0.528
589.63	39.191
593.576	108.558
597.52	218.413
601.462	239.51
605.402	25.722
609.341	26.211
613.277	171.982
617.212	161.966
621.145	98.39
625.076	0.276
629.006	80.923
632.933	178.023
636.859	187.157
640.783	63.318
644.705	29.465
648.625	103.529
652.543	265.594
656.46	246.672
660.375	91.457
664.288	29.133
668.199	136.801
672.108	213.03
676.016	292.221
679.921	169.03
683.825	122.444
687.727	676.818
691.628	3008.44
695.526	1271.82
699.423	437.57
703.318	164.78
707.211	205.839
711.102	206.841
714.992	183.44
718.879	145.285
722.765	41.661
726.649	37.668
730.532	153.421
734.412	398.961
738.291	286.434
742.168	4.287
746.043	111.895
749.916	272.14
753.788	289.344
757.658	241.441
761.526	29.449
765.392	48.262
769.257	166.877
773.119	249.644
776.98	322.518
780.839	98.917
784.697	13.502
788.552	153.149
792.406	351.729
796.258	266.057
800.108	183.784
803.957	51.903
807.804	54.844
811.649	146.505
815.492	326.022
819.333	176.468
823.173	63.987
827.011	25.906
830.847	124.594
834.681	205.051
838.514	271.98
842.345	166.521
846.174	69.737
850.001	16.99
853.827	129.32
857.651	308.411
861.473	347.554
865.293	69.483
869.112	102.532
872.928	9.698
876.744	427.376
880.557	310.899
884.369	221.611
888.178	105.486
891.987	8.148
895.793	90.581
899.598	159.179
903.401	315.761
907.202	221.32
911.001	113.568
914.799	135.805
918.595	60.099
922.389	294.556
926.182	359.45
929.972	470.823
933.761	190.119
937.549	17.167
941.334	191.874
945.118	422.125
948.9	394.691
952.681	392.097
956.459	228.581
960.236	110.66
964.012	149.596
967.785	222.543
971.557	379.323
975.327	471.548
979.095	280.146
982.862	18.578
986.627	50.433
990.39	90.356
994.152	407.8
997.912	452.611
1001.67	350.103
1005.43	217.712
1009.18	55.976
1012.93	207.021
1016.68	364.807
1020.43	432.986
1024.18	480.26
1027.93	168.28
1031.67	138.433
1035.42	63.104
1039.16	541.34
1042.9	513.434
1046.63	625.697
1050.37	849.099
1054.11	871.933
1057.84	4744.29
1061.57	44897.2
1065.3	2548.91
1069.03	850.645
1072.75	681.055
1076.47	492.783
1080.2	274.326
1083.92	155.767
1087.64	147.121
1091.36	268.819
1095.07	340.258
1098.79	611.93
1102.5	534.118
1106.21	345.952
1109.92	267.645
1113.62	108.942
1117.33	160.624
1121.04	348.374
1124.74	469.888
1128.44	447.342
1132.14	238.992
1135.83	181.965
1139.53	62.775
1143.22	3.987
1146.92	329.325
1150.61	453.251
1154.3	593.814
1157.98	386.624
1161.67	245.644
1165.35	25.793
1169.04	65.37
1172.72	221.377
1176.4	270.814
1180.07	519.743
1183.75	601.122
1187.42	510.909
1191.1	299.906
1194.77	18.138
1198.44	95.91
1202.1	225.138
1205.77	373.19
1209.43	560.124
1213.1	667.13
1216.76	534.539
1220.42	441.421
1224.07	257.496
1227.73	263.516
1231.38	400.607
1235.04	498.722
1238.69	734.617
1242.34	819.053
1245.99	603.068
1249.63	568.408
1253.28	242.842
1256.92	327.508
1260.56	221.064
1264.2	363.966
1267.84	716.216
1271.48	607.998
1275.11	659.527
1278.74	460.126
1282.38	321.502
1286.01	161.47
1289.63	29.143
1293.26	159.727
1296.89	337.527
1300.51	272.409
1304.13	472.359
1307.75	470.545
1311.37	335.562
1314.99	197.078
1318.6	165.355
1322.22	150.758
1325.83	15.777
1329.44	70.521
1333.05	274.535
1336.66	568.659
1340.26	601.299
1343.87	665.579
1347.47	488.865
1351.07	371.625
1354.67	163.251
1358.27	55.442
1361.86	88.484
1365.46	420.167
1369.05	511.067
1372.64	541.208
1376.23	312.889
1379.82	681.173
1383.41	607.986
1386.99	454.513
1390.57	51.062
1394.16	86.959
1397.74	91.15
1401.32	420.439
1404.89	567.758
1408.47	717.56
1412.04	860.564
1415.61	973.452
1419.18	1052.58
1422.75	1889.3
1426.32	675.457
1429.89	281.697
1433.45	85.27
1437.01	112.396
1440.58	166.782
1444.13	344.187
1447.69	508.874
1451.25	741.21
1454.81	821.042
1458.36	618.009
1461.91	387.904
1465.46	237.215
1469.01	259.94
1472.56	142.652
1476.1	112.465
1479.64	300.701
1483.19	412.758
1486.73	418.411
1490.27	615.6
1493.81	984.994
1497.34	771.655
1500.88	639.657
1504.41	473.252
1507.94	388.648
1511.47	1.354
1515	0.286
