Measurement: Raman, 514 nm, depolarized, Raman Data Processed
Mineral: Witherite
Rruff sample: R040040
Ideal chemistry: BaCO_3_
Locality: Cave-in-Rock, Hardin County, Illinois, USA
Source: University of Arizona Mineral Museum
Description: Tan colored prismatic group of columnar crystals
Measured chemistry: (Ba_0.98_Sr_0.02_)_Î£=1_CO_3_; CO_2_ estimated by difference
Pin_id: L00180
Orientation: Laser parallel to -c* (0 0 -1). Fiducial mark perpendicular to laser is parallel to -a [-1 0 0]
Raman shift (cm-1)	intensity
124.675	0
128.84	19.162
133.003	363.91
137.164	477.389
141.323	329.256
145.48	649.585
149.635	840.156
153.788	1372.32
157.939	3752.64
162.088	3278.47
166.235	889.359
170.38	235.241
174.523	56.575
178.664	84.108
182.803	73.541
186.94	43.443
191.076	32.299
195.209	102.405
199.34	50.988
203.47	57.281
207.597	129.549
211.722	387.753
215.846	687.982
219.967	888.648
224.087	1271.18
228.204	855.562
232.32	417.576
236.434	345.502
240.545	229.094
244.655	123.532
248.763	230.171
252.869	198.304
256.973	118.562
261.075	38.679
265.175	7.362
269.273	265.02
273.369	163.061
277.463	15.369
281.556	150.53
285.646	165.222
289.734	85.012
293.821	17.37
297.905	98.104
301.988	159.414
306.069	32.302
310.147	10.385
314.224	139.248
318.299	83.13
322.372	2.806
326.443	1.397
330.512	125.746
334.579	231.807
338.645	48.05
342.708	32.754
346.769	157.898
350.829	181.959
354.887	71.606
358.942	116.679
362.996	20.839
367.048	285.962
371.098	32.432
375.146	2.814
379.192	188.056
383.236	247.002
387.279	172.247
391.319	22.472
395.358	202.973
399.394	169.041
403.429	184.424
407.462	42.521
411.493	133.58
415.522	142.851
419.549	168.943
423.575	25.479
427.598	50.074
431.619	256.378
435.639	201.51
439.657	4.966
443.673	90.535
447.687	326.018
451.699	291.479
455.709	80.751
459.717	36.319
463.724	251.407
467.728	277.065
471.731	62.384
475.732	65.855
479.731	190.322
483.728	185.8
487.723	231.361
491.716	4.185
495.708	91.367
499.697	244.092
503.685	241.731
507.671	148.282
511.655	43.808
515.637	288.646
519.617	383.803
523.596	189.037
527.572	5.911
531.547	59.046
535.52	373.768
539.491	188.484
543.46	133.271
547.427	88.26
551.393	141.439
555.356	309.378
559.318	158.036
563.278	16.995
567.236	157.245
571.192	361.224
575.147	220.625
579.099	126.92
583.05	112.393
586.999	279.562
590.946	403.215
594.891	286.503
598.834	158.258
602.776	133.465
606.715	356.59
610.653	489.566
614.589	255.073
618.523	138.162
622.456	136.872
626.386	529.561
630.315	502.076
634.242	314.466
638.167	107.021
642.09	389.248
646.012	464.483
649.931	478.699
653.849	180.639
657.765	11.529
661.679	293.452
665.592	324.745
669.502	186.325
673.411	113.089
677.318	94.473
681.223	236.251
685.126	556.188
689.028	3047.59
692.927	913.697
696.825	164.93
700.721	132.336
704.616	393.619
708.508	414.534
712.399	44.871
716.288	24.95
720.175	222.771
724.06	403.1
727.944	257.702
731.825	25.75
735.705	46.528
739.584	26.828
743.46	392.735
747.334	361.671
751.207	331.065
755.078	19.349
758.947	129.872
762.815	399.021
766.68	488.123
770.544	192.828
774.406	88.249
778.267	163.2
782.125	191.791
785.982	430.316
789.837	388.783
793.69	107.535
797.542	44.123
801.391	364.08
805.239	422.206
809.085	530.49
812.93	316.906
816.772	104.245
820.613	71.045
824.452	308.865
828.29	522.104
832.125	443.034
835.959	51.303
839.791	80.145
843.621	254.662
847.45	532.846
851.277	671.128
855.102	458.711
858.925	247.033
862.746	134.688
866.566	334.939
870.384	549.666
874.2	507.076
878.015	234.73
881.828	33.066
885.639	252.73
889.448	396.773
893.256	582.074
897.061	549.066
900.865	386.773
904.668	24.752
908.468	110.652
912.267	398.6
916.064	696.414
919.86	504.334
923.653	239.604
927.445	58.924
931.236	208.922
935.024	336.629
938.811	564.404
942.596	392.223
946.379	399.773
950.161	114.439
953.94	242.232
957.719	286.957
961.495	655.51
965.27	444.395
969.043	205.184
972.814	84.223
976.583	107.773
980.351	29.035
984.117	488.971
987.882	498.789
991.644	346.09
995.405	23.439
999.165	0.891
1002.92	268.08
1006.68	164.924
1010.43	341.662
1014.18	613.863
1017.93	561.586
1021.68	340.854
1025.43	248.098
1029.18	299.619
1032.92	538.135
1036.66	735.26
1040.4	933.178
1044.14	602.439
1047.88	271.588
1051.62	419.721
1055.35	1417.71
1059.08	30985.7
1062.81	4183.37
1066.54	970.676
1070.27	578.838
1073.99	295.934
1077.72	210.809
1081.44	498.23
1085.16	845.404
1088.88	803.109
1092.59	789.57
1096.31	515.557
1100.02	212.549
1103.73	129.537
1107.44	256.223
1111.15	472.459
1114.86	538.1
1118.57	654.428
1122.27	360.74
1125.97	0.289
1129.67	114.043
1133.37	237.1
1137.07	561.875
1140.76	618.109
1144.45	722.869
1148.15	446.814
1151.84	451.279
1155.53	218.117
1159.21	227.676
1162.9	288.033
1166.58	491.475
1170.26	808.348
1173.94	732.875
1177.62	627.891
1181.3	361.076
1184.97	73.666
1188.65	41.141
1192.32	218.74
1195.99	410.998
1199.66	754.203
1203.33	815.742
1206.99	667.016
1210.65	227.018
1214.32	78.191
1217.98	286.629
1221.64	305.057
1225.29	698.537
1228.95	953.588
1232.6	1140.99
1236.26	718.584
1239.91	502.486
1243.56	218.652
1247.2	195.086
1250.85	310.209
1254.49	844.977
1258.13	817.959
1261.78	1081.39
1265.41	941.523
1269.05	724.059
1272.69	335.75
1276.32	388.146
1279.95	250.559
1283.59	90.863
1287.21	542.785
1290.84	933.963
1294.47	863.443
1298.09	842.709
1301.72	681.477
1305.34	74.486
1308.96	117.691
1312.58	1.436
1316.19	212.781
1319.81	558.678
1323.42	889.684
1327.03	1012.67
1330.64	935.877
1334.25	508.385
1337.86	210.119
1341.46	8.916
1345.07	147.93
1348.67	32.381
1352.27	212.539
1355.87	411.979
1359.46	871.238
1363.06	1051.14
1366.65	1000.62
1370.25	470.691
1373.84	149.875
1377.43	50.152
1381.02	84.562
1384.6	132.082
1388.18	397.691
1391.77	743.133
1395.35	808.162
1398.93	1071.72
1402.51	1045.69
1406.08	1036.65
1409.66	390.234
1413.23	238.1
1416.8	169.008
1420.37	203.516
1423.94	107.436
1427.51	732.213
1431.08	829.498
1434.64	1010.07
1438.2	1113.59
1441.76	1367.22
1445.32	1330.75
1448.88	887.191
1452.43	511.268
1455.99	602.76
1459.54	499.496
1463.09	728.822
1466.64	689.09
1470.19	999.834
1473.74	1170.65
1477.28	1238.28
1480.83	1519.11
1484.37	1242.64
1487.91	987.637
1491.45	663.186
1494.98	259.109
1498.52	38.051
1502.05	30.119
1505.59	254.08
1509.12	443.857
1512.65	853.627
1516.17	1106.93
1519.7	1247.48
