Measurement: Raman, 514 nm, depolarized, Raman Data Processed
Mineral: Witherite
Rruff sample: R050148
Ideal chemistry: BaCO_3_
Locality: Settlingstones mine, Fourstones, Northumberland, England
Source: Jim McGlasson
Description: Tan colored crystal fragment
Measured chemistry: (Ba_0.96_Sr_0.04_)CO_3_
Pin_id: L00254
Orientation: Laser parallel to c* (0 0 1). Fiducial mark perpendicular to laser is parallel to a [1 0 0]
Raman shift (cm-1)	intensity
108.298	0
112.486	39.663
116.672	228.617
120.855	419.596
125.036	536.937
129.216	766.673
133.393	1114.92
137.568	1238.32
141.741	1215.44
145.911	1574.99
150.08	2034.43
154.247	4032.45
158.411	6562.89
162.574	4882.15
166.734	1856.68
170.893	782.059
175.049	499.924
179.203	523.011
183.355	392.35
187.505	315.852
191.653	355.247
195.799	309.791
199.943	318.461
204.084	286.283
208.224	534.697
212.362	872.562
216.497	1355.08
220.631	1834.31
224.762	1935.75
228.891	1403.69
233.018	768.64
237.144	537.608
241.267	350.73
245.388	213.904
249.507	177.966
253.624	257.198
257.739	244.668
261.852	167.752
265.962	165.235
270.071	146.173
274.178	175.715
278.283	42.717
282.385	97.081
286.486	74.651
290.584	5.884
294.681	30.867
298.775	49.857
302.868	92.595
306.958	20.452
311.047	17.213
315.133	83.67
319.217	82.167
323.299	4.763
327.38	19.175
331.458	89.492
335.534	100.338
339.608	35.773
343.681	48.538
347.751	142.122
351.819	30.409
355.885	32.876
359.949	7.696
364.011	137.357
368.071	69.886
372.129	44.109
376.185	74.871
380.239	12.607
384.291	4.049
388.341	22.038
392.389	38.017
396.435	92.247
400.479	16.936
404.521	9.823
408.561	33.732
412.599	17.379
416.636	14.246
420.67	112.914
424.702	58.936
428.732	17.699
432.76	31.874
436.786	67.768
440.81	10.976
444.832	8.123
448.852	53.149
452.87	14.993
456.887	49.722
460.901	67.955
464.913	79.724
468.923	74.788
472.931	8.121
476.938	61.019
480.942	84.791
484.944	79.531
488.945	165.387
492.943	37.009
496.94	118.374
500.934	90.509
504.927	94.634
508.917	145.489
512.906	52.8
516.892	58.729
520.877	51.338
524.86	69.799
528.841	63.15
532.82	79.407
536.796	52.03
540.771	43.803
544.744	44.268
548.715	127.272
552.684	137.115
556.652	249.822
560.617	126.127
564.58	54.165
568.541	4.059
572.501	116.873
576.458	164.828
580.414	20.042
584.367	189.586
588.319	57.315
592.268	145.227
596.216	95.307
600.162	56.346
604.106	70.087
608.048	90.955
611.988	177.364
615.926	67.592
619.862	80.395
623.797	141.527
627.729	149.538
631.659	12.586
635.588	67.688
639.515	28.632
643.439	161.435
647.362	213.11
651.283	49.754
655.202	115.057
659.119	12.599
663.034	90.682
666.947	148.817
670.859	140.633
674.768	86.911
678.676	84.882
682.581	243.143
686.485	1242.88
690.387	4693.24
694.287	1593.02
698.185	365.601
702.081	130.139
705.975	73.469
709.868	195.217
713.758	145.166
717.647	7.402
721.533	188.548
725.418	179.389
729.301	147.495
733.182	155.612
737.061	106.284
740.939	153.72
744.814	131.084
748.688	139.141
752.559	187.216
756.429	4.818
760.297	102.911
764.163	194.991
768.027	311.644
771.89	148.981
775.75	13.864
779.609	36.05
783.465	161.467
787.32	46.755
791.173	92.317
795.024	108.159
798.873	107.284
802.721	132.245
806.566	127.756
810.41	68.492
814.252	193.892
818.092	53.331
821.93	40.917
825.766	146.897
829.601	113.317
833.433	131.072
837.264	70.381
841.093	76.824
844.92	63.537
848.745	124.521
852.568	230.705
856.39	157.039
860.209	7.448
864.027	8.653
867.843	74.472
871.657	217.823
875.47	119.188
879.28	134.622
883.089	120.673
886.896	21.496
890.701	195.976
894.504	151.787
898.305	247.112
902.105	242.831
905.902	28.617
909.698	53.331
913.492	148.925
917.285	273.535
921.075	238.905
924.864	173.318
928.65	26.6
932.435	107.913
936.218	43.24
940	238.316
943.779	202.751
947.557	208.005
951.333	93.222
955.107	168.917
958.879	104.067
962.65	189.54
966.418	244.488
970.185	139.495
973.95	84.182
977.714	129.054
981.475	5.887
985.235	188.923
988.993	194.205
992.749	174.851
996.503	80.428
1000.26	154.316
1004.01	69.043
1007.75	113.42
1011.5	280.216
1015.25	224.978
1018.99	80.649
1022.73	135.983
1026.47	170.965
1030.21	155.672
1033.95	290.038
1037.68	504.593
1041.41	469.582
1045.15	254.616
1048.88	469.895
1052.6	672.001
1056.33	3476.69
1060.05	49041.1
1063.78	6915.74
1067.5	1145.32
1071.21	409.294
1074.93	263.395
1078.65	227.222
1082.36	321.426
1086.07	425.081
1089.78	349.545
1093.49	363.052
1097.2	256.716
1100.9	30.484
1104.6	294.21
1108.3	87.907
1112	177.433
1115.7	292.004
1119.4	221.862
1123.09	203.685
1126.78	86.555
1130.47	0.631
1134.16	21.677
1137.85	391.953
1141.54	416.398
1145.22	314.164
1148.9	317.296
1152.58	91.796
1156.26	39.985
1159.94	36.551
1163.61	9.715
1167.28	197.892
1170.95	356.752
1174.62	341.043
1178.29	371.166
1181.96	207.412
1185.62	78.288
1189.29	122.719
1192.95	83.171
1196.61	233.128
1200.26	515.021
1203.92	437.323
1207.57	295.642
1211.23	363.639
1214.88	412.085
1218.53	220.355
1222.17	248.208
1225.82	478.862
1229.46	367.017
1233.11	476.516
1236.74	352.707
1240.38	328.37
1244.02	164.056
1247.66	158.508
1251.29	223.384
1254.92	287.963
1258.55	422.73
1262.18	396.573
1265.81	391.099
1269.43	254.571
1273.06	107.561
1276.68	63.069
1280.3	144.437
1283.91	138.203
1287.53	153.599
1291.15	365.272
1294.76	426.291
1298.37	35.646
1301.98	22.269
1305.59	50.905
1309.19	71.06
1312.8	93.037
1316.4	5.951
1320	251.224
1323.6	238.16
1327.2	444.576
1330.8	459.886
1334.39	125.047
1337.98	49.271
1341.58	16.156
1345.16	39.462
1348.75	184.03
1352.34	247.521
1355.92	189.887
1359.51	383.699
1363.09	346.625
1366.67	229.568
1370.24	102.271
1373.82	22.734
1377.39	162.16
1380.97	170.82
1384.54	118.49
1388.11	255.889
1391.68	390.826
1395.24	447.697
1398.81	492.543
1402.37	454.6
1405.93	417.275
1409.49	289.42
1413.05	183.383
1416.6	45.105
1420.16	227.211
1423.71	147.086
1427.26	298.064
1430.81	361.184
1434.36	453.426
1437.91	480.346
1441.45	315.453
1444.99	312.406
1448.54	201.975
1452.08	87.291
1455.61	52.791
1459.15	35.119
1462.68	176.23
1466.22	307.297
1469.75	550.26
1473.28	604.627
1476.81	429.982
1480.33	523.143
1483.86	563.393
1487.38	244.076
1490.9	293.512
1494.42	78.027
1497.94	14.324
1501.46	166.658
1504.97	113.766
1508.49	180.15
1512	347.539
1515.51	0
