Measurement: Raman, 514 nm, depolarized, Raman Data Processed
Mineral: Witherite
Rruff sample: R050148
Ideal chemistry: BaCO_3_
Locality: Settlingstones mine, Fourstones, Northumberland, England
Source: Jim McGlasson
Description: Tan colored crystal fragment
Measured chemistry: (Ba_0.96_Sr_0.04_)CO_3_
Pin_id: M00358
Orientation: Laser parallel to a* (1 0 0). Fiducial mark perpendicular to laser is parallel to -b [0 -1 0]
Raman shift (cm-1)	intensity
50.765	0
54.966	52.411
59.164	91.214
63.36	5.653
67.554	20.57
71.747	35.438
75.937	235.873
80.125	858.27
84.311	1218.56
88.496	1211
92.678	1679.08
96.858	1846.28
101.036	1696.01
105.212	1932.89
109.387	1668.74
113.559	1688.43
117.729	1842.84
121.897	1882.88
126.063	2063.49
130.228	2671.61
134.39	4357.15
138.55	8415.35
142.709	8735.78
146.865	5883.61
151.019	5796.09
155.171	8180.31
159.322	10733.3
163.47	8027.21
167.617	4482.96
171.761	2196.56
175.904	1607.93
180.044	1317.08
184.183	1487.05
188.319	1343.87
192.454	1105.48
196.586	1045.9
200.717	1037.15
204.846	1077.16
208.972	933.895
213.097	851.342
217.22	1050.61
221.341	1474.19
225.46	1758.14
229.577	2005.38
233.692	1802.85
237.805	1234.38
241.916	762.343
246.025	671.49
250.132	686.204
254.237	571.063
258.34	446.615
262.442	434.818
266.541	449.392
270.639	455.931
274.734	271.739
278.828	376.618
282.919	442.357
287.009	213.296
291.097	222.165
295.183	333.495
299.266	406.399
303.348	194.648
307.428	177.683
311.507	290.209
315.583	227.601
319.657	139.545
323.729	76.944
327.8	200.328
331.868	259.206
335.935	117.806
339.999	61.218
344.062	210.751
348.123	158.596
352.182	50.448
356.239	141.898
360.294	201.276
364.347	129.722
368.398	6.374
372.448	44.141
376.495	153.524
380.54	164.531
384.584	6.535
388.626	63.155
392.666	124.266
396.704	157.967
400.74	3.263
404.774	69.304
408.806	87.134
412.836	131.254
416.865	23.64
420.891	7.16
424.916	98.001
428.939	50.027
432.959	45.187
436.978	47.002
440.996	122.491
445.011	82.609
449.024	85.833
453.036	28.008
457.045	3.724
461.053	144.063
465.059	94.582
469.063	14.362
473.065	46.456
477.065	99.887
481.063	106.296
485.06	39.946
489.054	19.254
493.047	49.145
497.038	180.895
501.027	8.949
505.014	40.109
508.999	75.778
512.982	112.468
516.964	131.887
520.944	1.821
524.921	2.651
528.897	126.047
532.871	120.983
536.844	47.942
540.814	49.065
544.783	106.817
548.749	223.776
552.714	52.728
556.677	7.909
560.638	49.676
564.597	110.1
568.555	190.252
572.511	55.004
576.464	18.847
580.416	54.729
584.366	160.092
588.315	107.782
592.261	7.846
596.206	78.08
600.148	130.083
604.089	186.557
608.028	93.73
611.965	70.64
615.901	46.098
619.834	192.232
623.766	227.445
627.696	133.524
631.624	63.628
635.551	69.688
639.475	212.455
643.398	231.974
647.318	128.492
651.237	12.319
655.155	110.388
659.07	289.436
662.984	263.606
666.895	152.385
670.805	13.447
674.713	195.802
678.62	256.965
682.524	226.751
686.427	123.576
690.328	433.733
694.227	2510.3
698.124	1232.84
702.02	563.728
705.913	270.557
709.805	64.25
713.695	116.728
717.584	230.604
721.47	284.795
725.355	114.096
729.238	26.914
733.119	68.05
736.998	203.62
740.876	288.858
744.752	149.427
748.626	64.846
752.498	125.334
756.368	227.927
760.237	318.873
764.104	177.93
767.969	40.296
771.832	56.815
775.693	164.923
779.553	211.928
783.411	223.818
787.267	0.774
791.122	57.504
794.974	95.883
798.825	248.722
802.674	256.644
806.522	95.128
810.367	35.802
814.211	90.292
818.053	300.857
821.893	267.273
825.732	183.844
829.568	80.543
833.403	75.042
837.236	107.979
841.068	274.116
844.898	270.432
848.726	131.097
852.552	108.749
856.376	66.296
860.199	223.857
864.02	261.136
867.839	226.741
871.656	124.873
875.472	5.303
879.286	70.995
883.098	264.458
886.909	227.613
890.717	235.653
894.524	32.887
898.33	67.102
902.133	196.966
905.935	212.09
909.735	232.093
913.533	265.009
917.33	22.552
921.124	52.193
924.918	155.894
928.709	268.734
932.499	384.272
936.286	273.072
940.073	122.291
943.857	17.975
947.64	144.62
951.421	202.859
955.2	357.632
958.978	294.941
962.753	234.62
966.527	16.529
970.3	10.176
974.071	220.912
977.84	356.347
981.607	316.333
985.372	230.11
989.136	32.29
992.898	15.225
996.659	78.357
1000.42	228.526
1004.17	389.838
1007.93	143.781
1011.68	103.344
1015.43	32.043
1019.18	157.158
1022.93	276.619
1026.68	453.119
1030.42	339.167
1034.17	296.365
1037.91	70.798
1041.65	386.758
1045.39	330.716
1049.12	579.308
1052.86	665.337
1056.59	842.708
1060.33	3662.9
1064.06	46054.3
1067.78	4067.82
1071.51	769.564
1075.23	627.796
1078.96	642.81
1082.68	387.44
1086.4	282.765
1090.12	198.558
1093.83	202.459
1097.55	224.848
1101.26	339.904
1104.97	547.714
1108.68	414.873
1112.39	247.54
1116.1	39.068
1119.8	78.498
1123.5	161.148
1127.2	113.513
1130.9	427.666
1134.6	400.701
1138.3	314.147
1141.99	179.909
1145.69	96.185
1149.38	43.223
1153.07	263.945
1156.76	374.942
1160.44	395.267
1164.13	373.979
1167.81	182.12
1171.49	67.456
1175.17	86.699
1178.85	66.224
1182.52	351.541
1186.2	433.739
1189.87	441.896
1193.54	396.184
1197.21	141.84
1200.88	12.717
1204.55	23.262
1208.21	108.551
1211.88	343.074
1215.54	381.119
1219.2	559.499
1222.86	412.162
1226.51	317.253
1230.17	168.923
1233.82	229.229
1237.47	146.315
1241.12	326.344
1244.77	491.5
1248.42	462.979
1252.06	516.905
1255.71	346.969
1259.35	81.167
1262.99	151.934
1266.63	63.987
1270.26	243.056
1273.9	379.051
1277.53	768.027
1281.16	756.97
1284.8	456.247
1288.42	271.396
1292.05	173.16
1295.68	93.096
1299.3	47.501
1302.92	52.045
1306.55	332.338
1310.16	202.933
1313.78	467.334
1317.4	473.104
1321.01	278.71
1324.62	164.067
1328.24	129.781
1331.85	7.79
1335.45	48.971
1339.06	267.277
1342.66	461.252
1346.27	613.409
1349.87	487.096
1353.47	360.442
1357.07	222.283
1360.66	102.817
1364.26	47.48
1367.85	110.195
1371.44	208.328
1375.04	265.933
1378.62	512.479
1382.21	609.131
1385.8	665.132
1389.38	601.199
1392.96	346.686
1396.54	131.692
1400.12	73.445
1403.7	22.124
1407.28	283.391
1410.85	326.337
1414.42	521.419
1417.99	833.479
1421.56	1001.86
1425.13	1328.56
1428.7	898.462
1432.26	402.229
1435.83	172.764
1439.39	32.976
1442.95	66.779
1446.51	273.409
1450.06	468.519
1453.62	530.586
1457.17	771.719
1460.73	755.558
1464.28	889.041
1467.83	543.781
1471.37	326.178
1474.92	143.298
1478.46	47.54
1482.01	113.993
1485.55	136.108
1489.09	323.682
1492.63	350.455
1496.16	433.228
1499.7	761.841
1503.23	631.989
