Measurement: Raman, 514 nm, depolarized, Raman Data Processed
Mineral: Witherite
Rruff sample: R050148
Ideal chemistry: BaCO_3_
Locality: Settlingstones mine, Fourstones, Northumberland, England
Source: Jim McGlasson
Description: Tan colored crystal fragment
Measured chemistry: (Ba_0.96_Sr_0.04_)CO_3_
Pin_id: M00097
Orientation: Laser parallel to -b* (0 -1 0). Fiducial mark perpendicular to laser is parallel to c [0 0 1]
Raman shift (cm-1)	intensity
50.765	0
54.966	53.841
59.164	47.311
63.36	5.028
67.554	7.283
71.747	28.374
75.937	142.191
80.125	726.861
84.311	903.458
88.496	909.359
92.678	1631.13
96.858	1655.34
101.036	1347.5
105.212	1428.35
109.387	1190.73
113.559	1203.51
117.729	1721.62
121.897	1449.98
126.063	1587.55
130.228	2256.27
134.39	4295.06
138.55	8097.25
142.709	7560.63
146.865	5079.36
151.019	4900.59
155.171	6900.43
159.322	8207.89
163.47	6530.94
167.617	3451.61
171.761	1621.88
175.904	1132.81
180.044	1026.37
184.183	1230.56
188.319	1020.35
192.454	770.775
196.586	724.817
200.717	798.452
204.846	747.637
208.972	729.341
213.097	722.515
217.22	964.613
221.341	1496.57
225.46	1592.55
229.577	1656.87
233.692	1305.48
237.805	951.5
241.916	627.292
246.025	482.954
250.132	478.223
254.237	384.631
258.34	312.228
262.442	322.826
266.541	301.063
270.639	279.986
274.734	176.216
278.828	233.454
282.919	246.426
287.009	182.778
291.097	130.455
295.183	189.474
299.266	158.867
303.348	111.668
307.428	105.548
311.507	131.209
315.583	134.589
319.657	100.895
323.729	56.261
327.8	133.403
331.868	75.984
335.935	83.604
339.999	62.554
344.062	77.99
348.123	70.471
352.182	66.694
356.239	69.215
360.294	108.909
364.347	71.049
368.398	54.193
372.448	31.137
376.495	67.885
380.54	28.273
384.584	46.677
388.626	27.271
392.666	48.004
396.704	51.828
400.74	9.899
404.774	14.371
408.806	126.294
412.836	54.083
416.865	19.892
420.891	28.56
424.916	87.908
428.939	50.665
432.959	5.428
436.978	17.76
440.996	76.533
445.011	54.132
449.024	7.334
453.036	9.263
457.045	14.238
461.053	108.669
465.059	20.463
469.063	6.542
473.065	10.411
477.065	99.262
481.063	96.469
485.06	24.255
489.054	54.963
493.047	48.015
497.038	57.462
501.027	10.268
505.014	19.984
508.999	71.108
512.982	62.483
516.964	20.937
520.944	5.378
524.921	22.61
528.897	75.38
532.871	75.891
536.844	22.307
540.814	23.198
544.783	25.273
548.749	128.75
552.714	60.226
556.677	42.727
560.638	30.477
564.597	65.852
568.555	147.318
572.511	15.803
576.464	0.188
580.416	69.642
584.366	113.051
588.315	84.285
592.261	13.893
596.206	16.957
600.148	97.258
604.089	88.147
608.028	72.955
611.965	16.745
615.901	51.737
619.834	161.018
623.766	104.661
627.696	82.065
631.624	72.354
635.551	73.166
639.475	177.038
643.398	178.007
647.318	22.882
651.237	3.78
655.155	91.099
659.07	122.68
662.984	128.238
666.895	72.53
670.805	59.539
674.713	93.091
678.62	148.49
682.524	165.926
686.427	145.156
690.328	753.5
694.227	2325.14
698.124	1001.86
702.02	494.191
705.913	223.914
709.805	118.893
713.695	86.383
717.584	147.741
721.47	169.68
725.355	140.789
729.238	62.524
733.119	73.787
736.998	130.774
740.876	212.552
744.752	135.609
748.626	15.638
752.498	137.562
756.368	154.031
760.237	128.975
764.104	189.323
767.969	51.639
771.832	20.442
775.693	40.765
779.553	209.675
783.411	72.415
787.267	17.798
791.122	53.116
794.974	99.807
798.825	117.301
802.674	117.982
806.522	71.161
810.367	37.062
814.211	119.525
818.053	227.208
821.893	187.944
825.732	114.196
829.568	15.546
833.403	16.74
837.236	106.467
841.068	188.424
844.898	148.699
848.726	65.589
852.552	75.618
856.376	7.032
860.199	149.406
864.02	133.292
867.839	127.105
871.656	82.628
875.472	49.292
879.286	21
883.098	127.375
886.909	188.054
890.717	51.524
894.524	6.862
898.33	54.681
902.133	215.44
905.935	176.022
909.735	205.576
913.533	161.128
917.33	24.678
921.124	26.94
924.918	95.777
928.709	176.003
932.499	229.431
936.286	136.838
940.073	37.038
943.857	10.438
947.64	142.842
951.421	222.433
955.2	159.84
958.978	146.353
962.753	150.999
966.527	40.571
970.3	0.268
974.071	171.637
977.84	130.491
981.607	148.503
985.372	184.743
989.136	21.264
992.898	38.149
996.659	82.52
1000.42	171.179
1004.17	179.447
1007.93	1.333
1011.68	96.912
1015.43	56.463
1019.18	89.132
1022.93	204.646
1026.68	293.056
1030.42	214.548
1034.17	183.746
1037.91	95.988
1041.65	410.116
1045.39	243.706
1049.12	353.616
1052.86	536.26
1056.59	770.904
1060.33	4624.71
1064.06	45264.1
1067.78	3833.9
1071.51	701.942
1075.23	468.791
1078.96	502.977
1082.68	299.367
1086.4	124.669
1090.12	140.712
1093.83	189.148
1097.55	206.541
1101.26	288.786
1104.97	315.705
1108.68	244.722
1112.39	182.812
1116.1	45.547
1119.8	39.984
1123.5	108.9
1127.2	152.95
1130.9	254.55
1134.6	250.439
1138.3	279.895
1141.99	43.517
1145.69	43.149
1149.38	43.456
1153.07	130.74
1156.76	241.128
1160.44	182.529
1164.13	192.836
1167.81	138.397
1171.49	44.626
1175.17	4.199
1178.85	113.895
1182.52	204.518
1186.2	357.145
1189.87	289.056
1193.54	261.348
1197.21	38.97
1200.88	18.642
1204.55	22.111
1208.21	117.806
1211.88	205.727
1215.54	375.126
1219.2	301.738
1222.86	274.029
1226.51	77.23
1230.17	97.558
1233.82	184.12
1237.47	125.263
1241.12	231.018
1244.77	320.493
1248.42	350.335
1252.06	354.566
1255.71	190.852
1259.35	159.099
1262.99	198.621
1266.63	121.117
1270.26	147.978
1273.9	231.244
1277.53	422.763
1281.16	393.048
1284.8	251.101
1288.42	49.242
1292.05	63.734
1295.68	1.996
1299.3	18.166
1302.92	115.076
1306.55	207.434
1310.16	165.507
1313.78	304.013
1317.4	303.694
1321.01	158.396
1324.62	97.246
1328.24	68.332
1331.85	63.577
1335.45	9.42
1339.06	210.362
1342.66	297.856
1346.27	372.385
1349.87	360.563
1353.47	177.472
1357.07	18.562
1360.66	57.427
1364.26	10.599
1367.85	51.594
1371.44	46.114
1375.04	122.028
1378.62	319.569
1382.21	378.233
1385.8	437.677
1389.38	431.839
1392.96	230.195
1396.54	75.163
1400.12	5.358
1403.7	112.409
1407.28	178.682
1410.85	278.237
1414.42	338.093
1417.99	516.929
1421.56	678.615
1425.13	1195.82
1428.7	738.435
1432.26	281.555
1435.83	217.707
1439.39	53.765
1442.95	121.336
1446.51	198.856
1450.06	340.262
1453.62	244.597
1457.17	383.15
1460.73	480.025
1464.28	407.918
1467.83	318.441
1471.37	205.456
1474.92	57.043
1478.46	29.383
1482.01	19.77
1485.55	46.563
1489.09	152.514
1492.63	339.008
1496.16	373.923
1499.7	413.146
1503.23	411.654
