Measurement: Raman, 514 nm, depolarized, Raman Data Processed
Mineral: Wulfenite
Rruff sample: R050024
Ideal chemistry: Pb^2+^Mo^6+^O_4_
Locality: Old Yuma mine, Tucson, Arizona, USA
Source: Eugene Schlepp
Description: Orange flat tabular crystals
Pin_id: L00102
Orientation: Laser parallel to a* (1 0 0). Fiducial mark perpendicular to laser is parallel to -c [0 0 -1]
Raman shift (cm-1)	intensity
55.677	0
59.882	5.452
64.084	8.941
68.284	16.47
72.482	20.489
76.678	7.986
80.872	4.747
85.064	2.156
89.254	6.589
93.442	11.478
97.628	64.771
101.812	177.42
105.994	179.361
110.174	126.547
114.351	107.954
118.527	120.567
122.701	149.375
126.873	176.369
131.042	181.544
135.21	190.896
139.376	226.419
143.539	270.034
147.701	330.706
151.861	462.432
156.018	713.185
160.174	1146.02
164.327	1712.94
168.479	1905.95
172.628	1485.06
176.776	858.257
180.922	502.55
185.065	384.936
189.207	347.417
193.346	326.987
197.484	256.65
201.619	190.405
205.753	122.289
209.884	88.27
214.014	92.351
218.141	79.191
222.267	75.499
226.391	75.896
230.512	79.328
234.632	92.171
238.749	95.165
242.865	116.673
246.979	127.933
251.09	141.996
255.2	151.735
259.308	160.65
263.414	187.641
267.517	219.705
271.619	231.877
275.719	276.089
279.817	322.37
283.913	377.721
288.007	492.172
292.099	630.647
296.189	862.177
300.277	1201.76
304.363	1932.4
308.447	3632.17
312.529	7778.91
316.609	14866.8
320.687	14077.6
324.764	6991.51
328.838	3125.45
332.91	1604.66
336.981	999.649
341.049	743.789
345.116	786.365
349.18	1196.9
353.243	915.006
357.304	511.522
361.362	296.196
365.419	199.131
369.474	150.53
373.527	141.101
377.578	107.988
381.627	91.533
385.674	76.777
389.719	82.948
393.762	66.631
397.804	40.099
401.843	42.537
405.881	18.061
409.916	26.764
413.95	12.294
417.981	11.225
422.011	17.607
426.039	7.905
430.065	11.881
434.089	1.728
438.111	2.306
442.131	0.086
446.149	3.316
450.166	14.67
454.18	3.906
458.193	4.293
462.203	1.088
466.212	3.043
470.219	5.483
474.224	2.663
478.227	1.115
482.228	12.268
486.227	13.276
490.224	12.976
494.22	2.174
498.213	0.169
502.205	0.509
506.194	1.697
510.182	2.762
514.168	1.172
518.152	3.5
522.134	0.769
526.114	12.977
530.093	2.874
534.069	4.784
538.044	1.756
542.017	7.198
545.987	9.093
549.956	3.06
553.923	3.728
557.889	2.463
561.852	0.142
565.813	4.235
569.773	6.674
573.731	0.815
577.686	0.234
581.64	4.594
585.593	1.093
589.543	1.161
593.491	6.687
597.438	5.422
601.382	6.536
605.325	3.607
609.266	0.287
613.205	1.11
617.142	10.125
621.078	2.437
625.011	7.818
628.943	8.347
632.872	2.121
636.8	3.437
640.726	1.203
644.651	8.125
648.573	7.381
652.494	1.665
656.412	3.549
660.329	1.499
664.244	1.081
668.157	8.736
672.069	16.726
675.978	7.054
679.886	18.772
683.792	26.115
687.696	16.444
691.598	13.859
695.498	13.26
699.397	27.131
703.293	29.987
707.188	38.477
711.081	43.249
714.972	50.844
718.862	46.401
722.749	89.731
726.635	119.011
730.519	185.107
734.401	381.311
738.281	830.286
742.16	1887.91
746.036	2085.26
749.911	1102.12
753.784	581.367
757.655	454.374
761.525	590.024
765.392	974.534
769.258	1009.62
773.122	577.838
776.984	337.852
780.844	270.907
784.703	245.801
788.56	291.566
792.415	301.474
796.268	370.618
800.119	464.039
803.969	617.707
807.816	784.832
811.662	1238.48
815.506	1749.26
819.349	1680.85
823.189	1395.78
827.028	1319.73
830.865	1296.77
834.7	1523.86
838.534	1647.02
842.365	1903.23
846.195	2226.51
850.023	2725.84
853.85	3691.24
857.674	5612.7
861.497	9913.22
865.318	22193.2
869.137	48403.2
872.955	38813.2
876.77	15183.1
880.584	6495.03
884.396	3548.29
888.207	2155.5
892.015	1541.78
895.822	1149.83
899.627	859.108
903.43	724
907.232	597.283
911.032	508.045
914.83	447.857
918.626	387.819
922.42	349.929
926.213	311.065
930.004	281.208
933.793	239.847
937.581	242.281
941.366	251.515
945.15	221.404
948.932	220.344
952.713	189.33
956.491	164.358
960.268	130.435
964.044	82.579
967.817	62.88
971.589	46.879
975.359	35.564
979.127	40.875
982.893	32.192
986.658	46.626
990.421	30.6
994.183	21.031
997.942	20.493
1001.7	9.994
1005.46	11.577
1009.21	4.438
1012.96	7.733
1016.71	5.656
1020.46	3.032
1024.21	4.394
1027.96	1.741
1031.7	2.932
1035.44	5.615
1039.18	6.691
1042.92	7.007
1046.66	1.72
1050.39	10.554
1054.13	0.165
1057.86	6.105
1061.59	7.382
1065.32	6.677
1069.05	5
1072.77	13.358
1076.49	9.76
1080.22	1.805
1083.94	1.343
1087.65	0.862
1091.37	7.381
1095.09	8.875
1098.8	17.373
1102.51	15.861
1106.22	25.648
1109.93	24.132
1113.63	10.616
1117.34	17.256
1121.04	14.794
1124.74	8.335
1128.44	19.818
1132.14	18.509
1135.84	15.031
1139.53	13.396
1143.22	16.957
1146.91	15.544
1150.61	11.703
1154.29	24.212
1157.98	42.862
1161.66	47.362
1165.35	55.147
1169.03	51.211
1172.71	59.215
1176.38	43.687
1180.06	41.905
1183.73	47.841
1187.41	41.452
1191.08	47.608
1194.75	40.368
1198.41	34.188
1202.08	36.363
1205.74	36.23
1209.41	40.327
1213.07	28.263
1216.73	33.712
1220.38	39.64
1224.04	36.088
1227.69	28.215
1231.35	21.273
1235	11.409
1238.65	19.906
1242.3	20.687
1245.94	25.505
1249.59	27.105
1253.23	27.727
1256.87	12.356
1260.51	6.867
1264.15	18.258
1267.78	5.913
1271.42	16.047
1275.05	9.419
1278.68	9.789
1282.31	9.049
1285.94	11.73
1289.56	9.427
1293.19	6.369
1296.81	2.723
1300.43	3.82
1304.05	3.375
1307.67	9.924
1311.29	6.922
1314.9	6.876
1318.52	0.174
1322.13	4.715
1325.74	9.565
1329.34	6.388
1332.95	18.182
1336.56	12.126
1340.16	3.848
1343.76	0.47
1347.36	11.181
1350.96	9.798
1354.56	10.393
1358.15	10.96
1361.74	9.506
1365.34	10.044
1368.93	0.572
1372.52	8.091
1376.1	3.612
1379.69	17.35
1383.27	11.491
1386.85	4.868
1390.43	17.303
1394.01	10.06
1397.59	8.81
1401.17	14.282
1404.74	4.671
1408.31	0.853
1411.88	10.225
1415.45	9.381
1419.02	16.501
1422.59	13.289
1426.15	14.428
1429.71	11.74
1433.28	3.387
1436.84	9.056
1440.39	8.511
1443.95	17.01
1447.5	6.754
1451.06	4.204
1454.61	9.725
1458.16	3.461
1461.71	16.136
1465.26	10.455
1468.8	14.236
1472.34	14.855
1475.89	3.894
1479.43	0.319
1482.97	0.277
1486.5	14.734
1490.04	12.241
1493.57	4.772
1497.11	5.316
1500.64	10.511
1504.17	23.995
1507.69	15.477
1511.22	4.245
1514.74	0.619
1518.27	7.528
