Measurement: Raman, 514 nm, depolarized, Raman Data Processed
Mineral: Wulfenite
Rruff sample: R050024
Ideal chemistry: Pb^2+^Mo^6+^O_4_
Locality: Old Yuma mine, Tucson, Arizona, USA
Source: Eugene Schlepp
Description: Orange flat tabular crystals
Pin_id: L00507
Orientation: Laser parallel to c* (0 0 1). Fiducial mark perpendicular to laser is parallel to a [1 0 0]
Raman shift (cm-1)	intensity
49.365	0
53.566	24.102
57.765	38.338
61.962	28.09
66.157	26.673
70.349	20.845
74.54	25.623
78.729	9.317
82.916	7.248
87.101	5.809
91.284	9.405
95.465	49.463
99.644	79.899
103.82	113.652
107.995	141.688
112.168	168.993
116.339	187.549
120.508	221.341
124.675	266.357
128.84	240.588
133.003	285.019
137.164	311.544
141.323	385.139
145.48	492.809
149.635	695.552
153.788	1085.36
157.939	1803.28
162.088	2847.32
166.235	3559.51
170.38	3125.83
174.523	1960.26
178.664	1059.8
182.803	632.448
186.94	414.206
191.076	321.07
195.209	257.037
199.34	211.105
203.47	165.3
207.597	145.591
211.722	119.978
215.846	113.98
219.967	112.25
224.087	113.686
228.204	98.218
232.32	99.805
236.434	103.446
240.545	123.231
244.655	117.157
248.763	116.02
252.869	128.131
256.973	138.296
261.075	134.665
265.175	145.179
269.273	164.728
273.369	165.028
277.463	195.211
281.556	239.036
285.646	303.959
289.734	347.977
293.821	461.052
297.905	659.117
301.988	1004.24
306.069	1750.43
310.147	3456.78
314.224	6788.08
318.299	7947.44
322.372	4580.85
326.443	2187.32
330.512	1134.81
334.579	752.428
338.645	526.103
342.708	624.772
346.769	1158.43
350.829	1310.31
354.887	471.022
358.942	208.716
362.996	130.187
367.048	97.951
371.098	96.006
375.146	79.4
379.192	83.023
383.236	78.922
387.279	61.985
391.319	28.41
395.358	28.734
399.394	39.624
403.429	37.33
407.462	12.864
411.493	4.919
415.522	23.445
419.549	28.008
423.575	4.677
427.598	13.762
431.619	5.066
435.639	16.113
439.657	5.351
443.673	5.032
447.687	0.603
451.699	5.865
455.709	13.012
459.717	19.732
463.724	31.606
467.728	12.724
471.731	7.779
475.732	12.839
479.731	5.124
483.728	1.925
487.723	17.571
491.716	6.716
495.708	5.218
499.697	22.098
503.685	8.58
507.671	13.298
511.655	14.549
515.637	16.557
519.617	5.706
523.596	8.955
527.572	1.558
531.547	5.094
535.52	6.44
539.491	21.941
543.46	21.26
547.427	15.515
551.393	5.702
555.356	27.793
559.318	2.21
563.278	4.685
567.236	18.479
571.192	10.189
575.147	12.805
579.099	9.333
583.05	15.728
586.999	14.093
590.946	6.363
594.891	7.578
598.834	5.51
602.776	17.513
606.715	3.662
610.653	6.079
614.589	1.251
618.523	7.591
622.456	7.982
626.386	40.476
630.315	33.777
634.242	16.101
638.167	2.65
642.09	13.488
646.012	16.629
649.931	2.693
653.849	16.41
657.765	7.545
661.679	0.236
665.592	16.878
669.502	7.332
673.411	13.401
677.318	14.344
681.223	32.004
685.126	37.356
689.028	27.846
692.927	9.148
696.825	38.773
700.721	30.234
704.616	54.511
708.508	46.262
712.399	46.536
716.288	67.375
720.175	64.439
724.06	90.544
727.944	138.802
731.825	114.722
735.705	153.526
739.584	242.719
743.46	300.69
747.334	414.681
751.207	533.569
755.078	898.261
758.947	1710.69
762.815	3877.49
766.68	5951.21
770.544	3700.27
774.406	1803.68
778.267	1115.06
782.125	893.515
785.982	844.046
789.837	778.573
793.69	736.623
797.542	733.765
801.391	781.608
805.239	868.052
809.085	1125.17
812.93	1509.5
816.772	1653
820.613	1417.5
824.452	1316.05
828.29	1352.86
832.125	1453.74
835.959	1601.69
839.791	1830.72
843.621	2036.8
847.45	2532.97
851.277	3305.2
855.102	4788.57
858.925	7831.48
862.746	15405.2
866.566	36581.8
870.384	46218.4
874.2	21165.2
878.015	8279.01
881.828	4108.98
885.639	2406.08
889.448	1684.38
893.256	1258.47
897.061	960.651
900.865	810.405
904.668	730.047
908.468	608.766
912.267	510.639
916.064	436.563
919.86	390.94
923.653	369.488
927.445	297.688
931.236	294.449
935.024	302.921
938.811	302.06
942.596	283.268
946.379	289.459
950.161	241.715
953.94	237.129
957.719	175.505
961.495	165.022
965.27	109.163
969.043	28.969
972.814	27.586
976.583	15.252
980.351	14.965
984.117	29.417
987.882	18.216
991.644	31.056
995.405	0.942
999.165	3.988
1002.92	15.958
1006.68	13.97
1010.43	6.019
1014.18	11.126
1017.93	19.228
1021.68	10.369
1025.43	6.538
1029.18	4.265
1032.92	29.954
1036.66	16.192
1040.4	38.431
1044.14	15.7
1047.88	9.998
1051.62	5.684
1055.35	3.637
1059.08	11.952
1062.81	5.196
1066.54	11.396
1070.27	9.416
1073.99	7.249
1077.72	20.12
1081.44	7.058
1085.16	14.957
1088.88	30.941
1092.59	16.919
1096.31	33.891
1100.02	4.995
1103.73	25.995
1107.44	8.053
1111.15	32.991
1114.86	52.053
1118.57	32.188
1122.27	27.08
1125.97	27.195
1129.67	10.308
1133.37	15.193
1137.07	39.028
1140.76	43.996
1144.45	32.803
1148.15	26.646
1151.84	34.859
1155.53	52.602
1159.21	17.089
1162.9	79.548
1166.58	76.926
1170.26	96.319
1173.94	82.264
1177.62	95.642
1181.3	35.807
1184.97	61.49
1188.65	60.567
1192.32	63.161
1195.99	83.85
1199.66	84.564
1203.33	85.841
1206.99	71.991
1210.65	76.743
1214.32	52.553
1217.98	34.348
1221.64	69.783
1225.29	57.585
1228.95	88.526
1232.6	65.65
1236.26	47.548
1239.91	28.507
1243.56	10.603
1247.2	19.171
1250.85	50.839
1254.49	36.503
1258.13	41.1
1261.78	34.042
1265.41	27.294
1269.05	3.816
1272.69	29.203
1276.32	19.468
1279.95	30.182
1283.59	12.468
1287.21	18.758
1290.84	26.67
1294.47	51.629
1298.09	58.537
1301.72	9.48
1305.34	5.333
1308.96	5.886
1312.58	7.192
1316.19	11.436
1319.81	33.213
1323.42	28.741
1327.03	33.213
1330.64	44.64
1334.25	6.078
1337.86	7.612
1341.46	8.355
1345.07	21.852
1348.67	1.977
1352.27	24.166
1355.87	28.318
1359.46	47.453
1363.06	39.576
1366.65	55.689
1370.25	43.857
1373.84	7.037
1377.43	1.296
1381.02	24.011
1384.6	22.35
1388.18	44.084
1391.77	42.825
1395.35	61.19
1398.93	55.615
1402.51	32.89
1406.08	28.998
1409.66	24.276
1413.23	22.598
1416.8	24.19
1420.37	5.225
1423.94	17.509
1427.51	9.897
1431.08	33.459
1434.64	57.654
1438.2	27.743
1441.76	94.244
1445.32	41.331
1448.88	15.497
1452.43	49.258
1455.99	23.302
1459.54	5.475
1463.09	44.236
1466.64	57.043
1470.19	58.667
1473.74	69.292
1477.28	51.508
1480.83	67.795
1484.37	63.799
1487.91	61.69
1491.45	33.118
1494.98	34.734
1498.52	32.42
1502.05	36.036
1505.59	54.359
1509.12	52.273
1512.65	65.133
1516.17	90.448
1519.7	104.147
1523.23	0
