Measurement: Raman, 514 nm, depolarized, Raman Data Processed
Mineral: Xenotime-(Y)
Rruff sample: R050178
Ideal chemistry: Y^3+^PO_4_
Locality: Novo Horizonte, Bahia, Brazil
Source: Marcus Origlieri
Description: Brown crystal fragments
Measured chemistry: (Y_0.74_Dy_0.09_Gd_0.06_Er_0.04_Yb_0.02_Ho_0.01_Tb_0.01_Sm_0.01_Eu_0.01_)_Σ=1.00_(P_0.97_As_0.02_Si_0.01_)_Σ=1.00_O_4_
Pin_id: M00421
Orientation: Laser parallel to a* (1 0 0). Fiducial mark perpendicular to laser is parallel to c [0 0 1]
Raman shift (cm-1)	intensity
101.036	0
105.212	27.897
109.387	44.041
113.559	49.868
117.729	94.688
121.897	85.163
126.063	56.468
130.228	65.137
134.39	71.22
138.55	49.415
142.709	51.236
146.865	125.085
151.019	170.49
155.171	164.529
159.322	163.362
163.47	68.204
167.617	12.998
171.761	81.656
175.904	215.219
180.044	276.738
184.183	64.271
188.319	87.901
192.454	95.016
196.586	76.377
200.717	63.205
204.846	58.351
208.972	93.296
213.097	135.684
217.22	380.553
221.341	705.848
225.46	1204.8
229.577	2176.06
233.692	2675.26
237.805	2011.03
241.916	1581.6
246.025	1952.99
250.132	2563.2
254.237	2357.24
258.34	2003.11
262.442	2265.81
266.541	2363.37
270.639	1797.97
274.734	1552.2
278.828	2060.15
282.919	2940.34
287.009	3091.57
291.097	2457.73
295.183	2278.75
299.266	2170.34
303.348	1668.32
307.428	1047.31
311.507	950.148
315.583	917.463
319.657	1043.57
323.729	1276.95
327.8	1957.88
331.868	3210.09
335.935	5128.71
339.999	7568.81
344.062	8691.51
348.123	7184.79
352.182	5482.64
356.239	4481
360.294	4354
364.347	3968.01
368.398	3415.12
372.448	3146.9
376.495	3003.27
380.54	2572.24
384.584	2532.81
388.626	3177.98
392.666	4122.74
396.704	4337.11
400.74	3346.09
404.774	2314.65
408.806	1629.81
412.836	1218.54
416.865	746.846
420.891	658.713
424.916	685.129
428.939	736.079
432.959	704.51
436.978	720.432
440.996	1128.86
445.011	1536.82
449.024	2128.32
453.036	2565.36
457.045	2718.03
461.053	2553.98
465.059	2061.45
469.063	1679.94
473.065	1561.04
477.065	1800.57
481.063	2255.81
485.06	2794.81
489.054	3121.76
493.047	2700.47
497.038	1865.48
501.027	1061.08
505.014	558.314
508.999	309.176
512.982	163.728
516.964	157.355
520.944	86.957
524.921	70.306
528.897	178.405
532.871	308.177
536.844	342.702
540.814	293.049
544.783	439.831
548.749	488.103
552.714	403.167
556.677	314.64
560.638	340.216
564.597	446.907
568.555	553.728
572.511	591.002
576.464	496.589
580.416	834.227
584.366	938.985
588.315	526.984
592.261	323.712
596.206	203.944
600.148	190.653
604.089	183.324
608.028	98.026
611.965	10.891
615.901	20.709
619.834	22.477
623.766	7.092
627.696	30.546
631.624	149.171
635.551	94.024
639.475	73.474
643.398	73.823
647.318	79.747
651.237	19.349
655.155	86.694
659.07	565.186
662.984	619.566
666.895	155.242
670.805	67.852
674.713	128.047
678.62	161.097
682.524	181.663
686.427	177.59
690.328	182.785
694.227	203.116
698.124	284.921
702.02	318.271
705.913	266.82
709.805	275.841
713.695	329.52
717.584	387.465
721.47	426.483
725.355	332.207
729.238	356.907
733.119	341.774
736.998	405.91
740.876	428.786
744.752	390.287
748.626	331.363
752.498	378.492
756.368	401.995
760.237	420.204
764.104	413.986
767.969	345.94
771.832	393.864
775.693	434.178
779.553	479.853
783.411	505.483
787.267	474.082
791.122	544.293
794.974	613.094
798.825	704.884
802.674	761.759
806.522	732.806
810.367	716.967
814.211	777.216
818.053	872.413
821.893	939.206
825.732	885.455
829.568	882.325
833.403	807.748
837.236	863.308
841.068	872.89
844.898	804.676
848.726	759.552
852.552	758.631
856.376	779.912
860.199	899.241
864.02	1010.98
867.839	1043.48
871.656	1014.9
875.472	906.128
879.286	861.673
883.098	911.261
886.909	971.348
890.717	873.801
894.524	702.943
898.33	588.588
902.133	602.115
905.935	663.047
909.735	722.371
913.533	700.773
917.33	346.029
921.124	122.35
924.918	31.193
928.709	21.42
932.499	67.637
936.286	218.043
940.073	356.19
943.857	420.71
947.64	349.591
951.421	289.949
955.2	183.073
958.978	251.191
962.753	298.472
966.527	500.932
970.3	467.299
974.071	335.603
977.84	86.754
981.607	60.269
985.372	416.802
989.136	757.332
992.898	1820.26
996.659	5401.09
1000.42	18829
1004.17	12977.4
1007.93	8220.7
1011.68	11260.5
1015.43	15283.8
1019.18	14150
1022.93	9937.85
1026.68	7326.68
1030.42	5146.11
1034.17	4366.1
1037.91	4737.08
1041.65	7149.17
1045.39	10991.6
1049.12	13314.2
1052.86	12677.6
1056.59	15922.6
1060.33	21280.2
1064.06	26419.7
1067.78	37487.3
1071.51	28779.8
1075.23	15535.4
1078.96	8281.14
1082.68	4546.51
1086.4	2642.99
1090.12	2182.45
1093.83	3413.3
1097.55	6946.53
1101.26	9430.48
1104.97	8261.22
1108.68	9221.99
1112.39	13874.8
1116.1	22717.9
1119.8	29737
1123.5	26170.6
1127.2	18995.4
1130.9	14672.2
1134.6	11952.8
1138.3	10948.1
1141.99	11697.3
1145.69	14680.4
1149.38	20257.5
1153.07	30038.8
1156.76	39444.3
1160.44	43363.9
1164.13	39987.6
1167.81	29905.4
1171.49	21357.3
1175.17	15383.2
1178.85	12223.2
1182.52	9447.34
1186.2	6925.56
1189.87	5067.87
1193.54	3774.29
1197.21	2864.81
1200.88	3079.44
1204.55	4488.16
1208.21	6860.95
1211.88	9147.77
1215.54	9588.62
1219.2	8183.64
1222.86	7163.06
1226.51	7347.07
1230.17	9096.99
1233.82	12959.6
1237.47	17694.7
1241.12	23336.5
1244.77	27108.1
1248.42	28225.7
1252.06	27464.4
1255.71	24212.2
1259.35	20335
1262.99	16583
1266.63	13243.6
1270.26	11235.7
1273.9	10180.9
1277.53	10291.4
1281.16	11235.6
1284.8	11972.7
1288.42	13408.9
1292.05	15435.2
1295.68	16324
1299.3	17723.2
1302.92	19355.7
1306.55	21247.3
1310.16	20466.7
1313.78	18258.9
1317.4	15562.5
1321.01	12419.2
1324.62	10216.3
1328.24	8344.72
1331.85	7213.5
1335.45	6523.77
1339.06	6265.22
1342.66	5237.04
1346.27	4189.26
1349.87	3261.69
1353.47	2433.39
1357.07	1465.63
1360.66	1187.05
1364.26	645.546
1367.85	536.991
1371.44	292.894
1375.04	4.614
1378.62	104.65
1382.21	136.638
1385.8	34.466
1389.38	242.31
1392.96	373.18
1396.54	529.244
1400.12	546.327
1403.7	486.357
1407.28	359.537
1410.85	207.44
1414.42	101.324
1417.99	229.827
1421.56	309.079
1425.13	204.037
1428.7	155.867
1432.26	114.753
1435.83	46.021
1439.39	122.078
1442.95	13.083
1446.51	190.115
1450.06	411.604
1453.62	528.446
1457.17	621.646
1460.73	620.844
1464.28	634.497
1467.83	519.709
1471.37	520.262
1474.92	482.922
1478.46	517.042
1482.01	517.262
1485.55	468.578
1489.09	510.823
1492.63	525.993
1496.16	561.309
1499.7	527.76
1503.23	489.279
1506.76	376.656
1510.29	338.698
1513.82	176.935
1517.35	96.643
1520.88	0
