Measurement: Raman, 514 nm, depolarized, Raman Data Processed
Mineral: Xenotime-(Y)
Rruff sample: R050178
Ideal chemistry: Y^3+^PO_4_
Locality: Novo Horizonte, Bahia, Brazil
Source: Marcus Origlieri
Description: Brown crystal fragments
Measured chemistry: (Y_0.74_Dy_0.09_Gd_0.06_Er_0.04_Yb_0.02_Ho_0.01_Tb_0.01_Sm_0.01_Eu_0.01_)_Σ=1.00_(P_0.97_As_0.02_Si_0.01_)_Σ=1.00_O_4_
Pin_id: L00394
Orientation: Laser parallel to -c* (0 0 -1). Fiducial mark perpendicular to laser is parallel to a [1 0 0]
Raman shift (cm-1)	intensity
48.666	0
52.873	70.747
57.079	138.98
61.283	164.57
65.484	122.456
69.684	105.646
73.881	134.175
78.076	112.209
82.27	147.886
86.461	88.049
90.65	147.38
94.838	160.174
99.023	224.882
103.206	244.108
107.387	228.624
111.566	214.445
115.744	195.589
119.919	122.815
124.092	78.873
128.263	44.174
132.432	41.91
136.599	9.844
140.764	26.025
144.927	9.018
149.088	24.411
153.247	48.431
157.404	23.255
161.559	3.012
165.711	146.257
169.862	316.537
174.011	481.702
178.158	305.686
182.303	0.355
186.446	47.323
190.587	11.137
194.726	56.093
198.862	49.574
202.997	124.518
207.13	277.949
211.261	497.938
215.39	760.446
219.517	1385.27
223.642	2403.3
227.765	3018.38
231.886	2471.5
236.005	2212.64
240.122	2861.71
244.237	3720.75
248.35	3478.07
252.461	3115.99
256.57	3292.34
260.677	3294.8
264.782	2347.64
268.885	1512.49
272.986	1096.4
277.085	1193.02
281.182	2050.54
285.278	1777.62
289.371	901.36
293.462	827.227
297.552	1002.97
301.639	861.567
305.724	662.684
309.808	713.803
313.889	916.604
317.969	1070.66
322.046	1279
326.122	2189.89
330.196	4749.58
334.267	5722.8
338.337	5715.41
342.405	4885.45
346.471	4088.9
350.535	3819.04
354.597	4140.87
358.657	4240.63
362.715	3937.89
366.771	3726.61
370.825	3187.79
374.877	2335.42
378.928	1903.5
382.976	1672.9
387.023	1650.64
391.067	1663.72
395.11	1354.17
399.15	855.998
403.189	414.218
407.226	198.849
411.261	205.901
415.294	219.389
419.325	187.331
423.354	222.737
427.381	294.619
431.406	381.99
435.43	274.856
439.451	208.223
443.471	276.968
447.488	478.753
451.504	462.969
455.518	457.949
459.53	723.099
463.54	984.793
467.548	1202.06
471.554	1525.45
475.558	2163.64
479.561	3366.75
483.561	4066.95
487.559	3396.37
491.556	2122.35
495.551	1407.88
499.544	900.97
503.535	440.603
507.524	181.788
511.511	125.891
515.496	160.913
519.48	135.435
523.461	135.834
527.441	192.587
531.418	379.93
535.394	453.729
539.368	341.219
543.34	223.355
547.311	254.54
551.279	256.401
555.245	226.146
559.21	66.449
563.173	115.127
567.133	236.574
571.092	285.139
575.049	272.854
579.005	136.041
582.958	205.341
586.909	235.895
590.859	147.417
594.807	24.142
598.753	32.045
602.697	8.771
606.639	40.422
610.579	21.779
614.518	63.386
618.454	67.468
622.389	40.916
626.322	34.034
630.253	64.592
634.182	85.392
638.109	92.588
642.035	22.12
645.958	130.59
649.88	213.475
653.8	628.725
657.718	1048.9
661.634	405.936
665.549	210.577
669.461	148.971
673.372	135.257
677.281	157.145
681.188	280.561
685.093	275.447
688.997	309.664
692.898	243.233
696.798	310.49
700.696	392.714
704.592	450.762
708.486	463.43
712.378	387.056
716.269	483.537
720.158	583.62
724.045	641.709
727.93	646.362
731.813	577.864
735.694	628.09
739.574	678.888
743.452	802.43
747.328	786.784
751.202	703.63
755.075	683.194
758.945	713.195
762.814	743.269
766.681	772.893
770.546	645.493
774.409	616.643
778.271	686.448
782.131	752.908
785.989	816.275
789.845	818.649
793.699	817.162
797.552	837.282
801.402	947.966
805.251	1066.8
809.098	1103.66
812.944	1068.27
816.787	1055.87
820.629	1103.96
824.469	1169.01
828.307	1128.88
832.144	1022.13
835.978	941.533
839.811	887.619
843.642	937.812
847.472	965.675
851.299	934.947
855.125	822.179
858.949	764.803
862.771	762.104
866.591	805.702
870.41	851.039
874.227	738.586
878.042	606.62
881.855	529.034
885.667	516.424
889.476	556.344
893.284	574.674
897.09	494.326
900.895	416.391
904.698	559.588
908.499	671.723
912.298	604.415
916.095	314.89
919.891	128.547
923.685	124.667
927.477	274.884
931.267	174.167
935.056	213.812
938.843	153.321
942.628	369.194
946.411	482.292
950.193	571.287
953.973	460.004
957.751	268.801
961.527	169.483
965.302	247.378
969.075	449.137
972.846	352.768
976.615	87.573
980.383	558.012
984.149	1587.43
987.913	2683.1
991.675	5321.21
995.436	16894.8
999.195	21208.1
1002.95	11901.5
1006.71	18214.1
1010.46	28658.8
1014.21	27854
1017.96	17271.2
1021.71	9010.42
1025.46	5467.25
1029.2	3662.35
1032.95	2958.14
1036.69	3104.29
1040.43	4372.6
1044.17	4991.05
1047.9	5557.75
1051.64	10979.1
1055.37	23144.1
1059.1	16753.8
1062.83	15864.2
1066.56	13194.9
1070.29	8616.73
1074.01	4901.04
1077.73	3096.3
1081.46	2731.83
1085.17	3493.48
1088.89	5552.45
1092.61	11132.6
1096.32	15761.5
1100.04	11950.7
1103.75	11833.7
1107.46	18710.5
1111.16	32978.1
1114.87	47101.8
1118.57	44133.2
1122.28	29501
1125.98	18317.4
1129.67	12631.2
1133.37	10599.1
1137.07	10801.1
1140.76	12647.4
1144.45	16368.1
1148.14	21223.3
1151.83	27313.1
1155.52	31347.4
1159.21	29956.3
1162.89	24599.8
1166.57	17397.9
1170.25	11890.7
1173.93	7788.21
1177.61	4860.4
1181.28	3027.31
1184.96	2098.99
1188.63	2195.4
1192.3	3586.59
1195.97	5922.56
1199.64	9233.27
1203.3	13618.6
1206.97	16868.4
1210.63	16082.7
1214.29	13311.6
1217.95	11375.3
1221.6	11424
1225.26	13997.9
1228.91	18687
1232.57	24134.3
1236.21	28669
1239.86	31791.1
1243.51	33666.2
1247.16	35267.8
1250.8	35790.8
1254.44	34117.9
1258.08	29437.6
1261.72	24232.3
1265.36	18816.2
1268.99	14999.6
1272.63	13515.2
1276.26	13929.9
1279.89	15808.3
1283.52	18004.9
1287.15	21577.5
1290.77	23917.6
1294.4	24578.7
1298.02	24930.7
1301.64	24696
1305.26	22959.9
1308.88	19474.2
1312.49	16291.9
1316.11	14279.7
1319.72	12270.6
1323.33	10669.4
1326.94	9280.98
1330.55	7880.49
1334.15	6412.8
1337.76	4834.77
1341.36	3678.65
1344.96	2923.77
1348.56	2507.8
1352.16	2203.36
1355.75	2029.23
1359.35	1994.92
1362.94	1370.69
1366.53	965.628
1370.12	301.058
1373.71	231.04
1377.3	286.281
1380.88	455.788
1384.46	457.948
1388.05	158.838
1391.63	98.145
1395.2	82.864
1398.78	48.077
1402.36	121.889
1405.93	102.668
1409.5	387.146
1413.07	319.594
1416.64	273.956
1420.21	129.479
1423.78	24.135
1427.34	192.207
1430.9	272.703
1434.46	375.575
1438.02	327.089
1441.58	300.65
1445.13	234.798
1448.69	201.215
1452.24	237.037
1455.79	333.101
1459.34	381.071
1462.89	601.941
1466.44	756.876
1469.98	865.701
1473.53	974.691
1477.07	925.432
1480.61	873.136
1484.14	765.563
1487.68	676.143
1491.22	502.403
1494.75	439.061
1498.28	407.308
1501.81	392.05
1505.34	455.683
1508.87	481.561
1512.4	495.842
1515.92	447.52
1519.44	377.443
1522.96	0
