Measurement: Raman, 514 nm, depolarized, Raman Data Processed
Mineral: Zircon
Rruff sample: R050488
Ideal chemistry: Zr^4+^SiO_4_
Locality: Sigulani Village, Tambani Area, Blantyre District, Nyassaland
Source: California Institute of Technology
Description: Brown fragment
Measured chemistry: (Zr_0.99_Hf_0.01_)_Î£=1_Si_1.00_O_4_
Pin_id: L00554
Orientation: Laser parallel to c* (0 0 1). Fiducial mark perpendicular to laser is parallel to a [1 0 0]
Raman shift (cm-1)	intensity
141.352	0
145.046	52.542
148.739	90.9424
152.431	93.5801
156.121	154.178
159.809	138.148
163.496	232.538
167.181	149.234
170.865	175.398
174.547	170.683
178.228	44.5576
181.907	143.614
185.585	163.996
189.261	180.487
192.935	286.519
196.608	473.028
200.28	501.661
203.95	729.358
207.618	776.695
211.285	876
214.95	1428.68
218.614	1433.81
222.277	935.598
225.937	898.217
229.597	786.737
233.254	270.25
236.911	178.484
240.565	42.9443
244.218	55.6426
247.87	162.618
251.52	98.9453
255.169	1.44824
258.816	16.5381
262.461	165.581
266.105	176.89
269.748	198.627
273.389	95.5723
277.028	166.618
280.666	79.8106
284.303	33.1191
287.938	26.0283
291.571	129.371
295.203	13.1875
298.833	26.96
302.462	50.6065
306.089	14.3535
309.715	74.9941
313.339	54.3984
316.962	63.4121
320.583	117.427
324.203	85.6074
327.821	60.9404
331.438	54.419
335.053	63.0225
338.667	111.744
342.279	80.5752
345.889	253.51
349.498	796.529
353.106	1304.31
356.712	2105.49
360.317	2339.17
363.92	915.498
367.521	400.256
371.121	227.374
374.72	231.822
378.317	197.523
381.912	30.2783
385.506	172.844
389.099	195.495
392.69	326.358
396.279	330.219
399.867	196.246
403.454	109.927
407.039	212.637
410.622	210.415
414.204	341.443
417.785	112.25
421.364	351.103
424.941	584.648
428.517	923.572
432.091	1686.6
435.664	3228.19
439.236	5735.13
442.806	5958.3
446.374	3282.45
449.941	1520.41
453.506	797.664
457.07	597.316
460.633	356.542
464.194	146.768
467.753	120.959
471.311	238.685
474.868	67.915
478.423	112.137
481.976	239.342
485.528	100.753
489.078	137.976
492.627	1.82617
496.175	203.336
499.721	154.897
503.265	159.898
506.808	216.827
510.35	156.648
513.89	132.55
517.428	23.1855
520.965	168.758
524.501	122.413
528.035	44.4385
531.567	63.6904
535.098	54.1426
538.628	23.8037
542.156	117.238
545.683	138.095
549.208	81.749
552.731	75.7959
556.254	176.131
559.774	281.346
563.293	108.466
566.811	45.5273
570.327	189.42
573.842	168.273
577.355	123.27
580.867	101.84
584.377	395.102
587.886	209.82
591.393	113.559
594.899	350.863
598.403	372.913
601.906	403.832
605.408	381.639
608.908	404.753
612.406	387.346
615.903	227.023
619.398	220.834
622.892	274.839
626.385	296.478
629.876	373.212
633.365	325.773
636.853	88.7041
640.34	347.438
643.825	358.049
647.309	245.329
650.791	301.465
654.272	229.74
657.751	315.381
661.229	284.714
664.705	164.981
668.18	185.734
671.653	196.175
675.125	127.242
678.595	43.3897
682.064	127.134
685.532	159.141
688.998	148.141
692.462	203.943
695.925	340.34
699.387	209.809
702.847	293.219
706.305	133.051
709.763	160.074
713.218	27.2695
716.672	40.6992
720.125	245.525
723.577	61.3457
727.026	41.416
730.475	193.121
733.922	213.484
737.367	240.832
740.811	216.018
744.254	239.361
747.695	220.959
751.134	56.8496
754.572	47.5156
758.009	96.2949
761.444	113.51
764.878	185.637
768.31	73.4141
771.741	373.332
775.17	221.109
778.598	217.586
782.025	292.559
785.45	328.586
788.873	111.498
792.295	151.863
795.716	169.014
799.135	131.512
802.553	19.3594
805.969	127.231
809.384	91.7852
812.797	114.197
816.209	122.387
819.62	209.008
823.029	240.44
826.436	237.797
829.842	148.65
833.247	126.762
836.65	157.647
840.052	81.3164
843.452	185.592
846.851	341.846
850.249	20.8906
853.645	173.779
857.039	119.256
860.432	104.488
863.824	230.162
867.214	166.611
870.603	223.777
873.99	325.299
877.376	15.1426
880.76	32.0137
884.143	252.215
887.524	60.1074
890.904	46.7715
894.283	185.565
897.66	197.783
901.036	44.5078
904.41	158.924
907.783	88.4863
911.154	9.9707
914.524	76.4707
917.893	21.4707
921.26	140.762
924.626	168.732
927.99	81.7871
931.353	6.77539
934.714	215.033
938.074	94.3301
941.432	164.041
944.789	66.7519
948.145	162.221
951.499	197.121
954.852	-35.7145
958.203	442.804
961.553	321.338
964.901	307.784
968.248	718.896
971.594	1136.08
974.938	3173.74
978.28	2354.75
981.622	1023.66
984.961	608.734
988.3	422.328
991.637	402.334
994.972	771.238
998.306	1181.11
1001.64	2851.42
1004.97	7912.16
1008.3	19549
1011.63	16889.4
1014.96	4774.15
1018.28	1560.28
1021.61	855.426
1024.93	388.625
1028.25	253.789
1031.57	122.736
1034.89	130.19
1038.2	52.1582
1041.52	239.875
1044.83	259.986
1048.15	207.961
1051.46	231.262
1054.77	230.461
1058.08	-73.3061
1061.38	297.043
1064.69	67.4401
1067.99	-54.1844
1071.3	248.887
1074.6	282.327
1077.9	325.225
1081.19	303.25
1084.49	334.604
1087.79	317.757
1091.08	120.24
1094.38	118.035
1097.67	185.226
1100.96	217.879
1104.24	320.827
1107.53	7.23367
1110.82	305.605
1114.1	243.734
1117.38	311.129
1120.67	207.652
1123.95	490.125
1127.22	394.527
1130.5	210.869
1133.78	152.457
1137.05	273.852
1140.33	300.074
1143.6	303.35
1146.87	280.908
1150.14	181.084
1153.4	530.232
1156.67	264.357
1159.93	244.463
1163.2	236.518
1166.46	300.691
1169.72	171.631
1172.98	68.5996
1176.24	45.498
1179.49	297.537
1182.75	113.277
1186	20.8262
1189.25	263.676
1192.5	195.627
1195.75	206.566
1199	146.772
1202.25	216.418
1205.49	273.529
1208.73	162.203
1211.98	160.482
1215.22	111.906
1218.46	194.301
1221.69	273.641
1224.93	301.832
1228.17	39.457
1231.4	44.5352
1234.63	82.4883
1237.86	65.5938
1241.09	85.2246
1244.32	91.9258
1247.55	150.559
1250.77	193.793
1254	309.356
1257.22	162.928
1260.44	208.037
1263.66	91.3047
1266.88	93.4531
1270.1	206.457
1273.31	15.2988
1276.53	206.022
1279.74	220.69
1282.95	203.305
1286.16	343.688
1289.37	250.166
1292.58	49.1367
1295.78	152.512
1298.98	29.3594
1302.19	177.943
1305.39	336.799
1308.59	145.961
1311.79	273.113
1314.99	117.025
1318.18	94.0684
1321.38	150.023
1324.57	11.752
1327.76	134.754
1330.95	107.152
1334.14	103.955
1337.33	44.9707
1340.52	70.0547
1343.7	174.615
1346.88	306.078
1350.07	162.533
1353.25	414.881
1356.43	288.766
1359.61	361.496
1362.78	305.674
1365.96	279.826
1369.13	347.103
1372.3	245.815
1375.48	399.412
1378.64	382.106
1381.81	404.301
1384.98	262.732
1388.15	305.961
1391.31	98.0195
1394.47	256.693
1397.64	297.578
1400.8	105.494
1403.95	86.1699
1407.11	264.273
1410.27	151.606
1413.42	200.424
1416.58	114.986
1419.73	40.916
1422.88	3.94531
1426.03	175.332
1429.18	1.45703
1432.32	38.0469
1435.47	297.07
1438.61	172.402
1441.75	158.016
1444.89	225.723
1448.03	52.3789
1451.17	94.9883
1454.31	177.477
1457.44	0.339844
