Measurement: Raman, 514 nm, ccw, Raman Data Processed
Mineral: Zircon
Rruff sample: R050203
Ideal chemistry: Zr^4+^SiO_4_
Locality: Eastern Thailand
Source: Eric Van Valkenburg
Description: Dark red water-worn single crystal
Measured chemistry: (Zr_0.99_Hf_0.01_)_Î£=1_Si_1.00_O_4_
Pin_id: L01102
Orientation: Laser parallel to c* (0 0 1). Fiducial mark perpendicular to laser is parallel to a [1 0 0]
Raman shift (cm-1)	intensity
126.558	0
130.259	3.37086
133.958	51.4843
137.656	1.26446
141.352	31.581
145.046	20.8774
148.739	21.476
152.431	17.275
156.121	40.2996
159.809	73.5963
163.496	48.0592
167.181	26.3951
170.865	30.6953
174.547	26.1606
178.228	44.8924
181.907	27.373
185.585	44.9872
189.261	14.6469
192.935	65.0926
196.608	113.602
200.28	173.858
203.95	339.48
207.618	789.396
211.285	1426.82
214.95	1606.33
218.614	1148.05
222.277	577.786
225.937	333.459
229.597	184.22
233.254	92.9972
236.911	61.7869
240.565	39.5865
244.218	4.39449
247.87	11.2088
251.52	16.0248
255.169	7.84221
258.816	6.65271
262.461	36.4551
266.105	78.2459
269.748	36.0236
273.389	3.89603
277.028	19.5547
280.666	18.9043
284.303	26.9689
287.938	1.67023
291.571	4.69095
295.203	2.05109
298.833	11.4009
302.462	4.25818
306.089	31.0692
309.715	9.62003
313.339	0.656372
316.962	6.07944
320.583	17.1511
324.203	11.3488
327.821	22.5301
331.438	16.6897
335.053	8.83041
338.667	16.9412
342.279	33.6854
345.889	119.121
349.498	248.196
353.106	483.267
356.712	638.339
360.317	496.4
363.92	233.442
367.521	116.447
371.121	64.4031
374.72	39.362
378.317	71.3406
381.912	82.335
385.506	181.957
389.099	305.818
392.69	346.572
396.279	339.645
399.867	251.7
403.454	184.713
407.039	151.307
410.622	151.564
414.204	136.618
417.785	161.633
421.364	371.537
424.941	903.144
428.517	1894.39
432.091	4576.27
435.664	9398.54
439.236	13655.7
442.806	10504.4
446.374	4974.38
449.941	2272.98
453.506	1223.08
457.07	765.64
460.633	563.664
464.194	393.473
467.753	308.926
471.311	226.476
474.868	173.498
478.423	140.994
481.976	113.513
485.528	97.2023
489.078	69.6284
492.627	77.229
496.175	60.8666
499.721	38.5299
503.265	69.2175
506.808	52.9297
510.35	72.6673
513.89	50.444
517.428	71.5519
520.965	62.3899
524.501	59.257
528.035	41.1844
531.567	27.2089
535.098	71.4457
538.628	52.8995
542.156	33.9133
545.683	48.8528
549.208	81.9547
552.731	35.0986
556.254	47.277
559.774	10.4803
563.293	51.7147
566.811	30.3948
570.327	39.6912
573.842	19.0228
577.355	18.3774
580.867	28.7545
584.377	35.2418
587.886	4.61536
591.393	14.5958
594.899	5.89157
598.403	10.5825
601.906	3.96118
605.408	20.5443
608.908	17.8344
612.406	26.7964
615.903	55.463
619.398	39.1357
622.892	13.8264
626.385	38.0067
629.876	28.7349
633.365	26.9131
636.853	0.87085
640.34	56.6521
643.825	41.447
647.309	21.2452
650.791	10.1621
654.272	18.3906
657.751	5.46124
661.229	17.4873
664.705	15.0944
668.18	18.2169
671.653	21.7769
675.125	47.5866
678.595	12.3864
682.064	12.4767
685.532	2.11841
688.998	25.2981
692.462	28.5696
695.925	3.35092
699.387	31.2043
702.847	30.1383
706.305	40.9458
709.763	43.5686
713.218	57.2928
716.672	28.157
720.125	13.1875
723.577	4.85803
727.026	1.46738
730.475	30.5568
733.922	35.2
737.367	29.1242
740.811	10.6361
744.254	63.2889
747.695	14.0243
751.134	37.5895
754.572	8.68439
758.009	12.2232
761.444	30.8205
764.878	106.398
768.31	17.8993
771.741	11.3748
775.17	30.9561
778.598	50.3104
782.025	22.6432
785.45	25.9553
788.873	15.7569
792.295	3.47217
795.716	28.3815
799.135	34.5586
802.553	43.7086
805.969	5.19421
809.384	59.7994
812.797	34.1281
816.209	16.175
819.62	7.47128
823.029	12.2988
826.436	3.23087
829.842	20.1036
833.247	4.94522
836.65	8.76446
840.052	5.54385
843.452	18.8876
846.851	19.6098
850.249	10.298
853.645	30.9648
857.039	24.6122
860.432	32.2143
863.824	23.4637
867.214	3.02878
870.603	32.5721
873.99	15.0899
877.376	20.5973
880.76	9.91174
884.143	7.54559
887.524	7.0094
890.904	14.6093
894.283	8.77036
897.66	6.13617
901.036	18.9875
904.41	0.687866
907.783	3.83872
911.154	13.236
914.524	14.4879
917.893	38.733
921.26	35.0027
924.626	20.7615
927.99	0.191376
931.353	39.0761
934.714	21.1485
938.074	12.3435
941.432	29.9072
944.789	26.2441
948.145	34.5906
951.499	77.9376
954.852	52.1334
958.203	103.488
961.553	154.286
964.901	254.31
968.248	737.567
971.594	2837.92
974.938	6644.06
978.28	4147.45
981.622	1175.95
984.961	553.335
988.3	423.593
991.637	516.981
994.972	689.124
998.306	1275.56
1001.64	3901.86
1004.97	14951.6
1008.3	32101
1011.63	20331.5
1014.96	5629.2
1018.28	1684.67
1021.61	697.642
1024.93	440.17
1028.25	306.724
1031.57	203.206
1034.89	180.57
1038.2	132.444
1041.52	96.8835
1044.83	106.548
1048.15	93.9586
1051.46	104.047
1054.77	93.8057
1058.08	62.4179
1061.38	37.1964
1064.69	63.3262
1067.99	54.5311
1071.3	58.196
1074.6	79.9354
1077.9	109.623
1081.19	87.2942
1084.49	139.205
1087.79	254.137
1091.08	325.354
1094.38	247.341
1097.67	130.359
1100.96	142.393
1104.24	162.504
1107.53	251.518
1110.82	302.61
1114.1	254.722
1117.38	147.853
1120.67	106.397
1123.95	108.557
1127.22	81.7446
1130.5	104.971
1133.78	88.2311
1137.05	54.5116
1140.33	129.817
1143.6	182.138
1146.87	236.476
1150.14	155.838
1153.4	93.2164
1156.67	83.6166
1159.93	28.0405
1163.2	16.4754
1166.46	11.9235
1169.72	9.39447
1172.98	21.87
1176.24	0.443787
1179.49	8.92248
1182.75	19.3721
1186	13.1121
1189.25	12.0604
1192.5	1.41278
1195.75	11.7607
1199	0.677673
1202.25	4.13507
1205.49	8.86194
1208.73	37.4178
1211.98	40.6765
1215.22	21.942
1218.46	20.2137
1221.69	58.4813
1224.93	26.7526
1228.17	59.0273
1231.4	59.1228
1234.63	39.5826
1237.86	45.8614
1241.09	29.1401
1244.32	32.4177
1247.55	37.7184
1250.77	43.0122
1254	59.2704
1257.22	26.5291
1260.44	94.1829
1263.66	74.4862
1266.88	121.382
1270.1	123.979
1273.31	123.297
1276.53	80.6697
1279.74	111.424
1282.95	78.6734
1286.16	43.1702
1289.37	72.558
1292.58	37.5947
1295.78	65.5518
1298.98	44.1929
1302.19	47.9827
1305.39	58.6435
1308.59	65.5019
1311.79	51.4676
1314.99	15.3403
1318.18	26.0745
1321.38	29.9713
1324.57	30.8055
1327.76	28.0596
1330.95	21.3884
1334.14	27.4106
1337.33	41.7248
1340.52	97.0345
1343.7	89.3393
1346.88	118.118
1350.07	133.392
1353.25	127.585
1356.43	132.705
1359.61	106.774
1362.78	87.8002
1365.96	57.7828
1369.13	42.7264
1372.3	38.4724
1375.48	35.4503
1378.64	27.4881
1381.81	22.8065
1384.98	16.6901
1388.15	7.34308
1391.31	40.6564
1394.47	25.0234
1397.64	17.4148
1400.8	34.8218
1403.95	1.73926
1407.11	42.7555
1410.27	46.1504
1413.42	3.79394
1416.58	43.5688
1419.73	27.22
1422.88	41.7222
1426.03	170.533
1429.18	104.433
1432.32	42.6463
1435.47	31.5832
1438.61	13.8951
1441.75	2.06329
