Measurement: Raman, 514 nm, ccw, Raman Data Processed
Mineral: Zircon
Rruff sample: R050488
Ideal chemistry: Zr^4+^SiO_4_
Locality: Sigulani Village, Tambani Area, Blantyre District, Nyassaland
Source: California Institute of Technology
Description: Brown fragment
Measured chemistry: (Zr_0.99_Hf_0.01_)_Î£=1_Si_1.00_O_4_
Pin_id: L01932
Orientation: Laser parallel to -a* (-1 0 0). Fiducial mark perpendicular to laser is parallel to c [0 0 1]
Raman shift (cm-1)	intensity
132.725	0
136.423	1.3186
140.12	24.3694
143.815	12.4426
147.508	18.4793
151.2	48.7723
154.891	30.0663
158.58	56.0095
162.267	110.355
165.953	59.0917
169.637	35.6185
173.32	72.4418
177.001	44.3154
180.681	28.1984
184.359	45.038
188.035	51.8647
191.711	130.699
195.384	198.938
199.056	281.632
202.727	422.432
206.395	340.466
210.063	192.58
213.729	172.71
217.393	266.304
221.056	542.925
224.717	729.594
228.377	702.345
232.035	269.174
235.692	110.078
239.347	33.2124
243.001	29.101
246.653	23.2085
250.304	23.3763
253.953	17.6034
257.6	15.8893
261.246	2.31995
264.891	5.3631
268.534	2.09778
272.175	21.5986
275.815	1.10468
279.454	14.336
283.091	18.6426
286.726	6.50653
290.36	19.809
293.992	35.296
297.623	36.7136
301.252	9.31201
304.88	16.9721
308.507	89.7189
312.131	51.521
315.755	30.3623
319.376	72.2366
322.996	71.0701
326.615	105.082
330.232	94.0559
333.848	64.063
337.462	106.104
341.075	168.18
344.686	401.283
348.296	844.37
351.904	1528.47
355.51	2199.58
359.115	2246.72
362.719	1388.9
366.321	586.093
369.921	308.33
373.52	254.606
377.118	153.918
380.714	212.267
384.309	159.653
387.902	160.077
391.493	168.537
395.083	160.11
398.671	190.637
402.258	146.03
405.844	167.547
409.428	212.954
413.01	263.625
416.591	288.829
420.171	487.497
423.749	651.704
427.325	1086.67
430.9	2280.86
434.473	4351.4
438.045	6530.29
441.616	7335.06
445.185	4678.01
448.752	1974.62
452.318	918.234
455.883	562.29
459.445	420.377
463.007	307.493
466.567	229.633
470.125	184.954
473.682	161.146
477.238	121.364
480.792	118.611
484.344	61.0914
487.895	56.9078
491.445	69.2454
494.992	64.8038
498.539	75.1841
502.084	28.5846
505.627	51.5353
509.169	52.9741
512.71	32.4309
516.249	47.9053
519.786	83.3966
523.322	37.9815
526.857	23.5049
530.39	60.3506
533.922	3.90478
537.452	46.4735
540.98	52.0551
544.507	4.65234
548.033	68.2645
551.557	46.9021
555.08	35.5685
558.601	11.7443
562.121	37.9473
565.639	21.6514
569.155	7.37341
572.671	33.0997
576.184	23.8193
579.697	7.44714
583.207	26.257
586.717	12.0554
590.224	25.0858
593.731	32.0294
597.235	15.6301
600.739	6.00696
604.241	16.6108
607.741	18.2128
611.24	29.0533
614.737	36.0121
618.233	26.6091
621.728	71.7168
625.221	15.4052
628.712	39.9725
632.202	33.3223
635.691	50.1899
639.178	12.7351
642.664	29.2728
646.148	37.8021
649.63	38.3082
653.112	56.8054
656.591	46.2927
660.069	62.7767
663.546	39.2508
667.022	0.746216
670.495	38.2784
673.968	55.4277
677.439	46.3541
680.908	37.8453
684.376	44.2936
687.842	34.9406
691.307	33.8752
694.771	23.0884
698.233	37.8772
701.694	52.4017
705.153	27.7607
708.61	60.2467
712.066	95.219
715.521	67.1819
718.974	57.3314
722.426	64.2887
725.877	19.5041
729.325	14.0939
732.773	59.3076
736.219	8.54395
739.663	23.5665
743.106	37.6588
746.548	62.265
749.988	28.6641
753.426	43.7827
756.864	8.12707
760.299	68.7612
763.734	74.4831
767.166	52.8602
770.598	11.7183
774.028	32.9838
777.456	22.8011
780.883	15.5996
784.308	71.8487
787.732	51.6102
791.155	57.3607
794.576	41.5691
797.996	106.282
801.414	76.4432
804.831	83.0409
808.246	28.5022
811.66	13.1349
815.072	30.7426
818.483	38.3291
821.893	1.89551
825.301	38.5093
828.707	1.02991
832.112	39.7316
835.516	9.2074
838.918	39.6659
842.319	45.1045
845.718	35.5212
849.116	6.07031
852.513	3.69238
855.908	5.6543
859.301	5.00293
862.693	10.3054
866.084	43.3236
869.473	42.1323
872.861	59.6664
876.247	55.6282
879.632	54.2351
883.015	33.4966
886.397	6.50244
889.778	2.62878
893.157	24.4544
896.535	13.2981
899.911	32.327
903.286	53.5112
906.659	45.6797
910.031	30.7544
913.401	17.9051
916.77	39.0524
920.138	54.2126
923.504	35.3658
926.869	55.5411
930.232	74.7075
933.594	67.8581
936.954	10.9847
940.313	11.9526
943.67	32.0199
947.026	17.9121
950.381	44.8251
953.734	62.7826
957.086	0.450439
960.436	48.5185
963.785	3.80164
967.133	64.1096
970.479	165.984
973.823	225.831
977.166	268.761
980.508	111.541
983.848	60.7836
987.187	55.1949
990.525	51.9103
993.861	62.5284
997.195	114.259
1000.53	131.172
1003.86	229.045
1007.19	433.96
1010.52	534.879
1013.85	207.795
1017.17	94.6706
1020.5	92.5359
1023.82	73.0986
1027.14	57.2394
1030.46	131.837
1033.78	110.781
1037.1	76.9578
1040.41	136.929
1043.73	128.268
1047.04	221.604
1050.35	375.245
1053.66	554.269
1056.97	629.751
1060.28	466.121
1063.59	252.773
1066.89	109.85
1070.19	100.192
1073.5	122.394
1076.8	177.245
1080.1	220.173
1083.39	314.134
1086.69	514.097
1089.98	494.922
1093.28	316.917
1096.57	274.599
1099.86	165.564
1103.15	106.53
1106.44	177.484
1109.72	219.402
1113.01	303.3
1116.29	223.2
1119.57	178.123
1122.85	129.09
1126.13	74.0494
1129.41	160.015
1132.69	18.9816
1135.96	86.948
1139.23	67.9117
1142.51	120.518
1145.78	216.825
1149.05	255.772
1152.32	116.711
1155.58	66.6433
1158.85	10.4312
1162.11	34.4927
1165.37	21.6321
1168.63	5.44788
1171.89	51.2666
1175.15	16.057
1178.41	0.82312
1181.66	11.5737
1184.92	52.3073
1188.17	12.3733
1191.42	24.0585
1194.67	65.7389
1197.92	23.5083
1201.16	46.1932
1204.41	33.9038
1207.65	18.6229
1210.9	44.3373
1214.14	39.0464
1217.38	81.749
1220.62	47.4463
1223.85	60.1389
1227.09	5.82715
1230.32	10.8394
1233.56	2.18542
1236.79	8.86352
1240.02	45.3304
1243.24	90.8178
1246.47	47.486
1249.7	59.0996
1252.92	40.3149
1256.14	66.725
1259.37	97.7549
1262.59	118.645
1265.81	140.302
1269.02	124.88
1272.24	115.275
1275.45	85.5806
1278.67	72.7789
1281.88	83.8915
1285.09	43.9606
1288.3	13.4864
1291.51	92.0113
1294.71	0.024414
1297.92	28.3938
1301.12	23.3392
1304.32	46.7227
1307.52	35.9949
1310.72	12.375
1313.92	70.0365
1317.12	66.5637
1320.31	69.1103
1323.51	22.6631
1326.7	77.1201
1329.89	25.7522
1333.08	33.3372
1336.27	56.7793
1339.45	76.2306
1342.64	95.6521
1345.82	59.0638
1349.01	44.4856
1352.19	77.9064
1355.37	105.055
1358.55	65.641
1361.72	57.5374
1364.9	18.4628
1368.07	47.5225
1371.25	26.25
1374.42	54.2837
1377.59	8.60681
1380.76	120.612
1383.92	50.9753
1387.09	4.55139
1390.26	74.3252
1393.42	51.0513
1396.58	65.8477
1399.74	64.1973
1402.9	21.3339
1406.06	20.3486
1409.22	16.9858
1412.37	33.3995
