Measurement: Raman, 514 nm, ccw, Raman Data Processed
Mineral: Zircon
Rruff sample: R050203
Ideal chemistry: Zr^4+^SiO_4_
Locality: Eastern Thailand
Source: Eric Van Valkenburg
Description: Dark red water-worn single crystal
Measured chemistry: (Zr_0.99_Hf_0.01_)_Î£=1_Si_1.00_O_4_
Pin_id: L00061
Orientation: Laser parallel to a* (1 0 0). Fiducial mark perpendicular to laser is parallel to -c [0 0 -1]
Raman shift (cm-1)	intensity
132.725	0
136.423	16.9127
140.12	5.59146
143.815	10.0709
147.508	3.45895
151.2	12.4232
154.891	42.819
158.58	28.5346
162.267	20.3908
165.953	40.3557
169.637	17.7779
173.32	21.5131
177.001	31.3419
180.681	47.9174
184.359	36.3045
188.035	53.5497
191.711	130.301
195.384	411.318
199.056	902.269
202.727	1318.69
206.395	822.732
210.063	559.836
213.729	782.563
217.393	1131.24
221.056	1640.53
224.717	2413.87
228.377	1903.24
232.035	699.646
235.692	232.083
239.347	101.549
243.001	48.0395
246.653	36.5571
250.304	7.08871
253.953	26.6343
257.6	8.19519
261.246	14.7719
264.891	13.3621
268.534	6.57785
272.175	7.41171
275.815	10.8091
279.454	78.9655
283.091	8.25388
286.726	0.442383
290.36	13.6059
293.992	37.0381
297.623	10.9171
301.252	24.8081
304.88	30.6965
308.507	14.6046
312.131	28.5188
315.755	46.4362
319.376	35.3523
322.996	90.266
326.615	64.1804
330.232	56.0994
333.848	137.02
337.462	183.938
341.075	301.858
344.686	662.775
348.296	1655.66
351.904	3931.74
355.51	6705.63
359.115	7090.45
362.719	3337.25
366.321	1241.07
369.921	485.907
373.52	288.764
377.118	130.636
380.714	138.522
384.309	129.422
387.902	162.337
391.493	200.266
395.083	176.104
398.671	130.073
402.258	119.056
405.844	75.0246
409.428	122.62
413.01	146.94
416.591	163.51
420.171	196.845
423.749	320.926
427.325	548.468
430.9	1277.39
434.473	2842.64
438.045	4949.01
441.616	5178.36
445.185	2729.51
448.752	1164.68
452.318	563.874
455.883	348.123
459.445	232.951
463.007	176.105
466.567	147.664
470.125	94.3044
473.682	68.58
477.238	37.0452
480.792	67.2024
484.344	34.5082
487.895	45.8239
491.445	24.6
494.992	28.9407
498.539	32.2848
502.084	53.6393
505.627	26.0049
509.169	30.2078
512.71	37.5944
516.249	63.9908
519.786	54.3967
523.322	43.8221
526.857	28.2618
530.39	9.71393
533.922	16.2678
537.452	35.6226
540.98	62.1025
544.507	28.8932
548.033	3.59167
551.557	35.1632
555.08	44.3607
558.601	0.907104
562.121	54.4708
565.639	26.045
569.155	15.6416
572.671	45.2275
576.184	7.17639
579.697	0.427246
583.207	18.0455
586.717	3.17755
590.224	15.5824
593.731	46.4041
597.235	14.9706
600.739	15.5925
604.241	5.3526
607.741	21.3478
611.24	20.95
614.737	10.5574
618.233	5.16272
621.728	26.7632
625.221	54.361
628.712	6.03967
632.202	49.544
635.691	26.2438
639.178	44.531
642.664	40.3489
646.148	64.9161
649.63	13.4662
653.112	24.9975
656.591	15.5217
660.069	17.012
663.546	22.7444
667.022	20.2997
670.495	46.8204
673.968	50.8989
677.439	21.2413
680.908	22.7282
684.376	38.272
687.842	3.98151
691.307	5.57806
694.771	19.8395
698.233	40.4652
701.694	14.8325
705.153	15.1865
708.61	35.5437
712.066	35.4345
715.521	51.9303
718.974	13.4276
722.426	12.7208
725.877	16.9786
729.325	19.6704
732.773	46.8695
736.219	34.006
739.663	36.9298
743.106	60.777
746.548	55.5712
749.988	41.0123
753.426	15.0736
756.864	27.1184
760.299	49.1202
763.734	24.6797
767.166	26.2243
770.598	0.700439
774.028	56.538
777.456	33.4774
780.883	39.4477
784.308	16.3543
787.732	42.4185
791.155	33.2933
794.576	40.7951
797.996	14.361
801.414	6.43689
804.831	33.8802
808.246	5.64215
811.66	57.2894
815.072	11.7045
818.483	22.4107
821.893	2.79773
825.301	10.2106
828.707	25.2734
832.112	5.82721
835.516	16.4502
838.918	16.0566
842.319	31.6506
845.718	3.78339
849.116	45.787
852.513	4.66693
855.908	36.8578
859.301	33.3665
862.693	4.36017
866.084	21.0647
869.473	15.4033
872.861	8.86597
876.247	10.324
879.632	22.6331
883.015	9.6944
886.397	21.1135
889.778	30.3738
893.157	21.9071
896.535	36.2965
899.911	52.674
903.286	1.9588
906.659	6.06543
910.031	15.432
913.401	1.20276
916.77	52.1636
920.138	12.5401
923.504	41.9312
926.869	15.3239
930.232	0.716858
933.594	6.92145
936.954	9.26782
940.313	53.6269
943.67	2.90631
947.026	0.217346
950.381	39.1665
953.734	35.5579
957.086	0.257324
960.436	33.0028
963.785	47.4244
967.133	84.8048
970.479	388.029
973.823	1074.48
977.166	1296.93
980.508	386.942
983.848	184.122
987.187	98.6181
990.525	84.666
993.861	136.502
997.195	225.99
1000.53	569.081
1003.86	2268.62
1007.19	7136.18
1010.52	8696.73
1013.85	2669.31
1017.17	748.905
1020.5	298.778
1023.82	148.4
1027.14	111.033
1030.46	106.662
1033.78	71.7704
1037.1	78.3409
1040.41	51.6061
1043.73	49.4395
1047.04	115.261
1050.35	138.492
1053.66	233.509
1056.97	325.286
1060.28	132.117
1063.59	107.992
1066.89	55.8943
1070.19	50.7547
1073.5	35.9839
1076.8	30.155
1080.1	98.702
1083.39	162.03
1086.69	241.975
1089.98	272.58
1093.28	186.51
1096.57	115.449
1099.86	69.3972
1103.15	58.356
1106.44	93.8594
1109.72	148.296
1113.01	160.868
1116.29	104.956
1119.57	92.983
1122.85	44.0631
1126.13	86.1627
1129.41	39.4074
1132.69	40.4939
1135.96	27.5874
1139.23	75.6854
1142.51	56.7874
1145.78	143.894
1149.05	149.004
1152.32	91.1384
1155.58	63.8574
1158.85	58.4102
1162.11	12.6143
1165.37	65.7653
1168.63	5.9104
1171.89	34.0483
1175.15	3.8158
1178.41	9.64978
1181.66	16.4107
1184.92	21.8142
1188.17	4.22742
1191.42	10.7073
1194.67	6.40826
1197.92	10.4799
1201.16	23.7668
1204.41	4.06873
1207.65	19.9624
1210.9	32.9553
1214.14	21.9605
1217.38	66.9448
1220.62	41.9171
1223.85	57.8835
1227.09	22.847
1230.32	20.807
1233.56	5.23291
1236.79	21.7101
1240.02	62.6487
1243.24	37.5821
1246.47	25.4896
1249.7	69.4025
1252.92	36.9785
1256.14	25.8748
1259.37	50.5448
1262.59	101.353
1265.81	33.1049
1269.02	66.8456
1272.24	111.628
1275.45	103.338
1278.67	39.0806
1281.88	62.6491
1285.09	53.15
1288.3	90.5845
1291.51	30.0269
1294.71	102.769
1297.92	81.1069
1301.12	28.6964
1304.32	51.0178
1307.52	36.7084
1310.72	11.465
1313.92	0.208496
1317.12	52.7065
1320.31	63.2102
1323.51	55.2343
1326.7	16.2472
1329.89	17.0773
1333.08	37.9238
1336.27	61.0418
1339.45	28.7119
1342.64	35.3225
1345.82	86.6794
1349.01	58.2915
1352.19	102.878
1355.37	107.443
1358.55	38.9878
1361.72	66.403
1364.9	63.9076
1368.07	57.4124
1371.25	65.9167
1374.42	11.3246
1377.59	65.9141
1380.76	22.3892
1383.92	51.1722
1387.09	37.254
1390.26	41.3669
1393.42	88.3958
1396.58	57.2943
1399.74	38.0725
1402.9	34.7566
1406.06	46.4495
1409.22	26.599
1412.37	35.0181
1415.53	45.3704
1418.68	0.197388
1421.83	11.7953
1424.98	17.6216
1428.13	50.3611
1431.27	0.071777
