Measurement: Raman, 514 nm, depolarized, Raman Data Processed
Mineral: Zircon
Rruff sample: R050203
Ideal chemistry: Zr^4+^SiO_4_
Locality: Eastern Thailand
Source: Eric Van Valkenburg
Description: Dark red water-worn single crystal
Measured chemistry: (Zr_0.99_Hf_0.01_)_Î£=1_Si_1.00_O_4_
Pin_id: L01102
Orientation: Laser parallel to c* (0 0 1). Fiducial mark perpendicular to laser is parallel to a [1 0 0]
Raman shift (cm-1)	intensity
125.324	0
129.026	15.0831
132.725	8.87885
136.423	0.245361
140.12	5.42184
143.815	30.7993
147.508	20.359
151.2	37.0881
154.891	69.2275
158.58	55.3829
162.267	72.5954
165.953	39.825
169.637	54.1621
173.32	28.765
177.001	75.8037
180.681	18.7482
184.359	74.7226
188.035	55.2478
191.711	72.0474
195.384	124.582
199.056	198.714
202.727	373.792
206.395	765.114
210.063	1723.32
213.729	2551.83
217.393	2378.75
221.056	1162.33
224.717	522.366
228.377	351.336
232.035	148.084
235.692	68.2175
239.347	24.6882
243.001	20.0103
246.653	29.4644
250.304	41.6795
253.953	13.0186
257.6	23.3605
261.246	7.70618
264.891	45.0571
268.534	47.4116
272.175	11.1656
275.815	56.3935
279.454	13.5799
283.091	8.33289
286.726	5.74072
290.36	5.81149
293.992	24.7822
297.623	21.8693
301.252	1.26572
304.88	26.5703
308.507	11.6033
312.131	12.2067
315.755	15.9702
319.376	24.2477
322.996	9.49304
326.615	1.79157
330.232	6.25519
333.848	4.56134
337.462	12.1216
341.075	56.7978
344.686	84.4745
348.296	222.154
351.904	428.819
355.51	653.472
359.115	796.129
362.719	456.752
366.321	189.347
369.921	103.881
373.52	59.3962
377.118	65.9153
380.714	91.4497
384.309	185
387.902	331.468
391.493	588.055
395.083	594.668
398.671	384.26
402.258	230.753
405.844	162.271
409.428	209.96
413.01	238.67
416.591	331.383
420.171	487.122
423.749	792.87
427.325	1524.76
430.9	3761.29
434.473	8148.93
438.045	14157.7
441.616	14632.6
445.185	7869.13
448.752	3444.34
452.318	1673.6
455.883	1031.08
459.445	736.182
463.007	528.216
466.567	402.574
470.125	295.954
473.682	204.538
477.238	191.278
480.792	135.379
484.344	96.3528
487.895	86.6862
491.445	87.8885
494.992	79.9537
498.539	43.3738
502.084	52.6544
505.627	83.9608
509.169	72.2956
512.71	65.6625
516.249	46.0627
519.786	73.524
523.322	72.9975
526.857	44.4984
530.39	61.032
533.922	61.1613
537.452	54.7589
540.98	83.399
544.507	57.0699
548.033	50.7804
551.557	67.5195
555.08	63.2851
558.601	58.0827
562.121	78.9173
565.639	38.7851
569.155	28.6915
572.671	46.6317
576.184	16.6191
579.697	19.6371
583.207	9.67932
586.717	22.7475
590.224	3.09167
593.731	16.8969
597.235	7.33691
600.739	20.8559
604.241	14.9091
607.741	45.7148
611.24	37.0026
614.737	38.0691
618.233	49.7715
621.728	5.14337
625.221	47.4832
628.712	30.0387
632.202	27.7691
635.691	46.2099
639.178	63.6557
642.664	117.111
646.148	54.5911
649.63	12.5006
653.112	39.2448
656.591	35.707
660.069	24.7997
663.546	15.3064
667.022	24.8163
670.495	34.3697
673.968	27.8736
677.439	27.3845
680.908	13.3359
684.376	27.6913
687.842	7.42224
691.307	25.9337
694.771	34.7173
698.233	44.6028
701.694	66.6237
705.153	39.901
708.61	64.474
712.066	44.3494
715.521	49.7637
718.974	51.0168
722.426	39.4796
725.877	16.6391
729.325	31.2471
732.773	42.0804
736.219	13.9801
739.663	31.3071
743.106	41.8668
746.548	19.0554
749.988	54.5162
753.426	6.31696
756.864	11.5156
760.299	27.0443
763.734	32.2775
767.166	25.3568
770.598	42.0232
774.028	46.0488
777.456	15.0506
780.883	40.0295
784.308	38.9911
787.732	26.9157
791.155	25.5584
794.576	6.41003
797.996	25.3455
801.414	31.1244
804.831	36.8807
808.246	17.5963
811.66	17.721
815.072	0.462708
818.483	18.9722
821.893	10.5419
825.301	9.07019
828.707	8.57379
832.112	3.21997
835.516	5.51562
838.918	22.8699
842.319	9.21869
845.718	5.53088
849.116	39.8076
852.513	0.028748
855.908	3.21686
859.301	24.3824
862.693	36.5154
866.084	9.55798
869.473	30.5745
872.861	31.2318
876.247	19.2641
879.632	29.2845
883.015	43.9355
886.397	29.9161
889.778	30.1052
893.157	28.6839
896.535	12.5814
899.911	23.5108
903.286	11.2252
906.659	0.760254
910.031	49.5829
913.401	35.4066
916.77	29.2444
920.138	20.0697
923.504	22.4719
926.869	20.0543
930.232	7.86066
933.594	2.44074
936.954	22.1388
940.313	31.0695
943.67	43.8955
947.026	60.8127
950.381	77.3526
953.734	45.2073
957.086	92.2673
960.436	127.254
963.785	179.87
967.133	558.02
970.479	2033
973.823	5974.48
977.166	6952.62
980.508	2086.42
983.848	842.893
987.187	563.105
990.525	612.973
993.861	835.974
997.195	1265.18
1000.53	3258.7
1003.86	11463.7
1007.19	34576.8
1010.52	44036.9
1013.85	13037
1017.17	3514.07
1020.5	1289
1023.82	701.527
1027.14	471.702
1030.46	321.541
1033.78	254.666
1037.1	198.923
1040.41	144.587
1043.73	140.888
1047.04	111.29
1050.35	126.464
1053.66	150.186
1056.97	117.785
1060.28	100.392
1063.59	94.1615
1066.89	54.2918
1070.19	67.9142
1073.5	87.5568
1076.8	70.4888
1080.1	178.822
1083.39	177.75
1086.69	266.137
1089.98	343.77
1093.28	337.434
1096.57	212.097
1099.86	136.782
1103.15	152.493
1106.44	168.23
1109.72	337.991
1113.01	382.771
1116.29	214.583
1119.57	177.421
1122.85	127.289
1126.13	109.211
1129.41	88.1288
1132.69	91.0752
1135.96	83.0431
1139.23	114.03
1142.51	166.04
1145.78	269.063
1149.05	232.101
1152.32	175.165
1155.58	129.25
1158.85	92.3503
1162.11	44.4658
1165.37	63.5922
1168.63	60.7333
1171.89	35.8838
1175.15	6.03601
1178.41	19.7028
1181.66	10.5052
1184.92	6.61688
1188.17	32.3729
1191.42	17.4071
1194.67	20.4312
1197.92	1.48267
1201.16	10.4235
1204.41	21.6827
1207.65	23.1974
1210.9	0.920227
1214.14	34.9581
1217.38	44.8404
1220.62	7.72571
1223.85	45.6132
1227.09	62.5021
1230.32	57.3916
1233.56	69.2805
1236.79	82.168
1240.02	66.0529
1243.24	15.9337
1246.47	18.8079
1249.7	55.7944
1252.92	15.7873
1256.14	32.9437
1259.37	75.2142
1262.59	97.1477
1265.81	97.1577
1269.02	107.164
1272.24	112.047
1275.45	101.13
1278.67	91.0462
1281.88	125.908
1285.09	93.9301
1288.3	79.7419
1291.51	66.5006
1294.71	39.644
1297.92	61.0975
1301.12	55.2374
1304.32	52.9547
1307.52	77.0543
1310.72	48.8944
1313.92	42.9569
1317.12	33.1952
1320.31	57.448
1323.51	22.3091
1326.7	23.178
1329.89	33.0261
1333.08	30.8828
1336.27	53.7281
1339.45	77.557
1342.64	75.3742
1345.82	106.066
1349.01	133.773
1352.19	139.425
1355.37	193.016
1358.55	141.564
1361.72	80.0614
1364.9	70.5135
1368.07	40.9328
1371.25	67.1841
1374.42	46.4856
1377.59	40.3367
1380.76	58.8584
1383.92	1.82373
1387.09	33.7808
1390.26	37.9291
1393.42	20.706
1396.58	34.709
1399.74	39.7743
1402.9	61.9523
1406.06	72.5678
1409.22	37.6206
1412.37	54.2714
1415.53	50.2448
1418.68	58.1951
1421.83	20.3303
1424.98	53.1256
1428.13	41.4016
1431.27	0.067688
