Measurement: Raman, 514 nm, ccw, Raman Data Processed
Mineral: Zircon
Rruff sample: R050488
Ideal chemistry: Zr^4+^SiO_4_
Locality: Sigulani Village, Tambani Area, Blantyre District, Nyassaland
Source: California Institute of Technology
Description: Brown fragment
Measured chemistry: (Zr_0.99_Hf_0.01_)_Î£=1_Si_1.00_O_4_
Pin_id: L01932
Orientation: Laser parallel to -a* (-1 0 0). Fiducial mark perpendicular to laser is parallel to c [0 0 1]
Raman shift (cm-1)	intensity
132.725	0
136.423	15.2469
140.12	40.727
143.815	31.7278
147.508	60.7508
151.2	53.0761
154.891	64.415
158.58	73.3347
162.267	89.5716
165.953	79.4527
169.637	26.0938
173.32	69.8381
177.001	74.5258
180.681	41.0785
184.359	62.514
188.035	86.8729
191.711	204.183
195.384	436.45
199.056	719.635
202.727	1295.45
206.395	1332.21
210.063	929.046
213.729	1274.89
217.393	1678.84
221.056	1795.54
224.717	2220.32
228.377	2133.16
232.035	1005.06
235.692	305.027
239.347	116.049
243.001	91.1172
246.653	44.2351
250.304	18.4069
253.953	9.38312
257.6	47.8787
261.246	3.18158
264.891	10.5263
268.534	9.89789
272.175	15.2578
275.815	8.61871
279.454	16.8917
283.091	13.1175
286.726	23.3881
290.36	30.5709
293.992	6.95465
297.623	19.5804
301.252	14.8347
304.88	1.78174
308.507	29.4379
312.131	9.13037
315.755	24.1805
319.376	89.5838
322.996	61.3412
326.615	73.126
330.232	99.9294
333.848	138.751
337.462	179.592
341.075	341.43
344.686	767.354
348.296	1762.01
351.904	3491.78
355.51	5793.56
359.115	6748.99
362.719	4145.81
366.321	1429.64
369.921	542.495
373.52	306.381
377.118	252.748
380.714	185.688
384.309	189.652
387.902	216.787
391.493	283.838
395.083	315.934
398.671	234.45
402.258	185.595
405.844	125.106
409.428	121.665
413.01	151.773
416.591	214.237
420.171	230.491
423.749	373.794
427.325	701.569
430.9	1600.92
434.473	3018.04
438.045	4727.25
441.616	5454.49
445.185	3565.21
448.752	1540.03
452.318	742.731
455.883	410.073
459.445	317.188
463.007	222.036
466.567	155.721
470.125	148.697
473.682	117.32
477.238	72.9614
480.792	35.6213
484.344	29.2985
487.895	32.315
491.445	23.0274
494.992	40.4815
498.539	30.5059
502.084	27.2599
505.627	30.0252
509.169	17.8074
512.71	8.56128
516.249	4.5791
519.786	27.2408
523.322	6.07221
526.857	1.9184
530.39	50.7754
533.922	19.2631
537.452	3.31018
540.98	11.2405
544.507	7.18756
548.033	27.1694
551.557	52.169
555.08	20.5379
558.601	41.7286
562.121	49.6564
565.639	1.23663
569.155	10.8777
572.671	12.6467
576.184	21.163
579.697	18.4353
583.207	4.52722
586.717	7.8418
590.224	3.01208
593.731	12.8133
597.235	8.61914
600.739	15.5485
604.241	2.04681
607.741	4.59351
611.24	44.6863
614.737	34.8835
618.233	21.0746
621.728	25.1918
625.221	2.69232
628.712	29.4011
632.202	56.4869
635.691	16.569
639.178	50.6641
642.664	67.0817
646.148	58.1464
649.63	65.223
653.112	48.9031
656.591	49.2216
660.069	46.7938
663.546	33.9703
667.022	12.9839
670.495	60.524
673.968	21.9789
677.439	40.829
680.908	33.0901
684.376	89.8317
687.842	27.7116
691.307	47.8207
694.771	9.57739
698.233	49.4419
701.694	44.7669
705.153	28.3534
708.61	42.4094
712.066	57.0055
715.521	32.229
718.974	46.2975
722.426	68.8922
725.877	56.4072
729.325	39.7947
732.773	55.9869
736.219	63.9315
739.663	78.3046
743.106	26.9269
746.548	10.0997
749.988	41.3626
753.426	22.7737
756.864	39.7993
760.299	42.9913
763.734	48.812
767.166	32.9072
770.598	36.9715
774.028	31.7636
777.456	51.0644
780.883	38.8185
784.308	24.8293
787.732	20.8227
791.155	54.7064
794.576	31.5594
797.996	36.7903
801.414	64.5309
804.831	58.2936
808.246	68.9794
811.66	46.2618
815.072	13.2333
818.483	0.346863
821.893	14.0248
825.301	35.3561
828.707	26.8029
832.112	7.09863
835.516	18.907
838.918	27.5543
842.319	44.8242
845.718	44.0566
849.116	16.2394
852.513	71.3964
855.908	25.4821
859.301	33.5084
862.693	1.51019
866.084	28.4293
869.473	2.37763
872.861	24.2903
876.247	31.1963
879.632	9.81738
883.015	30.2232
886.397	48.4851
889.778	44.7673
893.157	9.51428
896.535	13.28
899.911	34.0256
903.286	58.7758
906.659	23.5179
910.031	21.2502
913.401	2.23303
916.77	6.65356
920.138	16.303
923.504	28.9297
926.869	12.5905
930.232	23.7614
933.594	2.14417
936.954	33.402
940.313	3.99341
943.67	50.5269
947.026	6.98755
950.381	9.33356
953.734	29.1617
957.086	46.2473
960.436	81.8679
963.785	62.1627
967.133	238.664
970.479	778.718
973.823	1699.33
977.166	1995.99
980.508	762.224
983.848	329.859
987.187	242.539
990.525	277.079
993.861	351.689
997.195	649.172
1000.53	1600.58
1003.86	5362.58
1007.19	13013.3
1010.52	15756
1013.85	5687.94
1017.17	1543.59
1020.5	604.357
1023.82	356.125
1027.14	259.886
1030.46	184.879
1033.78	113.332
1037.1	153.976
1040.41	119.613
1043.73	113.489
1047.04	157.825
1050.35	242.398
1053.66	388.309
1056.97	510.197
1060.28	350.185
1063.59	115.786
1066.89	84.2922
1070.19	81.5126
1073.5	72.7922
1076.8	100.852
1080.1	101.835
1083.39	211.237
1086.69	330.391
1089.98	392.614
1093.28	291.792
1096.57	179.485
1099.86	86.707
1103.15	133.97
1106.44	158.24
1109.72	284.522
1113.01	330.398
1116.29	258.793
1119.57	104.134
1122.85	130.585
1126.13	87.006
1129.41	39.4634
1132.69	26.9388
1135.96	49.5192
1139.23	18.9552
1142.51	79.4858
1145.78	221.037
1149.05	212.6
1152.32	110.172
1155.58	55.7627
1158.85	6.64197
1162.11	16.9502
1165.37	9.27136
1168.63	26.2341
1171.89	32.7716
1175.15	4.3103
1178.41	16.9343
1181.66	3.58923
1184.92	71.1199
1188.17	47.9395
1191.42	26.5099
1194.67	24.9702
1197.92	5.53906
1201.16	17.8444
1204.41	8.3335
1207.65	4.17041
1210.9	2.32971
1214.14	50.1708
1217.38	41.6739
1220.62	49.1792
1223.85	69.6862
1227.09	83.1897
1230.32	15.6913
1233.56	27.1931
1236.79	59.6741
1240.02	4.86414
1243.24	38.571
1246.47	63.3264
1249.7	64.7416
1252.92	69.318
1256.14	67.634
1259.37	136.107
1262.59	128.445
1265.81	100.885
1269.02	131.299
1272.24	120.626
1275.45	136.032
1278.67	85.4044
1281.88	48.4994
1285.09	71.452
1288.3	68.1727
1291.51	60.8213
1294.71	18.3832
1297.92	62.2949
1301.12	44.6344
1304.32	9.77148
1307.52	71.5343
1310.72	79.2056
1313.92	26.885
1317.12	78.262
1320.31	35.6106
1323.51	45.7316
1326.7	33.1647
1329.89	108.034
1333.08	97.4778
1336.27	99.16
1339.45	94.4799
1342.64	96.7582
1345.82	100.022
1349.01	104.235
1352.19	121.408
1355.37	98.5543
1358.55	118.692
1361.72	113.502
1364.9	77.9349
1368.07	51.6022
1371.25	64.7572
1374.42	45.5281
1377.59	4.51904
1380.76	52.1637
1383.92	41.0284
1387.09	89.82
1390.26	77.5106
1393.42	27.0879
1396.58	42.6044
1399.74	26.2821
1402.9	47.4086
1406.06	34.7548
1409.22	52.4124
1412.37	11.8004
1415.53	30.5222
1418.68	28.3112
1421.83	0.441162
1424.98	28.3744
1428.13	0
