Measurement: Raman, 514 nm, ccw, Raman Data Processed
Mineral: Zircon
Rruff sample: R050286
Ideal chemistry: Zr^4+^SiO_4_
Locality: Renfrew County, Ontario, Canada
Source: Marcus Origlieri
Description: Brownish red prismatic crystal frozen in matrix, associated with apatite
Measured chemistry: Zr_1.00_Si_1.00_O_4_; trace amounts of Hf
Pin_id: L00926
Orientation: Laser parallel to a* (1 0 0). Fiducial mark perpendicular to laser is parallel to c [0 0 1]
Raman shift (cm-1)	intensity
146.277	0
149.97	98.6294
153.661	75.2559
157.35	109.348
161.038	273.001
164.724	271.539
168.409	91.8643
172.092	104.283
175.774	180.324
179.454	127.353
183.133	87.0967
186.81	136.94
190.486	394.075
194.16	447.424
197.832	1020.04
201.503	1461.34
205.173	1963.76
208.841	1509.09
212.507	1425.36
216.172	1775.32
219.835	2049.05
223.497	2555.36
227.157	2785.86
230.816	1726.42
234.473	831.312
238.129	295.527
241.783	218.071
245.436	95.9341
249.087	148.107
252.737	113.571
256.385	39.6938
260.031	37.7002
263.676	31.5444
267.32	29.9644
270.962	49.1045
274.602	96.0127
278.241	29.7119
281.879	130.702
285.514	8.71729
289.149	88.0972
292.782	109.083
296.413	16.9605
300.043	42.523
303.671	111.706
307.298	46.3999
310.923	160.508
314.547	190.952
318.169	119.683
321.79	292.671
325.409	263.943
329.027	362.452
332.643	579.131
336.258	750.361
339.871	1113.98
343.482	1769.13
347.092	3063.45
350.701	5093.84
354.308	7133.27
357.914	7474.78
361.518	4783.35
365.12	2653.04
368.721	1510.81
372.321	1133.69
375.919	746.723
379.515	580.894
383.111	447.205
386.704	498.65
390.296	758.127
393.886	513.83
397.475	447.06
401.063	321.721
404.649	312.548
408.233	388.134
411.816	528.97
415.398	515.848
418.978	645.813
422.556	1057.03
426.133	1425.85
429.709	2155.11
433.282	3307.52
436.855	4505.93
440.426	4865.53
443.995	3621.53
447.563	2348.9
451.13	1366.32
454.695	845.38
458.258	588.23
461.82	444.468
465.38	250.556
468.939	389.335
472.497	254.827
476.053	157.773
479.607	119.279
483.16	206.858
486.712	257.762
490.262	117.458
493.81	156.2
497.357	60.0996
500.902	130.046
504.446	90.0352
507.989	33.1221
511.53	157.252
515.069	59.4131
518.607	158.602
522.144	82.8193
525.679	28.0684
529.213	0.342773
532.745	104.549
536.275	56.7295
539.804	85.9502
543.332	40.6289
546.858	152.939
550.383	88.2188
553.906	110.148
557.427	54.5938
560.947	42.3027
564.466	54.5801
567.983	88.5039
571.499	3.88672
575.013	67.2188
578.526	48.2715
582.037	55.4736
585.547	53.1309
589.055	11.4219
592.562	52.3682
596.067	21.9248
599.571	21.8984
603.074	44.3359
606.574	15.8945
610.074	19.2012
613.572	19.9482
617.068	244.141
620.563	48.4277
624.057	69.251
627.549	191.337
631.039	192.882
634.528	362.562
638.016	66.8359
641.502	338.457
644.987	252.68
648.47	305.386
651.951	121.579
655.432	153.562
658.91	151.459
662.388	184.32
665.863	137.221
669.338	285.619
672.81	263.375
676.282	181.106
679.752	39.3877
683.22	82.6269
686.687	236.456
690.153	87.293
693.617	205.572
697.079	33.7168
700.54	174.736
704	27.2842
707.458	37.9502
710.915	92.1289
714.37	110.701
717.824	152.615
721.276	38.6621
724.727	14.3145
728.176	137.892
731.624	113.413
735.07	259.695
738.515	49.6123
741.959	9.97363
745.401	36.6787
748.841	15.7207
752.28	24.7393
755.718	21.1045
759.154	175.284
762.589	23.3105
766.022	181.526
769.454	123.789
772.884	11.002
776.313	175.386
779.741	134.621
783.167	5.66894
786.591	97.4619
790.014	156.1
793.436	150.589
796.856	60.9346
800.275	94.1133
803.692	12.1367
807.108	182.992
810.522	51.7647
813.935	55.4297
817.346	109.489
820.756	67.2803
824.165	114.956
827.572	142.939
830.977	86.3115
834.382	124.33
837.784	95.2148
841.186	240.938
844.585	104.952
847.984	33.6328
851.381	72.5947
854.776	92.6348
858.17	37.1953
861.563	65.2246
864.954	66.9727
868.344	91.5742
871.732	101.512
875.119	59.6328
878.504	31.043
881.888	88.6182
885.27	197.067
888.651	72.4922
892.031	4.98242
895.409	22.6562
898.786	147.026
902.161	11.9209
905.535	30.7852
908.907	272.212
912.278	293.41
915.647	371.828
919.015	228.557
922.382	311.922
925.747	234.709
929.111	315.483
932.473	164.966
935.834	270.7
939.193	78.8525
942.551	482.292
945.908	235.033
949.263	102.565
952.617	432.525
955.969	469.007
959.32	515.665
962.669	491.621
966.017	631.126
969.363	889.956
972.708	1540.44
976.052	1376.35
979.394	1124.27
982.735	651.333
986.074	517.262
989.412	638.427
992.749	871.893
996.084	1831.56
999.417	3866.47
1002.75	7302.55
1006.08	10716.5
1009.41	8163.81
1012.74	3699.46
1016.06	1766.62
1019.39	1212.8
1022.71	666.026
1026.04	378.101
1029.36	194.52
1032.67	443.156
1035.99	50.7012
1039.31	240.629
1042.62	365.358
1045.94	219.311
1049.25	217.246
1052.56	347.784
1055.87	255.007
1059.18	227.375
1062.48	115.411
1065.79	116.397
1069.09	180.29
1072.4	136.097
1075.7	87.0879
1079	195.384
1082.29	276.283
1085.59	386.681
1088.89	246.87
1092.18	332.486
1095.47	134.659
1098.76	76.9678
1102.05	185.443
1105.34	329.102
1108.63	284.402
1111.91	242.254
1115.2	216.569
1118.48	103.804
1121.76	64.918
1125.04	115.302
1128.32	70.2647
1131.6	57.7598
1134.87	202.77
1138.14	56.1895
1141.42	197.558
1144.69	246.877
1147.96	226.185
1151.23	255.459
1154.49	86.7188
1157.76	145.719
1161.02	56.9815
1164.29	53.375
1167.55	94.9023
1170.81	189.3
1174.07	88.3379
1177.32	70.2178
1180.58	100.028
1183.83	113.585
1187.08	137.098
1190.34	336.497
1193.59	81.6572
1196.84	110.683
1200.08	329.175
1203.33	284.188
1206.57	33.9043
1209.82	158.322
1213.06	80.8877
1216.3	104.395
1219.54	161.825
1222.77	102.127
1226.01	25.084
1229.24	72.8447
1232.48	69.5264
1235.71	1.08203
1238.94	168.256
1242.17	213.358
1245.4	169.366
1248.62	35.2764
1251.85	181.828
1255.07	205.38
1258.29	421.975
1261.51	378.586
1264.73	200.008
1267.95	94.5947
1271.17	160.178
1274.38	216.805
1277.6	308.856
1280.81	187.536
1284.02	365.667
1287.23	107.774
1290.44	255.445
1293.64	178.028
1296.85	145.97
1300.05	269.221
1303.26	169.876
1306.46	194.834
1309.66	153.901
1312.86	88.2803
1316.05	202.955
1319.25	106.353
1322.44	123.84
1325.63	84.5557
1328.83	149.196
1332.02	93.3721
1335.2	58.998
1338.39	140.865
1341.58	159.545
1344.76	160.613
1347.95	311.582
1351.13	196.182
1354.31	116.307
1357.49	294.162
1360.66	223.897
1363.84	184.664
1367.02	269.926
1370.19	311.685
1373.36	105.609
1376.53	26.8164
1379.7	30.4004
1382.87	66.5449
1386.04	210.978
1389.2	185.568
1392.37	156.494
1395.53	182.832
1398.69	96.2227
1401.85	143.164
1405.01	228.856
