Measurement: Raman, 514 nm, ccw, Raman Data Processed
Mineral: Zircon
Rruff sample: R050286
Ideal chemistry: Zr^4+^SiO_4_
Locality: Renfrew County, Ontario, Canada
Source: Marcus Origlieri
Description: Brownish red prismatic crystal frozen in matrix, associated with apatite
Measured chemistry: Zr_1.00_Si_1.00_O_4_; trace amounts of Hf
Pin_id: L00926
Orientation: Laser parallel to a* (1 0 0). Fiducial mark perpendicular to laser is parallel to c [0 0 1]
Raman shift (cm-1)	intensity
142.583	0
146.277	13.0469
149.97	194.429
153.661	237
157.35	220.719
161.038	294.823
164.724	394.227
168.409	297.912
172.092	256.032
175.774	267.215
179.454	234.86
183.133	249.936
186.81	116.182
190.486	345.666
194.16	365.459
197.832	519.614
201.503	885.042
205.173	1066.77
208.841	644.497
212.507	592.344
216.172	1705.68
219.835	1409.08
223.497	1399.74
227.157	1429.93
230.816	920.326
234.473	424.123
238.129	245.322
241.783	148.921
245.436	234.906
249.087	117.261
252.737	78.9556
256.385	62.9815
260.031	27.667
263.676	47.9893
267.32	23.9902
270.962	25.6699
274.602	0.94043
278.241	107.768
281.879	52.3565
285.514	44.8003
289.149	37.6367
292.782	21.8867
296.413	44.4629
300.043	44.0903
303.671	44.8023
307.298	137.26
310.923	96.1318
314.547	208.365
318.169	304.935
321.79	334.902
325.409	208.096
329.027	373.543
332.643	447.247
336.258	651.169
339.871	940.305
343.482	1447.65
347.092	2268.16
350.701	3218.78
354.308	4108.29
357.914	4094.95
361.518	2890.78
365.12	1681.81
368.721	1134.06
372.321	838.505
375.919	660.16
379.515	630.017
383.111	552.071
386.704	640.318
390.296	553.755
393.886	598.375
397.475	666.381
401.063	825.588
404.649	791.944
408.233	960.744
411.816	1084.79
415.398	1273.59
418.978	1669.51
422.556	2235.1
426.133	3099.42
429.709	4570.77
433.282	7670.36
436.855	9908.74
440.426	10770.8
443.995	7882.97
447.563	4641.41
451.13	2570.98
454.695	1728.08
458.258	1216.06
461.82	781.053
465.38	712.436
468.939	572.281
472.497	431.584
476.053	385.235
479.607	312.728
483.16	246.371
486.712	218.902
490.262	164.103
493.81	232.685
497.357	166.385
500.902	177.201
504.446	171.135
507.989	148.18
511.53	130.33
515.069	150.706
518.607	204.924
522.144	226.36
525.679	22.8887
529.213	48.5
532.745	21.1934
536.275	5.99805
539.804	9.96777
543.332	97.0723
546.858	1.24707
550.383	136.899
553.906	30.6309
557.427	81.1826
560.947	18.668
564.466	90.9609
567.983	45.2373
571.499	44.5996
575.013	30.2412
578.526	179.963
582.037	165.669
585.547	174.855
589.055	54.5654
592.562	8.66602
596.067	11.041
599.571	30.9863
603.074	135.197
606.574	233.024
610.074	88.3496
613.572	2.41602
617.068	180.83
620.563	69.5156
624.057	88.2031
627.549	225.784
631.039	203.079
634.528	124.283
638.016	238.472
641.502	155.498
644.987	176.235
648.47	156.11
651.951	259.92
655.432	154.659
658.91	146.326
662.388	91.917
665.863	144.43
669.338	211.862
672.81	147.389
676.282	106.323
679.752	254.591
683.22	155.876
686.687	143.178
690.153	4.91113
693.617	190.78
697.079	150.423
700.54	130.869
704	217.102
707.458	186.28
710.915	66.4658
714.37	94.2861
717.824	64.833
721.276	5.83106
724.727	84.8809
728.176	126.965
731.624	68.5381
735.07	133.871
738.515	34.3672
741.959	46.2812
745.401	31.3594
748.841	93.4141
752.28	67.2275
755.718	102.657
759.154	11.4238
762.589	69.8428
766.022	16.2783
769.454	77.5264
772.884	127.01
776.313	89.2031
779.741	22.8018
783.167	113.249
786.591	218.565
790.014	241.662
793.436	435.81
796.856	301.741
800.275	156.542
803.692	140.217
807.108	115.065
810.522	12.8115
813.935	34.6348
817.346	52.2236
820.756	158.918
824.165	128.488
827.572	161.212
830.977	2.90039
834.382	33.0547
837.784	111.597
841.186	116.728
844.585	77.875
847.984	178.993
851.381	19.7646
854.776	89.3037
858.17	58.1338
861.563	53.6592
864.954	12.9102
868.344	138.945
871.732	116.974
875.119	110.164
878.504	29.9326
881.888	16.084
885.27	46.6953
888.651	5.45019
892.031	9.33984
895.409	89.4902
898.786	97.6953
902.161	13.3066
905.535	125.852
908.907	175.14
912.278	91.2441
915.647	146.679
919.015	176.876
922.382	123.049
925.747	128.225
929.111	210.366
932.473	316.478
935.834	131.572
939.193	104.645
942.551	298.744
945.908	240.495
949.263	421.515
952.617	165.02
955.969	118.288
959.32	103.207
962.669	97.5772
966.017	216.622
969.363	204.557
972.708	402.852
976.052	419.159
979.394	289.43
982.735	260.715
986.074	43.6914
989.412	176.078
992.749	223.997
996.084	703.818
999.417	597.352
1002.75	949.831
1006.08	1300.39
1009.41	976.015
1012.74	540.607
1016.06	297.508
1019.39	140.189
1022.71	166.42
1026.04	214.851
1029.36	156.811
1032.67	319.845
1035.99	241.677
1039.31	143.881
1042.62	166.108
1045.94	418.341
1049.25	265.679
1052.56	605.184
1055.87	533.403
1059.18	342.843
1062.48	216.377
1065.79	224.07
1069.09	222.615
1072.4	111.248
1075.7	236.626
1079	348.517
1082.29	333.685
1085.59	384.062
1088.89	508.091
1092.18	400.143
1095.47	315.071
1098.76	184.413
1102.05	371.543
1105.34	160.693
1108.63	259.861
1111.91	356.08
1115.2	239.36
1118.48	250.583
1121.76	163.949
1125.04	136.323
1128.32	114.453
1131.6	96.209
1134.87	134.54
1138.14	107.998
1141.42	310.325
1144.69	218.648
1147.96	117.97
1151.23	304.289
1154.49	105.373
1157.76	113.828
1161.02	75.2168
1164.29	68.5166
1167.55	144.991
1170.81	35.6494
1174.07	128.237
1177.32	21.5098
1180.58	101.748
1183.83	108.449
1187.08	60.126
1190.34	144.71
1193.59	132.433
1196.84	14.0693
1200.08	55.7012
1203.33	4.0332
1206.57	160.961
1209.82	62.3086
1213.06	187.329
1216.3	167.151
1219.54	156.169
1222.77	224.542
1226.01	122.72
1229.24	151.347
1232.48	172.51
1235.71	202.798
1238.94	136.762
1242.17	163.042
1245.4	112.441
1248.62	130.155
1251.85	113.767
1255.07	70.2881
1258.29	98.3975
1261.51	279.379
1264.73	198.242
1267.95	197.034
1271.17	286.079
1274.38	291.621
1277.6	211.291
1280.81	194.955
1284.02	158.09
1287.23	55.2432
1290.44	171.398
1293.64	234.758
1296.85	69.4824
1300.05	214.105
1303.26	218.186
1306.46	119.438
1309.66	279.181
1312.86	136.722
1316.05	209.895
1319.25	146.316
1322.44	138.542
1325.63	41.8379
1328.83	114.578
1332.02	167.202
1335.2	124.977
1338.39	177.592
1341.58	211.828
1344.76	239.842
1347.95	198.054
1351.13	151.088
1354.31	186.237
1357.49	117.768
1360.66	83.4228
1363.84	151.665
1367.02	267.934
1370.19	152.47
1373.36	250.817
1376.53	214.544
1379.7	205.015
1382.87	146.817
1386.04	267.683
1389.2	124.555
1392.37	108.218
1395.53	68.7031
1398.69	188.238
1401.85	236.246
1405.01	242.609
1408.16	124.54
1411.32	105.552
1414.47	132.608
1417.63	276.931
1420.78	38.7041
1423.93	5.85352
1427.08	147.58
1430.22	163.115
