Measurement: Raman, 514 nm, depolarized, Raman Data Processed
Mineral: Zircon
Rruff sample: R050286
Ideal chemistry: Zr^4+^SiO_4_
Locality: Renfrew County, Ontario, Canada
Source: Marcus Origlieri
Description: Brownish red prismatic crystal frozen in matrix, associated with apatite
Measured chemistry: Zr_1.00_Si_1.00_O_4_; trace amounts of Hf
Pin_id: L01183
Orientation: Laser parallel to -c* (0 0 -1). Fiducial mark perpendicular to laser is parallel to -a [-1 0 0]
Raman shift (cm-1)	intensity
130.259	0
133.958	13.2095
137.656	56.116
141.352	83.0054
145.046	70.6882
148.739	105.213
152.431	117.176
156.121	79.1377
159.809	176.867
163.496	239.674
167.181	279.575
170.865	183.707
174.547	141.087
178.228	148.852
181.907	198.949
185.585	189.575
189.261	274.873
192.935	415.942
196.608	831.467
200.28	1160.34
203.95	1689.31
207.618	2421.47
211.285	3029.22
214.95	2802.84
218.614	1953.42
222.277	1370.71
225.937	983.268
229.597	684.062
233.254	435.081
236.911	366.314
240.565	253.75
244.218	197.375
247.87	141.164
251.52	123.092
255.169	102.255
258.816	48.373
262.461	38.73
266.105	62.2332
269.748	33.8794
273.389	47.6687
277.028	50.9822
280.666	23.5574
284.303	18.0129
287.938	1.76807
291.571	20.9377
295.203	9.46826
298.833	89.0012
302.462	32.5547
306.089	60.1943
309.715	15.969
313.339	66.8875
316.962	83.9155
320.583	146.044
324.203	100.226
327.821	43.4597
331.438	134.755
335.053	124.119
338.667	341.554
342.279	508.069
345.889	611.683
349.498	1132.28
353.106	1234.94
356.712	1361.6
360.317	1063.05
363.92	703.316
367.521	462.675
371.121	335.112
374.72	341.292
378.317	267.882
381.912	391.029
385.506	768.231
389.099	816.28
392.69	812.438
396.279	730.703
399.867	643.077
403.454	552.731
407.039	622.867
410.622	776.558
414.204	1072.27
417.785	1386.06
421.364	2154.19
424.941	3307.23
428.517	5235.64
432.091	8282.88
435.664	11322.4
439.236	12362.4
442.806	9833.54
446.374	6244.91
449.941	3750.38
453.506	2402.94
457.07	1815.8
460.633	1441.56
464.194	1127.97
467.753	946.728
471.311	873.588
474.868	635.598
478.423	526.699
481.976	459.886
485.528	425.712
489.078	295.093
492.627	273.642
496.175	200.352
499.721	318.168
503.265	306.07
506.808	231.11
510.35	170.243
513.89	193.441
517.428	236.71
520.965	281.036
524.501	265.416
528.035	211.873
531.567	163.753
535.098	188.063
538.628	205.384
542.156	164.744
545.683	185.671
549.208	96.6343
552.731	149.737
556.254	54.7437
559.774	83.6465
563.293	50.6162
566.811	67.1807
570.327	38.4199
573.842	79.4707
577.355	28.0142
580.867	161.102
584.377	81.6606
587.886	11.6245
591.393	53.4087
594.899	21.793
598.403	68.0054
601.906	9.09082
605.408	70.8159
608.908	54.498
612.406	129.648
615.903	94.1143
619.398	152.29
622.892	181.601
626.385	198.108
629.876	173.616
633.365	128.181
636.853	295.896
640.34	303.136
643.825	399.419
647.309	308.488
650.791	256.424
654.272	371.441
657.751	340.369
661.229	237.959
664.705	248.617
668.18	258.009
671.653	200.847
675.125	103.57
678.595	126.454
682.064	163.457
685.532	161.377
688.998	110.898
692.462	90.1977
695.925	27.6611
699.387	30.2202
702.847	81.8496
706.305	145.38
709.763	19.7398
713.218	26.8735
716.672	21.7065
720.125	128.277
723.577	85.7461
727.026	15.9702
730.475	63.4697
733.922	48.0063
737.367	25.7676
740.811	65.2388
744.254	25.6763
747.695	117.799
751.134	25.6323
754.572	84.709
758.009	88.604
761.444	18.3003
764.878	9.74854
768.31	2.52978
771.741	62.6611
775.17	47.8599
778.598	71.1899
782.025	74.2881
785.45	79.1143
788.873	23.7676
792.295	97.2549
795.716	102.591
799.135	27.7886
802.553	31.8398
805.969	23.3115
809.384	46.6826
812.797	76.2803
816.209	58.7812
819.62	0.601074
823.029	21.3252
826.436	37.9385
829.842	64.333
833.247	146.895
836.65	251.475
840.052	88.5098
843.452	161.239
846.851	30.0454
850.249	41.6279
853.645	37.2578
857.039	4.65527
860.432	246.058
863.824	298.983
867.214	442.198
870.603	384.33
873.99	403.906
877.376	369.417
880.76	412.627
884.143	451.166
887.524	381.918
890.904	264.448
894.283	296.654
897.66	350.959
901.036	228.321
904.41	300.517
907.783	369.4
911.154	373.895
914.524	334.884
917.893	364.394
921.26	429.714
924.626	525.111
927.99	466.863
931.353	507.094
934.714	484.61
938.074	475.826
941.432	509.4
944.789	465.013
948.145	602.596
951.499	669.74
954.852	737.561
958.203	852.708
961.553	1243.14
964.901	2160.68
968.248	3974.36
971.594	6196.2
974.938	5602.15
978.28	3327.24
981.622	2559.46
984.961	2445.51
988.3	2860.05
991.637	4070.07
994.972	6437.9
998.306	13430.9
1001.64	27348.1
1004.97	39966.6
1008.3	30604.1
1011.63	14949.9
1014.96	7713.79
1018.28	4451.86
1021.61	2854.14
1024.93	1858.6
1028.25	1277.42
1031.57	903.155
1034.89	800.316
1038.2	720.674
1041.52	505.633
1044.83	406.176
1048.15	366.774
1051.46	412.404
1054.77	299.615
1058.08	266.053
1061.38	268.013
1064.69	255.896
1067.99	223.91
1071.3	168.48
1074.6	394.433
1077.9	341.56
1081.19	308.359
1084.49	321.535
1087.79	587.019
1091.08	405.6
1094.38	289.125
1097.67	258.62
1100.96	234.894
1104.24	315.538
1107.53	233.874
1110.82	370.71
1114.1	239.727
1117.38	189.227
1120.67	182.148
1123.95	169.166
1127.22	48.2334
1130.5	83.4673
1133.78	63.6016
1137.05	97.7944
1140.33	196.035
1143.6	139.291
1146.87	188.715
1150.14	128.991
1153.4	101.301
1156.67	101.705
1159.93	95.0708
1163.2	53.9111
1166.46	51.3565
1169.72	38.727
1172.98	14.2554
1176.24	41.4058
1179.49	28.5464
1182.75	33.7983
1186	90.6836
1189.25	42.2661
1192.5	3.24707
1195.75	76.5117
1199	52.8984
1202.25	97.9863
1205.49	33.6113
1208.73	37.8945
1211.98	60.3804
1215.22	16.8174
1218.46	32.9609
1221.69	31.7769
1224.93	77.6079
1228.17	7.65771
1231.4	101.934
1234.63	100.436
1237.86	105.836
1241.09	29.0811
1244.32	21.895
1247.55	78.9814
1250.77	120.616
1254	131.597
1257.22	162.458
1260.44	118.397
1263.66	213.102
1266.88	282.447
1270.1	101.749
1273.31	97.0151
1276.53	226.165
1279.74	204.079
1282.95	154.517
1286.16	167.908
1289.37	62.1118
1292.58	177.591
1295.78	157.083
1298.98	57.104
1302.19	168.631
1305.39	137.606
1308.59	121.759
1311.79	52.7773
1314.99	150.111
1318.18	54.0361
1321.38	140.735
1324.57	84.4482
1327.76	77.4233
1330.95	64.7148
1334.14	122.574
1337.33	96.0483
1340.52	103.033
1343.7	246.342
1346.88	273.498
1350.07	163.394
1353.25	199.433
1356.43	188.736
1359.61	192.943
1362.78	180.625
1365.96	85.728
1369.13	1.16113
1372.3	97.9663
1375.48	0.394043
1378.64	125.874
1381.81	118.949
1384.98	0.113281
1388.15	108.674
1391.31	237.244
1394.47	130.62
1397.64	48.4941
1400.8	77.8438
1403.95	126.342
1407.11	51.1777
1410.27	10.6396
1413.42	73.9356
1416.58	108.311
1419.73	136.288
1422.88	70.3838
1426.03	240.516
1429.18	176.452
1432.32	117.806
1435.47	61.3486
1438.61	153.241
1441.75	267.585
1444.89	227.719
1448.03	201.922
1451.17	319.533
1454.31	237.244
1457.44	244.79
1460.58	316.14
1463.71	225.401
1466.84	173.15
1469.97	162.723
1473.1	118.911
1476.23	59.9365
1479.36	100.238
1482.48	1.08106
