Measurement: Raman, 514 nm, ccw, Raman Data Processed
Mineral: Zircon
Rruff sample: R050286
Ideal chemistry: Zr^4+^SiO_4_
Locality: Renfrew County, Ontario, Canada
Source: Marcus Origlieri
Description: Brownish red prismatic crystal frozen in matrix, associated with apatite
Measured chemistry: Zr_1.00_Si_1.00_O_4_; trace amounts of Hf
Pin_id: L01183
Orientation: Laser parallel to -c* (0 0 -1). Fiducial mark perpendicular to laser is parallel to -a [-1 0 0]
Raman shift (cm-1)	intensity
131.492	0
136.423	11.6226
141.352	186.445
146.277	143.3
151.2	171.603
156.121	154.321
161.038	317.254
165.953	312.582
170.865	339.283
175.774	350.61
180.681	259.637
185.585	344.449
190.486	503.454
195.384	843.923
200.28	1426.04
205.173	2567.93
210.063	3693.39
214.95	3450.85
219.835	1882.75
224.717	1082.06
229.597	791.965
234.473	371.244
239.347	288.867
244.218	224.803
249.087	125.989
253.953	145.384
258.816	11.9961
263.676	136.831
268.534	100.896
273.389	82.1948
278.241	56.345
283.091	12.7915
287.938	11.3852
292.782	58.3023
297.623	6.02832
302.462	24.5561
307.298	44.0947
312.131	103.931
316.962	136.946
321.79	136.069
326.615	109.351
331.438	194.729
336.258	162.199
341.075	338.772
345.889	630.462
350.701	968.221
355.51	1197.77
360.317	879.061
365.12	542.219
369.921	370.537
374.72	466.048
379.515	557.754
384.309	773.652
389.099	1054.74
393.886	932.012
398.671	714.474
403.454	609.124
408.233	707.961
413.01	1009.01
417.785	1593.83
422.556	2622.23
427.325	4974.1
432.091	9214.55
436.855	13174.6
441.616	11624.8
446.374	6616.65
451.13	3492.67
455.883	2144.92
460.633	1468.16
465.38	1036.87
470.125	840.821
474.868	686.682
479.607	554.689
484.344	459.834
489.078	295.264
493.81	182.853
498.539	289.726
503.265	203.067
507.989	233.976
512.71	323.933
517.428	203.238
522.144	225.642
526.857	202.233
531.567	288.769
536.275	208.128
540.98	240.665
545.683	132.176
550.383	202.278
555.08	43.0942
559.774	195.475
564.466	46.1445
569.155	35.3799
573.842	53.6328
578.526	191.818
583.207	41.0234
587.886	3.71973
592.562	54.7471
597.235	40.3389
601.906	28.8852
606.574	95.064
611.24	85.3252
615.903	63.3296
620.563	67.1221
625.221	180.148
629.876	184.704
634.528	256.284
639.178	388.296
643.825	526.427
648.47	366.35
653.112	270.529
657.751	263.607
662.388	300.901
667.022	249.484
671.653	249.065
676.282	343.274
680.908	120.656
685.532	88.2832
690.153	42.1567
694.771	87.0273
699.387	184.446
704	15.4985
708.61	43.0527
713.218	76.2207
717.824	137.037
722.426	55.4448
727.026	52.3227
731.624	103.985
736.219	13.2959
740.811	4.24365
745.401	77.0244
749.988	21.7031
754.572	80.0288
759.154	87.0195
763.734	97.5962
768.31	10.6201
772.884	54.8096
777.456	56.1543
782.025	10.7837
786.591	8.91602
791.155	58.6343
795.716	31.9458
800.275	30.0469
804.831	49.3706
809.384	0.625488
813.935	28.0303
818.483	14.9898
823.029	61.4741
827.572	90.0327
832.112	85.3887
836.65	10.2124
841.186	131.206
845.718	175.802
850.249	230.443
854.776	85.7847
859.301	266.88
863.824	159.236
868.344	218.554
872.861	231.892
877.376	131.653
881.888	147.269
886.397	305.389
890.904	358.007
895.409	328.377
899.911	211.079
904.41	308.21
908.907	223.833
913.401	374.301
917.893	323.588
922.382	462.638
926.869	496.687
931.353	490.662
935.834	493.724
940.313	535.515
944.789	487.888
949.263	624.602
953.734	710.926
958.203	1078.83
962.669	1668.37
967.133	3690.78
971.594	6788.45
976.052	5114.43
980.508	3042.69
984.961	2792.31
989.412	3849.2
993.861	6654.39
998.306	16770.9
1002.75	41019.7
1007.19	43362.8
1011.63	17768.2
1016.06	7657.83
1020.5	4001.78
1024.93	2266.99
1029.36	1588.04
1033.78	991.953
1038.2	651.054
1042.62	702.423
1047.04	579.422
1051.46	415.354
1055.87	317.771
1060.28	347.798
1064.69	224.509
1069.09	242.303
1073.5	270.237
1077.9	248.99
1082.29	326.049
1086.69	412.592
1091.08	487.199
1095.47	281.087
1099.86	235.045
1104.24	248.185
1108.63	419.368
1113.01	252.44
1117.38	221.577
1121.76	154.735
1126.13	103.511
1130.5	159.22
1134.87	87.6777
1139.23	240.874
1143.6	160.408
1147.96	210.519
1152.32	125.471
1156.67	42.4404
1161.02	94.3691
1165.37	13.083
1169.72	53.5815
1174.07	27.501
1178.41	31.8154
1182.75	75.6787
1187.08	2.42334
1191.42	34.6875
1195.75	52.269
1200.08	112.418
1204.41	121.067
1208.73	40.4219
1213.06	10.4854
1217.38	75.9126
1221.69	36.0327
1226.01	74.5723
1230.32	87.9609
1234.63	132.191
1238.94	52.4185
1243.24	48.7329
1247.55	30.7564
1251.85	39.6826
1256.14	163.268
1260.44	107.059
1264.73	59.706
1269.02	280.144
1273.31	229.491
1277.6	77.1328
1281.88	58.9121
1286.16	184.865
1290.44	180.423
1294.71	61.5884
1298.98	174.705
1303.26	86.2353
1307.52	97.7998
1311.79	129.577
1316.05	41.5855
1320.31	56.2388
1324.57	73.1567
1328.83	105.488
1333.08	55.0527
1337.33	94.3672
1341.58	231.051
1345.82	167.99
1350.07	301.504
1354.31	181.884
1358.55	180.647
1362.78	80.1318
1367.02	139.023
1371.25	44.5054
1375.48	77.7788
1379.7	46.7827
1383.92	124.176
1388.15	9.55469
1392.37	115.542
1396.58	27.8193
1400.8	83.0342
1405.01	140.008
1409.22	8.50977
1413.42	76.1123
1417.63	110.548
1421.83	131.324
1426.03	223.528
1430.22	97.7314
1434.42	222.043
1438.61	77.9463
1442.8	109.366
1446.99	340.893
1451.17	153.315
1455.35	331.406
1459.53	313.788
1463.71	235.776
1467.89	208.197
1472.06	202.062
1476.23	214.253
1480.4	163.091
1484.56	115.468
1488.72	78.8496
1492.88	166.948
1497.04	102.918
1501.2	209.744
1505.35	238.891
1509.5	167.855
1513.65	251.657
1517.8	134.162
1521.94	191.724
1526.08	29.6182
1530.22	92.5283
1534.36	150.601
1538.49	0.510742
1542.62	0
