Measurement: Raman, 514 nm, ccw, Raman Data Processed
Mineral: Zircon
Rruff sample: R050286
Ideal chemistry: Zr^4+^SiO_4_
Locality: Renfrew County, Ontario, Canada
Source: Marcus Origlieri
Description: Brownish red prismatic crystal frozen in matrix, associated with apatite
Measured chemistry: Zr_1.00_Si_1.00_O_4_; trace amounts of Hf
Pin_id: L01183
Orientation: Laser parallel to -c* (0 0 -1). Fiducial mark perpendicular to laser is parallel to -a [-1 0 0]
Raman shift (cm-1)	intensity
135.191	0
138.888	34.3633
142.583	82.8037
146.277	77.0664
149.97	124.346
153.661	112.498
157.35	88.4966
161.038	233.434
164.724	172.909
168.409	226.286
172.092	197.492
175.774	170.42
179.454	197.426
183.133	133.449
186.81	263.728
190.486	435.485
194.16	777.873
197.832	1104.2
201.503	1707.13
205.173	2635.62
208.841	3579.61
212.507	3900.74
216.172	3235.28
219.835	2182.71
223.497	1519.35
227.157	1185.59
230.816	762.949
234.473	590.575
238.129	396.449
241.783	287.558
245.436	134.883
249.087	177.399
252.737	148.07
256.385	76.8916
260.031	9.86572
263.676	48.9951
267.32	129.28
270.962	8.27685
274.602	62.3213
278.241	78.0391
281.879	19.1562
285.514	18.9468
289.149	64.5366
292.782	51.3413
296.413	2.4126
300.043	47.2969
303.671	58.1416
307.298	40.2666
310.923	58.5049
314.547	146.404
318.169	83.4258
321.79	250.563
325.409	56.8257
329.027	146.19
332.643	221.607
336.258	391.084
339.871	431.629
343.482	640.248
347.092	1171.94
350.701	1678.59
354.308	1929.25
357.914	1782.86
361.518	1178.62
365.12	690.135
368.721	449.959
372.321	616.198
375.919	550.784
379.515	651.491
383.111	801.317
386.704	935.261
390.296	1116.32
393.886	983.491
397.475	801.776
401.063	732.174
404.649	706.598
408.233	708.231
411.816	922.991
415.398	1234.64
418.978	1725.26
422.556	2548.1
426.133	4003.24
429.709	6572.86
433.282	9992.5
436.855	13131.2
440.426	12478.5
443.995	8941.73
447.563	5578.02
451.13	3443.87
454.695	2176.44
458.258	1830.23
461.82	1458.46
465.38	1065.67
468.939	851.242
472.497	841.006
476.053	677.859
479.607	544.844
483.16	528.04
486.712	437.233
490.262	382.595
493.81	301.096
497.357	249.764
500.902	204.503
504.446	310.345
507.989	310.288
511.53	218.304
515.069	328.376
518.607	258.56
522.144	276.812
525.679	288.11
529.213	231.486
532.745	179.991
536.275	161.667
539.804	152.402
543.332	183.206
546.858	171.141
550.383	202.642
553.906	170.441
557.427	112.33
560.947	140.034
564.466	70.689
567.983	57.8691
571.499	82.9312
575.013	7.76025
578.526	90.8589
582.037	116.159
585.547	109.937
589.055	2.78711
592.562	12.0649
596.067	21.6367
599.571	18.7651
603.074	41.3013
606.574	81.4609
610.074	28.9878
613.572	204.044
617.068	32.273
620.563	198.332
624.057	141.214
627.549	181.643
631.039	280.365
634.528	397.47
638.016	353.482
641.502	419.579
644.987	401.438
648.47	360.172
651.951	374.573
655.432	281.776
658.91	358.931
662.388	442.983
665.863	309.461
669.338	282.477
672.81	328.432
676.282	264.861
679.752	151.713
683.22	198.51
686.687	16.7017
690.153	114.374
693.617	54.8184
697.079	122.034
700.54	45.041
704	81.8408
707.458	22.459
710.915	138.191
714.37	156.945
717.824	128.705
721.276	92.52
724.727	33.1411
728.176	75.1836
731.624	143.568
735.07	42.148
738.515	115.405
741.959	86.6035
745.401	95.4912
748.841	104.285
752.28	8.93994
755.718	57.6265
759.154	69.5234
762.589	22.2148
766.022	13.7417
769.454	9.94629
772.884	78.8193
776.313	35.3892
779.741	18.7529
783.167	14.8604
786.591	64.7568
790.014	29.4844
793.436	14.9673
796.856	100.311
800.275	44.4336
803.692	41.5947
807.108	136.854
810.522	63.5195
813.935	11.4795
817.346	5.31152
820.756	28.9634
824.165	32.7349
827.572	62.0444
830.977	117.936
834.382	102.558
837.784	257.2
841.186	238.978
844.585	72.8672
847.984	6.0918
851.381	28.4824
854.776	23.0664
858.17	77.3975
861.563	205.447
864.954	391.219
868.344	527.651
871.732	497.906
875.119	493.383
878.504	500.103
881.888	483.609
885.27	507.059
888.651	369.623
892.031	360.065
895.409	349.989
898.786	352.121
902.161	454.028
905.535	397.778
908.907	497.074
912.278	335.412
915.647	480.703
919.015	450.362
922.382	483.513
925.747	510.411
929.111	498.956
932.473	478.904
935.834	569.05
939.193	422.721
942.551	544.015
945.908	585.896
949.263	663.719
952.617	745.309
955.969	1017.21
959.32	1100.08
962.669	1549.43
966.017	2900.93
969.363	5336.59
972.708	7117.41
976.052	4972.38
979.394	3289.48
982.735	2802.39
986.074	2966.42
989.412	3737.95
992.749	5529.61
996.084	9948.64
999.417	21284.2
1002.75	40083.3
1006.08	48127.7
1009.41	28964.2
1012.74	13766.8
1016.06	7210.56
1019.39	4562.54
1022.71	3043.69
1026.04	1923.02
1029.36	1445.58
1032.67	1095.6
1035.99	766.9
1039.31	670.786
1042.62	547.631
1045.94	536.515
1049.25	417.591
1052.56	359.525
1055.87	335.894
1059.18	368.065
1062.48	305.024
1065.79	175.369
1069.09	290.266
1072.4	215.998
1075.7	108.135
1079	343.423
1082.29	204.676
1085.59	416.268
1088.89	450.283
1092.18	453.497
1095.47	268.501
1098.76	286.893
1102.05	254.885
1105.34	339.301
1108.63	261.68
1111.91	236.091
1115.2	205.565
1118.48	243.245
1121.76	109.738
1125.04	106.292
1128.32	29.1172
1131.6	144.501
1134.87	2.70801
1138.14	130.988
1141.42	191.727
1144.69	144.498
1147.96	30.3223
1151.23	54.1504
1154.49	62.9951
1157.76	93.2461
1161.02	37.8965
1164.29	10.915
1167.55	55.0703
1170.81	40.9873
1174.07	19.4355
1177.32	25.6572
1180.58	3.32812
1183.83	3.34082
1187.08	41.8262
1190.34	4.18164
1193.59	90.0918
1196.84	87.624
1200.08	105.716
1203.33	36.5068
1206.57	71.1631
1209.82	28.8076
1213.06	63.5928
1216.3	18.7344
1219.54	145.684
1222.77	35.3438
1226.01	253.827
1229.24	193.217
1232.48	58.4531
1235.71	46.5049
1238.94	102.901
1242.17	180.321
1245.4	9.4707
1248.62	96.0127
1251.85	84.9883
1255.07	253.199
1258.29	144.788
1261.51	166.793
1264.73	263.994
1267.95	300.052
1271.17	168.156
1274.38	129.102
1277.6	135.81
1280.81	199.338
1284.02	119.835
1287.23	11.041
1290.44	123.109
1293.64	104.599
1296.85	122.215
1300.05	129.597
1303.26	97.001
1306.46	43.084
1309.66	20.2207
1312.86	117.218
1316.05	101.175
1319.25	54.5088
1322.44	120.015
1325.63	178.609
1328.83	88.6943
1332.02	103.117
1335.2	193.8
1338.39	148.892
1341.58	237.363
1344.76	176.537
1347.95	110.113
1351.13	129.329
1354.31	271.352
1357.49	93.876
1360.66	155.557
1363.84	14.0713
1367.02	98.585
1370.19	65.1846
1373.36	8.70117
1376.53	18.2051
1379.7	73.375
1382.87	185.45
1386.04	10.752
1389.2	180.816
1392.37	147.787
1395.53	37.5234
1398.69	68.1602
1401.85	48.2227
1405.01	2.68555
1408.16	50.2139
1411.32	192.799
1414.47	117.039
1417.63	42.4346
1420.78	260.825
1423.93	195.617
1427.08	40.4941
1430.22	159.716
1433.37	98.7715
1436.52	177.666
1439.66	197.628
1442.8	243.114
1445.94	258.973
1449.08	213.852
1452.22	310.543
1455.35	141.565
1458.49	163.398
1461.62	369.126
1464.76	258.313
1467.89	147.355
1471.02	147.215
1474.14	124.513
1477.27	173.171
1480.4	118.217
1483.52	62.7266
1486.64	255.785
1489.77	140.198
1492.88	0
