Measurement: Raman, 514 nm, ccw, Raman Data Processed
Mineral: Zircon
Rruff sample: R050203
Ideal chemistry: Zr^4+^SiO_4_
Locality: Eastern Thailand
Source: Eric Van Valkenburg
Description: Dark red water-worn single crystal
Measured chemistry: (Zr_0.99_Hf_0.01_)_Î£=1_Si_1.00_O_4_
Pin_id: L00061
Orientation: Laser parallel to a* (1 0 0). Fiducial mark perpendicular to laser is parallel to -c [0 0 -1]
Raman shift (cm-1)	intensity
131.492	0
135.191	38.4396
138.888	29.6807
142.583	17.6049
146.277	3.53525
149.97	27.051
153.661	1.16638
157.35	57.5993
161.038	42.1055
164.724	23.6769
168.409	20.9438
172.092	29.6761
175.774	23.2478
179.454	33.5009
183.133	46.516
186.81	43.2163
190.486	45.0955
194.16	103.727
197.832	240.653
201.503	405.625
205.173	741.471
208.841	1330.51
212.507	2742.87
216.172	3636.04
219.835	2103.92
223.497	907.837
227.157	717.287
230.816	294.98
234.473	113.367
238.129	70.0074
241.783	29.665
245.436	29.3304
249.087	27.0012
252.737	3.67709
256.385	19.3586
260.031	0.04718
263.676	2.74356
267.32	45.4445
270.962	21.8531
274.602	16.1771
278.241	8.68854
281.879	12.003
285.514	28.2777
289.149	11.644
292.782	3.97946
296.413	9.3913
300.043	2.74698
303.671	0.090363
307.298	0.545593
310.923	0.268921
314.547	14.0248
318.169	19.2918
321.79	6.46655
325.409	1.74576
329.027	17.9364
332.643	19.1107
336.258	26.2703
339.871	47.4171
343.482	113.547
347.092	269.63
350.701	664.72
354.308	1201.57
357.914	1493.51
361.518	951.443
365.12	350.379
368.721	139.321
372.321	114.275
375.919	76.2328
379.515	82.205
383.111	157.2
386.704	301.352
390.296	530.26
393.886	703.145
397.475	585.041
401.063	351.17
404.649	206.963
408.233	199.644
411.816	229.947
415.398	299.602
418.978	396.595
422.556	567.401
426.133	1049.11
429.709	2318.52
433.282	5560.35
436.855	11548
440.426	15922.1
443.995	10450.6
447.563	4714.18
451.13	2158.08
454.695	1211.62
458.258	768.217
461.82	593.755
465.38	416.112
468.939	317.281
472.497	263.923
476.053	202.196
479.607	132.023
483.16	115.878
486.712	77.7608
490.262	92.2872
493.81	44.411
497.357	198.394
500.902	150.04
504.446	31.0853
507.989	46.1626
511.53	70.8007
515.069	39.4121
518.607	22.9118
522.144	35.1148
525.679	31.3486
529.213	59.6129
532.745	64.9071
536.275	46.038
539.804	57.4011
543.332	65.0399
546.858	103.51
550.383	86.3529
553.906	129.853
557.427	62.3853
560.947	79.5319
564.466	80.8076
567.983	38.2498
571.499	30.2763
575.013	41.0789
578.526	42.0638
582.037	39.1169
585.547	29.9673
589.055	26.8243
592.562	26.9037
596.067	31.817
599.571	26.9891
603.074	57.9389
606.574	38.9173
610.074	54.9265
613.572	44.9776
617.068	78.5797
620.563	54.1444
624.057	63.2713
627.549	36.4198
631.039	54.4029
634.528	21.6697
638.016	41.648
641.502	28.0643
644.987	22.127
648.47	40.8918
651.951	14.8522
655.432	56.348
658.91	52.6445
662.388	59.5386
665.863	22.9262
669.338	38.1756
672.81	13.6105
676.282	30.9815
679.752	46.1049
683.22	1.69226
686.687	5.32202
690.153	43.3364
693.617	14.78
697.079	29.0684
700.54	8.20074
704	9.8786
707.458	18.0477
710.915	28.8863
714.37	16.0041
717.824	4.80566
721.276	64.6533
724.727	32.4098
728.176	28.9597
731.624	46.8512
735.07	2.1944
738.515	35.6148
741.959	35.2258
745.401	48.7118
748.841	20.6601
752.28	12.1721
755.718	60.6215
759.154	38.3774
762.589	34.9086
766.022	12.242
769.454	55.9309
772.884	34.5976
776.313	8.83533
779.741	11.4062
783.167	44.0074
786.591	65.5727
790.014	43.6876
793.436	29.7731
796.856	56.3157
800.275	25.5303
803.692	24.5306
807.108	43.5031
810.522	9.646
813.935	45.5525
817.346	19.4299
820.756	36.3297
824.165	58.4268
827.572	78.5925
830.977	43.8832
834.382	61.8441
837.784	45.2722
841.186	35.294
844.585	50.0967
847.984	21.9218
851.381	58.983
854.776	52.5563
858.17	56.5502
861.563	16.7046
864.954	29.7109
868.344	25.5253
871.732	58.9969
875.119	9.42365
878.504	29.827
881.888	13.8022
885.27	0.522156
888.651	13.7852
892.031	18.0397
895.409	30.2458
898.786	37.3868
902.161	8.37659
905.535	49.5004
908.907	26.6102
912.278	33.4697
915.647	17.7354
919.015	22.3345
922.382	28.3957
925.747	26.444
929.111	26.5092
932.473	53.6118
935.834	12.7365
939.193	27.8699
942.551	35.0314
945.908	26.9855
949.263	64.8889
952.617	45.0538
955.969	48.2601
959.32	121.403
962.669	165.499
966.017	306.719
969.363	1009.96
972.708	3852.89
976.052	7956.18
979.394	3438.49
982.735	1017.81
986.074	619.165
989.412	558.817
992.749	692.031
996.084	1029.18
999.417	2123.61
1002.75	6967.3
1006.08	25739.8
1009.41	55675.3
1012.74	24433.7
1016.06	6201.26
1019.39	2080.25
1022.71	972.828
1026.04	553.387
1029.36	404.634
1032.67	299.101
1035.99	205.065
1039.31	189.315
1042.62	154.446
1045.94	149.174
1049.25	161.136
1052.56	170.877
1055.87	199.456
1059.18	147.283
1062.48	68.6327
1065.79	94.2373
1069.09	96.031
1072.4	71.0213
1075.7	69.6177
1079	109.83
1082.29	150.847
1085.59	186.883
1088.89	298.937
1092.18	314.01
1095.47	208.103
1098.76	159.215
1102.05	121.344
1105.34	177.497
1108.63	210.666
1111.91	361.867
1115.2	283.071
1118.48	127.295
1121.76	97.5419
1125.04	71.3331
1128.32	60.4623
1131.6	94.4138
1134.87	66.7593
1138.14	108.161
1141.42	144.576
1144.69	207.017
1147.96	240.484
1151.23	169.981
1154.49	113.493
1157.76	84.0438
1161.02	64.6258
1164.29	33.2419
1167.55	12.1349
1170.81	14.4719
1174.07	50.7597
1177.32	20.7363
1180.58	11.4547
1183.83	3.42365
1187.08	4.76166
1190.34	5.67084
1193.59	13.835
1196.84	22.3768
1200.08	28.1555
1203.33	4.43933
1206.57	2.047
1209.82	16.3475
1213.06	21.7968
1216.3	22.2037
1219.54	34.6162
1222.77	37.0337
1226.01	47.4554
1229.24	50.7477
1232.48	65.3054
1235.71	48.7318
1238.94	103.177
1242.17	35.6023
1245.4	32.8569
1248.62	52.7452
1251.85	23.162
1255.07	65.6313
1258.29	51.1943
1261.51	29.8453
1264.73	110.27
1267.95	90.641
1271.17	113.999
1274.38	128.711
1277.6	90.3252
1280.81	59.9287
1284.02	59.001
1287.23	73.267
1290.44	85.6742
1293.64	105.681
1296.85	93.7443
1300.05	98.5729
1303.26	47.3687
1306.46	38.984
1309.66	54.6619
1312.86	37.3135
1316.05	47.8654
1319.25	25.7786
1322.44	10.855
1325.63	46.1963
1328.83	36.6061
1332.02	40.0067
1335.2	54.3966
1338.39	19.7744
1341.58	75.1212
1344.76	98.4667
1347.95	100.787
1351.13	144.076
1354.31	146.728
1357.49	122.406
1360.66	135.475
1363.84	102.503
1367.02	47.4911
1370.19	49.4703
1373.36	8.47168
1376.53	43.1151
1379.7	50.2011
1382.87	13.0715
1386.04	14.4037
1389.2	11.405
1392.37	25.613
1395.53	44.692
1398.69	4.71155
1401.85	4.68164
1405.01	65.54
1408.16	21.278
1411.32	51.8135
1414.47	25.6597
1417.63	41.6802
1420.78	33.3859
1423.93	39.0489
1427.08	41.0002
1430.22	90.2384
1433.37	33.7711
1436.52	0.537354
1439.66	27.8164
