Measurement: Raman, 514 nm, ccw, Raman Data Processed
Mineral: Zircon
Rruff sample: R050488
Ideal chemistry: Zr^4+^SiO_4_
Locality: Sigulani Village, Tambani Area, Blantyre District, Nyassaland
Source: California Institute of Technology
Description: Brown fragment
Measured chemistry: (Zr_0.99_Hf_0.01_)_Î£=1_Si_1.00_O_4_
Pin_id: L01932
Orientation: Laser parallel to -a* (-1 0 0). Fiducial mark perpendicular to laser is parallel to c [0 0 1]
Raman shift (cm-1)	intensity
121.622	0
125.324	19.5892
129.026	6.81506
132.725	26.365
136.423	44.2268
140.12	59.0005
143.815	49.5397
147.508	57.6585
151.2	61.1522
154.891	95.8308
158.58	70.6785
162.267	86.15
165.953	101.897
169.637	53.8625
173.32	65.7774
177.001	61.5332
180.681	81.1229
184.359	57.5834
188.035	100.942
191.711	123.201
195.384	215.399
199.056	316.943
202.727	601.058
206.395	1182.51
210.063	1956.61
213.729	2911.53
217.393	3095
221.056	1676.45
224.717	775.056
228.377	448.605
232.035	227.195
235.692	96.8571
239.347	64.4779
243.001	50.1605
246.653	57.867
250.304	58.5972
253.953	57.2077
257.6	30.1337
261.246	5.59534
264.891	1.77557
268.534	26.9868
272.175	27.2647
275.815	18.3641
279.454	40.5476
283.091	6.34277
286.726	23.7925
290.36	19.9674
293.992	32.1612
297.623	16.3746
301.252	16.396
304.88	16.8312
308.507	15.0604
312.131	35.304
315.755	18.5538
319.376	2.19214
322.996	17.0713
326.615	0.655884
330.232	6.62372
333.848	28.9134
337.462	65.2089
341.075	107.508
344.686	167.77
348.296	358.991
351.904	690.204
355.51	898.424
359.115	893.618
362.719	491.809
366.321	230.014
369.921	108.229
373.52	100.468
377.118	103.04
380.714	141.025
384.309	268.342
387.902	402.685
391.493	649.055
395.083	674.45
398.671	551.871
402.258	295.319
405.844	208.321
409.428	223.807
413.01	259.336
416.591	379.648
420.171	523.086
423.749	804.707
427.325	1582.52
430.9	3570.07
434.473	7023.85
438.045	11115.6
441.616	12341.3
445.185	7734.77
448.752	3422.98
452.318	1667.97
455.883	1037.47
459.445	700.904
463.007	481.554
466.567	392.171
470.125	314.097
473.682	232.116
477.238	201.159
480.792	125.228
484.344	153.323
487.895	104.445
491.445	85.5932
494.992	60.7696
498.539	95.9756
502.084	86.2169
505.627	76.499
509.169	63.8143
512.71	72.1791
516.249	30.5906
519.786	87.0324
523.322	76.5005
526.857	75.9974
530.39	80.5338
533.922	65.1068
537.452	6.70355
540.98	73.3238
544.507	50.967
548.033	68.6407
551.557	57.3426
555.08	45.0259
558.601	68.033
562.121	38.6648
565.639	20.8962
569.155	25.9835
572.671	23.6697
576.184	22.5851
579.697	22.5222
583.207	17.5193
586.717	18.4612
590.224	4.49676
593.731	9.14789
597.235	24.1853
600.739	5.80939
604.241	14.3538
607.741	12.1174
611.24	13.247
614.737	18.347
618.233	26.4589
621.728	16.579
625.221	15.8235
628.712	13.8093
632.202	68.1548
635.691	23.5926
639.178	100.297
642.664	103.212
646.148	84.0491
649.63	69.0301
653.112	6.18085
656.591	52.2003
660.069	34.384
663.546	27.902
667.022	27.1779
670.495	30.1193
673.968	52.2621
677.439	60.3943
680.908	33.5114
684.376	36.6345
687.842	32.2684
691.307	43.3962
694.771	0.409668
698.233	35.6063
701.694	37.6067
705.153	39.5693
708.61	38.5091
712.066	83.4753
715.521	50.3715
718.974	25.4496
722.426	27.6222
725.877	30.439
729.325	23.782
732.773	30.6454
736.219	45.9933
739.663	1.87054
743.106	0.810974
746.548	6.59003
749.988	63.6402
753.426	48.154
756.864	50.28
760.299	8.96558
763.734	46.5967
767.166	44.4569
770.598	21.5239
774.028	27.9327
777.456	16.2076
780.883	5.5108
784.308	50.7289
787.732	37.8295
791.155	4.14221
794.576	25.8124
797.996	58.7314
801.414	4.75317
804.831	5.40851
808.246	27.3544
811.66	38.0754
815.072	48.7632
818.483	31.4181
821.893	0.959839
825.301	54.6148
828.707	45.1572
832.112	24.4595
835.516	20.9338
838.918	52.3773
842.319	94.5571
845.718	11.9413
849.116	69.2798
852.513	2.60498
855.908	3.89606
859.301	26.1432
862.693	35.3566
866.084	4.49933
869.473	13.015
872.861	22.1172
876.247	24.178
879.632	38.5157
883.015	6.62793
886.397	39.3055
889.778	8.81219
893.157	15.0323
896.535	15.2487
899.911	41.5001
903.286	10.772
906.659	18.095
910.031	8.33362
913.401	26.4397
916.77	6.13605
920.138	7.41132
923.504	25.2545
926.869	27.1027
930.232	23.6843
933.594	5.71466
936.954	43.5447
940.313	17.1938
943.67	24.9213
947.026	55.6096
950.381	111.3
953.734	72.0122
957.086	92.1634
960.436	188.881
963.785	296.543
967.133	600.121
970.479	2004.84
973.823	4807.58
977.166	5594.33
980.508	1957.04
983.848	885.804
987.187	747.377
990.525	733
993.861	1075.63
997.195	1914.37
1000.53	4518.49
1003.86	15719.3
1007.19	38329.1
1010.52	45238.3
1013.85	15235.7
1017.17	4237.26
1020.5	1689.19
1023.82	947.504
1027.14	642.433
1030.46	441.179
1033.78	341.357
1037.1	258.695
1040.41	229.98
1043.73	207.414
1047.04	239.328
1050.35	259.548
1053.66	242.406
1056.97	293.579
1060.28	252.79
1063.59	134.052
1066.89	123.21
1070.19	125.206
1073.5	101.478
1076.8	102.77
1080.1	177.188
1083.39	206.024
1086.69	345.491
1089.98	439.975
1093.28	395.457
1096.57	207.957
1099.86	159.298
1103.15	186.973
1106.44	235.821
1109.72	401.37
1113.01	421.904
1116.29	306.457
1119.57	181.085
1122.85	156.69
1126.13	113.333
1129.41	97.8092
1132.69	93.7156
1135.96	78.4578
1139.23	103.22
1142.51	177
1145.78	305.464
1149.05	268.579
1152.32	188.421
1155.58	87.296
1158.85	52.1265
1162.11	10.0895
1165.37	10.6503
1168.63	23.4304
1171.89	8.80969
1175.15	18.8843
1178.41	4.58044
1181.66	13.6622
1184.92	59.939
1188.17	38.6984
1191.42	56.1948
1194.67	35.131
1197.92	31.057
1201.16	23.2808
1204.41	30.9977
1207.65	17.7035
1210.9	13.3611
1214.14	10.0138
1217.38	10.5298
1220.62	71.9332
1223.85	105.154
1227.09	48.3131
1230.32	73.3898
1233.56	0.392456
1236.79	10.3589
1240.02	64.3634
1243.24	66.9131
1246.47	59.1926
1249.7	48.5021
1252.92	38.8408
1256.14	67.207
1259.37	106.601
1262.59	96.0214
1265.81	161.469
1269.02	178.413
1272.24	171.905
1275.45	142.894
1278.67	101.172
1281.88	87.5018
1285.09	42.12
1288.3	81.0629
1291.51	60.2169
1294.71	56.0774
1297.92	44.6173
1301.12	32.1683
1304.32	6.92041
1307.52	32.6644
1310.72	46.0603
1313.92	27.4357
1317.12	22.6574
1320.31	16.7147
1323.51	46.8603
1326.7	19.9058
1329.89	82.2362
1333.08	97.326
1336.27	76.501
1339.45	120.227
1342.64	140.451
1345.82	122.074
1349.01	110.422
1352.19	85.4846
1355.37	123.685
1358.55	101.981
1361.72	43.4541
1364.9	31.5681
1368.07	7.67822
