Measurement: Raman, 514 nm, ccw, Raman Data Processed
Mineral: Zircon
Rruff sample: R050488
Ideal chemistry: Zr^4+^SiO_4_
Locality: Sigulani Village, Tambani Area, Blantyre District, Nyassaland
Source: California Institute of Technology
Description: Brown fragment
Measured chemistry: (Zr_0.99_Hf_0.01_)_Î£=1_Si_1.00_O_4_
Pin_id: L00554
Orientation: Laser parallel to c* (0 0 1). Fiducial mark perpendicular to laser is parallel to a [1 0 0]
Raman shift (cm-1)	intensity
148.739	0
152.431	125.821
156.121	151.625
159.809	179.508
163.496	147.459
167.181	62.6519
170.865	124.671
174.547	122.698
178.228	13.7236
181.907	134.327
185.585	111.816
189.261	54.083
192.935	186.422
196.608	344.94
200.28	430.53
203.95	746.592
207.618	758.083
211.285	1188.56
214.95	1913.77
218.614	1759.95
222.277	1123.87
225.937	901.989
229.597	782.014
233.254	344.725
236.911	146.613
240.565	42.5791
244.218	154.214
247.87	8.5957
251.52	122.863
255.169	31.4463
258.816	17.1572
262.461	13.0967
266.105	259.698
269.748	34.1728
273.389	53.8584
277.028	151.421
280.666	39.1416
284.303	39.7881
287.938	103.327
291.571	1.15527
295.203	84.3916
298.833	48.9268
302.462	54.5322
306.089	108.442
309.715	69.6865
313.339	33.1494
316.962	42.7295
320.583	42.4629
324.203	11.3447
327.821	217.315
331.438	29.3174
335.053	61.3262
338.667	100.543
342.279	284.615
345.889	412.592
349.498	832.188
353.106	1460.27
356.712	2226.6
360.317	2048.45
363.92	1019.7
367.521	417.757
371.121	149.105
374.72	202.372
378.317	278.379
381.912	241.839
385.506	242.197
389.099	368.818
392.69	440.482
396.279	476.797
399.867	363.107
403.454	329.413
407.039	249.696
410.622	260.797
414.204	382.708
417.785	330.772
421.364	492.315
424.941	535.589
428.517	1024.39
432.091	1992.57
435.664	3853.17
439.236	6700.09
442.806	6331.44
446.374	3277.01
449.941	1521.34
453.506	886.459
457.07	480.232
460.633	378.235
464.194	320.022
467.753	249.393
471.311	225.447
474.868	161.752
478.423	63.25
481.976	169.898
485.528	193.429
489.078	39.1602
492.627	174.192
496.175	30.4756
499.721	176.809
503.265	181.817
506.808	145.61
510.35	15.4639
513.89	25.8613
517.428	11.7871
520.965	23.1035
524.501	1.45312
528.035	186.797
531.567	14.8828
535.098	132.129
538.628	26.3027
542.156	16.0684
545.683	108.291
549.208	167.883
552.731	213.691
556.254	118.885
559.774	170.402
563.293	46.581
566.811	285.965
570.327	112.541
573.842	97.8144
577.355	96.5225
580.867	125.285
584.377	48.419
587.886	173.872
591.393	67.2881
594.899	84.8838
598.403	225.745
601.906	12.4365
605.408	15.9355
608.908	138.666
612.406	70.6338
615.903	128.628
619.398	243.965
622.892	289.409
626.385	431.743
629.876	155.17
633.365	137.848
636.853	101.333
640.34	263.574
643.825	232.81
647.309	521.201
650.791	26.7695
654.272	115.885
657.751	198.833
661.229	323.85
664.705	114.317
668.18	99.5078
671.653	161.836
675.125	349.988
678.595	121.03
682.064	87.3691
685.532	307.266
688.998	351.778
692.462	213.211
695.925	88.8799
699.387	246.509
702.847	128.662
706.305	114.878
709.763	213.625
713.218	82.2637
716.672	44.9824
720.125	214.633
723.577	85.7939
727.026	44.7227
730.475	234.301
733.922	124.559
737.367	94.4072
740.811	145.75
744.254	101.686
747.695	76.21
751.134	7.80566
754.572	67.6934
758.009	190.404
761.444	177.556
764.878	152.21
768.31	128.343
771.741	139.048
775.17	51.625
778.598	192.18
782.025	214.924
785.45	208.454
788.873	51.6982
792.295	41.2744
795.716	116.153
799.135	132.87
802.553	2.23047
805.969	49.6523
809.384	107.677
812.797	106.225
816.209	105.586
819.62	261.13
823.029	142.974
826.436	253.203
829.842	85.6973
833.247	135.077
836.65	227.463
840.052	271.346
843.452	12.7949
846.851	9.98633
850.249	227.553
853.645	76.5293
857.039	23.8262
860.432	30.5586
863.824	216.639
867.214	104.244
870.603	127.982
873.99	141.629
877.376	145.053
880.76	18.498
884.143	159.184
887.524	100.203
890.904	101.397
894.283	42.1816
897.66	1.76172
901.036	204.135
904.41	2.98633
907.783	156.769
911.154	133.957
914.524	41.9258
917.893	9.83203
921.26	50.5137
924.626	139.894
927.99	240.455
931.353	32.8457
934.714	109.139
938.074	345.332
941.432	79.5566
944.789	126.16
948.145	104.158
951.499	205.477
954.852	238.613
958.203	140.42
961.553	40.4883
964.901	276.078
968.248	601.191
971.594	1416.56
974.938	3275.44
978.28	2552.68
981.622	949.639
984.961	702.9
988.3	459.231
991.637	645.057
994.972	776.668
998.306	1464.38
1001.64	3658.8
1004.97	10377.1
1008.3	24634.7
1011.63	20412.3
1014.96	5820.1
1018.28	1721.51
1021.61	866.537
1024.93	512.912
1028.25	377.139
1031.57	453.705
1034.89	174.275
1038.2	273.264
1041.52	29.377
1044.83	101.141
1048.15	158.447
1051.46	110.426
1054.77	190.44
1058.08	27.918
1061.38	138.057
1064.69	100.287
1067.99	276.267
1071.3	154.43
1074.6	86.1943
1077.9	228.789
1081.19	237.538
1084.49	250.986
1087.79	232.233
1091.08	239.957
1094.38	223.756
1097.67	147.508
1100.96	208.377
1104.24	238.287
1107.53	299.387
1110.82	293.43
1114.1	176.522
1117.38	160.666
1120.67	28.8594
1123.95	297.103
1127.22	150.58
1130.5	205.863
1133.78	281.197
1137.05	9.58398
1140.33	425.023
1143.6	187.531
1146.87	371.092
1150.14	366.74
1153.4	419.531
1156.67	361.42
1159.93	209.119
1163.2	130.561
1166.46	176.057
1169.72	141.646
1172.98	125.84
1176.24	168.461
1179.49	105.583
1182.75	201.703
1186	191.429
1189.25	206.124
1192.5	118.405
1195.75	152.778
1199	29.3599
1202.25	131.723
1205.49	165.903
1208.73	51.9719
1211.98	41.9652
1215.22	155
1218.46	86.5599
1221.69	119.057
1224.93	68.0658
1228.17	24.4877
1231.4	152.394
1234.63	4.22852
1237.86	300.213
1241.09	353.287
1244.32	147.289
1247.55	221.932
1250.77	147.643
1254	177.42
1257.22	515.959
1260.44	215.863
1263.66	63.8105
1266.88	416.816
1270.1	347.16
1273.31	332.303
1276.53	264.477
1279.74	37.0391
1282.95	232.106
1286.16	66.4941
1289.37	126.115
1292.58	219.713
1295.78	126.928
1298.98	337.617
1302.19	287.299
1305.39	212.203
1308.59	258.158
1311.79	140.555
1314.99	131.133
1318.18	212.84
1321.38	240.74
1324.57	31.7539
1327.76	257.744
1330.95	159.721
1334.14	155.912
1337.33	191.176
1340.52	317.363
1343.7	482.363
1346.88	385.051
1350.07	389.494
1353.25	246.83
1356.43	221.158
1359.61	267.69
1362.78	279.953
1365.96	205.035
1369.13	185.668
1372.3	393.652
1375.48	241.705
1378.64	168.768
1381.81	248.674
1384.98	355.49
1388.15	62.3828
1391.31	177.943
1394.47	85.1777
1397.64	199.453
1400.8	326.475
1403.95	116.816
1407.11	4.54492
1410.27	293.279
1413.42	51.6504
1416.58	148.639
1419.73	60.8066
1422.88	238.688
1426.03	149.443
1429.18	139.356
1432.32	241.481
1435.47	157.053
1438.61	87.4609
1441.75	99.0723
1444.89	37.4277
1448.03	104.141
1451.17	78.8144
1454.31	334.574
1457.44	219.914
1460.58	162.894
1463.71	204.912
1466.84	140.957
1469.97	108.473
1473.1	50.3887
