Measurement: Raman, 514 nm, depolarized, Raman Data Processed
Mineral: Zircon
Rruff sample: R050286
Ideal chemistry: Zr^4+^SiO_4_
Locality: Renfrew County, Ontario, Canada
Source: Marcus Origlieri
Description: Brownish red prismatic crystal frozen in matrix, associated with apatite
Measured chemistry: Zr_1.00_Si_1.00_O_4_; trace amounts of Hf
Pin_id: L00926
Orientation: Laser parallel to a* (1 0 0). Fiducial mark perpendicular to laser is parallel to c [0 0 1]
Raman shift (cm-1)	intensity
135.191	0
138.888	3.89453
142.583	93.9263
146.277	23.0361
149.97	112.509
153.661	103.812
157.35	179.471
161.038	243.776
164.724	263.141
168.409	322.998
172.092	223.397
175.774	285.248
179.454	240.435
183.133	338.828
186.81	256.293
190.486	294.924
194.16	476.785
197.832	934.913
201.503	1423.93
205.173	1956.34
208.841	1959.91
212.507	2151.83
216.172	2647.43
219.835	2345.63
223.497	2403.45
227.157	2700.26
230.816	1849.46
234.473	893.062
238.129	455.046
241.783	317.401
245.436	210.107
249.087	166.141
252.737	22.477
256.385	95.1011
260.031	29.0102
263.676	67.7998
267.32	146.667
270.962	104.404
274.602	57.4053
278.241	66.3633
281.879	10.9849
285.514	54.0586
289.149	53.4507
292.782	46.0767
296.413	65.0601
300.043	7.4165
303.671	75.2559
307.298	3.58447
310.923	79.9136
314.547	164.69
318.169	129.712
321.79	193.982
325.409	322.496
329.027	351.24
332.643	467.151
336.258	570.276
339.871	879.595
343.482	1369.08
347.092	2400.66
350.701	3729.37
354.308	5572.12
357.914	6530.94
361.518	4475.82
365.12	2633.67
368.721	1563.63
372.321	1087.77
375.919	660.076
379.515	750.555
383.111	619.199
386.704	704.002
390.296	724.964
393.886	692.401
397.475	629.342
401.063	538.753
404.649	483.308
408.233	566.896
411.816	670.554
415.398	856.51
418.978	1051.63
422.556	1361.87
426.133	2012.2
429.709	3107.98
433.282	4917.66
436.855	7430.14
440.426	9203.47
443.995	7833.26
447.563	4892.21
451.13	2742.8
454.695	1686.11
458.258	1150.11
461.82	796.735
465.38	620.068
468.939	617.717
472.497	541.173
476.053	494.865
479.607	374.176
483.16	314.606
486.712	282.672
490.262	210.861
493.81	110.198
497.357	90.6655
500.902	35.208
504.446	60.8394
507.989	157.547
511.53	162.321
515.069	193.162
518.607	219.062
522.144	188.016
525.679	205.023
529.213	121.104
532.745	128.282
536.275	208.565
539.804	7.89014
543.332	186.253
546.858	37.9404
550.383	101.487
553.906	94.48
557.427	61.9756
560.947	2.48047
564.466	55.1103
567.983	92.8481
571.499	85.811
575.013	110.874
578.526	103.847
582.037	42.4131
585.547	34.0361
589.055	5.3208
592.562	0.016602
596.067	150.218
599.571	9.16699
603.074	23.459
606.574	32.8901
610.074	70.9736
613.572	63.3101
617.068	67.2095
620.563	149.377
624.057	225.942
627.549	72.6045
631.039	167.299
634.528	207.14
638.016	304.784
641.502	293.789
644.987	314.95
648.47	346.775
651.951	287.681
655.432	248.768
658.91	220.197
662.388	141.958
665.863	186.062
669.338	269.171
672.81	219.066
676.282	331.72
679.752	135.5
683.22	93.8926
686.687	92.2661
690.153	83.7549
693.617	120.228
697.079	173.108
700.54	81.666
704	11.1768
707.458	195.208
710.915	103.21
714.37	11.2163
717.824	114.809
721.276	170.937
724.727	55.6924
728.176	67.6768
731.624	131.138
735.07	195.866
738.515	185.961
741.959	178.977
745.401	90.3125
748.841	5.58496
752.28	28.1597
755.718	102.881
759.154	80.8247
762.589	60.1118
766.022	5.34375
769.454	83.0205
772.884	35.9683
776.313	81.7749
779.741	17.5542
783.167	60.9273
786.591	103.28
790.014	7.50635
793.436	100.591
796.856	231.556
800.275	171.404
803.692	6.88623
807.108	50.3599
810.522	24.0845
813.935	81.9883
817.346	58.957
820.756	66.7647
824.165	15.0552
827.572	9.41504
830.977	111.4
834.382	42.9619
837.784	195.155
841.186	192.917
844.585	70.3818
847.984	82.0752
851.381	7.31641
854.776	95.1494
858.17	160.487
861.563	134.381
864.954	123.766
868.344	220.764
871.732	291.846
875.119	208.106
878.504	166.935
881.888	174.28
885.27	164.746
888.651	183.983
892.031	77.8662
895.409	112.799
898.786	141.598
902.161	65.667
905.535	129.558
908.907	205.364
912.278	173.302
915.647	261.409
919.015	148.701
922.382	244.904
925.747	255.825
929.111	314.347
932.473	268.92
935.834	295.56
939.193	356.97
942.551	194.482
945.908	257.81
949.263	320.787
952.617	361.813
955.969	373.164
959.32	354.912
962.669	469.499
966.017	737.054
969.363	1440.21
972.708	2756.97
976.052	2855.82
979.394	1606.79
982.735	1052.87
986.074	1075.65
989.412	1136.9
992.749	1581.34
996.084	2907.01
999.417	5768.59
1002.75	11834.7
1006.08	21295.6
1009.41	19637.7
1012.74	9081.85
1016.06	4153.13
1019.39	2359.54
1022.71	1403.19
1026.04	1123.32
1029.36	735.293
1032.67	525.399
1035.99	485.85
1039.31	241.107
1042.62	247.382
1045.94	262.103
1049.25	255.282
1052.56	489.208
1055.87	526.068
1059.18	397.193
1062.48	144.892
1065.79	278.277
1069.09	188.708
1072.4	12.2812
1075.7	222.549
1079	229.471
1082.29	127.894
1085.59	139.164
1088.89	206.817
1092.18	206.606
1095.47	305.999
1098.76	118.803
1102.05	202.798
1105.34	69.2568
1108.63	94.3789
1111.91	89.8311
1115.2	205.273
1118.48	146.461
1121.76	97.2588
1125.04	104.662
1128.32	20.0254
1131.6	15.5723
1134.87	91.2647
1138.14	224.2
1141.42	133.866
1144.69	147.534
1147.96	171.203
1151.23	136.871
1154.49	50.3565
1157.76	312.696
1161.02	153.331
1164.29	75.5107
1167.55	99.8193
1170.81	2.51269
1174.07	28.7158
1177.32	83.6533
1180.58	91.2998
1183.83	5.08398
1187.08	42.6807
1190.34	90.4639
1193.59	39.6016
1196.84	81.1367
1200.08	158.572
1203.33	30.0312
1206.57	115.273
1209.82	188.546
1213.06	3.77539
1216.3	197.121
1219.54	209.108
1222.77	34.9668
1226.01	76.6611
1229.24	62.3193
1232.48	132.112
1235.71	53.5566
1238.94	111.897
1242.17	245.593
1245.4	247.817
1248.62	140.792
1251.85	128.702
1255.07	49.6777
1258.29	68.6592
1261.51	202.625
1264.73	52.792
1267.95	199.852
1271.17	176.803
1274.38	336.63
1277.6	137.375
1280.81	97.2861
1284.02	191.533
1287.23	185.634
1290.44	130.089
1293.64	0.958984
1296.85	162.024
1300.05	188.66
1303.26	40.5625
1306.46	95.4736
1309.66	96.2832
1312.86	162.605
1316.05	109.547
1319.25	65.3232
1322.44	86.5859
1325.63	163.905
1328.83	150.632
1332.02	52.1328
1335.2	161.995
1338.39	25.9668
1341.58	217.793
1344.76	110.804
1347.95	170.915
1351.13	170.673
1354.31	108.326
1357.49	64.6982
1360.66	350.74
1363.84	368.785
1367.02	163.227
1370.19	149.991
1373.36	207.946
1376.53	229.308
1379.7	15.6309
1382.87	188.885
1386.04	160.202
1389.2	160.284
1392.37	180.892
1395.53	151.182
1398.69	162.145
1401.85	125.542
1405.01	49.5127
1408.16	100.153
1411.32	141.56
1414.47	100.701
1417.63	123.012
1420.78	223.468
1423.93	184.735
1427.08	94.5957
1430.22	98.3037
1433.37	13.4834
1436.52	0.411133
