Measurement: Raman, 514 nm, ccw, Raman Data Processed
Mineral: Zircon
Rruff sample: R050203
Ideal chemistry: Zr^4+^SiO_4_
Locality: Eastern Thailand
Source: Eric Van Valkenburg
Description: Dark red water-worn single crystal
Measured chemistry: (Zr_0.99_Hf_0.01_)_Î£=1_Si_1.00_O_4_
Pin_id: L00061
Orientation: Laser parallel to a* (1 0 0). Fiducial mark perpendicular to laser is parallel to -c [0 0 -1]
Raman shift (cm-1)	intensity
140.12	0
143.815	0.686615
147.508	21.1745
151.2	26.6235
154.891	21.0317
158.58	25.171
162.267	59.8211
165.953	25.6297
169.637	30.5906
173.32	23.4263
177.001	22.483
180.681	28.3023
184.359	23.8282
188.035	32.113
191.711	45.2223
195.384	131.812
199.056	260.372
202.727	309.463
206.395	199.679
210.063	83.0734
213.729	147.888
217.393	251.962
221.056	435.327
224.717	679.362
228.377	510.454
232.035	189.596
235.692	63.7838
239.347	27.0149
243.001	23.3583
246.653	25.5908
250.304	29.1938
253.953	12.2721
257.6	31.6481
261.246	14.9515
264.891	12.4743
268.534	8.92602
272.175	14.6113
275.815	23.8251
279.454	7.25751
283.091	7.67911
286.726	15.7181
290.36	1.78073
293.992	14.4776
297.623	14.2212
301.252	4.00696
304.88	26.7884
308.507	47.4734
312.131	33.4371
315.755	25.2744
319.376	37.1149
322.996	60.9538
326.615	49.7874
330.232	56.6431
333.848	71.5287
337.462	72.4189
341.075	129.316
344.686	241.193
348.296	597.005
351.904	1202.79
355.51	2030.54
359.115	1817.31
362.719	895.083
366.321	372.882
369.921	198.702
373.52	174.545
377.118	96.4077
380.714	123.293
384.309	123.2
387.902	107.129
391.493	119.077
395.083	184.155
398.671	174.031
402.258	150.455
405.844	207.662
409.428	239.536
413.01	223.596
416.591	275.204
420.171	369.077
423.749	508.953
427.325	1011.09
430.9	2271.32
434.473	4884.49
438.045	8220.62
441.616	7771.78
445.185	4035.85
448.752	1789.95
452.318	873.205
455.883	492.479
459.445	360.769
463.007	239.761
466.567	192.082
470.125	197.813
473.682	156.707
477.238	122.073
480.792	91.4529
484.344	71.848
487.895	77.2575
491.445	75.6811
494.992	32.1196
498.539	56.5732
502.084	40.1669
505.627	45.0643
509.169	21.9057
512.71	3.62073
516.249	32.1526
519.786	3.69971
523.322	39.4193
526.857	42.2903
530.39	21.8882
533.922	46.5654
537.452	18.1912
540.98	9.8725
544.507	11.53
548.033	29.2136
551.557	42.9312
555.08	42.6837
558.601	3.5415
562.121	28.2566
565.639	14.0879
569.155	16.9298
572.671	9.78339
576.184	2.65222
579.697	5.54388
583.207	2.44672
586.717	34.3564
590.224	15.264
593.731	26.5718
597.235	23.0656
600.739	2.0271
604.241	19.892
607.741	4.80933
611.24	27.2739
614.737	11.6027
618.233	32.4246
621.728	19.2484
625.221	33.2776
628.712	24.106
632.202	15.0427
635.691	19.7643
639.178	18.5935
642.664	59.8765
646.148	4.30603
649.63	22.4975
653.112	4.29504
656.591	19.0884
660.069	0.895386
663.546	2.82861
667.022	6.5741
670.495	1.3407
673.968	20.4707
677.439	2.22522
680.908	17.9727
684.376	25.1101
687.842	42.9382
691.307	71.1618
694.771	50.9491
698.233	23.5783
701.694	32.4153
705.153	18.6658
708.61	56.3726
712.066	59.0682
715.521	55.3809
718.974	63.6398
722.426	43.5089
725.877	31.6716
729.325	52.9367
732.773	59.2772
736.219	46.1655
739.663	21.3513
743.106	40.348
746.548	30.3021
749.988	20.1984
753.426	26.0723
756.864	51.5998
760.299	1.11523
763.734	26.7291
767.166	31.2139
770.598	24.6863
774.028	22.1461
777.456	11.7335
780.883	34.8996
784.308	31.6939
787.732	23.0932
791.155	53.2844
794.576	65.6715
797.996	15.8749
801.414	35.9276
804.831	45.2464
808.246	2.51526
811.66	30.7672
815.072	37.9946
818.483	9.25732
821.893	30.507
825.301	23.7289
828.707	14.6417
832.112	24.9935
835.516	15.1168
838.918	4.77814
842.319	30.2839
845.718	51.9864
849.116	35.3796
852.513	9.59168
855.908	8.39654
859.301	48.3762
862.693	41.3477
866.084	16.3201
869.473	29.2882
872.861	22.2492
876.247	10.1895
879.632	38.1031
883.015	35.0105
886.397	16.9228
889.778	47.412
893.157	45.7762
896.535	21.5101
899.911	62.4398
903.286	24.3644
906.659	37.2848
910.031	10.2094
913.401	59.1496
916.77	2.35297
920.138	52.6018
923.504	31.5778
926.869	2.45734
930.232	9.55292
933.594	17.3236
936.954	38.0387
940.313	62.4106
943.67	5.05048
947.026	16.0632
950.381	40.0978
953.734	10.128
957.086	11.0239
960.436	30.0294
963.785	10.2476
967.133	8.20032
970.479	81.1965
973.823	246.568
977.166	239.558
980.508	128.567
983.848	42.5812
987.187	45.1882
990.525	39.206
993.861	26.2407
997.195	44.2839
1000.53	37.3379
1003.86	95.3983
1007.19	299.465
1010.52	286.847
1013.85	116.929
1017.17	106.018
1020.5	89.1148
1023.82	41.22
1027.14	58.3326
1030.46	85.4536
1033.78	76.4979
1037.1	73.6349
1040.41	71.779
1043.73	91.1056
1047.04	81.5788
1050.35	90.9656
1053.66	89.0026
1056.97	88.9714
1060.28	98.1615
1063.59	90.7968
1066.89	108.297
1070.19	108.933
1073.5	113.33
1076.8	96.7905
1080.1	157.739
1083.39	238.328
1086.69	325.577
1089.98	356.837
1093.28	225.15
1096.57	156.677
1099.86	93.7785
1103.15	99.0931
1106.44	74.4225
1109.72	183.764
1113.01	159.109
1116.29	115.566
1119.57	63.0983
1122.85	65.4767
1126.13	82.8574
1129.41	65.7241
1132.69	36.1069
1135.96	27.4899
1139.23	81.8713
1142.51	54.2707
1145.78	161.684
1149.05	142.329
1152.32	94.5286
1155.58	57.3212
1158.85	46.3804
1162.11	60.7649
1165.37	34.1285
1168.63	45.5201
1171.89	9.86407
1175.15	41.1782
1178.41	2.25952
1181.66	23.003
1184.92	2.25879
1188.17	1.44049
1191.42	30.7894
1194.67	21.0054
1197.92	17.9688
1201.16	53.227
1204.41	2.58447
1207.65	39.5915
1210.9	3.25269
1214.14	65.8842
1217.38	34.0159
1220.62	32.1431
1223.85	58.2679
1227.09	55.4025
1230.32	34.7547
1233.56	47.6538
1236.79	57.7426
1240.02	36.8745
1243.24	6.95453
1246.47	41.0298
1249.7	22.7892
1252.92	26.8577
1256.14	56.972
1259.37	73.9679
1262.59	74.9291
1265.81	54.7728
1269.02	73.778
1272.24	87.2526
1275.45	88.7262
1278.67	76.1982
1281.88	43.6356
1285.09	13.9987
1288.3	82.7828
1291.51	37.1133
1294.71	37.3919
1297.92	55.2089
1301.12	101.998
1304.32	2.7027
1307.52	23.3524
1310.72	43.3955
1313.92	33.4245
1317.12	31.4387
1320.31	51.2494
1323.51	44.9049
1326.7	42.9155
1329.89	11.7584
1333.08	47.5814
1336.27	61.3343
1339.45	68.9929
1342.64	37.6596
1345.82	14.4386
1349.01	71.3758
1352.19	83.6434
1355.37	82.5081
1358.55	71.549
1361.72	16.5829
1364.9	3.3949
1368.07	31.2789
1371.25	34.1805
1374.42	7.87592
1377.59	34.0582
1380.76	6.16931
1383.92	16.866
1387.09	8.65973
1390.26	30.3803
1393.42	3.24078
