Measurement: Raman, 514 nm, ccw, Raman Data Processed
Mineral: Zircon
Rruff sample: R050286
Ideal chemistry: Zr^4+^SiO_4_
Locality: Renfrew County, Ontario, Canada
Source: Marcus Origlieri
Description: Brownish red prismatic crystal frozen in matrix, associated with apatite
Measured chemistry: Zr_1.00_Si_1.00_O_4_; trace amounts of Hf
Pin_id: L00926
Orientation: Laser parallel to a* (1 0 0). Fiducial mark perpendicular to laser is parallel to c [0 0 1]
Raman shift (cm-1)	intensity
131.492	0
135.191	5.91186
138.888	65.4443
142.583	136.762
146.277	170.282
149.97	162.7
153.661	229.252
157.35	174.321
161.038	287.69
164.724	251.583
168.409	251.898
172.092	254.465
175.774	293.946
179.454	256.594
183.133	286.907
186.81	307.032
190.486	361.075
194.16	551.109
197.832	867.281
201.503	1343.54
205.173	1908.64
208.841	2759.78
212.507	3963.54
216.172	4957.31
219.835	3380.97
223.497	1877.39
227.157	1352.17
230.816	955.248
234.473	566.792
238.129	391.233
241.783	370.123
245.436	208.261
249.087	256.627
252.737	184.194
256.385	126.96
260.031	121.926
263.676	113.092
267.32	24.5415
270.962	233.226
274.602	139.752
278.241	18.9446
281.879	50.1934
285.514	30.3115
289.149	30.2566
292.782	6.38184
296.413	34.3291
300.043	8.32129
303.671	21.4846
307.298	41.1248
310.923	49.3935
314.547	39.0874
318.169	105.967
321.79	161.981
325.409	209.101
329.027	167.33
332.643	83.6758
336.258	204.143
339.871	239.729
343.482	472.433
347.092	719.218
350.701	1036.12
354.308	1557.13
357.914	1714.14
361.518	1195.11
365.12	746.922
368.721	565.8
372.321	436.826
375.919	319.998
379.515	387.314
383.111	533.77
386.704	703.366
390.296	1020.1
393.886	1140.96
397.475	1031.96
401.063	710.101
404.649	590.374
408.233	560.742
411.816	718.81
415.398	1017.52
418.978	1235.37
422.556	1878.38
426.133	2778.52
429.709	4339.84
433.282	7155.47
436.855	11193.9
440.426	15001.3
443.995	13393.3
447.563	8343.24
451.13	5133.45
454.695	3119.58
458.258	2148.95
461.82	1573.78
465.38	1309.79
468.939	1062.93
472.497	890.179
476.053	749.971
479.607	545.438
483.16	546.008
486.712	335.672
490.262	334.429
493.81	271.746
497.357	223.234
500.902	117.302
504.446	182.483
507.989	192.783
511.53	267.176
515.069	170.723
518.607	151.388
522.144	280.13
525.679	283.987
529.213	304.946
532.745	166.006
536.275	182.232
539.804	128.545
543.332	141.612
546.858	180.821
550.383	132.205
553.906	39.7495
557.427	58.5996
560.947	54.8882
564.466	2.4624
567.983	81.3091
571.499	41.0562
575.013	12.1396
578.526	24.1089
582.037	21.5972
585.547	47.5913
589.055	45.813
592.562	17.9805
596.067	3.58106
599.571	54.4224
603.074	68.439
606.574	144.606
610.074	22.3174
613.572	87.0088
617.068	63.1382
620.563	173.212
624.057	178.262
627.549	89.3828
631.039	156.519
634.528	233.945
638.016	302.942
641.502	493.005
644.987	353.683
648.47	301.989
651.951	301.691
655.432	299.286
658.91	260.644
662.388	166.77
665.863	273.945
669.338	281.611
672.81	158.302
676.282	208.529
679.752	185.366
683.22	164.067
686.687	85.5444
690.153	111.608
693.617	67.5259
697.079	39.4194
700.54	61.8242
704	52.2769
707.458	16.2148
710.915	79.9658
714.37	18.2627
717.824	21.5957
721.276	55.8164
724.727	32.6377
728.176	33.9648
731.624	78.5669
735.07	34.5488
738.515	62.0781
741.959	11.4883
745.401	19.0322
748.841	169.541
752.28	61.6411
755.718	0.361816
759.154	120.711
762.589	125.578
766.022	134.38
769.454	115.112
772.884	118.66
776.313	101.283
779.741	5.95606
783.167	5.48731
786.591	12.7681
790.014	15.9815
793.436	2.61572
796.856	121.46
800.275	76.1665
803.692	63.6875
807.108	34.9424
810.522	27.8247
813.935	19.0523
817.346	87.2647
820.756	12.4976
824.165	16.9326
827.572	31.895
830.977	28.5581
834.382	78.9194
837.784	174.472
841.186	193.576
844.585	124.439
847.984	23.7979
851.381	61.7954
854.776	46.8218
858.17	18.4688
861.563	116.423
864.954	191.69
868.344	294.184
871.732	432.354
875.119	450.405
878.504	404.519
881.888	317.483
885.27	284.082
888.651	255.374
892.031	238.431
895.409	255.101
898.786	285.802
902.161	231.586
905.535	301.847
908.907	276.8
912.278	330.325
915.647	269.788
919.015	403.789
922.382	322.158
925.747	477.315
929.111	443.255
932.473	418.139
935.834	378.968
939.193	519.465
942.551	492.214
945.908	516.871
949.263	622.262
952.617	707.861
955.969	724.253
959.32	942.909
962.669	1250.86
966.017	1873.97
969.363	3372.21
972.708	6467.59
976.052	6928.11
979.394	4148.83
982.735	2925.69
986.074	2561.71
989.412	2977.89
992.749	4173.27
996.084	6534.83
999.417	13218.6
1002.75	26914.7
1006.08	52014.8
1009.41	49891.2
1012.74	22712.9
1016.06	10467.7
1019.39	6024.62
1022.71	3678.73
1026.04	2379.99
1029.36	1682.43
1032.67	1353.08
1035.99	1039.46
1039.31	707.837
1042.62	668.613
1045.94	550.085
1049.25	517.786
1052.56	497.651
1055.87	476.652
1059.18	406.109
1062.48	299.372
1065.79	237.164
1069.09	271.524
1072.4	268.464
1075.7	287.866
1079	183.683
1082.29	263.963
1085.59	455.14
1088.89	374.483
1092.18	438.022
1095.47	371.233
1098.76	245.319
1102.05	217.046
1105.34	215.895
1108.63	268.149
1111.91	413.967
1115.2	145.977
1118.48	193.065
1121.76	83.1953
1125.04	129.485
1128.32	150.691
1131.6	105.339
1134.87	142.767
1138.14	37.1377
1141.42	178.546
1144.69	221.981
1147.96	113.452
1151.23	289.94
1154.49	82.4477
1157.76	50.8418
1161.02	83.4409
1164.29	138.275
1167.55	33.3682
1170.81	73.8706
1174.07	133.917
1177.32	104.48
1180.58	55.9507
1183.83	24.2744
1187.08	37.6865
1190.34	11.8423
1193.59	36.0986
1196.84	11.6724
1200.08	1.09814
1203.33	2.8457
1206.57	48.3965
1209.82	81.0005
1213.06	79.7793
1216.3	42.4492
1219.54	29.9946
1222.77	98.4888
1226.01	51.8706
1229.24	81.1885
1232.48	80.4404
1235.71	34.6406
1238.94	109.229
1242.17	109.129
1245.4	71.0898
1248.62	135.97
1251.85	55.6006
1255.07	18.1855
1258.29	35.0977
1261.51	206.233
1264.73	133.758
1267.95	226.571
1271.17	105.443
1274.38	97.2876
1277.6	130.44
1280.81	142.12
1284.02	41.6108
1287.23	119.16
1290.44	56.3306
1293.64	165.212
1296.85	121.751
1300.05	152.332
1303.26	105.91
1306.46	187.704
1309.66	21.8076
1312.86	224.029
1316.05	57.8159
1319.25	30.9863
1322.44	1.28906
1325.63	3.04443
1328.83	99.7427
1332.02	53.9629
1335.2	24.3091
1338.39	66.479
1341.58	76.1714
1344.76	106.3
1347.95	164.862
1351.13	178.09
1354.31	127.457
1357.49	236.207
1360.66	86.6924
1363.84	121.921
1367.02	135.469
1370.19	149.462
1373.36	49.104
1376.53	174.025
1379.7	22.7417
1382.87	101.39
1386.04	167.115
1389.2	62.456
1392.37	16.498
1395.53	54.4741
1398.69	187.383
1401.85	8.14648
1405.01	10.9556
1408.16	39.3511
1411.32	28.4634
1414.47	45.8267
1417.63	155.568
1420.78	160.385
1423.93	176.066
1427.08	33.0596
1430.22	197.988
1433.37	124.339
1436.52	80.9502
1439.66	98.8599
1442.8	9.83105
