Measurement: Raman, 514 nm, ccw, Raman Data Processed
Mineral: Zircon
Rruff sample: R050488
Ideal chemistry: Zr^4+^SiO_4_
Locality: Sigulani Village, Tambani Area, Blantyre District, Nyassaland
Source: California Institute of Technology
Description: Brown fragment
Measured chemistry: (Zr_0.99_Hf_0.01_)_Î£=1_Si_1.00_O_4_
Pin_id: L00554
Orientation: Laser parallel to c* (0 0 1). Fiducial mark perpendicular to laser is parallel to a [1 0 0]
Raman shift (cm-1)	intensity
145.046	0
148.739	64.5644
152.431	80.8286
156.121	29.396
159.809	66.7664
163.496	125.002
167.181	10.158
170.865	74.6184
174.547	67.2617
178.228	146.4
181.907	53.3765
185.585	37.2698
189.261	118.221
192.935	172.418
196.608	128.385
200.28	415.907
203.95	544.965
207.618	572.397
211.285	496.82
214.95	838.285
218.614	883.96
222.277	804.083
225.937	875.21
229.597	727.921
233.254	302.991
236.911	111.557
240.565	74.2329
244.218	53.0095
247.87	44.9033
251.52	18.9058
255.169	18.0378
258.816	35.3079
262.461	35.6572
266.105	29.0454
269.748	116.471
273.389	124.932
277.028	76.4072
280.666	2.91357
284.303	114.454
287.938	40.9736
291.571	116.149
295.203	16.9004
298.833	6.56787
302.462	36.9863
306.089	46.6934
309.715	85.5112
313.339	94.4268
316.962	29.5977
320.583	150.329
324.203	82.3418
327.821	60.3833
331.438	50.456
335.053	97.5488
338.667	240.647
342.279	190.751
345.889	451.649
349.498	938.725
353.106	1608.81
356.712	2466.85
360.317	2439
363.92	1092.33
367.521	448.328
371.121	247.826
374.72	167.858
378.317	86.9062
381.912	95.8623
385.506	179.842
389.099	211.842
392.69	237.147
396.279	261.155
399.867	184.382
403.454	129.471
407.039	112.369
410.622	201.51
414.204	230.663
417.785	158.825
421.364	296.447
424.941	313.155
428.517	582.394
432.091	1230.15
435.664	2092.84
439.236	3278.44
442.806	3549.3
446.374	2074.79
449.941	985.912
453.506	551.71
457.07	365.975
460.633	273.948
464.194	205.065
467.753	154.459
471.311	117.88
474.868	53.4482
478.423	174.139
481.976	47.0737
485.528	55.4116
489.078	81.8301
492.627	28.3936
496.175	62.7119
499.721	70.2676
503.265	53.5752
506.808	79.7915
510.35	12.0547
513.89	112.157
517.428	2.48242
520.965	35.6846
524.501	45.3037
528.035	87.126
531.567	77.2393
535.098	1.45361
538.628	22.6143
542.156	25.3018
545.683	103.158
549.208	49.833
552.731	117.029
556.254	57.2827
559.774	65.2427
563.293	78.3672
566.811	76.5752
570.327	20.8955
573.842	100.302
577.355	0.316406
580.867	79.6582
584.377	38.668
587.886	42.4644
591.393	42.1938
594.899	46.0234
598.403	7.92773
601.906	12.0889
605.408	41.3672
608.908	39.0938
612.406	26.3364
615.903	159.671
619.398	143.058
622.892	126.578
626.385	139.249
629.876	50.773
633.365	88.9766
636.853	47.1748
640.34	54.8188
643.825	269.391
647.309	138.741
650.791	51.8076
654.272	91.1523
657.751	112.733
661.229	93.9321
664.705	96.5942
668.18	184.114
671.653	160.661
675.125	137.394
678.595	80.6938
682.064	6.41357
685.532	51.8965
688.998	78.6738
692.462	21.4575
695.925	101.499
699.387	155.871
702.847	92.271
706.305	18.707
709.763	121.874
713.218	108.97
716.672	116.634
720.125	63.9898
723.577	154.929
727.026	106.428
730.475	191.368
733.922	42.352
737.367	185.286
740.811	66.3379
744.254	144.784
747.695	146.86
751.134	30.4814
754.572	58.2412
758.009	12.8032
761.444	8.65283
764.878	76
768.31	109.73
771.741	91.0688
775.17	74.9678
778.598	49.5786
782.025	98.3052
785.45	92.2422
788.873	24.1387
792.295	93.0478
795.716	123.722
799.135	147.856
802.553	181.274
805.969	59.6528
809.384	51.3384
812.797	49.9746
816.209	155.227
819.62	53.4019
823.029	124.797
826.436	131.73
829.842	71.2456
833.247	94.1436
836.65	148.89
840.052	119.335
843.452	146.198
846.851	90.5361
850.249	206.351
853.645	42.4429
857.039	213.928
860.432	91.8672
863.824	112.756
867.214	116.492
870.603	59.8823
873.99	110.42
877.376	74.4019
880.76	67.0439
884.143	183.149
887.524	101.52
890.904	147.623
894.283	73.334
897.66	40.1997
901.036	127.93
904.41	13.6123
907.783	140.195
911.154	209.618
914.524	33.1416
917.893	13.4629
921.26	33.042
924.626	85.9697
927.99	192.261
931.353	90.4258
934.714	27.1582
938.074	19.3457
941.432	131.129
944.789	73.7891
948.145	40.7305
951.499	134.24
954.852	172.762
958.203	142.423
961.553	275.039
964.901	149.346
968.248	275.516
971.594	870.558
974.938	1649
978.28	1639.28
981.622	604.505
984.961	113.811
988.3	206.929
991.637	255.017
994.972	385.027
998.306	685.257
1001.64	1793.94
1004.97	4853.87
1008.3	9678.45
1011.63	8837.77
1014.96	2605.27
1018.28	886.281
1021.61	491.377
1024.93	263.923
1028.25	36.9258
1031.57	101.758
1034.89	238.648
1038.2	109.615
1041.52	71.6025
1044.83	62.5361
1048.15	162.316
1051.46	137.511
1054.77	143.863
1058.08	144.607
1061.38	135.189
1064.69	45.0957
1067.99	65.6641
1071.3	73.9482
1074.6	82.167
1077.9	17.0986
1081.19	60.0234
1084.49	15.0742
1087.79	270.208
1091.08	123.289
1094.38	164.514
1097.67	175.558
1100.96	6.39258
1104.24	150.673
1107.53	211.731
1110.82	267.483
1114.1	206.74
1117.38	24.7666
1120.67	66.7842
1123.95	151.791
1127.22	153.3
1130.5	117.888
1133.78	99.9033
1137.05	133.897
1140.33	120.501
1143.6	90.4785
1146.87	125.457
1150.14	146.662
1153.4	60.668
1156.67	62.6504
1159.93	121.532
1163.2	158.463
1166.46	69.4033
1169.72	126.322
1172.98	46.1621
1176.24	90.9883
1179.49	70.124
1182.75	61.2246
1186	102.346
1189.25	216.043
1192.5	6.20117
1195.75	100.712
1199	94.3047
1202.25	97.9297
1205.49	124.764
1208.73	127.141
1211.98	82.5586
1215.22	225.958
1218.46	185.85
1221.69	166.885
1224.93	207.317
1228.17	102.727
1231.4	184.006
1234.63	174.558
1237.86	3.06934
1241.09	7.01367
1244.32	105.507
1247.55	209.702
1250.77	111.948
1254	122.175
1257.22	106.63
1260.44	54.8203
1263.66	247.991
1266.88	0.853516
1270.1	191.534
1273.31	73.3242
1276.53	82.7461
1279.74	108.811
1282.95	154.147
1286.16	199.127
1289.37	187.092
1292.58	142.226
1295.78	84.8516
1298.98	130.54
1302.19	81.3018
1305.39	87.0049
1308.59	42.1982
1311.79	188.083
1314.99	123.044
1318.18	162.857
1321.38	152.844
1324.57	213.233
1327.76	42.6103
1330.95	31.0674
1334.14	106.819
1337.33	193.134
1340.52	230.321
1343.7	107.478
1346.88	132.518
1350.07	140.616
1353.25	331.629
1356.43	235.847
1359.61	108.153
1362.78	54.0381
1365.96	55.7637
1369.13	109.444
1372.3	172.329
1375.48	205.191
1378.64	72.8857
1381.81	34.8164
1384.98	93.7168
1388.15	197.092
1391.31	182.705
1394.47	5.26758
1397.64	199.934
1400.8	159.431
1403.95	138.831
1407.11	377.328
1410.27	120.202
1413.42	123.607
1416.58	89.5059
1419.73	29.6953
1422.88	152.132
1426.03	54.4443
1429.18	96.9775
1432.32	64.6123
1435.47	230.209
1438.61	120.22
1441.75	9.77637
1444.89	100.614
1448.03	191.624
1451.17	51.3477
1454.31	209.062
1457.44	179.723
1460.58	266.475
1463.71	286.307
1466.84	167.001
1469.97	358.253
1473.1	153.293
1476.23	146.998
1479.36	92.2812
1482.48	236.594
1485.6	20.8555
1488.72	203.341
