Measurement: Raman, 514 nm, ccw, Raman Data Processed
Mineral: Zircon
Rruff sample: R050203
Ideal chemistry: Zr^4+^SiO_4_
Locality: Eastern Thailand
Source: Eric Van Valkenburg
Description: Dark red water-worn single crystal
Measured chemistry: (Zr_0.99_Hf_0.01_)_Î£=1_Si_1.00_O_4_
Pin_id: L01102
Orientation: Laser parallel to c* (0 0 1). Fiducial mark perpendicular to laser is parallel to a [1 0 0]
Raman shift (cm-1)	intensity
126.558	0
130.259	29.7767
133.958	2.00243
137.656	39.9126
141.352	37.8443
145.046	21.455
148.739	23.5055
152.431	33.9889
156.121	10.8162
159.809	38.7951
163.496	39.8254
167.181	48.982
170.865	29.4242
174.547	16.9831
178.228	29.4907
181.907	54.1206
185.585	56.0967
189.261	40.7286
192.935	82.2202
196.608	158.289
200.28	254.917
203.95	527.139
207.618	1231.49
211.285	2560.65
214.95	3735.49
218.614	2486.82
222.277	979.469
225.937	569.164
229.597	299.993
233.254	139.796
236.911	57.6153
240.565	29.4492
244.218	44.3906
247.87	13.1411
251.52	19.9872
255.169	29.8299
258.816	38.6712
262.461	31.5119
266.105	47.3515
269.748	0.80603
273.389	13.8474
277.028	15.8053
280.666	3.96185
284.303	12.4152
287.938	26.8913
291.571	32.3747
295.203	8.85187
298.833	13.6704
302.462	9.21347
306.089	13.7822
309.715	12.6191
313.339	4.99292
316.962	18.6179
320.583	8.29514
324.203	5.99591
327.821	7.2749
331.438	9.4711
335.053	18.7591
338.667	44.975
342.279	61.1829
345.889	146.38
349.498	307.56
353.106	629.721
356.712	917.851
360.317	873.946
363.92	411.985
367.521	159.986
371.121	107.918
374.72	90.8465
378.317	94.7806
381.912	137.729
385.506	247.693
389.099	484.672
392.69	813.638
396.279	707.587
399.867	446.546
403.454	293.531
407.039	220.58
410.622	242.66
414.204	304.423
417.785	383.506
421.364	607.631
424.941	941.641
428.517	2048.79
432.091	4902.96
435.664	10366.6
439.236	15988.9
442.806	12891.2
446.374	5913.61
449.941	2649.8
453.506	1431.16
457.07	914.084
460.633	637.415
464.194	482.24
467.753	361.042
471.311	259.4
474.868	234.074
478.423	162.48
481.976	160.949
485.528	91.4076
489.078	88.8939
492.627	66.5398
496.175	106.083
499.721	62.6439
503.265	47.2313
506.808	114.847
510.35	47.5016
513.89	52.1862
517.428	28.92
520.965	52.6867
524.501	58.4865
528.035	69.3233
531.567	39.189
535.098	55.0957
538.628	66.9115
542.156	52.9921
545.683	62.0942
549.208	69.1165
552.731	99.174
556.254	95.8464
559.774	67.3954
563.293	41.5549
566.811	31.0786
570.327	23.0045
573.842	27.2431
577.355	17.6072
580.867	0.074982
584.377	6.63058
587.886	19.7793
591.393	9.23956
594.899	16.741
598.403	7.74576
601.906	16.2096
605.408	23.3692
608.908	15.5348
612.406	33.2146
615.903	50.9465
619.398	21.6326
622.892	38.7864
626.385	39.1936
629.876	21.9243
633.365	15.0886
636.853	44.8471
640.34	93.6176
643.825	105.703
647.309	37.9796
650.791	40.7344
654.272	0.456055
657.751	43.3841
661.229	27.6057
664.705	10.4071
668.18	51.2527
671.653	21.3957
675.125	44.2302
678.595	25.0953
682.064	21.5091
685.532	38.4825
688.998	34.3778
692.462	18.5363
695.925	32.9141
699.387	27.1006
702.847	35.6688
706.305	30.7018
709.763	37.1162
713.218	39.5542
716.672	41.0695
720.125	20.3422
723.577	38.7206
727.026	25.2885
730.475	25.0059
733.922	25.7083
737.367	22.0751
740.811	11.0873
744.254	23.7022
747.695	37.5333
751.134	5.92395
754.572	8.84403
758.009	2.62109
761.444	12.8429
764.878	21.3123
768.31	32.1091
771.741	32.6626
775.17	26.2233
778.598	1.58838
782.025	40.1099
785.45	9.58759
788.873	16.6629
792.295	30.873
795.716	2.32297
799.135	20.4443
802.553	9.52515
805.969	1.57141
809.384	14.5792
812.797	51.5472
816.209	20.4931
819.62	39.407
823.029	33.1854
826.436	9.95367
829.842	1.85367
833.247	5.62738
836.65	10.367
840.052	11.9317
843.452	13.7156
846.851	17.336
850.249	8.08359
853.645	40.4462
857.039	5.95288
860.432	24.4345
863.824	21.9027
867.214	20.3536
870.603	13.7878
873.99	12.2166
877.376	14.631
880.76	25.0286
884.143	2.82947
887.524	15.1526
890.904	2.33725
894.283	29.1667
897.66	28.4389
901.036	6.9928
904.41	6.2486
907.783	4.94113
911.154	38.2709
914.524	5.75742
917.893	17.3983
921.26	22.1737
924.626	15.3797
927.99	12.5872
931.353	36.5594
934.714	12.641
938.074	7.90848
941.432	20.9323
944.789	41.1923
948.145	56.0909
951.499	49.8214
954.852	82.5805
958.203	108.784
961.553	164.127
964.901	258.89
968.248	807.836
971.594	3073.89
974.938	7687.49
978.28	5030.89
981.622	1553.46
984.961	741.472
988.3	637.903
991.637	759.774
994.972	1078.24
998.306	1948.72
1001.64	5565.21
1004.97	21118.7
1008.3	55025.2
1011.63	39240.9
1014.96	9601.5
1018.28	2862.88
1021.61	1252.69
1024.93	709.975
1028.25	494.643
1031.57	349.337
1034.89	263.707
1038.2	228.453
1041.52	188.774
1044.83	165.571
1048.15	156.535
1051.46	173.959
1054.77	173.844
1058.08	121.821
1061.38	103.155
1064.69	90.4824
1067.99	103.992
1071.3	101.965
1074.6	93.1505
1077.9	96.5273
1081.19	102.676
1084.49	147.085
1087.79	294.381
1091.08	392.595
1094.38	242.833
1097.67	168.104
1100.96	120.399
1104.24	194.719
1107.53	260.071
1110.82	309.451
1114.1	351.855
1117.38	197.29
1120.67	155.757
1123.95	105.604
1127.22	101.112
1130.5	117.639
1133.78	88.1927
1137.05	83.7634
1140.33	130.353
1143.6	178.975
1146.87	317.622
1150.14	219.295
1153.4	153.998
1156.67	75.7219
1159.93	59.4581
1163.2	48.2057
1166.46	47.9648
1169.72	15.7353
1172.98	16.5161
1176.24	24.2895
1179.49	11.9352
1182.75	6.02722
1186	14.7787
1189.25	17.7849
1192.5	11.0726
1195.75	4.18298
1199	17.4757
1202.25	12.82
1205.49	1.74768
1208.73	12.3025
1211.98	3.14752
1215.22	0.595276
1218.46	48.9601
1221.69	52.5132
1224.93	68.0699
1228.17	61.629
1231.4	28.3705
1234.63	38.9882
1237.86	55.3093
1241.09	89.8671
1244.32	51.4222
1247.55	43.4316
1250.77	40.9754
1254	44.4717
1257.22	67.9542
1260.44	34.4354
1263.66	89.1522
1266.88	114.754
1270.1	148.207
1273.31	141.255
1276.53	92.7384
1279.74	114.434
1282.95	94.9603
1286.16	87.3944
1289.37	50.7925
1292.58	69.1111
1295.78	65.3307
1298.98	53.449
1302.19	43.4966
1305.39	34.1385
1308.59	56.4775
1311.79	22.3602
1314.99	26.5956
1318.18	1.90814
1321.38	13.3168
1324.57	20.8413
1327.76	2.74835
1330.95	20.155
1334.14	19.6658
1337.33	63.1643
1340.52	49.6491
1343.7	113.119
1346.88	146.077
1350.07	158.479
1353.25	185.826
1356.43	140.122
1359.61	107.349
1362.78	69.5288
1365.96	60.6716
1369.13	54.7842
1372.3	48.8808
1375.48	59.6246
1378.64	26.2391
1381.81	24.3734
1384.98	3.90448
1388.15	1.42841
1391.31	20.7963
1394.47	25.1386
1397.64	15.4741
1400.8	41.7894
1403.95	8.09912
1407.11	11.3155
1410.27	34.9672
1413.42	29.1422
1416.58	43.0063
1419.73	12.2901
1422.88	63.0138
1426.03	58.252
1429.18	57.7483
1432.32	50.2504
1435.47	20.1596
1438.61	0.244507
