Measurement: Raman, 785 nm, ccw, Raman Data Processed
Mineral: Zircon
Rruff sample: R050034
Ideal chemistry: Zr^4+^SiO_4_
Locality: Oaxaca, Mexico
Source: University of Arizona Mineral Museum
Description: Reddish brown single crystal fragments
Measured chemistry: Zr_1.00_Si_1.00_O_4_
Raman shift (cm-1)	intensity
243.342	0
250.164	14.4395
256.986	460.625
263.808	1719.6
270.631	3211.95
277.453	4483.78
284.275	5674.88
291.097	6897.64
297.92	8654.02
304.742	10295.6
311.564	11273
318.386	10744
325.208	9764.39
332.031	8960.33
338.853	8675.68
345.675	9992.74
352.497	14793.7
359.319	13505.6
366.142	9352.47
372.964	8418.58
379.786	8041.85
386.608	7144.5
393.43	5473.12
400.253	3854.18
407.075	2893.54
413.897	2489.39
420.719	2388.02
427.541	3175.07
434.364	5468.4
441.186	5027.15
448.008	2144.99
454.83	883.314
461.652	501.332
468.475	159.033
475.297	14.4922
482.119	204.876
488.941	315.339
495.764	339.359
502.586	263.206
509.408	32.333
516.23	98.667
523.052	341.13
529.875	584.666
536.697	752.371
543.519	870.644
550.341	858.589
557.163	904.515
563.986	1100.11
570.808	1181.06
577.63	1269.72
584.452	1616.85
591.274	2021.02
598.097	2423.53
604.919	2909.4
611.741	3316.88
618.563	3899.04
625.385	4246.31
632.208	4541.88
639.03	4643.19
645.852	4625.83
652.674	4413.85
659.496	3934
666.319	3428.05
673.141	2841.24
679.963	2514.37
686.785	2058.24
693.607	1675.22
700.43	1390.3
707.252	1105.25
714.074	905.977
720.896	779.044
727.719	681.134
734.541	591.546
741.363	496.306
748.185	415.768
755.007	443.15
761.83	466.174
768.652	409.58
775.474	385.797
782.296	381.444
789.119	390.22
795.941	298.181
802.763	183.03
809.585	115.593
816.407	32.6665
823.23	80.4307
830.052	19.7637
836.874	44.0732
843.696	57.873
850.518	24.2324
857.341	65.353
864.163	59.376
870.985	85.9858
877.807	29.9439
884.629	23.501
891.452	124.567
898.274	175.858
905.096	223.938
911.918	290.812
918.74	378.211
925.563	367.405
932.385	343.91
939.207	252.965
946.029	287.163
952.851	283.898
959.674	424.433
966.496	1026.69
973.318	2398
980.14	1242.03
986.962	1057.82
993.785	2347.06
1000.61	9475.96
1007.43	15481.8
1014.25	3940.2
1021.07	1453.92
1027.9	741.649
1034.72	534.448
1041.54	425.5
1048.36	359.015
1055.18	324.601
1062.01	257.278
1068.83	193.671
1075.65	134.998
1082.47	71.6465
1089.3	133.947
1096.12	35.3857
1102.94	8.89258
1109.76	39.9575
1116.58	82.7715
1123.41	46.6645
1130.23	112.745
1137.05	57.2402
1143.87	150.305
1150.7	143.782
1157.52	113.555
1164.34	6.47949
1171.16	78.4629
1177.98	169.884
1184.81	437.133
1191.63	582.495
1198.45	1056.5
1205.27	1529.34
1212.1	2180.98
1218.92	2776.86
1225.74	3513.63
1232.56	5141.12
1239.38	8109.19
1246.21	13624
1253.03	19439.7
1259.85	17610.8
1266.67	11351.9
1273.49	6589.16
1280.32	3986.48
1287.14	2401.25
1293.96	1419.6
1300.78	928.04
1307.61	798.39
1314.43	866.566
1321.25	1415.33
1328.07	2463.58
1334.89	4097.7
1341.72	6977.2
1348.54	11421.9
1355.36	17584.7
1362.18	28281.5
1369.01	49395.6
1375.83	67528.7
1382.65	52709.4
1389.47	28968.7
1396.3	16908.8
1403.12	11451
1409.94	8687.23
1416.76	6909.76
1423.58	5973.24
1430.41	5222.87
1437.23	4918.09
1444.05	5195.46
1450.87	5924.41
1457.69	6417.67
1464.52	6329.14
1471.34	5552.1
1478.16	4604.9
1484.98	4051.77
1491.81	3890.83
1498.63	4067.25
1505.45	4716.01
1512.27	5718.75
1519.1	7565.7
1525.92	9031.27
1532.74	8247.5
1539.56	5984.45
1546.38	3861.3
1553.21	2561.6
1560.03	1890.51
1566.85	1510.85
1573.67	1449.73
1580.49	1538.44
1587.32	1315.21
1594.14	1083.82
1600.96	913.308
1607.78	563.394
1614.61	528.252
1621.43	263.222
1628.25	240.701
1635.07	24.7314
1641.89	70.0039
1648.72	187.457
1655.54	230.834
1662.36	215.848
1669.18	266.874
1676.01	49.419
1682.83	92.7861
1689.65	257.573
1696.47	580.87
1703.29	860.963
1710.12	1179.36
1716.94	1544.92
1723.76	2013.45
1730.58	2516.08
1737.41	2700.07
1744.23	2659.78
1751.05	2647.23
1757.87	2540.78
1764.69	2255.52
1771.52	2359.04
1778.34	1950.43
1785.16	1696.5
1791.98	1498.62
1798.81	1497.31
1805.63	1620.65
1812.45	1958.37
1819.27	2506.82
1826.09	3570.14
1832.92	4789.31
1839.74	6581.45
1846.56	8059.99
1853.38	8434.28
1860.2	8086.38
1867.03	6047.69
1873.85	4398.2
1880.67	2854.97
1887.49	2094.12
1894.32	1673.03
1901.14	1532.87
1907.96	1521.78
1914.78	1789.24
1921.61	2213.6
1928.43	2680.56
1935.25	3428.68
1942.07	4130.05
1948.89	5086.4
1955.72	6530.33
1962.54	8323.32
1969.36	9349.14
1976.18	9722.72
1983.01	8810.37
1989.83	6989.95
1996.65	4952.59
2003.47	3434.67
2010.29	2497.8
2017.12	1815.86
2023.94	1200.06
2030.76	856.132
2037.58	499.649
2044.4	490.198
2051.23	279.793
2058.05	272.85
2064.87	63.0039
2071.69	56.6641
2078.52	41.2559
2085.34	6.16504
2092.16	33.125
2098.98	205.186
2105.8	42.1992
2112.63	185.959
2119.45	464.512
2126.27	211.648
2133.09	153.014
2139.92	418.856
2146.74	625.748
2153.56	499.65
2160.38	580.672
2167.2	159.576
2174.03	106.422
2180.85	78.3516
2187.67	110.777
2194.49	184.203
2201.32	206.793
2208.14	198.762
2214.96	116.99
2221.78	296.334
2228.6	167.727
2235.43	428.986
2242.25	185.75
2249.07	221.434
2255.89	15.3281
2262.72	200.449
2269.54	212.125
2276.36	316.266
2283.18	94.8066
2290	287.662
2296.83	9.43555
2303.65	259.16
2310.47	185.096
2317.29	27.7793
2324.11	432.336
2330.94	623.356
2337.76	241.018
2344.58	302.217
2351.4	23.5469
2358.23	417.391
2365.05	359.223
2371.87	408.676
2378.69	204.688
2385.51	633.66
2392.34	62.2871
2399.16	77.1191
