Measurement: Raman, 514 nm, depolarized, Raman Data Processed
Mineral: Zircon
Rruff sample: R050034
Ideal chemistry: Zr^4+^SiO_4_
Locality: Oaxaca, Mexico
Source: University of Arizona Mineral Museum
Description: Reddish brown single crystal fragments
Measured chemistry: Zr_1.00_Si_1.00_O_4_
Pin_id: M00280
Orientation: Laser parallel to -a* (-1 0 0). Fiducial mark perpendicular to laser is parallel to c [0 0 1]
Raman shift (cm-1)	intensity
115.011	0
119.195	7.331
123.377	64.695
127.556	65.937
131.734	71.051
135.909	145.824
140.083	94.013
144.254	91.365
148.423	93.266
152.59	396.717
156.755	221.898
160.918	253.132
165.078	272.605
169.237	382.535
173.393	262.104
177.548	387.438
181.7	467.626
185.85	645.525
189.998	884.493
194.144	1759.15
198.288	3610.01
202.429	3491.17
206.569	4735.74
210.707	4570.18
214.842	3532.84
218.976	4157.72
223.107	3027.81
227.236	1264.1
231.363	623.571
235.488	302.225
239.611	187.031
243.732	184.973
247.851	32.055
251.967	13.28
256.082	8.349
260.195	4.828
264.305	21.151
268.414	37.291
272.52	18.318
276.624	11.327
280.726	23.049
284.827	17.206
288.925	59.201
293.021	43.72
297.115	43.232
301.207	62.739
305.296	215.391
309.384	313.166
313.47	354.055
317.554	472.045
321.635	619.098
325.715	770.202
329.792	858.365
333.868	1200.6
337.941	1810.91
342.013	2869.3
346.082	5651.78
350.15	9937.32
354.215	9317.72
358.278	4995.05
362.339	2785.34
366.399	1952.7
370.456	1617.17
374.511	1372.78
378.564	1301.51
382.615	1547.37
386.664	1964.34
390.711	1734.43
394.756	1471.63
398.799	1482.97
402.84	1683.46
406.879	1937.12
410.916	2359.9
414.951	3150.18
418.983	4480.22
423.014	6838.36
427.043	11435.7
431.07	18383.7
435.095	21719.1
439.118	15382.6
443.138	8624.16
447.157	5004.94
451.174	3504.91
455.189	2496.89
459.202	1985.94
463.212	1599.23
467.221	1368.63
471.228	1144.11
475.233	883.652
479.236	592.251
483.237	471.908
487.235	488.619
491.232	406.397
495.227	249.281
499.22	291.308
503.211	272.511
507.2	412.883
511.187	279.362
515.172	173.099
519.155	273.818
523.136	246.659
527.115	200.506
531.092	230.703
535.067	149.257
539.04	284.199
543.011	267.273
546.98	171.677
550.947	126.134
554.913	62.796
558.876	107.698
562.837	104.356
566.797	49.371
570.754	10.128
574.709	27.461
578.663	32.694
582.614	7.67
586.564	0.933
590.511	15.173
594.457	12.231
598.401	90.434
602.343	9.527
606.282	49.057
610.22	129.847
614.156	196.243
618.09	143.115
622.022	167.788
625.952	156.363
629.88	182.738
633.807	269.893
637.731	341.936
641.653	219.895
645.574	106.303
649.492	143.25
653.409	210.849
657.323	108.717
661.236	63.829
665.147	76.315
669.056	74.47
672.963	224.056
676.868	153.985
680.771	78.865
684.672	84.592
688.571	96.221
692.468	165.675
696.364	111.235
700.257	63.908
704.149	63.987
708.038	105.812
711.926	119.441
715.812	116.849
719.696	26.99
723.578	60.87
727.458	30.347
731.336	97.652
735.213	42.407
739.087	10.908
742.96	25.908
746.83	53.039
750.699	312.361
754.566	72.396
758.431	20.091
762.294	77.419
766.155	48.056
770.014	60.536
773.872	73.824
777.727	2.865
781.581	68.703
785.433	79.409
789.282	114.986
793.13	187.439
796.977	166.77
800.821	51.973
804.663	54.978
808.504	89.198
812.342	13.214
816.179	96.281
820.014	55.943
823.847	84.46
827.678	24.396
831.507	100.604
835.334	191.386
839.16	120.161
842.983	46.536
846.805	94.535
850.625	51.162
854.443	69.806
858.259	199.557
862.074	191.378
865.886	151.792
869.697	107.91
873.506	153.279
877.313	145.083
881.118	268.009
884.921	237.224
888.722	232.671
892.522	179.715
896.319	250.055
900.115	310.965
903.909	412.974
907.701	339.876
911.492	364.484
915.28	424.576
919.067	520.736
922.852	521.42
926.635	599.58
930.416	565.817
934.195	633.102
937.973	751.587
941.748	873.218
945.522	1049.88
949.294	1251.57
953.064	1301.64
956.832	1580.08
960.599	2269.91
964.364	4199.6
968.127	9221.15
971.888	6739.98
975.647	4462.41
979.404	3595.93
983.16	3625.03
986.914	4868.27
990.666	7633.61
994.416	15069
998.164	35688.8
1001.91	60220.9
1005.65	30736
1009.4	14131.7
1013.14	7909.8
1016.88	5055.93
1020.62	3517.47
1024.35	2541.05
1028.09	1938.04
1031.82	1587.17
1035.55	1315.32
1039.28	1171.37
1043	963.172
1046.73	1123.68
1050.45	907.437
1054.17	756.688
1057.89	871.532
1061.61	814.061
1065.33	762.053
1069.04	826.263
1072.75	711.618
1076.46	737.62
1080.17	673.167
1083.88	630.054
1087.59	653.159
1091.29	556.74
1094.99	640.761
1098.69	604.387
1102.39	597.012
1106.09	472.741
1109.78	486.881
1113.47	322.309
1117.16	413.772
1120.85	364.704
1124.54	420.292
1128.23	304.973
1131.91	229.674
1135.59	167.374
1139.27	377.214
1142.95	474.253
1146.63	401.827
1150.3	294.15
1153.98	246.447
1157.65	193.212
1161.32	28.721
1164.99	30.452
1168.65	119.179
1172.32	27.836
1175.98	44.294
1179.64	100.405
1183.3	59.474
1186.96	125.839
1190.62	37.008
1194.27	148.21
1197.92	28.075
1201.57	135.55
1205.22	193.25
1208.87	213.99
1212.51	170.823
1216.16	233.249
1219.8	78.521
1223.44	64.409
1227.08	53.128
1230.72	123.609
1234.35	185.118
1237.98	253.917
1241.62	212.553
1245.25	214.227
1248.87	241.593
1252.5	192.64
1256.12	179.847
1259.75	229.551
1263.37	273.18
1266.99	415.255
1270.61	350.146
1274.22	258.693
1277.84	225.969
1281.45	161.924
1285.06	102.649
1288.67	63.143
1292.28	105.461
1295.88	75.574
1299.49	155.399
1303.09	205.957
1306.69	204.851
1310.29	119.17
1313.89	22.641
1317.48	16.07
1321.08	71.621
1324.67	30.29
1328.26	105.033
1331.85	129.783
1335.44	251
1339.02	245.418
1342.61	264.928
1346.19	183.145
1349.77	106.328
1353.35	1.5
1356.92	30.869
1360.5	78.251
1364.07	71.606
1367.64	31.992
1371.21	107.926
1374.78	165.775
1378.35	191.416
1381.91	149.312
1385.48	48.374
1389.04	102.277
1392.6	62.892
1396.16	57.16
1399.71	146.131
1403.27	165.201
1406.82	290.01
1410.38	335.621
1413.92	316.804
1417.47	316.962
1421.02	331.901
1424.57	245.523
1428.11	245.121
1431.65	330.169
1435.19	472.496
1438.73	327.016
1442.27	408.871
1445.8	335.082
1449.33	276.963
1452.87	342.748
1456.4	226.661
1459.92	392.92
1463.45	363.858
1466.98	385
1470.5	224.24
1474.02	280.789
1477.54	55.578
1481.06	231.476
1484.58	287.712
1488.09	82.292
1491.61	62.722
1495.12	263.472
1498.63	417.043
1502.14	272.116
1505.64	128.936
1509.15	4.718
1512.65	38.957
1516.15	0.742
