Measurement: Raman, 514 nm, ccw, Raman Data Processed
Mineral: Zircon
Rruff sample: R050488
Ideal chemistry: Zr^4+^SiO_4_
Locality: Sigulani Village, Tambani Area, Blantyre District, Nyassaland
Source: California Institute of Technology
Description: Brown fragment
Measured chemistry: (Zr_0.99_Hf_0.01_)_Î£=1_Si_1.00_O_4_
Pin_id: L00554
Orientation: Laser parallel to c* (0 0 1). Fiducial mark perpendicular to laser is parallel to a [1 0 0]
Raman shift (cm-1)	intensity
143.815	0
148.739	84.6606
153.661	55.4551
158.58	194.711
163.496	18.355
168.409	94.6128
173.32	96.2803
178.228	58.6099
183.133	167.099
188.035	100.918
192.935	161.078
197.832	206.27
202.727	728.657
207.618	687.613
212.507	1182.01
217.393	1898.66
222.277	1044.25
227.157	1037.19
232.035	479.945
236.911	119.906
241.783	8.09717
246.653	151.2
251.52	90.8643
256.385	94.7944
261.246	39.0024
266.105	63.5874
270.962	149.266
275.815	72.4253
280.666	71.6021
285.514	65.9228
290.36	20.2119
295.203	91.3428
300.043	18.0322
304.88	55.583
309.715	25.4863
314.547	43.7129
319.376	42.127
324.203	97.8657
329.027	115.876
333.848	160.028
338.667	152.32
343.482	279.731
348.296	642.26
353.106	1467.83
357.914	2488.58
362.719	1603.28
367.521	461.09
372.321	206.577
377.118	133.499
381.912	219.882
386.704	133.975
391.493	256.196
396.279	414.418
401.063	371.82
405.844	203.222
410.622	262.53
415.398	209.059
420.171	212.264
424.941	427.004
429.709	921.235
434.473	2290.16
439.236	4881.05
443.995	4576.74
448.752	1592.9
453.506	810.421
458.258	481.545
463.007	322.216
467.753	238.948
472.497	275.17
477.238	217.749
481.976	158.162
486.712	145.716
491.445	113.349
496.175	180.709
500.902	177.98
505.627	181.228
510.35	191.535
515.069	114.727
519.786	35.0293
524.501	58.0254
529.213	8.30469
533.922	155.276
538.628	63.251
543.332	54.2158
548.033	119.238
552.731	100.094
557.427	172.394
562.121	84.9326
566.811	63.4824
571.499	109.825
576.184	73.457
580.867	102.534
585.547	38.3506
590.224	97.7451
594.899	155.591
599.571	123.87
604.241	44.9365
608.908	119.103
613.572	66.8555
618.233	4.92871
622.892	73.5977
627.549	87.4004
632.202	24.9492
636.853	205.801
641.502	165.72
646.148	236.202
650.791	242.31
655.432	148.84
660.069	139.461
664.705	111.664
669.338	249.088
673.968	255.143
678.595	165.919
683.22	142.727
687.842	205.781
692.462	1.24219
697.079	156.89
701.694	165.894
706.305	112.558
710.915	141.887
715.521	93.1299
720.125	90.0508
724.727	118.018
729.325	155.417
733.922	133.531
738.515	139.148
743.106	91.2353
747.695	82.9209
752.28	162.321
756.864	53.6855
761.444	120.69
766.022	74.9766
770.598	33.042
775.17	312.508
779.741	45.7129
784.308	49.4619
788.873	145.658
793.436	15.0674
797.996	137.869
802.553	63.75
807.108	148.759
811.66	51.5381
816.209	37.666
820.756	93.1094
825.301	139.899
829.842	265.987
834.382	98.4414
838.918	227.773
843.452	90.7451
847.984	43.7022
852.513	85.7988
857.039	267.231
861.563	94.4375
866.084	6.83106
870.603	92.793
875.119	163.667
879.632	101.284
884.143	41.4658
888.651	129.744
893.157	27.9062
897.66	56.8047
902.161	68.6953
906.659	32.7393
911.154	149.238
915.647	68.1631
920.138	108.857
924.626	224.101
929.111	152.499
933.594	105.988
938.074	62.4023
942.551	14.8643
947.026	112.228
951.499	146.56
955.969	159.6
960.436	123.099
964.901	193.224
969.363	650.745
973.823	2123.68
978.28	2374.34
982.735	720.623
987.187	577.739
991.637	561.145
996.084	986.415
1000.53	2447.3
1004.97	8474.64
1009.41	24929.5
1013.85	8995.71
1018.28	1753.35
1022.71	858.923
1027.14	817.758
1031.57	211.551
1035.99	119.227
1040.41	95.0908
1044.83	162.001
1049.25	68.1572
1053.66	206.667
1058.08	279.782
1062.48	93.6152
1066.89	96.3672
1071.3	25.0176
1075.7	96.457
1080.1	132.431
1084.49	243.912
1088.89	285.31
1093.28	460.418
1097.67	245.314
1102.05	254.555
1106.44	318.478
1110.82	363.688
1115.2	263.879
1119.57	138.117
1123.95	200.764
1128.32	77.4834
1132.69	64.4014
1137.05	222.052
1141.42	192.513
1145.78	237.94
1150.14	242.319
1154.49	225.685
1158.85	121.941
1163.2	113.427
1167.55	45.5312
1171.89	123.305
1176.24	105.27
1180.58	92.1816
1184.92	135.502
1189.25	168.366
1193.59	154.565
1197.92	34.3047
1202.25	166.906
1206.57	8.96973
1210.9	30.5664
1215.22	315.228
1219.54	0.362305
1223.85	235.321
1228.17	76.2129
1232.48	171.953
1236.79	212.6
1241.09	261.166
1245.4	232.607
1249.7	142.992
1254	84.3203
1258.29	11.4023
1262.59	179.791
1266.88	188.096
1271.17	162.6
1275.45	243.404
1279.74	156.459
1284.02	172.525
1288.3	29.459
1292.58	220.822
1296.85	18.75
1301.12	65.8008
1305.39	33.5625
1309.66	97.9805
1313.92	82.3457
1318.18	119.644
1322.44	0.929688
1326.7	83.082
1330.95	178.344
1335.2	145.818
1339.45	60.3691
1343.7	128.551
1347.95	167.158
1352.19	360.012
1356.43	279.002
1360.66	238.623
1364.9	265.553
1369.13	270.193
1373.36	120.35
1377.59	192.535
1381.81	147.856
1386.04	168.727
1390.26	207.338
1394.47	74.25
1398.69	178.478
1402.9	17.1719
1407.11	120.908
1411.32	22.127
1415.53	206.557
1419.73	76.3164
1423.93	261.779
1428.13	340.258
1432.32	3.56445
1436.52	133.019
1440.71	113.154
1444.89	230.512
1449.08	374.137
1453.26	315.045
1457.44	237.24
1461.62	330.648
1465.8	440.824
1469.97	309.275
1474.14	242.66
1478.31	260.469
1482.48	279.238
1486.64	246.211
1490.81	201.812
1494.96	57.7793
1499.12	375.09
1503.28	184.441
1507.43	235.393
1511.58	293.33
1515.72	397.697
1519.87	282.84
1524.01	217.881
1528.15	141.227
1532.29	251.816
