Measurement: Raman, 514 nm, ccw, Raman Data Processed
Mineral: Zircon
Rruff sample: R050286
Ideal chemistry: Zr^4+^SiO_4_
Locality: Renfrew County, Ontario, Canada
Source: Marcus Origlieri
Description: Brownish red prismatic crystal frozen in matrix, associated with apatite
Measured chemistry: Zr_1.00_Si_1.00_O_4_; trace amounts of Hf
Pin_id: L01183
Orientation: Laser parallel to -c* (0 0 -1). Fiducial mark perpendicular to laser is parallel to -a [-1 0 0]
Raman shift (cm-1)	intensity
129.026	0
132.725	54.8945
136.423	37.9514
140.12	42.0793
143.815	81.3982
147.508	46.0637
151.2	51.1091
154.891	134.125
158.58	86.3491
162.267	211.718
165.953	122.844
169.637	166.756
173.32	176.139
177.001	175.13
180.681	82.8926
184.359	178.372
188.035	157.416
191.711	304.511
195.384	417.637
199.056	692.136
202.727	1039.66
206.395	1376.76
210.063	1684.29
213.729	1829.48
217.393	1667.77
221.056	1068.28
224.717	915.702
228.377	639.301
232.035	438.072
235.692	245.006
239.347	265.091
243.001	144.318
246.653	123.675
250.304	81.1455
253.953	77.7292
257.6	50.4273
261.246	41.2417
264.891	78.1646
268.534	102.14
272.175	72.218
275.815	117.108
279.454	102.299
283.091	55.0806
286.726	43.7861
290.36	50.447
293.992	38.0454
297.623	26.6733
301.252	40.573
304.88	53.7471
308.507	14.1265
312.131	15.0708
315.755	115.103
319.376	95.2039
322.996	17.3579
326.615	93.5835
330.232	33.8799
333.848	179.236
337.462	256.643
341.075	334.036
344.686	528.485
348.296	900.006
351.904	1290.56
355.51	1491.09
359.115	1275.58
362.719	898.032
366.321	535.467
369.921	445.989
373.52	382.604
377.118	349.311
380.714	405.109
384.309	488.996
387.902	609.971
391.493	520.033
395.083	592.183
398.671	456.524
402.258	419.884
405.844	642.293
409.428	664.335
413.01	810.035
416.591	1040.78
420.171	1488.6
423.749	2275.65
427.325	3649.21
430.9	5977.15
434.473	8435.7
438.045	9790.81
441.616	8420.65
445.185	5853.41
448.752	3568.49
452.318	2297.14
455.883	1629.74
459.445	1212.54
463.007	978.576
466.567	795.633
470.125	642.579
473.682	534.201
477.238	394.509
480.792	348.893
484.344	316.344
487.895	220.88
491.445	215.508
494.992	154.238
498.539	198.095
502.084	141.106
505.627	229.208
509.169	216.375
512.71	200.631
516.249	201.969
519.786	194.355
523.322	184.788
526.857	239.279
530.39	132.868
533.922	194.523
537.452	113.305
540.98	128.189
544.507	93.1829
548.033	59.2095
551.557	78.3811
555.08	111.988
558.601	45.1973
562.121	72.1631
565.639	40.3347
569.155	23.0269
572.671	55.3381
576.184	4.33106
579.697	79.4824
583.207	71.7849
586.717	83.5857
590.224	19.7961
593.731	52.7695
597.235	36.3403
600.739	46.1262
604.241	77.6536
607.741	2.00098
611.24	1.82471
614.737	34.6401
618.233	88.3738
621.728	105.949
625.221	187.514
628.712	92.6687
632.202	139.978
635.691	250.796
639.178	260.99
642.664	276.392
646.148	231.856
649.63	196.097
653.112	150.838
656.591	158.531
660.069	231.811
663.546	178.761
667.022	173.396
670.495	169.236
673.968	188.286
677.439	84.3625
680.908	95.8164
684.376	115.686
687.842	57.1294
691.307	11.9534
694.771	100.631
698.233	48.1106
701.694	112.452
705.153	104.522
708.61	102.565
712.066	136.389
715.521	32.6221
718.974	67.3386
722.426	71.9756
725.877	13.4646
729.325	10.083
732.773	69.571
736.219	55.1965
739.663	86.8088
743.106	121.654
746.548	71.6328
749.988	32.4358
753.426	53.666
756.864	24.7358
760.299	33.146
763.734	18.5913
767.166	43.4565
770.598	19.6699
774.028	57.9199
777.456	10.2236
780.883	34.7344
784.308	45.4917
787.732	2.77295
791.155	13.249
794.576	64.563
797.996	98.7559
801.414	35.8286
804.831	50.7036
808.246	10.6035
811.66	25.1436
815.072	84.9312
818.483	31.0059
821.893	10.7979
825.301	63.5869
828.707	83.1919
832.112	93.4912
835.516	122.592
838.918	144.656
842.319	35.6758
845.718	44.4043
849.116	100.119
852.513	44.3506
855.908	0.374023
859.301	37.1084
862.693	192.353
866.084	214.19
869.473	426.778
872.861	335.274
876.247	319.913
879.632	212.648
883.015	276.073
886.397	267.448
889.778	178.962
893.157	275.486
896.535	197.538
899.911	139.69
903.286	252.73
906.659	288.463
910.031	218.885
913.401	232.934
916.77	278.171
920.138	326.088
923.504	377.479
926.869	319.107
930.232	349.198
933.594	301.144
936.954	324.322
940.313	334.906
943.67	314.142
947.026	357.429
950.381	368.796
953.734	491.058
957.086	615.734
960.436	828.04
963.785	1413.09
967.133	2766.38
970.479	4535.79
973.823	4702.31
977.166	3174.95
980.508	2042.73
983.848	1794.7
987.187	1905.78
990.525	2374.76
993.861	3683.14
997.195	6831.65
1000.53	14776.4
1003.86	24439.2
1007.19	24155.1
1010.52	13203.1
1013.85	6549.23
1017.17	3688.47
1020.5	2247.83
1023.82	1472.29
1027.14	1094.88
1030.46	746.845
1033.78	584.73
1037.1	495.481
1040.41	366.248
1043.73	192.974
1047.04	248.109
1050.35	193.979
1053.66	208.537
1056.97	280.18
1060.28	223.3
1063.59	210.997
1066.89	374.346
1070.19	130.382
1073.5	145.154
1076.8	240.091
1080.1	297.953
1083.39	247.411
1086.69	261.75
1089.98	338.242
1093.28	240.042
1096.57	235.513
1099.86	218.891
1103.15	302.503
1106.44	281.991
1109.72	240.666
1113.01	257.534
1116.29	243.356
1119.57	163.067
1122.85	106.953
1126.13	38.8852
1129.41	73.8579
1132.69	108.877
1135.96	150.921
1139.23	111.989
1142.51	179.083
1145.78	258.193
1149.05	100.323
1152.32	142.5
1155.58	31.6597
1158.85	77.8242
1162.11	2.93506
1165.37	126.194
1168.63	61.4536
1171.89	22.1836
1175.15	14.4233
1178.41	58.1738
1181.66	33.1148
1184.92	8.16748
1188.17	76.4438
1191.42	45.8677
1194.67	12.7617
1197.92	22.8091
1201.16	130.578
1204.41	45.0078
1207.65	23.8472
1210.9	60.6548
1214.14	20.5283
1217.38	7.24414
1220.62	9.83203
1223.85	140.8
1227.09	35.5107
1230.32	122.039
1233.56	7.39404
1236.79	121.645
1240.02	25.0913
1243.24	118.742
1246.47	134.491
1249.7	165.227
1252.92	152.583
1256.14	179.36
1259.37	158.829
1262.59	221.006
1265.81	282.268
1269.02	223.632
1272.24	177.841
1275.45	190.752
1278.67	151.313
1281.88	220.363
1285.09	165.085
1288.3	87.4263
1291.51	198.706
1294.71	76.9302
1297.92	121.079
1301.12	203.563
1304.32	134.155
1307.52	60.0557
1310.72	159.438
1313.92	107.886
1317.12	79.7505
1320.31	161.942
1323.51	169.934
1326.7	105.118
1329.89	138.164
1333.08	109.493
1336.27	92.5005
1339.45	124.453
1342.64	76.5928
1345.82	148.117
1349.01	134.602
1352.19	142.252
1355.37	75.4277
1358.55	101.112
1361.72	6.7124
1364.9	83.6323
1368.07	108.473
1371.25	20.4575
1374.42	11.1318
1377.59	90.8931
1380.76	35.3628
1383.92	57.6533
1387.09	119.507
1390.26	218.563
1393.42	71.3701
1396.58	57.625
1399.74	159.066
1402.9	17.7485
1406.06	75.1113
1409.22	73.0093
1412.37	231.319
1415.53	84.7847
1418.68	54.9424
1421.83	154.119
1424.98	52.7852
1428.13	192.773
1431.27	141.56
1434.42	66.9224
1437.56	168.282
1440.71	127.154
1443.85	53.4858
1446.99	13.3364
1450.13	16.0098
