Measurement: Raman, 514 nm, depolarized, Raman Data Processed
Mineral: Zircon
Rruff sample: R050203
Ideal chemistry: Zr^4+^SiO_4_
Locality: Eastern Thailand
Source: Eric Van Valkenburg
Description: Dark red water-worn single crystal
Measured chemistry: (Zr_0.99_Hf_0.01_)_Î£=1_Si_1.00_O_4_
Pin_id: L00061
Orientation: Laser parallel to a* (1 0 0). Fiducial mark perpendicular to laser is parallel to -c [0 0 -1]
Raman shift (cm-1)	intensity
124.09	0
127.792	12.9326
131.492	19.0244
135.191	28.2467
138.888	20.7255
142.583	38.7011
146.277	32.0998
149.97	61.791
153.661	87.9059
157.35	14.632
161.038	42.9004
164.724	50.4998
168.409	58.9902
172.092	22.5844
175.774	42.0714
179.454	48.3664
183.133	64.502
186.81	47.0471
190.486	120.217
194.16	260.171
197.832	535.367
201.503	799.811
205.173	834.14
208.841	753.4
212.507	1245.93
216.172	1685.33
219.835	1479.94
223.497	1571.9
227.157	1501.01
230.816	682.148
234.473	182.311
238.129	106.493
241.783	42.6915
245.436	11.9032
249.087	13.8727
252.737	6.36441
256.385	8.61578
260.031	8.87756
263.676	3.86942
267.32	2.38272
270.962	3.85315
274.602	21.3276
278.241	2.67618
281.879	6.28259
285.514	0.345764
289.149	21.6957
292.782	3.35605
296.413	13.0187
300.043	28.6746
303.671	14.316
307.298	27.9494
310.923	13.5848
314.547	63.2225
318.169	34.85
321.79	39.4911
325.409	61.1302
329.027	91.7736
332.643	78.4073
336.258	85.022
339.871	171.618
343.482	338.209
347.092	858.757
350.701	1970.3
354.308	3892.86
357.914	4796.4
361.518	2850.93
365.12	1170.76
368.721	446.981
372.321	262.521
375.919	145.082
379.515	150.661
383.111	133.255
386.704	163.871
390.296	254.505
393.886	370.062
397.475	304.704
401.063	226.375
404.649	189.642
408.233	161.589
411.816	177.331
415.398	189.783
418.978	286.197
422.556	443.738
426.133	708.557
429.709	1564
433.282	3809.94
436.855	7304.81
440.426	9116.26
443.995	5887.21
447.563	2575.73
451.13	1283.65
454.695	722.433
458.258	473.651
461.82	323.444
465.38	234.856
468.939	194.426
472.497	125.444
476.053	131.476
479.607	76.5234
483.16	78.5914
486.712	54.9219
490.262	36.0538
493.81	34.1747
497.357	30.3124
500.902	51.4663
504.446	53.6375
507.989	27.8257
511.53	23.0301
515.069	72.2507
518.607	47.9822
522.144	54.239
525.679	16.5114
529.213	16.2978
532.745	59.7176
536.275	19.0416
539.804	41.4122
543.332	54.2676
546.858	57.9194
550.383	72.8539
553.906	51.3351
557.427	48.8345
560.947	29.3605
564.466	1.91486
567.983	15.4888
571.499	1.93555
575.013	43.6429
578.526	24.2296
582.037	6.83453
585.547	9.46222
589.055	19.1335
592.562	5.86481
596.067	25.8056
599.571	32.4595
603.074	32.1011
606.574	5.74219
610.074	39.3959
613.572	10.0632
617.068	32.7058
620.563	30.4145
624.057	26.6555
627.549	0.494629
631.039	22.0438
634.528	39.9362
638.016	38.615
641.502	70.4971
644.987	74.0989
648.47	16.2901
651.951	15.4537
655.432	7.85303
658.91	7.14166
662.388	20.8323
665.863	7.45239
669.338	7.22913
672.81	9.06909
676.282	34.9056
679.752	10.4196
683.22	46.5515
686.687	21.2509
690.153	38.2299
693.617	15.0505
697.079	31.613
700.54	34.173
704	50.2313
707.458	36.7819
710.915	36.8405
714.37	35.4112
717.824	40.9017
721.276	43.8221
724.727	31.6829
728.176	46.1316
731.624	67.3475
735.07	23.0985
738.515	40.6141
741.959	30.1588
745.401	26.4338
748.841	12.5003
752.28	52.5873
755.718	52.9016
759.154	3.80127
762.589	29.4637
766.022	21.4369
769.454	1.72418
772.884	55.9302
776.313	50.1195
779.741	4.29169
783.167	51.4435
786.591	23.5784
790.014	13.6966
793.436	27.3011
796.856	45.0408
800.275	11.0989
803.692	26.5136
807.108	4.5368
810.522	46.4226
813.935	18.406
817.346	2.37854
820.756	3.49536
824.165	7.9187
827.572	35.7413
830.977	27.5149
834.382	12.2695
837.784	23.0098
841.186	21.7317
844.585	1.5697
847.984	24.1154
851.381	12.7886
854.776	3.55048
858.17	42.0864
861.563	20.6988
864.954	21.2757
868.344	29.5197
871.732	67.0815
875.119	9.6524
878.504	28.7716
881.888	40.7485
885.27	10.7592
888.651	20.6965
892.031	46.1448
895.409	26.025
898.786	17.442
902.161	8.85706
905.535	23.0803
908.907	23.5142
912.278	19.9674
915.647	13.2322
919.015	24.7434
922.382	55.2042
925.747	33.1715
929.111	86.6473
932.473	18.2533
935.834	16.0334
939.193	82.7001
942.551	96.8485
945.908	114.106
949.263	110.9
952.617	124.076
955.969	62.0858
959.32	45.5191
962.669	63.1448
966.017	125.401
969.363	493.907
972.708	1711.42
976.052	3198.42
979.394	1317.6
982.735	407.136
986.074	286.67
989.412	257.819
992.749	314.362
996.084	460.546
999.417	894.136
1002.75	3158.74
1006.08	11400.4
1009.41	22536
1012.74	9865.4
1016.06	2463.05
1019.39	874.662
1022.71	385.331
1026.04	297.013
1029.36	202.71
1032.67	170.425
1035.99	123.142
1039.31	98.8311
1042.62	118.629
1045.94	120.341
1049.25	170.184
1052.56	267.388
1055.87	308.197
1059.18	194.955
1062.48	100.647
1065.79	87.3272
1069.09	62.6598
1072.4	58.1143
1075.7	105.209
1079	106.045
1082.29	164.978
1085.59	250.979
1088.89	320.949
1092.18	247.951
1095.47	132.993
1098.76	86.0402
1102.05	65.0977
1105.34	140.165
1108.63	175.245
1111.91	223.444
1115.2	127.549
1118.48	70.6621
1121.76	103.786
1125.04	82.9221
1128.32	57.0951
1131.6	84.2665
1134.87	30.4446
1138.14	76.6291
1141.42	97.2344
1144.69	152.244
1147.96	204.263
1151.23	137.522
1154.49	68.8036
1157.76	53.081
1161.02	29.3658
1164.29	34.6594
1167.55	18.9515
1170.81	58.2911
1174.07	29.5587
1177.32	17.7976
1180.58	10.9675
1183.83	14.2472
1187.08	0.483521
1190.34	25.6537
1193.59	7.60748
1196.84	12.636
1200.08	1.49591
1203.33	6.09351
1206.57	5.78003
1209.82	19.331
1213.06	5.43365
1216.3	109.524
1219.54	49.6141
1222.77	58.7039
1226.01	50.793
1229.24	63.8805
1232.48	59.9661
1235.71	73.0065
1238.94	25.1293
1242.17	15.1991
1245.4	34.2578
1248.62	32.3138
1251.85	24.3507
1255.07	64.6719
1258.29	66.6804
1261.51	21.6765
1264.73	26.6727
1267.95	72.7025
1271.17	89.7249
1274.38	96.7835
1277.6	72.7827
1280.81	11.7786
1284.02	38.7883
1287.23	55.8029
1290.44	32.2374
1293.64	65.4017
1296.85	45.4556
1300.05	88.9422
1303.26	91.7763
1306.46	40.3117
1309.66	23.2264
1312.86	4.56982
1316.05	33.4913
1319.25	33.5002
1322.44	12.7648
1325.63	107.647
1328.83	3.71191
1332.02	45.3157
1335.2	45.3517
1338.39	7.90259
1341.58	14.8677
1344.76	57.8158
1347.95	63.7218
1351.13	51.6349
1354.31	135.53
1357.49	91.3894
1360.66	88.2435
1363.84	90.0547
1367.02	89.7498
1370.19	83.6145
1373.36	43.444
1376.53	44.5238
1379.7	33.4539
1382.87	9.38464
1386.04	31.382
1389.2	33.4913
1392.37	28.6125
1395.53	8.75232
1398.69	2.92529
1401.85	33.1587
1405.01	27.4485
1408.16	70.5593
1411.32	14.4178
1414.47	49.0908
1417.63	47.8544
1420.78	41.5395
1423.93	79.6003
1427.08	71.8954
1430.22	83.2654
