Measurement: Raman, 514 nm, depolarized, Raman Data Processed
Mineral: Zircon
Rruff sample: R050034
Ideal chemistry: Zr^4+^SiO_4_
Locality: Oaxaca, Mexico
Source: University of Arizona Mineral Museum
Description: Reddish brown single crystal fragments
Measured chemistry: Zr_1.00_Si_1.00_O_4_
Pin_id: M00272
Orientation: Laser parallel to -c* (0 0 -1). Fiducial mark perpendicular to laser is parallel to b [0 1 0]
Raman shift (cm-1)	intensity
78.661	0
82.863	4.83
87.064	38.698
91.262	97.806
95.458	162.057
99.652	197.983
103.843	277.072
108.033	333.588
112.22	366.15
116.406	336.129
120.589	327.123
124.77	331.865
128.949	338.34
133.126	266.053
137.301	285.12
141.473	237.527
145.644	252.883
149.812	217.234
153.979	244.611
158.143	211.036
162.305	268.52
166.465	266.922
170.623	185.289
174.778	192.028
178.932	234.086
183.083	239.459
187.233	265.535
191.38	410.394
195.525	709.618
199.669	1043.61
203.81	1710.75
207.949	2737.04
212.085	2194.49
216.22	1191.07
220.353	800.773
224.483	485.589
228.612	262.724
232.738	182.55
236.863	99.694
240.985	75.986
245.105	74.74
249.223	31.798
253.339	40.882
257.453	21.443
261.565	52.359
265.675	54.566
269.783	23.024
273.888	27.669
277.992	6.531
282.093	7.411
286.193	28.538
290.29	10.417
294.386	12.235
298.479	5.999
302.57	13.723
306.659	34.447
310.746	12.852
314.831	39.211
318.914	83.63
322.995	35.107
327.074	73.644
331.151	115.241
335.226	122.898
339.299	216.616
343.37	322.345
347.438	623.082
351.505	1044.77
355.57	769.436
359.632	449.047
363.693	268.721
367.751	234.469
371.808	243.302
375.862	319.207
379.914	452.177
383.965	634.221
388.013	754.333
392.06	689.506
396.104	576.745
400.146	540.063
404.186	568.45
408.225	765.173
412.261	1031.73
416.295	1542.4
420.327	2252.16
424.357	3611.14
428.386	6632.79
432.412	11023.3
436.436	12068.6
440.458	8164.46
444.478	4580.29
448.496	2945.1
452.513	1921.96
456.527	1422.41
460.539	1111.17
464.549	913.013
468.557	761.261
472.563	631.924
476.567	431.606
480.57	345.328
484.57	329.076
488.568	241.85
492.564	156.649
496.558	181.496
500.551	176.454
504.541	199.486
508.529	174.566
512.515	163.677
516.5	178.839
520.482	193.028
524.462	126.637
528.441	121.258
532.417	122.896
536.391	127.113
540.364	121.528
544.334	71.982
548.303	105.32
552.269	101.028
556.234	59.054
560.197	32.158
564.157	13.819
568.116	38.448
572.073	88.641
576.027	12.724
579.98	2.153
583.931	27.093
587.88	28.274
591.827	0.652
595.772	22.898
599.715	30.781
603.656	48.415
607.595	83.824
611.532	130.545
615.468	109.968
619.401	91.208
623.332	101.943
627.262	149.026
631.189	171.746
635.115	193.329
639.039	181.844
642.96	178.377
646.88	99.812
650.798	131.035
654.714	90.024
658.628	100.067
662.54	108.51
666.45	97.28
670.358	123.541
674.264	45.458
678.169	18.22
682.071	41.884
685.972	71.447
689.87	82.892
693.767	29.291
697.662	1.918
701.555	45.804
705.446	41.841
709.335	38.775
713.222	8.402
717.107	21.273
720.99	68.217
724.872	77.981
728.751	57.266
732.629	9.592
736.504	2.738
740.378	17.538
744.25	18.04
748.12	50.767
751.988	34.197
755.854	41.394
759.719	10.751
763.581	62.794
767.442	30.65
771.3	11.718
775.157	6.248
779.012	14.104
782.865	70.373
786.716	41.561
790.565	111.672
794.413	48.711
798.258	52.677
802.102	9.572
805.943	5.614
809.783	34.028
813.621	15.551
817.457	10.301
821.292	16.153
825.124	24.884
828.954	99.811
832.783	67.274
836.61	152.067
840.435	68.461
844.258	33.763
848.079	26.265
851.898	105.689
855.715	55.166
859.531	53.557
863.345	70.556
867.157	113.474
870.967	151.5
874.775	107.52
878.581	99.877
882.386	98.299
886.188	72.036
889.989	68.968
893.788	145.489
897.585	175.758
901.38	194.553
905.174	141.55
908.965	122.467
912.755	289.92
916.543	279.387
920.329	339.147
924.113	285.97
927.895	272.721
931.676	314.473
935.454	341.194
939.231	463.106
943.006	536.131
946.78	602.195
950.551	717.216
954.32	843.198
958.088	1137
961.854	1898.08
965.618	3927.39
969.38	6739.77
973.141	4719.09
976.9	2863.2
980.656	2382.62
984.411	2693.18
988.165	3473.79
991.916	5523.49
995.665	10786.3
999.413	27228
1003.16	38238.6
1006.9	18749.8
1010.65	8641.89
1014.39	4849.95
1018.12	2969.3
1021.86	2006.08
1025.6	1377.23
1029.33	1043.94
1033.06	876.775
1036.79	716.494
1040.52	688.742
1044.25	554.505
1047.97	482.648
1051.69	477.943
1055.41	402.709
1059.13	393.614
1062.85	381.823
1066.57	383.348
1070.28	342.146
1073.99	350.727
1077.7	303.47
1081.41	386.674
1085.12	468.872
1088.82	563.026
1092.52	412.396
1096.22	327.924
1099.92	348.38
1103.62	360.085
1107.32	420.562
1111.01	309.108
1114.7	238.702
1118.39	233.377
1122.08	204.102
1125.77	118.877
1129.45	105.679
1133.14	131.493
1136.82	205.315
1140.5	276.436
1144.18	230.265
1147.85	96.436
1151.53	113.358
1155.2	21.001
1158.87	46.003
1162.54	19.411
1166.21	10.15
1169.88	77.24
1173.54	73.02
1177.2	78.021
1180.86	0.979
1184.52	24.19
1188.18	26.383
1191.83	32.065
1195.49	5.923
1199.14	139.005
1202.79	40.683
1206.44	103.281
1210.08	46.901
1213.73	13.847
1217.37	38.606
1221.01	6.732
1224.65	29.11
1228.29	102.015
1231.93	135.166
1235.56	134.511
1239.19	60.602
1242.83	45.249
1246.46	18.468
1250.08	67.747
1253.71	93.903
1257.33	128.678
1260.96	219.756
1264.58	302.073
1268.19	226.539
1271.81	187.794
1275.43	154.871
1279.04	139.689
1282.65	88.307
1286.27	140.833
1289.87	87.188
1293.48	140.504
1297.09	79.857
1300.69	9.833
1304.29	49.638
1307.89	51.018
1311.49	25.322
1315.09	0.527
1318.68	67.51
1322.28	114.843
1325.87	214.797
1329.46	155.178
1333.05	147.119
1336.63	69.667
1340.22	83.655
1343.8	112.47
1347.38	125.501
1350.96	137.978
1354.54	108.097
1358.12	187.731
1361.69	120.626
1365.26	180.279
1368.83	97.578
1372.4	17.897
1375.97	2.17
1379.54	34.751
1383.1	14.99
1386.66	11.475
1390.23	68.177
1393.79	81.702
1397.34	107.017
1400.9	153.149
1404.45	174.743
1408.01	104.974
1411.56	63.345
1415.11	49.014
1418.66	55.859
1422.2	67.963
1425.75	99.82
1429.29	167.666
1432.83	154.75
1436.37	214.497
1439.91	261.826
1443.44	245.09
1446.98	261.488
1450.51	199.718
1454.04	197.49
1457.57	226.821
1461.1	267.92
1464.63	218.741
1468.15	188.876
1471.67	214.586
1475.19	234.878
1478.71	243.392
1482.23	226.471
1485.75	155.242
1489.26	61.48
1492.78	37.557
1496.29	24.226
1499.8	14.922
1503.31	50.339
1506.81	48.735
1510.32	183.382
1513.82	143.257
1517.32	0
