Measurement: Raman, 514 nm, ccw, Raman Data Processed
Mineral: Zircon
Rruff sample: R050203
Ideal chemistry: Zr^4+^SiO_4_
Locality: Eastern Thailand
Source: Eric Van Valkenburg
Description: Dark red water-worn single crystal
Measured chemistry: (Zr_0.99_Hf_0.01_)_Î£=1_Si_1.00_O_4_
Pin_id: L01102
Orientation: Laser parallel to c* (0 0 1). Fiducial mark perpendicular to laser is parallel to a [1 0 0]
Raman shift (cm-1)	intensity
124.09	0
127.792	0.338043
131.492	52.1455
135.191	9.64185
138.888	15.822
142.583	11.5764
146.277	19.8422
149.97	17.1873
153.661	37.5404
157.35	50.9666
161.038	55.9137
164.724	43.9572
168.409	19.2492
172.092	19.0711
175.774	34.9669
179.454	5.59082
183.133	32.9594
186.81	56.2521
190.486	57.3208
194.16	130.742
197.832	167.437
201.503	304.171
205.173	730.351
208.841	1493.26
212.507	2744.85
216.172	3177.76
219.835	1554.62
223.497	601.702
227.157	334.943
230.816	172.676
234.473	79.425
238.129	43.1867
241.783	30.9572
245.436	24.7307
249.087	15.5022
252.737	37.2722
256.385	2.9572
260.031	10.8153
263.676	39.5886
267.32	26.3569
270.962	1.48914
274.602	3.76852
278.241	14.0996
281.879	4.58762
285.514	26.5441
289.149	1.11566
292.782	16.2345
296.413	3.41693
300.043	9.09158
303.671	13.8014
307.298	4.54422
310.923	6.30371
314.547	2.91449
318.169	7.12125
321.79	22.2919
325.409	3.58548
329.027	20.5523
332.643	49.6796
336.258	31.7937
339.871	20.8935
343.482	64.9882
347.092	209.075
350.701	307.129
354.308	531.164
357.914	661.166
361.518	479.092
365.12	181.988
368.721	109.855
372.321	89.7266
375.919	78.61
379.515	88.5102
383.111	156.426
386.704	326.356
390.296	577.301
393.886	722.205
397.475	513.181
401.063	272.678
404.649	215.688
408.233	190.729
411.816	208.827
415.398	298.614
418.978	400.647
422.556	641.782
426.133	1248.34
429.709	2974.06
433.282	6780.92
436.855	12112.1
440.426	13883.5
443.995	8246.96
447.563	3569.58
451.13	1778.18
454.695	980.177
458.258	683.38
461.82	509.384
465.38	387.963
468.939	262.393
472.497	229.757
476.053	172.144
479.607	128.345
483.16	101.982
486.712	89.4362
490.262	53.9117
493.81	55.4095
497.357	66.0134
500.902	50.4749
504.446	69.0439
507.989	29.6383
511.53	33.4794
515.069	45.1254
518.607	61.7972
522.144	41.7707
525.679	65.4934
529.213	68.243
532.745	59.0414
536.275	28.8653
539.804	44.7144
543.332	43.9652
546.858	61.9967
550.383	70.211
553.906	51.1844
557.427	84.9739
560.947	80.0035
564.466	18.7787
567.983	52.454
571.499	21.0116
575.013	11.1869
578.526	22.388
582.037	12.6543
585.547	15.9397
589.055	3.2814
592.562	6.65616
596.067	38.0562
599.571	11.4754
603.074	3.06332
606.574	13.5958
610.074	10.8877
613.572	2.00549
617.068	23.5632
620.563	35.1028
624.057	18.9936
627.549	26.5891
631.039	25.215
634.528	48.8871
638.016	42.5725
641.502	87.2733
644.987	66.983
648.47	28.7011
651.951	25.4223
655.432	19.1482
658.91	7.11295
662.388	21.6164
665.863	15.3505
669.338	53.0155
672.81	31.798
676.282	63.5408
679.752	13.6484
683.22	16.068
686.687	5.28183
690.153	22.285
693.617	12.5379
697.079	27.1632
700.54	11.0848
704	12.593
707.458	42.8602
710.915	41.7393
714.37	55.1421
717.824	36.7255
721.276	29.3008
724.727	39.8785
728.176	38.4285
731.624	23.5627
735.07	29.253
738.515	8.3183
741.959	8.88944
745.401	20.1137
748.841	5.51086
752.28	4.93005
755.718	27.3629
759.154	33.6067
762.589	27.9913
766.022	15.3316
769.454	58.8638
772.884	32.0652
776.313	17.3139
779.741	49.2861
783.167	51.325
786.591	54.3873
790.014	50.009
793.436	51.7461
796.856	47.837
800.275	24.1375
803.692	6.96994
807.108	12.0367
810.522	96.8757
813.935	18.0428
817.346	12.0096
820.756	4.65997
824.165	11.3706
827.572	16.0193
830.977	30.0222
834.382	15.8272
837.784	23.8885
841.186	8.56775
844.585	16.3621
847.984	7.94186
851.381	13.6929
854.776	23.3103
858.17	4.86975
861.563	46.4072
864.954	34.9222
868.344	28.4251
871.732	17.9124
875.119	16.3801
878.504	4.19125
881.888	11.7607
885.27	16.023
888.651	19.3678
892.031	32.7383
895.409	26.0676
898.786	41.0309
902.161	23.7088
905.535	13.4683
908.907	21.5975
912.278	26.7138
915.647	29.816
919.015	16.912
922.382	33.8992
925.747	50.1331
929.111	54.2567
932.473	40.3936
935.834	38.5499
939.193	11.5283
942.551	8.91467
945.908	47.128
949.263	70.3569
952.617	60.1857
955.969	103.252
959.32	146.506
962.669	212.059
966.017	389.231
969.363	1586.46
972.708	4787.65
976.052	7017.88
979.394	2574.55
982.735	1095.94
986.074	609.278
989.412	649.464
992.749	797.754
996.084	1281.12
999.417	2691.49
1002.75	11496.9
1006.08	33268.1
1009.41	53917
1012.74	19247
1016.06	4888.56
1019.39	1674.02
1022.71	852.498
1026.04	518.981
1029.36	369.655
1032.67	303.187
1035.99	246.21
1039.31	203.301
1042.62	179.846
1045.94	114.101
1049.25	119.9
1052.56	94.5162
1055.87	150.601
1059.18	72.3957
1062.48	48.9292
1065.79	48.2281
1069.09	68.2378
1072.4	62.0894
1075.7	98.2938
1079	102.883
1082.29	140.801
1085.59	224.719
1088.89	328.656
1092.18	354.618
1095.47	189.601
1098.76	129.616
1102.05	150.649
1105.34	226.701
1108.63	339.771
1111.91	366.864
1115.2	225.992
1118.48	178.149
1121.76	128.324
1125.04	99.5276
1128.32	89.8233
1131.6	155.191
1134.87	88.481
1138.14	156.765
1141.42	166.176
1144.69	256.579
1147.96	279.015
1151.23	168.483
1154.49	114.967
1157.76	49.4685
1161.02	60.008
1164.29	49.5776
1167.55	51.1661
1170.81	34.8068
1174.07	33.5047
1177.32	1.8111
1180.58	16.9003
1183.83	0.346436
1187.08	1.69495
1190.34	19.9761
1193.59	10.2224
1196.84	4.37073
1200.08	1.73096
1203.33	10.2595
1206.57	30.8
1209.82	11.4359
1213.06	10.9266
1216.3	20.2976
1219.54	30.6768
1222.77	45.0639
1226.01	47.4586
1229.24	68.8596
1232.48	44.2639
1235.71	25.6727
1238.94	59.0842
1242.17	88.4969
1245.4	65.917
1248.62	44.3831
1251.85	31.6601
1255.07	43.6157
1258.29	50.3896
1261.51	94.9368
1264.73	91.5617
1267.95	139.47
1271.17	143.428
1274.38	176.986
1277.6	99.5525
1280.81	130.23
1284.02	116.745
1287.23	78.3875
1290.44	87.0236
1293.64	77.2117
1296.85	79.5085
1300.05	28.6469
1303.26	66.3951
1306.46	45.1981
1309.66	32.9113
1312.86	36.9122
1316.05	62.9559
1319.25	26.3701
1322.44	5.60944
1325.63	35.8862
1328.83	42.0948
1332.02	50.3178
1335.2	60.4069
1338.39	81.6375
1341.58	102.007
1344.76	106.807
1347.95	146.22
1351.13	159.644
1354.31	145.048
1357.49	160.221
1360.66	136.53
1363.84	96.7075
1367.02	54.7931
1370.19	77.8097
1373.36	60.7704
1376.53	29.6835
1379.7	56.4984
1382.87	57.0934
1386.04	35.8536
1389.2	37.0021
1392.37	6.18103
1395.53	6.07318
1398.69	41.7037
1401.85	2.78857
1405.01	26.706
1408.16	38.2078
1411.32	31.7307
1414.47	57.1079
1417.63	85.6206
1420.78	85.1459
1423.93	59.9376
1427.08	86.8519
1430.22	78.7336
1433.37	66.8441
1436.52	18.2521
1439.66	7.14899
1442.8	14.4862
1445.94	46.3558
1449.08	44.0187
1452.22	1.48169
