Measurement: Raman, 514 nm, depolarized, Raman Data Processed
Mineral: Zircon
Rruff sample: R050488
Ideal chemistry: Zr^4+^SiO_4_
Locality: Sigulani Village, Tambani Area, Blantyre District, Nyassaland
Source: California Institute of Technology
Description: Brown fragment
Measured chemistry: (Zr_0.99_Hf_0.01_)_Î£=1_Si_1.00_O_4_
Pin_id: L01932
Orientation: Laser parallel to -a* (-1 0 0). Fiducial mark perpendicular to laser is parallel to c [0 0 1]
Raman shift (cm-1)	intensity
121.622	0
125.324	25.2565
129.026	21.4751
132.725	53.772
136.423	34.4933
140.12	73.7798
143.815	35.218
147.508	65.5723
151.2	84.5243
154.891	82.9025
158.58	119.734
162.267	84.0903
165.953	64.9271
169.637	53.0361
173.32	68.0728
177.001	106.074
180.681	75.0661
184.359	52.068
188.035	105.702
191.711	186.663
195.384	291.993
199.056	545.955
202.727	812.085
206.395	1001.19
210.063	891.193
213.729	1209.51
217.393	1550.25
221.056	1362.06
224.717	1386.96
228.377	1335.93
232.035	596.975
235.692	212.089
239.347	103.271
243.001	71.5125
246.653	66.8104
250.304	46.1649
253.953	8.57605
257.6	16.0466
261.246	17.5718
264.891	20.1434
268.534	10.1893
272.175	0.741821
275.815	30.5071
279.454	4.81659
283.091	7.26129
286.726	19.1923
290.36	24.573
293.992	26.0922
297.623	3.20129
301.252	8.54974
304.88	23.3469
308.507	26.1854
312.131	55.0662
315.755	45.9943
319.376	16.9634
322.996	61.9656
326.615	81.001
330.232	86.0823
333.848	79.1938
337.462	145.333
341.075	252.49
344.686	514.649
348.296	1139.82
351.904	2289.19
355.51	3624.35
359.115	4006.52
362.719	2523.74
366.321	898.995
369.921	378.287
373.52	261.616
377.118	163.986
380.714	163.405
384.309	204.867
387.902	218.369
391.493	305.015
395.083	326.588
398.671	293.722
402.258	175.551
405.844	139.768
409.428	156.083
413.01	161.416
416.591	262.962
420.171	318.452
423.749	466.881
427.325	953.771
430.9	2030.89
434.473	3946.76
438.045	6049.18
441.616	6649.19
445.185	4309.84
448.752	1884.92
452.318	899.038
455.883	515.462
459.445	362.69
463.007	288.285
466.567	172.519
470.125	125.327
473.682	135.467
477.238	98.2472
480.792	98.6336
484.344	58.0445
487.895	69.4796
491.445	33.9394
494.992	43.4175
498.539	17.9285
502.084	27.4618
505.627	64.0167
509.169	42.5953
512.71	54.1946
516.249	11.832
519.786	49.5446
523.322	8.1803
526.857	13.8531
530.39	3.61414
533.922	29.0909
537.452	45.8183
540.98	29.5695
544.507	40.3346
548.033	7.11896
551.557	9.07391
555.08	21.6025
558.601	41.4487
562.121	0.691528
565.639	9.16534
569.155	24.0557
572.671	38.1307
576.184	38.7941
579.697	10.7024
583.207	13.7614
586.717	46.6993
590.224	49.5539
593.731	3.21417
597.235	8.96246
600.739	6.06818
604.241	14.8362
607.741	1.13061
611.24	12.0391
614.737	47.8321
618.233	27.6838
621.728	40.6586
625.221	58.5148
628.712	53.6045
632.202	46.4191
635.691	72.427
639.178	64.8289
642.664	73.6372
646.148	91.5883
649.63	73.478
653.112	34.2747
656.591	23.0599
660.069	80.8094
663.546	29.5151
667.022	5.79187
670.495	16.1158
673.968	34.744
677.439	50.3109
680.908	58.1478
684.376	55.7147
687.842	48.4542
691.307	60.1558
694.771	52.6385
698.233	40.0889
701.694	24.6642
705.153	45.8991
708.61	74.2725
712.066	75.6189
715.521	47.9686
718.974	32.2615
722.426	85.5236
725.877	67.7844
729.325	67.043
732.773	39.9775
736.219	29.5469
739.663	17.7404
743.106	8.85541
746.548	75.1301
749.988	4.87024
753.426	51.0275
756.864	23.4761
760.299	56.2859
763.734	85.173
767.166	25.9185
770.598	25.6659
774.028	32.8752
777.456	53.4728
780.883	45.8632
784.308	19.1868
787.732	46.6838
791.155	71.2785
794.576	33.6934
797.996	56.0203
801.414	27.5882
804.831	6.57611
808.246	56.7983
811.66	5.87842
815.072	7.37415
818.483	32.5567
821.893	11.7106
825.301	3.16711
828.707	29.8942
832.112	57.0743
835.516	44.0781
838.918	10.0533
842.319	59.0145
845.718	60.9134
849.116	21.8269
852.513	33.7158
855.908	47.5809
859.301	16.2925
862.693	39.1117
866.084	51.9806
869.473	28.4524
872.861	26.8763
876.247	11.5898
879.632	66.1559
883.015	37.8499
886.397	46.0294
889.778	12.9123
893.157	56.5102
896.535	30.9801
899.911	16.5336
903.286	1.82861
906.659	40.6178
910.031	15.944
913.401	27.4083
916.77	3.87683
920.138	9.11829
923.504	19.4882
926.869	44.9029
930.232	42.2878
933.594	24.6846
936.954	4.62207
940.313	4.26208
943.67	25.566
947.026	11.078
950.381	25.2528
953.734	45.5198
957.086	38.0045
960.436	40.2389
963.785	78.2626
967.133	229.744
970.479	752.229
973.823	1785.45
977.166	2051.95
980.508	729.442
983.848	354.943
987.187	232.448
990.525	297.083
993.861	441.486
997.195	656.037
1000.53	1746.54
1003.86	5762.12
1007.19	14082.6
1010.52	16672.2
1013.85	5763.79
1017.17	1579.02
1020.5	621.663
1023.82	367.072
1027.14	244.481
1030.46	192.438
1033.78	126.076
1037.1	156.919
1040.41	168.938
1043.73	139.343
1047.04	212.99
1050.35	234.171
1053.66	321.976
1056.97	413.716
1060.28	304.604
1063.59	114.514
1066.89	89.5781
1070.19	53.2328
1073.5	51.955
1076.8	151.958
1080.1	130.572
1083.39	194.086
1086.69	359.983
1089.98	395.029
1093.28	313.273
1096.57	189.953
1099.86	129.099
1103.15	114.244
1106.44	217.401
1109.72	304.546
1113.01	322.73
1116.29	219.34
1119.57	146.526
1122.85	107.812
1126.13	108.148
1129.41	4.95691
1132.69	40.2308
1135.96	29.5138
1139.23	60.807
1142.51	124.11
1145.78	255.311
1149.05	233.768
1152.32	105.145
1155.58	85.5483
1158.85	27.9722
1162.11	22.4945
1165.37	4.0542
1168.63	8.59985
1171.89	28.0575
1175.15	16.4404
1178.41	42.0249
1181.66	40.5554
1184.92	44.9913
1188.17	37.1484
1191.42	21.3803
1194.67	5.67139
1197.92	1.2334
1201.16	15.6152
1204.41	27.9995
1207.65	25.3154
1210.9	45.6277
1214.14	9.92053
1217.38	37.2036
1220.62	31.4501
1223.85	29.6957
1227.09	66.9253
1230.32	92.1487
1233.56	18.3702
1236.79	45.5891
1240.02	51.2965
1243.24	20.4266
1246.47	101.956
1249.7	34.4136
1252.92	33.6426
1256.14	4.94739
1259.37	71.4075
1262.59	103.511
1265.81	81.7179
1269.02	150.801
1272.24	142.044
1275.45	105.366
1278.67	96.5941
1281.88	100.904
1285.09	121.368
1288.3	73.4965
1291.51	63.196
1294.71	77.2988
1297.92	76.7299
1301.12	52.2528
1304.32	72.7755
1307.52	103.938
1310.72	111.932
1313.92	1.24561
1317.12	66.8629
1320.31	60.5028
1323.51	30.6744
1326.7	83.0481
1329.89	87.5553
1333.08	60.2028
1336.27	62.2325
1339.45	81.6774
1342.64	80.8407
1345.82	78.17
1349.01	152.149
1352.19	128.25
1355.37	117.182
1358.55	73.0873
1361.72	63.96
1364.9	37.7139
1368.07	106.266
1371.25	31.8182
1374.42	38.0188
1377.59	18.6321
1380.76	13.6284
1383.92	93.8835
1387.09	70.0747
1390.26	73.7676
1393.42	136.584
1396.58	35.4305
1399.74	29.3411
1402.9	110.272
1406.06	43.6233
1409.22	76.5007
1412.37	6.37793
1415.53	2.71069
1418.68	28.6811
1421.83	72.0678
1424.98	56.9414
1428.13	113.557
1431.27	23.6802
1434.42	47.662
1437.56	37.646
1440.71	33.9132
1443.85	0.227051
