Measurement: Raman, 514 nm, depolarized, Raman Data Processed
Mineral: Zoisite
Rruff sample: R050038
Ideal chemistry: Ca_2_Al_3_(Si_2_O_7_)(SiO_4_)O(OH)
Locality: Elf Shooting Creek, Clay County, North Carolina, USA
Source: University of Arizona Mineral Museum
Description: Tan colored fragments of single crystals
Measured chemistry: (Ca_.998_Na_.002_)_2_(Al_.982_Fe^3+^_.018_)_3_(Si_.982_Fe^3+^_.018_)_3_O_12_(OH)
Pin_id: L00073
Orientation: Laser parallel to -b* (0 -1 0). Fiducial mark perpendicular to laser is parallel to c [0 0 1]
Raman shift (cm-1)	intensity
110.174	0
114.351	1204.28
118.527	3902.81
122.701	3814.76
126.873	1633.5
131.042	416.029
135.21	119.844
139.376	575.167
143.539	2198.96
147.701	4788.5
151.861	3439.33
156.018	1220.76
160.174	361.431
164.327	94.847
168.479	26.17
172.628	323.075
176.776	841.996
180.922	1381.49
185.065	2302.57
189.207	3437.11
193.346	3574.99
197.484	2263.73
201.619	1212.2
205.753	476.321
209.884	197.856
214.014	194.118
218.141	56.687
222.267	63.794
226.391	62.548
230.512	105.668
234.632	215.175
238.749	232.671
242.865	97.827
246.979	43.361
251.09	284.5
255.2	1022.39
259.308	1975.39
263.414	2118.99
267.517	1362.23
271.619	599.549
275.719	599.146
279.817	1038.39
283.913	1407.56
288.007	1195.82
292.099	659.429
296.189	553.109
300.277	839.5
304.363	2199.6
308.447	4880.9
312.529	6299.41
316.609	4415.79
320.687	2572.47
324.764	2168.61
328.838	2374.84
332.91	3141.65
336.981	3274.93
341.049	2732.02
345.116	2402.4
349.18	1412.1
353.243	588.701
357.304	286.159
361.362	118.434
365.419	53.5
369.474	108.181
373.527	121.756
377.578	146.244
381.627	111.014
385.674	6.629
389.719	110.223
393.762	281.975
397.804	413.627
401.843	624.019
405.881	1210.51
409.916	2295.86
413.95	3445.98
417.981	5126.82
422.011	5019.97
426.039	3883.22
430.065	4396.6
434.089	4699.48
438.111	3690.82
442.131	2553.06
446.149	1827.6
450.166	1499.99
454.18	1960.52
458.193	1481.36
462.203	616.326
466.212	626.168
470.219	1224.73
474.224	2250.09
478.227	3214.79
482.228	5183.36
486.227	10175.6
490.224	15957.6
494.22	13389.2
498.213	6741.06
502.205	3343.13
506.194	1869.26
510.182	1235.42
514.168	1197.39
518.152	1446.38
522.134	2263.61
526.114	3161.58
530.093	3067.36
534.069	2613.14
538.044	1803.95
542.017	1290.02
545.987	801.02
549.956	534.679
553.923	535.492
557.889	649.419
561.852	1075.09
565.813	2106.59
569.773	3262.69
573.731	2830.1
577.686	1521.61
581.64	680.158
585.593	532.791
589.543	803.691
593.491	2242.62
597.438	2191.22
601.382	801.327
605.325	106.965
609.266	17.336
613.205	28.946
617.142	332.191
621.078	389.846
625.011	621.221
628.943	404.091
632.872	78.139
636.8	93.755
640.726	41.368
644.651	23.467
648.573	294.787
652.494	476.882
656.412	385.257
660.329	432.083
664.244	531.9
668.157	746.493
672.069	1501.99
675.978	2257.41
679.886	2230.79
683.792	1384.13
687.696	923.453
691.598	705.737
695.498	685.968
699.397	315.138
703.293	56.247
707.188	158.281
711.081	31.213
714.972	129.991
718.862	382.605
722.749	443.043
726.635	482.293
730.519	391.351
734.401	260.538
738.281	102.87
742.16	41.31
746.036	94.526
749.911	42.012
753.784	25.951
757.655	95.545
761.525	80.47
765.392	6.521
769.258	73.924
773.122	32.142
776.984	126.123
780.844	79.881
784.703	11.406
788.56	8.445
792.415	8.932
796.268	79.408
800.119	43.529
803.969	40.499
807.816	57.905
811.662	87.792
815.506	89.317
819.349	126.63
823.189	239.768
827.028	422.735
830.865	728.534
834.7	1001.17
838.534	1006.64
842.365	1000.95
846.195	1055.1
850.023	1043.11
853.85	1044.97
857.674	1226.42
861.497	1545.06
865.318	2292.97
869.137	3856.38
872.955	4579.69
876.77	3622.89
880.584	2955.98
884.396	3278.98
888.207	3591.89
892.015	3104.57
895.822	2555.99
899.627	2296.07
903.43	2077.72
907.232	1995.15
911.032	2057.8
914.83	2037.22
918.626	2458.28
922.42	2789.43
926.213	2970.85
930.004	2863.06
933.793	2374.73
937.581	1914.66
941.366	1661.65
945.15	1519.02
948.932	1374.85
952.713	1313.16
956.491	1334.29
960.268	1485.53
964.044	1502.55
967.817	1710.03
971.589	2173.56
975.359	2837.3
979.127	4341.17
982.893	5535.17
986.658	4689.31
990.421	3213.61
994.183	2018.09
997.942	1221.73
1001.7	982.529
1005.46	600.551
1009.21	429.468
1012.96	341.86
1016.71	438.693
1020.46	377.434
1024.21	209.544
1027.96	216.157
1031.7	427.962
1035.44	412.806
1039.18	720.009
1042.92	1010.06
1046.66	1283.74
1050.39	1460.71
1054.13	1419.43
1057.86	2008.03
1061.59	3377.46
1065.32	5796.93
1069.05	9057.12
1072.77	9507.22
1076.49	6957.5
1080.22	5035.84
1083.94	4266.85
1087.65	5367.73
1091.37	6052.61
1095.09	5422.43
1098.8	3154.26
1102.51	1896.46
1106.22	1142
1109.93	750.733
1113.63	460.106
1117.34	483.509
1121.04	405.057
1124.74	199.739
1128.44	172.709
1132.14	103.853
1135.84	174.937
1139.53	93.394
1143.22	31.421
1146.91	51.496
1150.61	62.737
1154.29	157.719
1157.98	114.343
1161.66	53.021
1165.35	55.568
1169.03	32.146
1172.71	37.854
1176.38	228.622
1180.06	153.594
1183.73	116.08
1187.41	23.95
1191.08	4.162
1194.75	84.221
1198.41	16.401
1202.08	90.265
1205.74	19.921
1209.41	49.236
1213.07	88.908
1216.73	24.626
1220.38	40.257
1224.04	127.045
1227.69	2.377
1231.35	148.66
1235	175.212
1238.65	171.225
1242.3	95.47
1245.94	102.405
1249.59	129.22
1253.23	26.312
1256.87	24.741
1260.51	173.433
1264.15	141.184
1267.78	201.579
1271.42	185.563
1275.05	168.2
1278.68	127.963
1282.31	16.036
1285.94	22.072
1289.56	96.631
1293.19	0.794
1296.81	50.522
1300.43	113.639
1304.05	105.367
1307.67	9.183
1311.29	90.476
1314.9	58.498
1318.52	14.044
1322.13	79.144
1325.74	143.103
1329.34	220.114
1332.95	107.968
1336.56	265.196
1340.16	209.312
1343.76	198.406
1347.36	55.03
1350.96	87.411
1354.56	11.257
1358.15	248.287
1361.74	160.935
1365.34	245.662
1368.93	190.249
1372.52	300.246
1376.1	190.981
1379.69	158.292
1383.27	90.342
1386.85	196.061
1390.43	49.313
1394.01	100.517
1397.59	200.292
1401.17	220.954
1404.74	318.632
1408.31	216.319
1411.88	386.855
1415.45	251.587
1419.02	249.973
1422.59	140.463
1426.15	126.021
1429.71	160.053
1433.28	104.331
1436.84	167.84
1440.39	294.107
1443.95	275.805
1447.5	274.426
1451.06	236.084
1454.61	305.383
1458.16	233.093
1461.71	169.404
1465.26	91.382
1468.8	26.671
1472.34	110.544
1475.89	109.574
1479.43	164.912
1482.97	132.905
1486.5	222.787
1490.04	292.687
1493.57	152.677
1497.11	243.331
1500.64	74.857
1504.17	37.994
1507.69	8.14
1511.22	56.56
1514.74	5.11
