Measurement: Raman, 514 nm, depolarized, Raman Data Processed
Mineral: Zoisite
Rruff sample: R050041
Ideal chemistry: Ca_2_Al_3_(Si_2_O_7_)(SiO_4_)O(OH)
Locality: Franklin County, Conway, Massachussetts, USA
Source: University of Arizona Mineral Museum
Description: Tan colored fragment
Measured chemistry: (Ca_.993_Mg_.004_Na_.002_Mn_.001_)_2_(Al_.980_Fe^3+^_.020_)_3_(Si_.986_Fe^3+^_.014_)_3_O_12_(OH)
Pin_id: L00320
Orientation: Laser parallel to b* (0 1 0). Fiducial mark perpendicular to laser is parallel to c [0 0 1]
Raman shift (cm-1)	intensity
107.054	0
109.834	139.768
112.613	744.787
115.391	1257.5
118.168	1496.37
120.944	1431.64
123.72	842.297
126.495	415.531
129.268	237.551
132.041	18.455
134.813	115.705
137.584	151.771
140.355	575.025
143.124	1294.02
145.893	1573.72
148.66	1452.4
151.427	860.305
154.193	347.656
156.958	74.953
159.723	58.275
162.486	16.947
165.249	13.945
168.01	28.24
170.771	263.785
173.531	204.023
176.29	229.781
179.049	341.785
181.806	534.135
184.562	916.77
187.318	1199.67
190.073	1242.85
192.827	646.262
195.58	619.992
198.332	224.047
201.084	218.404
203.834	23.041
206.584	107.918
209.333	86.992
212.081	138.307
214.828	116.197
217.574	39.471
220.32	65.172
223.064	59.074
225.808	13.207
228.551	52.82
231.293	29.006
234.034	64.65
236.774	87.461
239.514	10.514
242.252	62.986
244.99	63.551
247.727	240.215
250.463	368.574
253.198	555.5
255.933	772.393
258.666	929.32
261.399	676.42
264.131	573.711
266.862	221.186
269.592	78.846
272.321	15.863
275.05	293.648
277.777	502.383
280.504	591.588
283.23	801.051
285.955	600.656
288.679	300.305
291.403	109.969
294.125	169.676
296.847	289.432
299.568	668.781
302.288	968.199
305.007	1507.52
307.725	2036.79
310.443	2526.16
313.159	1955.64
315.875	1485.18
318.59	894.836
321.304	824.57
324.018	664.051
326.73	1021.59
329.442	1139.19
332.153	1202.92
334.863	1332.63
337.572	1041.69
340.28	789.604
342.988	769.273
345.694	509.064
348.4	398.984
351.105	369.027
353.809	109.189
356.512	199.471
359.215	169.871
361.916	250.389
364.617	311.016
367.317	281.646
370.016	47.51
372.715	58.398
375.412	229.447
378.109	323.615
380.805	254.879
383.5	56.25
386.194	74.262
388.887	166.285
391.58	257.957
394.271	529.732
396.962	378.154
399.652	412.68
402.341	636.482
405.03	897.781
407.717	1010.12
410.404	1162.56
413.09	1625.1
415.775	1737.73
418.459	1830.51
421.143	1533.4
423.825	1419.86
426.507	1549.52
429.188	1912.75
431.868	1866.08
434.547	1669.52
437.226	1303.05
439.904	1236.67
442.58	1110.37
445.256	754.158
447.932	738.037
450.606	871.994
453.28	868.109
455.952	504.447
458.624	618.664
461.295	323
463.966	120.117
466.635	164.678
469.304	635.395
471.972	986.17
474.639	1091.04
477.305	1401.15
479.97	1746.6
482.635	3010.79
485.298	4290.59
487.961	5696.03
490.624	5581.59
493.285	3787.31
495.945	2353.14
498.605	1589.06
501.264	985.145
503.922	951.338
506.579	667.648
509.236	514.025
511.891	440.477
514.546	707.002
517.2	853.621
519.853	990.326
522.506	1097.09
525.157	1193.37
527.808	1310.25
530.458	1206.11
533.107	833.193
535.756	600.361
538.403	417.799
541.05	335.121
543.696	552.504
546.341	489.949
548.985	526.074
551.629	153.6
554.271	61.16
556.913	343.539
559.554	635.059
562.195	542.859
564.834	600.73
567.473	1138.64
570.111	1176.7
572.748	1224.73
575.384	538.281
578.019	346.816
580.654	164.863
583.288	395.871
585.921	325.637
588.553	624.883
591.185	863.184
593.815	961.301
596.445	809.426
599.074	417.566
601.703	75.066
604.33	15.598
606.957	114.109
609.583	182.266
612.208	142.562
614.832	181.926
617.455	33.996
620.078	292.066
622.7	388.164
625.321	206.719
627.941	322.453
630.561	40.273
633.18	58.02
635.798	108.25
638.415	140.824
641.031	61.152
643.647	238.434
646.261	121.535
648.875	283.133
651.488	293.805
654.101	381.012
656.712	403.922
659.323	61.055
661.933	194.199
664.542	351.078
667.151	568.055
669.758	967.648
672.365	724.902
674.971	1177.96
677.577	925.172
680.181	981.762
682.785	638.301
685.388	254.941
687.99	421.383
690.591	598.5
693.192	834.84
695.791	401.457
698.39	249.5
700.988	525.652
703.586	311.746
706.182	126.375
708.778	302.41
711.373	31.625
713.968	15.805
716.561	509.875
719.154	565.496
721.746	241.051
724.337	106.703
726.927	121.941
729.517	617.281
732.105	612.5
734.693	397.59
737.281	2.605
739.867	27.492
742.453	42.273
745.038	106.957
747.622	261.566
750.205	306.094
752.788	280.551
755.369	114.934
757.95	66.734
760.531	103.43
763.11	207.547
765.689	21.582
768.267	153.43
770.844	535.055
773.42	208.762
775.996	77.641
778.57	243.07
781.144	266.375
783.718	253.457
786.29	200.488
788.862	233.434
791.433	38.895
794.003	93.387
796.572	176.832
799.141	65.324
801.709	26.82
804.276	308.852
806.842	180.75
809.407	67.449
811.972	135.809
814.536	185.594
817.099	236.883
819.662	548.062
822.223	20.82
824.784	40.195
827.345	78.801
829.904	612.043
832.462	232.832
835.02	223.57
837.577	264.266
840.134	344.914
842.689	785.523
845.244	336.09
847.798	56.613
850.351	196.879
852.904	947.281
855.455	867.594
858.006	523.137
860.556	523.961
863.106	954.109
865.655	1559.45
868.202	1555.68
870.75	1756.34
873.296	1156.27
875.842	1126.15
878.386	1225.87
880.93	1415.64
883.474	995.371
886.016	1619.5
888.558	1038.62
891.099	1025.26
893.639	913.125
896.179	741.477
898.718	920.758
901.256	1120.19
903.793	519.609
906.329	808.992
908.865	1148.15
911.4	1146.41
913.934	1075.01
916.468	634.223
919.001	771.398
921.532	1270.6
924.064	1228.73
926.594	1014.04
929.124	915.285
931.653	844.617
934.181	1113.29
936.708	824.773
939.235	1004.1
941.761	1043.43
944.286	535.309
946.811	634.43
949.334	601.395
951.857	585.188
954.379	774.012
956.901	989.98
959.421	546.133
961.941	389.855
964.46	739.547
966.979	779.453
969.496	903.203
972.013	1153.25
974.529	840.879
977.045	1636.66
979.56	2391.39
982.073	1871.84
984.587	1191.84
987.099	1422.86
989.611	1104.43
992.122	685.023
994.632	437.488
997.141	488.008
999.65	477.676
1002.16	848.375
1004.66	303.582
1007.17	162.84
1009.68	711.988
1012.18	421.18
1014.69	200.406
1017.19	549.609
1019.69	778.793
1022.2	438.07
1024.7	587.395
1027.2	296.777
1029.7	696.168
1032.19	715.562
1034.69	444.977
1037.19	74.422
1039.69	473.93
1042.18	1013.59
1044.68	613.426
1047.17	193.469
1049.67	613.605
1052.16	1484.07
1054.65	1004.85
1057.14	1095.89
1059.64	1257.23
1062.13	2049
1064.62	2900.94
1067.1	3452.95
1069.59	3525.13
1072.08	3587.36
1074.57	2639.61
1077.05	2271.93
1079.54	1474.41
1082.02	1796.17
1084.5	2237.46
1086.99	2110.25
1089.47	2341.74
1091.95	2455
1094.43	2378.42
1096.91	1662.31
1099.39	1226.55
1101.87	651.16
1104.35	546.137
1106.82	851.488
1109.3	417.188
1111.78	483.246
1114.25	629.695
1116.72	676.605
1119.2	654.727
1121.67	23.91
1124.14	654.039
1126.61	745.156
1129.08	467.398
1131.55	410.957
1134.02	126.117
1136.49	623.262
1138.96	547.922
1141.42	7.09
1143.89	459.188
1146.36	360.422
1148.82	101.219
1151.28	387.82
