Measurement: Raman, 514 nm, depolarized, Raman Data Processed
Mineral: Zoisite
Rruff sample: R050038
Ideal chemistry: Ca_2_Al_3_(Si_2_O_7_)(SiO_4_)O(OH)
Locality: Elf Shooting Creek, Clay County, North Carolina, USA
Source: University of Arizona Mineral Museum
Description: Tan colored fragments of single crystals
Measured chemistry: (Ca_.998_Na_.002_)_2_(Al_.982_Fe^3+^_.018_)_3_(Si_.982_Fe^3+^_.018_)_3_O_12_(OH)
Pin_id: L00064
Orientation: Laser parallel to a* (1 0 0). Fiducial mark perpendicular to laser is parallel to b [0 1 0]
Raman shift (cm-1)	intensity
108.781	0
112.959	836.488
117.136	3308.45
121.31	4466.24
125.482	2306.54
129.653	537.001
133.821	43.191
137.987	127.624
142.152	917.445
146.314	2990.89
150.474	3353.77
154.633	1653.46
158.789	432.95
162.943	143.021
167.095	193.299
171.246	470.022
175.394	974.771
179.54	1422.18
183.684	2022.22
187.826	3139.47
191.967	3696.15
196.105	2828.59
200.241	1581.94
204.375	848.257
208.507	233.553
212.638	39.304
216.766	63.11
220.892	54.143
225.016	33.739
229.139	39.037
233.259	54.812
237.377	144.121
241.493	168.398
245.608	23.905
249.72	114.238
253.83	596.573
257.939	1266.5
262.045	1378.49
266.15	655.409
270.252	37.003
274.353	3.047
278.451	457.225
282.548	991.765
286.642	1099.04
290.735	924.918
294.826	770.276
298.914	888.587
303.001	2057.44
307.086	4612.49
311.168	7151.16
315.249	5827.27
319.328	3081.18
323.405	1916.35
327.48	1643
331.553	1776.38
335.624	2234.77
339.693	3299.18
343.76	5512.34
347.826	5335.9
351.889	3009.01
355.95	1495.17
360.01	655.375
364.067	357.123
368.123	213.633
372.176	123.066
376.228	76.792
380.277	85.56
384.325	34.628
388.371	100.282
392.415	480.482
396.457	721.202
400.497	742.108
404.535	795.188
408.571	1542.21
412.605	1827.51
416.638	2332.29
420.668	2685.34
424.697	2329.72
428.723	2228.54
432.748	2482.85
436.77	2416.4
440.791	1992.39
444.81	1341.38
448.827	950.557
452.842	970.61
456.855	1156.68
460.867	560.447
464.876	466.447
468.883	1241.98
472.889	2451.05
476.892	3540.68
480.894	4508.33
484.894	8081.89
488.892	14705.6
492.888	15403.7
496.882	8711.56
500.874	4079.6
504.865	2147.78
508.853	1286.93
512.84	1173.96
516.824	1173.87
520.807	1524.79
524.788	2451.31
528.767	2711.28
532.744	1867.93
536.719	1139.55
540.693	580.673
544.664	284.433
548.634	235.134
552.601	361.131
556.567	585.074
560.531	996.274
564.493	1801.74
568.453	2902.74
572.412	3194.42
576.368	1856.13
580.323	968.371
584.275	613.31
588.226	797.307
592.175	1863.53
596.122	3032.58
600.068	1667.42
604.011	549.53
607.952	104.384
611.892	45.116
615.83	92.644
619.766	454.608
623.7	701.938
627.632	597.188
631.563	155.416
635.491	75.404
639.418	177.856
643.343	43.5
647.266	70.985
651.187	255.18
655.106	433.469
659.024	372.839
662.939	439.947
666.853	755.177
670.765	1283.23
674.675	2841.97
678.583	2761.61
682.49	1761.22
686.394	966.831
690.297	781.452
694.198	728.094
698.097	550.757
701.995	329.462
705.89	132.178
709.784	101.847
713.675	142.391
717.565	205.793
721.453	324.059
725.34	242.185
729.224	144.161
733.107	32.973
736.988	41.512
740.867	43.256
744.744	31.493
748.62	59.113
752.493	22.132
756.365	3.461
760.235	129.945
764.103	168.126
767.969	333.917
771.834	387.869
775.697	395.62
779.558	420.215
783.417	373.653
787.274	186.938
791.13	147.479
794.983	158.032
798.835	60.151
802.686	46.169
806.534	39.461
810.38	58.368
814.225	82.958
818.068	19.847
821.909	76.384
825.749	127.752
829.586	215.971
833.422	286.07
837.256	311.051
841.088	344.974
844.919	515.819
848.748	660.611
852.575	908.326
856.4	1405.74
860.223	2030.99
864.045	2890.27
867.864	4519.54
871.682	6099.45
875.499	5099.64
879.313	3309.76
883.126	2749.24
886.937	3078.36
890.746	3121.46
894.553	3059.6
898.359	2981.25
902.163	3080.34
905.965	3174.63
909.765	3240.07
913.564	4038.54
917.361	5597.96
921.156	7727.52
924.949	10407.1
928.74	9956.63
932.53	6526.2
936.318	3795.76
940.104	2445.3
943.889	1674.79
947.672	1393.97
951.453	1236.65
955.232	1021.2
959.01	952.54
962.785	921.234
966.559	970.45
970.332	1193.36
974.102	1670.89
977.871	2750.09
981.638	3660.46
985.404	3721.11
989.167	2496.25
992.929	1478.18
996.689	943.795
1000.45	709.176
1004.2	570.124
1007.96	361.31
1011.71	302.564
1015.46	95.508
1019.21	88.062
1022.96	155.368
1026.71	279.112
1030.45	221.256
1034.19	513.894
1037.94	176.162
1041.68	308.481
1045.41	582.338
1049.15	577.449
1052.88	482.26
1056.62	375.489
1060.35	588.812
1064.08	1082.23
1067.8	1545.9
1071.53	1829.5
1075.25	1563.24
1078.97	1321.11
1082.7	1364.84
1086.41	1709.14
1090.13	2113.44
1093.85	2217.74
1097.56	1421.79
1101.27	995.936
1104.98	800.416
1108.69	545.452
1112.4	320.783
1116.1	196.262
1119.81	133.842
1123.51	59.666
1127.21	5.705
1130.91	116.139
1134.61	75.123
1138.3	81.109
1141.99	87.277
1145.68	4.922
1149.38	44.177
1153.06	57.275
1156.75	3.722
1160.43	61.107
1164.12	86.77
1167.8	35.018
1171.48	71.791
1175.16	6.994
1178.83	7.702
1182.51	48.445
1186.18	155.574
1189.85	17.034
1193.52	148.012
1197.19	18.202
1200.86	195.574
1204.52	109.466
1208.19	193.229
1211.85	57.074
1215.51	200.502
1219.17	165.863
1222.82	137.698
1226.48	251.678
1230.13	66.212
1233.78	62.158
1237.43	45.397
1241.08	172.83
1244.73	190.876
1248.37	183.209
1252.01	255.729
1255.66	178.273
1259.3	210.565
1262.93	92.289
1266.57	83.837
1270.21	244.935
1273.84	115.631
1277.47	185.978
1281.1	156.023
1284.73	261.449
1288.36	159.396
1291.98	123.8
1295.6	1.982
1299.23	63.261
1302.85	84.793
1306.46	106.849
1310.08	69.028
1313.7	25.456
1317.31	156.723
1320.92	111.117
1324.53	6.667
1328.14	32.975
1331.75	11.302
1335.35	33.489
1338.96	121.381
1342.56	189.322
1346.16	184.286
1349.76	288.949
1353.36	313.354
1356.95	177.099
1360.55	141.192
1364.14	125.111
1367.73	20.062
1371.32	30.468
1374.91	38.181
1378.49	126.06
1382.08	186.447
1385.66	260.674
1389.24	285.253
1392.82	351.268
1396.4	277.674
1399.97	172.323
1403.55	140
1407.12	102.998
1410.69	85.565
1414.26	191.551
1417.83	152.908
1421.4	268.959
1424.96	324.979
1428.53	270.537
1432.09	251.305
1435.65	241.547
1439.21	80.558
1442.76	25.047
1446.32	75.796
1449.87	212.336
1453.43	148.162
1456.98	241.438
1460.53	235.833
1464.07	301.232
1467.62	356.593
1471.16	352.777
1474.71	219.153
1478.25	213.628
1481.79	120.353
1485.32	26.54
1488.86	45.507
1492.39	61.176
1495.93	134.93
1499.46	191.104
1502.99	172.202
1506.52	230.292
1510.05	0
