Measurement: Raman, 514 nm, depolarized, Raman Data Processed
Mineral: Zoisite
Rruff sample: R050041
Ideal chemistry: Ca_2_Al_3_(Si_2_O_7_)(SiO_4_)O(OH)
Locality: Franklin County, Conway, Massachussetts, USA
Source: University of Arizona Mineral Museum
Description: Tan colored fragment
Measured chemistry: (Ca_.993_Mg_.004_Na_.002_Mn_.001_)_2_(Al_.980_Fe^3+^_.020_)_3_(Si_.986_Fe^3+^_.014_)_3_O_12_(OH)
Pin_id: M00473
Orientation: Laser parallel to a* (1 0 0). Fiducial mark perpendicular to laser is parallel to b [0 1 0]
Raman shift (cm-1)	intensity
117.8	0
120.589	450.922
123.377	198.141
126.163	7.894
128.949	146.929
131.734	264.971
134.518	236.377
137.301	297.812
140.083	517.113
142.864	992.653
145.644	1473.21
148.423	1687.9
151.201	1436.18
153.979	837.833
156.755	582.362
159.53	269.307
162.305	228.255
165.078	38.856
167.851	170.892
170.623	154.197
173.393	148.645
176.163	344.139
178.932	320.594
181.7	419.002
184.467	619.121
187.233	831.33
189.998	963.98
192.762	1086.98
195.525	830.34
198.288	584.053
201.049	428.068
203.81	331.889
206.569	275.631
209.328	409.439
212.085	623.516
214.842	707.879
217.598	372.477
220.353	186.881
223.107	72.484
225.86	177.918
228.612	173.646
231.363	119.674
234.113	75.996
236.863	132.613
239.611	99.516
242.359	163.473
245.105	198.076
247.851	350.674
250.595	439.705
253.339	570.643
256.082	777.473
258.824	1144.6
261.565	1062.03
264.305	1089.75
267.044	757.746
269.783	696.004
272.52	424.512
275.256	583.271
277.992	722.285
280.726	791.547
283.46	805.215
286.193	875.529
288.925	567.832
291.656	521.508
294.386	346.281
297.115	321.947
299.843	338.34
302.57	299.221
305.296	618.955
308.022	977.021
310.746	1335.53
313.47	1304.44
316.193	993.764
318.914	573.486
321.635	593.535
324.355	493.885
327.074	694.506
329.792	915.391
332.51	1156.52
335.226	1657.88
337.941	1829.47
340.656	2011.27
343.37	2133.28
346.082	2265.49
348.794	1787.87
351.505	1070.41
354.215	563.104
356.924	435.947
359.632	248.939
362.339	97.922
365.046	5.318
367.751	1.307
370.456	27.807
373.159	134.221
375.862	100.584
378.564	176.871
381.265	23.125
383.965	39.32
386.664	75.461
389.362	58.48
392.06	112.574
394.756	476.879
397.451	371.311
400.146	246.002
402.84	150.852
405.533	245.799
408.225	220.576
410.916	405.533
413.606	760.416
416.295	1135.21
418.983	1310.11
421.671	1315.15
424.357	980.389
427.043	882.889
429.728	971.436
432.412	1067.18
435.095	1003.05
437.777	909.051
440.458	995.174
443.138	581.396
445.818	437.746
448.496	434.816
451.174	491.584
453.851	418.828
456.527	283.025
459.202	210.197
461.876	167.494
464.549	94.877
467.221	142.32
469.893	469.854
472.563	717.49
475.233	1055.23
477.902	1522.92
480.57	1734.33
483.237	2293.27
485.903	3971.51
488.568	5360.43
491.232	6758.98
493.896	6307.67
496.558	4346.5
499.22	2495.42
501.881	1604.42
504.541	833.566
507.2	522.854
509.858	482.211
512.515	331.721
515.172	501.32
517.827	480.986
520.482	690.705
523.136	726.424
525.789	1255.17
528.441	1124.62
531.092	1289.32
533.742	977.029
536.391	699.396
539.04	609.223
541.688	241.914
544.334	480.246
546.98	152.871
549.625	315.023
552.269	84.385
554.913	305.238
557.555	250.562
560.197	472.133
562.837	1079.91
565.477	1300.41
568.116	1814.4
570.754	2454.88
573.391	2435.41
576.027	1986.39
578.663	1201.62
581.297	831.871
583.931	542.453
586.564	380.281
589.196	532.943
591.827	575.414
594.457	1036.03
597.086	1051.02
599.715	851.799
602.343	292.406
604.969	24.971
607.595	225.717
610.22	57.086
612.844	102.357
615.468	318.045
618.09	248.436
620.712	428.807
623.332	465.299
625.952	773.461
628.571	473.766
631.189	214.043
633.807	145.707
636.423	35.514
639.039	96.07
641.653	78.736
644.267	98.883
646.88	120.855
649.492	123.18
652.103	270.113
654.714	462.801
657.323	302.428
659.932	284.787
662.54	350.924
665.147	510.385
667.753	920.926
670.358	1062.72
672.963	1344.43
675.566	1923.63
678.169	2372.76
680.771	1961.83
683.372	1310.86
685.972	929.824
688.571	768.758
691.169	337.705
693.767	296.648
696.364	215.592
698.96	94.551
701.555	153.529
704.149	352.492
706.742	81.373
709.335	90.068
711.926	228.594
714.517	66.908
717.107	55.016
719.696	132.846
722.284	10.619
724.872	178.299
727.458	145.953
730.044	113.518
732.629	8.998
735.213	108.32
737.796	215.465
740.378	207.562
742.96	159.023
745.54	305.496
748.12	261.842
750.699	1.922
753.277	154.139
755.854	230.1
758.431	245.967
761.006	161.211
763.581	156.85
766.155	532.344
768.728	230.258
771.3	495.594
773.872	660.836
776.442	425.984
779.012	471.074
781.581	556.098
784.149	461.02
786.716	315.855
789.282	170.742
791.848	61.918
794.413	16.441
796.977	409.84
799.54	136.043
802.102	142.785
804.663	120.727
807.224	94.074
809.783	347.238
812.342	40.293
814.9	216.777
817.457	415.77
820.014	68.23
822.569	90.496
825.124	22.555
827.678	264.477
830.231	336.312
832.783	278.082
835.334	479.777
837.885	441.402
840.435	642.953
842.983	654.438
845.532	615.855
848.079	547.199
850.625	458.473
853.171	809.332
855.715	1010.45
858.259	1271.95
860.803	1460.41
863.345	1502.35
865.886	1873.16
868.427	2837.73
870.967	3341.11
873.506	3361.71
876.044	2898.87
878.581	1853.13
881.118	1483.56
883.653	1635.6
886.188	1811.14
888.722	1782.41
891.255	1656.19
893.788	1446.25
896.319	1386.19
898.85	1314.08
901.38	1702.08
903.909	2017.5
906.438	1637.09
908.965	1976.79
911.492	2136.45
914.018	2473.95
916.543	2723.3
919.067	3492.28
921.59	4631.84
924.113	5861.41
926.635	6320.95
929.156	5980.48
931.676	4639.98
934.195	3649.48
936.714	2628.94
939.231	1568.38
941.748	1537.71
944.264	1335.61
946.78	1492.16
949.294	1361.38
951.808	908.277
954.32	974.891
956.832	1173.38
959.344	964.961
961.854	902.164
964.364	819.254
966.872	911.371
969.38	610.316
971.888	938.078
974.394	946.551
976.9	1651.99
979.404	2321.27
981.908	2970.59
984.411	3022.11
986.914	2462.83
989.415	1862.35
991.916	1451.94
994.416	904.59
996.915	754.73
999.413	624.57
1001.91	694.309
1004.41	263.977
1006.9	16.555
1009.4	23.824
1011.89	113.184
1014.39	251.75
1016.88	188.242
1019.37	129.805
1021.86	158.828
1024.35	297.684
1026.84	253.488
1029.33	15.555
1031.82	394.824
1034.31	264.16
1036.79	56.465
1039.28	132.922
1041.76	552.328
1044.25	811.73
1046.73	831.113
1049.21	670.484
1051.69	839.836
1054.17	1009.19
1056.65	1208.73
1059.13	1318.72
1061.61	1399.15
1064.09	2149.82
1066.57	2845.63
1069.04	3452.42
1071.52	3974.27
1073.99	3516.22
1076.46	2818.22
1078.94	2180.28
1081.41	1752.41
1083.88	1944.64
1086.35	2495.96
1088.82	2698.43
1091.29	2951.11
1093.76	3203.65
1096.22	2245.33
1098.69	1572.46
1101.16	930.496
1103.62	842.738
1106.09	810.117
1108.55	627.848
1111.01	270.762
1113.47	253.883
1115.93	427.145
1118.39	630.496
1120.85	93.91
1123.31	237.375
1125.77	230.965
1128.23	344.574
1130.68	39.211
1133.14	21.707
1135.59	196.539
1138.05	185.652
1140.5	34.184
1142.95	537.375
1145.4	930.867
1147.85	320.855
1150.3	351.359
1152.75	133.68
1155.2	589.332
1157.65	489.309
1160.1	418.625
