Measurement: Raman, 514 nm, depolarized, Raman Data Processed
Mineral: Zoisite
Rruff sample: R050038
Ideal chemistry: Ca_2_Al_3_(Si_2_O_7_)(SiO_4_)O(OH)
Locality: Elf Shooting Creek, Clay County, North Carolina, USA
Source: University of Arizona Mineral Museum
Description: Tan colored fragments of single crystals
Measured chemistry: (Ca_.998_Na_.002_)_2_(Al_.982_Fe^3+^_.018_)_3_(Si_.982_Fe^3+^_.018_)_3_O_12_(OH)
Pin_id: M00498
Orientation: Laser parallel to c* (0 0 1). Fiducial mark perpendicular to laser is parallel to a [1 0 0]
Raman shift (cm-1)	intensity
105.24	0
109.429	3647.11
113.616	2293.14
117.8	1924.89
121.983	1122.32
126.163	786.544
130.342	767.219
134.518	823.951
138.692	1299.57
142.864	1764.58
147.034	1735.85
151.201	924.561
155.367	146.862
159.53	83.513
163.692	48.999
167.851	282.123
172.008	556.339
176.163	657.971
180.316	771.841
184.467	1007.18
188.616	1440.25
192.762	1111.61
196.907	515.609
201.049	244.228
205.189	266.015
209.328	515.029
213.464	444.611
217.598	77.99
221.73	112.578
225.86	155.606
229.988	210.44
234.113	244.097
238.237	71.712
242.359	28.594
246.478	174.396
250.595	439.649
254.711	974.824
258.824	1585.39
262.935	1211.62
267.044	1147.34
271.151	707.021
275.256	921.31
279.359	1064.65
283.46	890.367
287.559	637.54
291.656	318.258
295.75	300.924
299.843	528.349
303.933	1035.23
308.022	1332.48
312.108	1210.61
316.193	828.636
320.275	722.396
324.355	945.134
328.434	1696.25
332.51	2449.2
336.584	2562.08
340.656	3108.74
344.726	3011.03
348.794	1887.77
352.86	991.796
356.924	611.296
360.986	452.021
365.046	314.862
369.104	200.578
373.159	130.703
377.213	81.69
381.265	153.883
385.315	191.638
389.362	498.658
393.408	639.857
397.451	312.852
401.493	124.025
405.533	328.186
409.57	718.752
413.606	1570.94
417.639	2363.64
421.671	2138.32
425.7	1438.97
429.728	1390.95
433.753	1211.63
437.777	954.916
441.798	640.821
445.818	397.959
449.835	434.134
453.851	459.043
457.864	298.25
461.876	322.215
465.885	586.14
469.893	1424.94
473.898	2143.31
477.902	2785.24
481.903	4459.52
485.903	7536.41
489.9	9157.18
493.896	5958.07
497.889	2926.86
501.881	1608.76
505.87	1088.69
509.858	835.543
513.844	787.954
517.827	1041.17
521.809	1534.56
525.789	1880.45
529.766	1522.35
533.742	1230.23
537.716	993.354
541.688	913.396
545.657	776.589
549.625	855.253
553.591	976.103
557.555	1343.94
561.517	2196.72
565.477	3603.03
569.435	4551.67
573.391	3205.12
577.345	1694.78
581.297	856.675
585.248	513.446
589.196	629.937
593.142	1132.33
597.086	770.977
601.029	268.462
604.969	6.193
608.908	67.032
612.844	279.209
616.779	607.378
620.712	1030.62
624.642	1110.81
628.571	602.143
632.498	189.899
636.423	9.458
640.346	84.334
644.267	152.265
648.186	369.161
652.103	496.738
656.019	496.669
659.932	519.437
663.843	684.262
667.753	1228.63
671.66	2052.26
675.566	2776.7
679.47	2249.1
683.372	1240.49
687.271	789.882
691.169	426.792
695.065	252.696
698.96	145.48
702.852	43.528
706.742	44.164
710.631	46.116
714.517	26.608
718.402	10.932
722.284	31.29
726.165	104.297
730.044	20.072
733.921	12.593
737.796	51.218
741.669	67
745.54	81.487
749.41	69.094
753.277	23.299
757.143	38.091
761.006	105.499
764.868	212.944
768.728	197.369
772.586	351.858
776.442	300.156
780.297	277.758
784.149	170.138
787.999	98.811
791.848	16.198
795.695	93.49
799.54	66.235
803.382	142.539
807.224	7.099
811.063	42.204
814.9	55.919
818.736	93.891
822.569	192.438
826.401	242.783
830.231	438.934
834.059	508.897
837.885	705.678
841.709	878.271
845.532	891.676
849.352	884.893
853.171	1130.89
856.988	1606.49
860.803	2064.7
864.616	2642.14
868.427	3710.36
872.236	3972.4
876.044	2952.79
879.849	2549.95
883.653	2639.28
887.455	2734.61
891.255	2557.43
895.054	2374.15
898.85	2621.01
902.645	2820.37
906.438	3264.23
910.229	3720.55
914.018	4436.68
917.805	5775.48
921.59	7744.59
925.374	8713.65
929.156	7082.65
932.936	4521.59
936.714	3153.43
940.49	2575.46
944.264	2138.3
948.037	1737.64
951.808	1607.38
955.577	1415.42
959.344	1397.2
963.109	1471.48
966.872	1517.99
970.634	1799.1
974.394	2518.56
978.152	3535.43
981.908	4191.44
985.663	3238.27
989.415	2082.54
993.166	1351.74
996.915	899.018
1000.66	648.823
1004.41	454.037
1008.15	337.161
1011.89	217.854
1015.63	199.859
1019.37	190.485
1023.11	238.217
1026.84	229.491
1030.57	286.768
1034.31	348.137
1038.03	516.344
1041.76	790.339
1045.49	1047.74
1049.21	1078.35
1052.93	1139.22
1056.65	1571.18
1060.37	2568.13
1064.09	4225.48
1067.8	5959.46
1071.52	5933.15
1075.23	4255.67
1078.94	3187.97
1082.64	3150.48
1086.35	3833.21
1090.05	4581.68
1093.76	3926.12
1097.46	2264.28
1101.16	1387.38
1104.85	836.239
1108.55	576.699
1112.24	513.601
1115.93	316.153
1119.62	292.07
1123.31	268.037
1127	129.455
1130.68	157.659
1134.37	26.756
1138.05	29.965
1141.72	12.728
1145.4	53.09
1149.08	60.55
1152.75	57.35
1156.42	61.732
1160.1	41.122
1163.76	2.909
1167.43	12.312
1171.1	84.821
1174.76	37.283
1178.42	27.373
1182.08	0.685
1185.74	7.507
1189.4	20.938
1193.05	12.104
1196.7	4.07
1200.36	59.646
1204.01	106.426
1207.65	111.173
1211.3	96.793
1214.94	46.991
1218.59	37.936
1222.23	100.741
1225.87	73.401
1229.5	13.917
1233.14	33.089
1236.77	107.657
1240.41	31.748
1244.04	144.832
1247.66	110.115
1251.29	97.771
1254.92	114.752
1258.54	33.365
1262.16	8.23
1265.78	38.164
1269.4	86.389
1273.02	140.841
1276.63	23.134
1280.25	72.274
1283.86	39.995
1287.47	5.567
1291.08	14.407
1294.68	40.395
1298.29	40.966
1301.89	15.43
1305.49	22.029
1309.09	157.748
1312.69	93.475
1316.29	91.964
1319.88	57.99
1323.47	4.441
1327.06	22.713
1330.65	9.637
1334.24	71.721
1337.83	165.364
1341.41	71.935
1344.99	143.689
1348.57	85.595
1352.15	10.457
1355.73	92.362
1359.31	161.49
1362.88	166.909
1366.45	51.646
1370.02	48.69
1373.59	120.121
1377.16	65.974
1380.73	123.017
1384.29	159.527
1387.85	51.253
1391.41	17.761
1394.97	32.583
1398.53	70.72
1402.09	73.832
1405.64	49.737
1409.19	103.212
1412.74	227.148
1416.29	123.029
1419.84	61.72
1423.38	155.562
1426.93	55.444
1430.47	125.225
1434.01	71.501
1437.55	76.296
1441.09	101.274
1444.62	107.646
1448.16	143.172
1451.69	167.486
1455.22	204.287
1458.75	120.365
1462.28	152.373
1465.8	114.696
1469.33	160.967
1472.85	138.629
1476.37	76.76
1479.89	24.128
1483.4	27.493
1486.92	158.141
1490.43	130.707
1493.95	191.29
1497.46	167.898
1500.97	103.144
1504.47	156.551
1507.98	39.4
1511.48	195.5
1514.99	1.344
