Measurement: Raman, 514 nm, depolarized, Raman Data Processed
Mineral: Zoisite
Rruff sample: R050041
Ideal chemistry: Ca_2_Al_3_(Si_2_O_7_)(SiO_4_)O(OH)
Locality: Franklin County, Conway, Massachussetts, USA
Source: University of Arizona Mineral Museum
Description: Tan colored fragment
Measured chemistry: (Ca_.993_Mg_.004_Na_.002_Mn_.001_)_2_(Al_.980_Fe^3+^_.020_)_3_(Si_.986_Fe^3+^_.014_)_3_O_12_(OH)
Pin_id: L00503
Orientation: Laser parallel to -c* (0 0 -1). Fiducial mark perpendicular to laser is parallel to a [1 0 0]
Raman shift (cm-1)	intensity
111.223	0
114.002	374.668
116.78	372.076
119.556	351.002
122.332	370.33
125.107	126.104
127.882	2.801
130.655	40.98
133.427	13.027
136.199	157.176
138.97	322.541
141.74	503.41
144.509	687.682
147.277	560.574
150.044	264.902
152.81	250.537
155.576	287.34
158.341	145.146
161.105	283.846
163.867	123.371
166.63	46.338
169.391	14.666
172.151	13.658
174.911	31.334
177.669	141.627
180.427	175.205
183.184	359.359
185.94	314.07
188.696	509.326
191.45	385.113
194.204	571.391
196.956	447.842
199.708	454.453
202.459	291.246
205.209	388.213
207.958	255.379
210.707	392.965
213.454	280.865
216.201	429.039
218.947	337.48
221.692	286.188
224.436	165.172
227.179	84.449
229.922	214.029
232.663	203.922
235.404	134.121
238.144	364.709
240.883	815.508
243.621	517.381
246.359	308.762
249.095	760.441
251.831	682.414
254.566	534.697
257.299	677.283
260.033	670.16
262.765	503.318
265.496	336.764
268.227	260.49
270.957	364.512
273.685	458.82
276.413	240.15
279.141	289.23
281.867	478.959
284.592	489.088
287.317	169.459
290.041	480.146
292.764	410.717
295.486	242.18
298.207	71.703
300.928	253.799
303.647	276.154
306.366	216.203
309.084	489.143
311.801	352.387
314.517	185.916
317.233	429.775
319.947	233.996
322.661	223
325.374	411.41
328.086	556.447
330.797	600.582
333.508	796.107
336.217	1121.68
338.926	707.086
341.634	783.271
344.341	739.67
347.047	686.273
349.753	533.084
352.457	210.092
355.161	387.293
357.864	274.688
360.566	122.271
363.267	9.955
365.967	178.004
368.667	386.154
371.366	444.486
374.064	233.006
376.761	91.705
379.457	30.59
382.152	99.652
384.847	248.895
387.541	248.312
390.233	437.906
392.926	97.676
395.617	119.246
398.307	359.359
400.997	209.652
403.686	210.148
406.374	310.836
409.061	311.686
411.747	342.693
414.433	703.854
417.117	915.252
419.801	486.891
422.484	568.68
425.166	510.645
427.848	433.793
430.528	456.039
433.208	418.426
435.887	550.949
438.565	343.617
441.242	368.344
443.918	445.242
446.594	580.387
449.269	475.742
451.943	389.344
454.616	523.121
457.288	117.09
459.96	191.211
462.631	535.488
465.3	283.891
467.969	598.41
470.638	505.289
473.305	280.055
475.972	614.973
478.638	985.273
481.303	1077.77
483.967	1525.27
486.63	2313.75
489.293	2269.5
491.954	2188.27
494.615	1604.36
497.275	1000.65
499.935	617.242
502.593	483.98
505.251	430.824
507.908	557.785
510.564	464.848
513.219	72.016
515.873	319.297
518.527	186.688
521.18	644.168
523.832	511.695
526.483	351.535
529.133	187.215
531.783	444.637
534.431	522.617
537.079	380.934
539.727	509.164
542.373	67.488
545.018	255.891
547.663	44.375
550.307	333.137
552.95	58.23
555.592	391.043
558.234	171.516
560.875	40.316
563.514	868.324
566.154	1097.25
568.792	1366.23
571.429	845.27
574.066	824.363
576.702	443.328
579.337	503.449
581.971	545.797
584.605	24.934
587.237	484.348
589.869	213.668
592.5	243.023
595.13	164.449
597.76	38.18
600.389	77.605
603.016	36.523
605.644	35.367
608.27	274.719
610.895	94.66
613.52	14.023
616.144	233.395
618.767	492.777
621.389	67.832
624.011	241.496
626.631	36.559
629.251	105.25
631.87	344.551
634.489	256.16
637.106	118.617
639.723	17.816
642.339	38.973
644.954	318.105
647.568	32.875
650.182	464.793
652.795	224.055
655.407	383.988
658.018	456.121
660.628	684.707
663.238	283.84
665.847	482.352
668.455	480.82
671.062	740.277
673.668	1389.32
676.274	1297.66
678.879	778.371
681.483	526.797
684.086	635
686.689	782.816
689.29	423.469
691.891	81.512
694.491	299.5
697.091	367.434
699.689	394.75
702.287	315.418
704.884	213.207
707.48	210.98
710.076	317.051
712.67	834.68
715.264	232.223
717.857	80.312
720.45	246.93
723.041	154.098
725.632	431.199
728.222	228.27
730.811	244.699
733.4	81.918
735.987	148.457
738.574	224.895
741.16	270.18
743.745	366.43
746.33	412.602
748.913	348.691
751.496	534.695
754.079	398.758
756.66	270.742
759.241	304.559
761.82	360.164
764.399	503.742
766.978	219.152
769.555	234.449
772.132	239.688
774.708	704.848
777.283	585.949
779.857	190.938
782.431	43.648
785.004	438.484
787.576	403.246
790.147	67.301
792.718	459.906
795.288	162.512
797.857	553.473
800.425	127.559
802.992	81.371
805.559	32.32
808.125	375.82
810.69	378.98
813.254	261.852
815.818	104.734
818.381	357.406
820.943	409.996
823.504	442.508
826.065	324.93
828.624	257.262
831.183	199.512
833.741	581.664
836.299	493.723
838.856	94.297
841.412	20.207
843.967	199.082
846.521	820.484
849.075	591.984
851.628	24.453
854.18	235.809
856.731	497.078
859.281	958.602
861.831	989.523
864.38	890.668
866.929	1301.05
869.476	1821.46
872.023	1403.31
874.569	1174.09
877.114	1214.81
879.658	646.074
882.202	905.863
884.745	706.547
887.287	807.621
889.829	898.008
892.369	1105.36
894.909	555.625
897.448	335.844
899.987	705.992
902.524	1016.09
905.061	1136.14
907.597	366.133
910.133	684.945
912.667	823.199
915.201	1500.59
917.734	1490.5
920.267	1819.77
922.798	2309.62
925.329	2499.43
927.859	2699.22
930.388	1958.97
932.917	1478.63
935.445	1475.67
937.972	875.188
940.498	754.668
943.024	905.664
945.548	1085.05
948.072	1212.53
950.596	1121.89
953.118	642.684
955.64	593.051
958.161	720.125
960.681	1151.12
963.201	679.141
965.72	64.914
968.238	593.613
970.755	522.891
973.272	1212.18
975.787	1051.47
978.302	1119.83
980.817	1358.54
983.33	1597.95
985.843	1565.14
988.355	654.523
990.866	515.051
993.377	642.176
995.887	762.109
998.396	352.906
1000.9	24.395
1003.41	283.703
1005.92	81.559
1008.42	179.141
1010.93	90.008
1013.43	559.109
1015.94	338.262
1018.44	32.613
1020.94	36.367
1023.45	285.559
1025.95	584.758
1028.45	16.094
1030.95	166.988
1033.44	242.094
1035.94	351.211
1038.44	460.324
1040.94	29.398
1043.43	668.43
1045.93	987.441
1048.42	1456.46
1050.91	355.609
1053.41	1014.85
1055.9	1354.34
1058.39	1384.18
1060.88	1094.58
1063.37	905.293
1065.86	1736.08
1068.35	2116.97
1070.84	2277.98
1073.32	1829.16
1075.81	1740.71
1078.29	1760.34
1080.78	1091.93
1083.26	1022.26
1085.75	1463.26
1088.23	2051.55
1090.71	2122.89
1093.19	1000.64
1095.67	681.297
1098.15	577.559
1100.63	318.242
1103.11	479.039
1105.59	339.945
1108.06	640.91
1110.54	581.875
1113.01	212.777
1115.49	73.559
1117.96	184.273
1120.43	586.402
1122.91	278.844
1125.38	42.965
1127.85	138.574
1130.32	205.02
1132.79	192.523
1135.26	351.48
1137.72	2.484
1140.19	345.398
1142.66	541.699
1145.12	19.723
1147.59	804.629
1150.05	175.855
1152.52	56.211
