Measurement: Raman, 785 nm, unoriented, Raman Data RAW
Mineral: Abramovite
Rruff sample: R070037
Ideal chemistry: Pb^2+^_2_Sn^4+^In^3+^Bi^3+^S^2-^_7_
Locality: Kudryaviy Volcano, Iturup Island, Kurilian Archipelago, Russia
Source: Michael Scott
Description: Dark gray metallic twisted and distorted fibers in a radiating aggregate, co-type sample.
Raman shift (cm-1)	intensity
137.22	1591.07
140.113	1972.91
143.005	2564.29
145.898	3158.45
148.791	3604.18
151.683	3661.47
154.576	3625.25
157.469	3736.3
160.361	3929.07
163.254	4188.1
166.147	4496.06
169.04	4731.52
171.932	4842.52
174.825	4897.01
177.718	4979.13
180.61	5116.5
183.503	5177.3
186.396	5263.8
189.288	5346.37
192.181	5361.3
195.074	5355.02
197.966	5427.48
200.859	5438.83
203.752	5498.29
206.645	5491.54
209.537	5464.48
212.43	5513.28
215.323	5609.8
218.215	5706.31
221.108	5691.61
224.001	5740.35
226.893	5809.42
229.786	5795.64
232.679	5793.45
235.572	5824.65
238.464	5852.67
241.357	5809.5
244.25	5831.47
247.142	5819.4
250.035	5838.42
252.928	5826.21
255.821	5812.7
258.713	5811.83
261.606	5809.58
264.499	5663.95
267.391	5488.55
270.284	5374.02
273.177	5205.32
276.069	4983.72
278.962	4794.43
281.855	4647.35
284.747	4389.41
287.64	4310.31
290.533	4056.74
293.425	3854.69
296.318	3764.21
299.211	3635.41
302.104	3514.55
304.996	3413.64
307.889	3216.56
310.782	3103.2
313.674	2939.44
316.567	2854.84
319.46	2759.41
322.353	2675.17
325.245	2615.34
328.138	2603.89
331.031	2565.47
333.923	2500.01
336.816	2460.38
339.709	2443.69
342.601	2380.34
345.494	2373.83
348.387	2348.71
351.279	2306.2
354.172	2276.82
357.065	2245.59
359.958	2264.61
362.85	2264.07
365.743	2232.34
368.636	2205.27
371.528	2191.57
374.421	2231.72
377.314	2221.28
380.207	2176.95
383.099	2152.88
385.992	2158.22
388.885	2132.1
391.777	2136.02
394.67	2122.67
397.563	2122.79
400.455	2178.35
403.348	2097.81
406.241	2109.78
409.134	2109.85
412.026	2121.86
414.919	2098.25
417.812	2069.69
420.704	2125.43
423.597	2067.91
426.49	2109.5
429.382	2105.8
432.275	2090.48
435.168	2066.16
438.06	2118.08
440.953	2117.3
443.846	2063.25
446.739	2045.53
449.631	2106.32
452.524	2059.55
455.417	2095.1
458.309	1988.84
461.202	2025.16
464.095	2014.07
466.988	1983.59
469.88	1990.16
472.773	2004.74
475.666	1983.65
478.558	1969.77
481.451	2001.6
484.344	1980.22
487.236	2000.58
490.129	1977.12
493.022	1903.22
495.914	1911.95
498.807	1917.88
501.7	1877.01
504.593	1928.84
507.485	1893.24
510.378	1866.04
513.271	1878.98
516.163	1877.22
519.056	1870.77
521.949	1880.47
524.841	1818.65
527.734	1816.45
530.627	1772.18
533.519	1793.14
536.412	1793.8
539.305	1788.48
542.198	1764.04
545.09	1759.75
547.983	1733.38
550.876	1741.26
553.768	1697.45
556.661	1708.89
559.554	1700.19
562.447	1690.2
565.339	1665.21
568.232	1634.15
571.125	1620.49
574.017	1606.18
576.91	1621.87
579.803	1580.91
582.695	1599.34
585.588	1583.18
588.481	1532.27
591.374	1567.53
594.266	1554.4
597.159	1537.53
600.052	1484.58
602.944	1493.5
605.837	1509.36
608.73	1500.53
611.622	1448.7
614.515	1468.66
617.408	1467.57
620.301	1440
623.193	1456.77
626.086	1401.23
628.979	1432.2
631.871	1423.33
634.764	1412.28
637.657	1423.02
640.549	1436.25
643.442	1419.19
646.335	1401.46
649.227	1400.95
652.12	1361.07
655.013	1391.82
657.906	1398.16
660.798	1370.49
663.691	1382.92
666.584	1372.86
669.476	1366.98
672.369	1356.72
675.262	1352.93
678.154	1336.61
681.047	1347.89
683.94	1363.02
686.833	1368.23
689.725	1343.45
692.618	1322.79
695.511	1329.65
698.403	1355.41
701.296	1356.22
704.189	1324.96
707.082	1323.55
709.974	1344.92
712.867	1301.03
715.76	1290.82
718.652	1316.09
721.545	1321.76
724.438	1320.93
727.33	1332.42
730.223	1292.81
733.116	1327.04
736.008	1320.28
738.901	1310.26
741.794	1305.94
744.687	1296.89
747.579	1292.54
750.472	1318.44
753.365	1302.88
756.257	1256.85
759.15	1277.95
762.043	1249.55
764.935	1262.44
767.828	1242.96
770.721	1274.37
773.614	1248.35
776.506	1270.27
779.399	1229.39
782.292	1234.05
785.184	1241.14
788.077	1273.25
790.97	1255.58
793.862	1230.27
796.755	1288.09
799.648	1237.4
802.54	1209.99
805.433	1213.02
808.326	1219.83
811.219	1232.76
814.111	1248.18
817.004	1233.31
819.897	1217.77
822.789	1232.48
825.682	1232.51
828.575	1233.87
831.467	1199.38
834.36	1189.09
837.253	1253.99
840.146	1164.61
843.038	1219.46
845.931	1211.39
848.824	1222.86
851.716	1172.59
854.609	1199.05
857.502	1175.91
860.394	1181.05
863.287	1177.94
866.18	1183.09
869.073	1203.37
871.965	1176.1
874.858	1181.12
877.751	1169.55
880.643	1199.16
883.536	1185.59
886.429	1154.93
889.322	1187.54
892.214	1151
895.107	1192.08
898	1164.99
900.892	1169.05
903.785	1178.95
906.678	1185.27
909.57	1134.14
912.463	1133
915.356	1169.47
918.249	1147.74
921.141	1130.67
924.034	1157.3
926.927	1142.84
929.819	1136.63
932.712	1142.13
935.605	1194.41
938.497	1172.06
941.39	1142.28
944.283	1152.09
947.176	1189.58
950.068	1126.68
952.961	1165.92
955.854	1159.23
958.746	1141.02
961.639	1160.03
964.532	1177.26
967.424	1157.96
970.317	1199.92
973.21	1182.46
976.102	1164.8
978.995	1134.36
981.888	1130.98
984.78	1157.97
987.673	1134.19
990.566	1102.2
993.459	1118.73
996.351	1143.28
999.244	1108.63
1002.14	1112.22
1005.03	1132.8
1007.92	1121.33
1010.82	1122.64
1013.71	1139.94
1016.6	1114.27
1019.49	1134.78
1022.39	1062.27
1025.28	1108.83
1028.17	1138.65
1031.06	1094.74
1033.96	1102.55
1036.85	1113.06
1039.74	1123.27
1042.63	1090.86
1045.53	1096.51
1048.42	1124.11
1051.31	1125.57
1054.2	1080.85
1057.1	1086.79
1059.99	1094.45
1062.88	1090.02
1065.78	1069.17
1068.67	1113.34
1071.56	1103.37
1074.45	1109.22
1077.35	1084.39
1080.24	1113.02
1083.13	1087.85
1086.03	1130.52
1088.92	1099.11
1091.81	1064.98
1094.7	1096.58
1097.6	1081.72
1100.49	1079.83
1103.38	1067.85
1106.27	1093.01
1109.17	1092.6
1112.06	1049.67
1114.95	1091.56
1117.85	1147.04
1120.74	1121.96
1123.63	1112.43
1126.52	1090.17
1129.42	1059.47
1132.31	1086.15
1135.2	1103.45
1138.09	1123.95
1140.99	1089.9
1143.88	1090.32
1146.77	1100.01
1149.66	1121.04
1152.56	1066.77
1155.45	1097.64
1158.34	1056.02
1161.23	1083.82
1164.13	1081.81
1167.02	1103.38
1169.91	1074.15
1172.81	1099.85
1175.7	1103.23
1178.59	1079.96
1181.48	1043.78
1184.38	1095.65
1187.27	1076.46
1190.16	1083.67
1193.06	1110.11
1195.95	1111.11
1198.84	1075.9
1201.73	1116.38
1204.63	1107.91
1207.52	1100.25
1210.41	1106.74
1213.3	1139.98
1216.2	1064.55
1219.09	1094.16
1221.98	1066.62
1224.88	1098.41
1227.77	1084.07
1230.66	1091.44
1233.55	1104.73
1236.44	1094.8
1239.34	1078.42
1242.23	1091.95
1245.12	1098.5
