Measurement: Raman, 532 nm, unoriented, Raman Data RAW
Mineral: Acanthite
Rruff sample: R080016
Ideal chemistry: Ag^1+^_2_S^2-^
Locality: Imiter mine, Djebel Sarhro, near Quarzazate, Anti Atlas Mountains, Morocco
Source: William W. Pinch
Description: Group of black poorly formed crystals
Raman shift (cm-1)	intensity
113.482	1.58899
116.856	2.93633
120.231	2.55047
123.606	2.21519
126.981	2.07557
130.356	3.67422
133.731	2.72597
137.105	3.18658
140.48	3.00597
143.855	2.75787
147.23	2.79356
150.605	2.81076
153.979	2.57141
157.354	1.98446
160.729	2.71611
164.104	2.13545
167.479	2.00755
170.853	2.74533
174.228	2.10635
177.603	2.51307
180.978	2.69335
184.353	2.46102
187.728	2.35619
191.102	2.45524
194.477	2.67764
197.852	2.46925
201.227	2.23847
204.602	2.5361
207.976	2.03203
211.351	2.30228
214.726	2.39123
218.101	1.84587
221.476	2.30347
224.851	2.69886
228.225	2.28649
231.6	1.98675
234.975	2.11099
238.35	2.00502
241.725	2.34014
245.1	2.26692
248.474	1.81489
251.849	2.1983
255.224	1.9341
258.599	2.55169
261.974	2.10885
265.348	2.20835
268.723	2.04325
272.098	2.31125
275.473	2.18719
278.848	2.33222
282.222	1.88803
285.597	2.25777
288.972	1.80996
292.347	1.8731
295.722	2.23352
299.096	1.79375
302.471	2.21559
305.846	1.97629
309.221	1.67106
312.596	2.13146
315.971	1.79211
319.345	2.0642
322.72	2.13363
326.095	2.02948
329.47	1.44439
332.845	2.04319
336.219	1.97297
339.594	1.75396
342.969	1.84612
346.344	1.81594
349.719	1.75279
353.094	1.52177
356.468	1.62939
359.843	1.67116
363.218	1.77222
366.593	1.65808
369.968	1.87333
373.342	1.63589
376.717	1.75759
380.092	1.86129
383.467	1.94426
386.842	1.63071
390.217	1.71436
393.591	1.77652
396.966	1.59976
400.341	1.57197
403.716	1.53598
407.091	1.88951
410.465	1.55433
413.84	1.69331
417.215	1.80149
420.59	2.06975
423.965	1.86721
427.339	1.62422
430.714	1.66957
434.089	1.62084
437.464	1.6829
440.839	1.74458
444.214	1.74807
447.588	1.98601
450.963	1.57624
454.338	1.23765
457.713	1.8299
461.088	1.65297
464.462	1.67861
467.837	1.90862
471.212	1.64523
474.587	2.08149
477.962	1.40585
481.337	1.29963
484.711	1.49918
488.086	1.35084
491.461	1.41674
494.836	1.30854
498.211	1.55213
501.586	1.8234
504.96	1.50428
508.335	1.48972
511.71	1.18048
515.085	1.62735
518.46	1.61392
521.834	1.78111
525.209	1.41677
528.584	1.51306
531.959	1.68998
535.334	1.63007
538.708	1.17549
542.083	1.45487
545.458	1.91518
548.833	1.35058
552.208	1.60545
555.582	1.70392
558.957	1.15793
562.332	1.26292
565.707	1.17403
569.082	1.50198
572.457	1.26918
575.831	1.62646
579.206	1.37096
582.581	1.49147
585.956	1.4993
589.331	1.26311
592.706	1.2149
596.08	1.56081
599.455	1.57926
602.83	1.2027
606.205	1.19934
609.58	1.47858
612.954	1.62453
616.329	1.45449
619.704	1.10986
623.079	1.49012
626.454	1.42493
629.828	1.30913
633.203	1.14942
636.578	1.37621
639.953	1.45107
643.328	1.18857
646.703	1.20171
650.077	1.44882
653.452	1.50377
656.827	0.921399
660.202	1.68054
663.577	1.51031
666.952	1.38752
670.326	1.59545
673.701	1.25994
677.076	1.48328
680.451	1.57274
683.826	1.54012
687.2	1.3432
690.575	1.48898
693.95	1.31052
697.325	0.727528
700.7	1.67575
704.074	1.21328
707.449	1.17605
710.824	1.29279
714.199	1.48406
717.574	1.38403
720.948	1.49489
724.323	1.2064
727.698	1.26072
731.073	1.68563
734.448	1.10788
737.823	1.45446
741.197	1.15643
744.572	1.02982
747.947	1.09215
751.322	1.39648
754.697	1.48423
758.072	1.08476
761.446	0.993815
764.821	1.33444
768.196	1.51741
771.571	1.4365
774.946	0.887779
778.32	1.3735
781.695	1.02928
785.07	1.18193
788.445	0.648072
791.82	1.34507
795.194	1.16994
798.569	0.88669
801.944	0.810426
805.319	1.09934
808.694	1.29898
812.068	1.23264
815.443	1.27317
818.818	1.22249
822.193	1.32434
825.568	1.08742
828.943	1.15948
832.317	1.27574
835.692	1.72957
839.067	1.24126
842.442	1.3745
845.817	1.27615
849.192	1.23191
852.566	1.22831
855.941	1.15355
859.316	1.25584
862.691	1.2259
866.066	1.72277
869.44	1.23342
872.815	1.1391
876.19	1.3819
879.565	1.37944
882.94	1.31518
886.314	1.04725
889.689	1.35026
893.064	1.06381
896.439	1.00242
899.814	1.36053
903.189	1.01024
906.563	1.28329
909.938	1.04628
913.313	1.22199
916.688	1.10468
920.063	1.29484
923.438	1.24363
926.812	1.32253
930.187	1.26099
933.562	1.1912
936.937	1.44858
940.312	1.09092
943.686	0.971279
947.061	1.10233
950.436	1.48328
953.811	1.21925
957.186	1.25405
960.56	1.28908
963.935	1.17222
967.31	1.26425
970.685	0.973897
974.06	1.30545
977.434	0.984479
980.809	1.12002
984.184	1.0466
987.559	1.29449
990.934	0.845024
994.309	1.05317
997.683	1.43683
1001.06	1.14376
1004.43	1.03475
1007.81	0.983474
1011.18	1.15904
1014.56	1.3772
1017.93	0.98553
1021.31	0.868252
1024.68	0.783473
1028.06	1.55361
1031.43	1.34515
1034.81	1.30618
1038.18	1.19232
1041.56	1.28876
1044.93	1.25862
1048.31	1.59184
1051.68	0.979202
1055.06	1.18388
1058.43	0.620637
1061.81	0.819044
1065.18	1.29437
1068.56	0.714829
1071.93	0.899943
1075.3	0.945509
1078.68	1.19701
1082.05	1.04403
1085.43	1.16261
1088.8	1.10693
1092.18	1.11074
1095.55	1.26742
1098.93	1.17675
1102.3	1.15735
1105.68	1.25115
1109.05	0.963889
1112.43	1.23973
1115.8	1.28534
1119.18	0.873238
1122.55	1.42494
1125.93	0.989283
1129.3	1.0732
1132.68	1.13993
1136.05	0.933898
1139.43	1.06434
1142.8	1.27832
1146.17	1.0499
1149.55	1.31793
1152.92	1.16143
1156.3	0.906304
1159.67	1.02493
1163.05	1.09366
1166.42	1.0849
1169.8	0.977738
1173.17	1.08895
1176.55	1.27328
1179.92	1.07061
1183.3	1.27295
1186.67	1.06242
1190.05	1.10019
1193.42	1.35024
1196.8	0.960495
1200.17	1.11177
1203.55	0.910694
1206.92	0.881776
1210.3	1.20295
1213.67	0.978526
1217.05	0.89059
1220.42	1.12792
1223.8	1.14678
1227.17	1.21947
1230.55	0.875695
1233.92	1.1026
1237.3	1.10587
1240.67	1.04396
1244.05	0.905256
1247.42	0.935329
1250.8	1.11203
1254.17	1.09117
1257.54	0.954889
1260.92	0.720021
1264.29	0.813333
1267.67	1.0531
1271.04	0.706436
1274.42	0.853056
1277.79	0.987302
1281.17	0.614892
1284.54	0.428422
1287.92	0.786805
1291.29	0.988923
1294.67	0.732857
1298.04	0.240925
1301.42	0.654292
1304.79	0.673735
