Measurement: Raman, 780 nm, unoriented, Raman Data RAW
Mineral: Acanthite
Rruff sample: R080016
Ideal chemistry: Ag^1+^_2_S^2-^
Locality: Imiter mine, Djebel Sarhro, near Quarzazate, Anti Atlas Mountains, Morocco
Source: William W. Pinch
Description: Group of black poorly formed crystals
Raman shift (cm-1)	intensity
112.773	2.36404
116.147	2.64649
119.522	2.68272
122.897	3.01746
126.272	2.55957
129.647	2.83584
133.022	2.27054
136.396	2.61434
139.771	2.51447
143.146	2.58685
146.521	2.94847
149.895	2.71604
153.27	2.33099
156.645	2.7013
160.02	2.55275
163.395	2.14611
166.77	2.49781
170.144	2.76622
173.519	2.73848
176.894	2.42287
180.269	2.61154
183.644	2.65839
187.018	2.42467
190.393	2.45744
193.768	2.65072
197.143	2.46818
200.518	2.19926
203.893	2.46216
207.267	2.26512
210.642	2.11885
214.017	2.33813
217.392	2.19722
220.767	2.15475
224.142	2.62614
227.516	2.15646
230.891	2.23233
234.266	2.40805
237.641	1.95915
241.016	1.84774
244.39	2.24515
247.765	2.12434
251.14	1.99498
254.515	2.23553
257.89	2.23099
261.264	1.87356
264.639	2.0711
268.014	1.95705
271.389	1.85932
274.764	1.91517
278.139	1.61644
281.513	1.79287
284.888	1.88455
288.263	1.73153
291.638	1.52442
295.013	1.69528
298.387	1.55518
301.762	1.88555
305.137	1.47083
308.512	1.78371
311.887	1.3447
315.262	1.69485
318.636	1.5027
322.011	1.6532
325.386	1.50383
328.761	1.80591
332.136	1.3921
335.51	1.33192
338.885	1.48971
342.26	1.5814
345.635	1.52208
349.01	1.49435
352.385	1.75964
355.759	1.61968
359.134	1.45949
362.509	1.2261
365.884	1.2935
369.259	1.22898
372.633	1.14447
376.008	1.4124
379.383	1.58109
382.758	1.4847
386.133	1.50726
389.507	1.17688
392.882	1.16052
396.257	1.38473
399.632	1.22383
403.007	1.35342
406.382	1.24554
409.756	1.53428
413.131	1.55731
416.506	1.27136
419.881	1.52979
423.256	1.39562
426.63	1.20588
430.005	1.49444
433.38	1.24033
436.755	1.33863
440.13	1.37881
443.505	1.12049
446.879	1.43674
450.254	1.53295
453.629	1.15895
457.004	1.34123
460.379	1.13413
463.753	1.10896
467.128	1.31712
470.503	1.27177
473.878	1.4001
477.253	1.12284
480.627	0.891511
484.002	1.29676
487.377	1.01754
490.752	1.11864
494.127	1.11034
497.502	1.16257
500.876	1.52233
504.251	1.29068
507.626	1.09865
511.001	0.796295
514.376	1.42727
517.75	1.09828
521.125	1.49362
524.5	1.14515
527.875	0.991042
531.25	0.966387
534.625	1.26557
537.999	0.667249
541.374	1.14215
544.749	1.48564
548.124	1.21767
551.499	1.07634
554.873	1.05286
558.248	0.785665
561.623	0.776823
564.998	1.1794
568.373	1.29344
571.747	1.13772
575.122	1.10551
578.497	0.848556
581.872	0.847412
585.247	0.954553
588.621	1.02241
591.996	1.05863
595.371	0.918551
598.746	1.39443
602.121	1.27677
605.496	0.706813
608.87	0.882342
612.245	0.879312
615.62	0.913822
618.995	1.03381
622.37	0.987154
625.745	0.910332
629.119	0.735401
632.494	0.598236
635.869	0.84292
639.244	1.077
642.619	0.995172
645.993	1.22824
649.368	1.08316
652.743	1.12112
656.118	1.07225
659.493	0.722566
662.867	1.44557
666.242	0.80197
669.617	0.94125
672.992	0.862389
676.367	0.978186
679.742	1.12487
683.116	1.10644
686.491	0.935897
689.866	1.03056
693.241	0.688893
696.616	1.05305
699.99	0.933009
703.365	0.663715
706.74	0.675524
710.115	1.10567
713.49	0.776952
716.865	0.921887
720.239	1.07222
723.614	0.866501
726.989	1.00345
730.364	0.71891
733.739	1.0596
737.113	0.812999
740.488	0.852437
743.863	0.811204
747.238	1.19436
750.613	0.953087
753.987	0.680538
757.362	0.709895
760.737	1.03292
764.112	1.28957
767.487	1.28083
770.862	0.655361
774.236	1.32508
777.611	0.916016
780.986	0.957683
784.361	0.655143
787.736	1.06143
791.111	0.658739
794.485	0.461273
797.86	0.844812
801.235	0.954029
804.61	0.897306
807.985	1.03426
811.359	0.965326
814.734	0.984717
818.109	0.975432
821.484	0.907045
824.859	0.818108
828.234	0.587939
831.608	0.865681
834.983	0.81686
838.358	0.903686
841.733	0.846517
845.107	0.866201
848.482	0.787816
851.857	0.765628
855.232	0.686979
858.607	1.14389
861.982	0.815266
865.356	0.582235
868.731	1.00796
872.106	0.927769
875.481	0.827701
878.856	0.705906
882.231	1.03216
885.605	0.613751
888.98	0.812625
892.355	0.924792
895.73	0.640137
899.105	1.11446
902.479	0.895402
905.854	0.85416
909.229	0.569128
912.604	0.951495
915.979	0.735548
919.354	0.934687
922.728	0.843407
926.103	0.789182
929.478	1.14193
932.853	0.699163
936.227	0.76273
939.602	0.593086
942.977	0.805392
946.352	0.945284
949.727	0.754861
953.102	0.7054
956.476	0.893552
959.851	0.830022
963.226	0.524785
966.601	0.749746
969.976	0.787429
973.351	1.03829
976.725	1.00464
980.1	0.747372
983.475	0.939763
986.85	0.655039
990.225	0.957722
993.599	0.369236
996.974	0.471758
1000.35	0.803969
1003.72	1.01091
1007.1	0.896378
1010.47	0.88852
1013.85	0.589528
1017.22	0.858311
1020.6	0.408902
1023.97	0.696586
1027.35	0.641177
1030.72	0.785407
1034.1	0.762848
1037.47	1.02328
1040.85	0.434305
1044.22	0.371793
1047.6	0.402377
1050.97	0.569675
1054.35	0.929232
1057.72	0.362995
1061.1	0.394358
1064.47	0.755857
1067.85	0.591995
1071.22	0.491509
1074.6	0.937572
1077.97	0.388821
1081.35	0.730266
1084.72	0.866539
1088.09	0.906716
1091.47	0.625866
1094.84	0.780632
1098.22	0.671142
1101.59	0.468021
1104.97	1.0198
1108.34	0.887492
1111.72	0.685485
1115.09	0.606798
1118.47	0.859788
1121.84	0.949638
1125.22	0.718568
1128.59	0.639246
1131.97	0.560647
1135.34	0.748472
1138.72	0.300445
1142.09	0.496732
1145.47	0.88571
1148.84	0.816417
1152.22	0.627782
1155.59	0.678442
1158.96	0.715457
1162.34	0.71385
1165.71	0.504897
1169.09	0.845029
1172.46	0.286705
1175.84	0.45017
1179.21	0.672634
1182.59	1.01069
1185.96	0.522647
1189.34	0.866796
1192.71	1.01189
1196.09	0.565417
1199.46	0.544844
1202.84	0.492558
1206.21	0.679856
1209.59	0.543962
1212.96	0.570739
1216.34	0.441941
1219.71	0.742852
1223.09	0.365199
1226.46	0.779652
1229.84	0.815048
1233.21	0.497105
1236.59	0.651261
1239.96	0.275504
1243.34	0.670931
1246.71	0.785152
1250.09	0.551373
1253.46	0.4872
1256.84	0.307427
1260.21	0.410961
1263.59	0.36126
1266.96	0.222027
1270.33	0.520383
1273.71	0.465893
1277.08	0.575704
1280.46	-0.13086
1283.83	0.425481
1287.21	0.318352
