Measurement: Raman, 785 nm, unoriented, Raman Data RAW
Mineral: Actinolite
Rruff sample: X050001
Ideal chemistry: Ca_2_(Mg_4.5-2.5_Fe^2+^_0.5-2.5_)Si_8_O_22_(OH)_2_
Locality: Siberia, Russia
Source: George R. Rossman
Description: var. Nephrite
Raman shift (cm-1)	intensity
206	0
209	60.372
212	115.467
215	193.028
218	367.855
221	656.857
224	675.538
227	365.808
230	262.493
233	182.12
236	41.854
239	12.265
242	17.979
245	75.733
248	121.125
251	111.298
254	60.308
257	30.812
260	31.192
263	34.381
266	21.903
269	3.71
272	6.131
275	15.187
278	18.593
281	14.74
284	4.613
287	10.289
290	16.644
293	17.351
296	18.662
299	30.389
302	42.885
305	37.659
308	11.272
311	0.155
314	7.952
317	6.195
320	13.618
323	30.06
326	34.631
329	62.037
332	89.13
335	91.469
338	98.784
341	134.813
344	156.511
347	167.234
350	176.807
353	177.328
356	150.395
359	138.571
362	157.965
365	223.526
368	334.304
371	340.828
374	250.031
377	179.905
380	138.902
383	116.812
386	147.993
389	226.534
392	354.256
395	327.573
398	188.012
401	114.424
404	87.993
407	102.495
410	132.384
413	167.943
416	174.946
419	136.091
422	95.587
425	74.096
428	60.734
431	65.103
434	96.328
437	113.472
440	84.623
443	68.812
446	53.914
449	57.132
452	54.771
455	48.993
458	51.954
461	39.086
464	39.548
467	32.948
470	30.628
473	25.253
476	21.57
479	26.645
482	26.317
485	27.385
488	24.833
491	26.285
494	11.37
497	4.721
500	2.345
503	2.118
506	6.565
509	3.062
512	14.707
515	27.135
518	17.592
521	25.222
524	29.029
527	51.127
530	46.62
533	33.047
536	11.415
539	4.332
542	5.191
545	4.312
548	3.381
551	6.17
554	3.609
557	6.889
560	2.932
563	3.464
566	3.885
569	8.255
572	14.07
575	12.282
578	19.642
581	18.54
584	17.414
587	21.375
590	18.422
593	13.455
596	10.678
599	14.181
602	5.721
605	9.434
608	0.958
611	2.001
614	3.946
617	2.492
620	1.303
623	7.695
626	4.118
629	5.142
632	4.066
635	13.666
638	24.406
641	33.795
644	52.726
647	83.402
650	125.715
653	159.751
656	170.238
659	193.643
662	261.487
665	421.268
668	769.231
671	1293.23
674	1435.02
677	1024.01
680	563.83
683	321.311
686	228.125
689	187.386
692	148.507
695	111.427
698	87.121
701	70.908
704	61.562
707	54.114
710	45.312
713	43.094
716	40.202
719	38.628
722	36.814
725	36.091
728	30.759
731	33.045
734	37.266
737	46.959
740	45.217
743	41.302
746	41.21
749	43.604
752	31.361
755	21.951
758	14.681
761	9.044
764	3.844
767	3.719
770	1.99
773	2.484
776	2.114
779	2.108
782	5.166
785	0.753
788	7.242
791	7.832
794	10.62
797	11.354
800	10.568
803	1.893
806	5.345
809	5.008
812	7.404
815	5.256
818	8.013
821	6.07
824	7.229
827	8.638
830	10.801
833	7.387
836	7.187
839	3.08
842	0.507
845	0.502
848	3.297
851	4.727
854	1.922
857	1.267
860	7.189
863	0.391
866	1.11
869	3.095
872	2.716
875	0.758
878	0.743
881	0.424
884	0.154
887	1.844
890	2.465
893	4.79
896	1.128
899	0.332
902	3.218
905	9.34
908	4.426
911	0.094
914	2.35
917	7.581
920	25.832
923	48.887
926	88.149
929	118.432
932	102.173
935	69.323
938	43.842
941	39.909
944	46.614
947	52.064
950	34.242
953	26.134
956	18.415
959	6.784
962	4.417
965	6.921
968	3.475
971	5.674
974	6.444
977	2.49
980	6.756
983	5.147
986	4.371
989	5.16
992	3.699
995	6.089
998	9.166
1001	10.903
1004	12.72
1007	14.479
1010	19.897
1013	25.462
1016	39.649
1019	59.34
1022	74.054
1025	111.043
1028	147.959
1031	114.042
1034	69.416
1037	41.994
1040	29.212
1043	34.928
1046	43.561
1049	69.42
1052	132.8
1055	240.728
1058	308.788
1061	255.29
1064	165.774
1067	119.704
1070	81.79
1073	48.82
1076	30.099
1079	16.924
1082	10.19
1085	5.96
1088	5.45
1091	6.387
1094	2.493
1097	0.955
1100	3.858
1103	4.645
1106	2.292
1109	2.284
1112	2.342
1115	7.282
1118	2.885
1121	2.052
1124	0.085
1127	4.095
1130	7.564
1133	8.719
1136	6.823
1139	4.805
1142	1.678
1145	1.552
1148	4.612
1151	2.53
1154	4.523
1157	4.534
1160	1.531
1163	1.82
1166	8.331
1169	8.539
1172	4.226
1175	4.455
1178	4.213
1181	2.186
1184	9.305
1187	11.926
1190	5.943
1193	5.942
1196	5.937
1199	3.903
1202	9.915
1205	3.194
1208	4.743
1211	3.816
1214	0.336
1217	8.844
1220	4.06
1223	9.037
1226	3.813
1229	4.513
1232	0.056
1235	3.262
1238	1.877
1241	2.08
1244	1.922
1247	4.457
1250	1.57
1253	0.577
1256	0.112
1259	3.871
1262	5.709
1265	0.875
1268	8.857
1271	1.235
1274	0.565
1277	4.208
1280	7.561
1283	3.101
1286	5.201
1289	9.004
1292	11.118
1295	7.578
1298	4.421
1301	2.575
1304	5.545
1307	8.448
1310	1.631
1313	8.117
1316	8.397
1319	9.7
1322	9.32
1325	5.591
1328	1.69
1331	4.831
1334	12.042
1337	1.817
1340	1.402
1343	0.47
1346	3.959
