Measurement: Raman, 780 nm, unoriented, Raman Data Processed
Mineral: Adanite
Rruff sample: R190033
Ideal chemistry: Pb^2+^_2_(Te^4+^O_3_)(S^6+^O_4_)
Locality: Tombstone, Cochise County, Arizona, USA
Source: John Callahan
Description: White massive crystalline aggregates on small euhedral jarosite crystals coating the surface of the matrix
Measured chemistry: Pb_2.02_(Te_1.01_O_3_)(S_0.99_O_4_)
Raman shift (cm-1)	intensity
87.582	0
90.9569	164.329
94.3317	268.722
97.7065	178.486
101.081	105.933
104.456	45.382
107.831	6.89313
111.206	12.1153
114.581	44.7553
117.955	37.0977
121.33	43.4467
124.705	46.6603
128.08	33.5411
131.455	28.6047
134.829	27.6068
138.204	49.0734
141.579	78.2747
144.954	90.0047
148.329	133.495
151.704	127.43
155.078	66.3713
158.453	20.5244
161.828	8.20935
165.203	3.83508
168.578	9.6579
171.952	1.78879
175.327	3.03503
178.702	14.5562
182.077	22.4731
185.452	30.5291
188.827	40.3492
192.201	39.6134
195.576	46.6404
198.951	59.5274
202.326	75.0621
205.701	89.3718
209.076	107.123
212.45	123.231
215.825	149.965
219.2	184.598
222.575	207.843
225.95	186.116
229.324	150.519
232.699	147.195
236.074	155.63
239.449	172.319
242.824	202.525
246.198	236.929
249.573	263.385
252.948	306.344
256.323	354.453
259.698	377.435
263.073	354.395
266.447	285.337
269.822	207.818
273.197	150.38
276.572	105.125
279.947	62.4919
283.322	31.451
286.696	20.3613
290.071	4.77887
293.446	4.65765
296.821	12.1237
300.196	7.65601
303.57	9.49536
306.945	0.647766
310.32	11.8586
313.695	35.5761
317.07	54.8027
320.445	85.78
323.819	112.697
327.194	144.377
330.569	163.577
333.944	167.433
337.319	160.442
340.693	152.561
344.068	151.694
347.443	154.071
350.818	152.513
354.193	150.956
357.567	130.491
360.942	115.948
364.317	108.307
367.692	128.762
371.067	124.53
374.442	124.925
377.816	126.502
381.191	134.8
384.566	128.63
387.941	95.7324
391.316	79.2773
394.69	67.5729
398.065	86.9264
401.44	110.864
404.815	150.677
408.19	191.401
411.565	179.164
414.939	138.517
418.314	104.365
421.689	78.4171
425.064	83.6246
428.439	100.573
431.813	152.843
435.188	149.772
438.563	91.3193
441.938	99.5134
445.313	139.948
448.688	201.558
452.062	119.913
455.437	52.2861
458.812	21.4714
462.187	4.25629
465.562	3.89832
468.937	3.78027
472.311	6.99182
475.686	6.90295
479.061	0.814758
482.436	3.23083
485.81	1.50616
489.185	2.00757
492.56	7.6131
495.935	7.47803
499.31	8.26666
502.685	10.6483
506.059	9.76288
509.434	3.05511
512.809	2.16803
516.184	1.78967
519.559	4.38751
522.933	0.162109
526.308	8.82678
529.683	1.79309
533.058	1.68665
536.433	3.7829
539.808	4.30554
543.182	7.58221
546.557	1.39621
549.932	7.15231
553.307	9.20123
556.682	12.266
560.057	20.155
563.431	11.4511
566.806	14.1568
570.181	12.2949
573.556	17.7791
576.931	17.164
580.305	18.0234
583.68	17.9185
587.055	21.3
590.43	34.2792
593.805	50.9859
597.18	27.4384
600.554	34.8407
603.929	68.8876
607.304	130.128
610.679	93.2938
614.054	20.9742
617.428	2.51651
620.803	20.5273
624.178	44.1976
627.553	49.6303
630.928	45.7306
634.303	37.1638
637.677	28.7147
641.052	27.1195
644.427	35.8698
647.802	39.1893
651.177	47.7712
654.552	51.8246
657.926	50.4116
661.301	43.239
664.676	19.7824
668.051	4.26572
671.426	0.402985
674.8	4.4415
678.175	1.37683
681.55	1.34702
684.925	0.7771
688.3	6.1539
691.674	11.9637
695.049	16.0426
698.424	19.4469
701.799	23.7142
705.174	37.5086
708.548	53.2116
711.923	81.9685
715.298	136.592
718.673	217.863
722.048	347.413
725.423	501.637
728.797	712.176
732.172	912.343
735.547	944.3
738.922	706.335
742.297	419.156
745.672	237.883
749.046	132.37
752.421	84.9814
755.796	53.3223
759.171	28.8607
762.546	22.861
765.92	7.61481
769.295	6.59283
772.67	5.55914
776.045	3.34994
779.42	0.514282
782.795	1.99695
786.169	3.35858
789.544	2.04922
792.919	4.71741
796.294	1.5191
799.669	0.140137
803.043	4.10101
806.418	0.66568
809.793	4.17236
813.168	7.77728
816.543	3.13937
819.918	6.93475
823.292	8.12427
826.667	8.43179
830.042	10.0035
833.417	8.50867
836.792	11.3358
840.166	9.13141
843.541	11.798
846.916	10.2686
850.291	10.5783
853.666	13.9875
857.04	10.1212
860.415	13.942
863.79	11.2466
867.165	10.3658
870.54	8.14639
873.915	11.0515
877.289	8.59015
880.664	12.6297
884.039	10.926
887.414	5.47705
890.789	6.68491
894.163	6.41211
897.538	8.0079
900.913	7.5108
904.288	4.01764
907.663	2.61066
911.038	0.877197
914.412	0.69696
917.787	4.6113
921.162	0.612488
924.537	0.076935
927.912	1.42532
931.287	0.222076
934.661	2.71664
938.036	2.5567
941.411	5.90729
944.786	7.97082
948.161	16.366
951.535	31.6735
954.91	61.6661
958.285	128.888
961.66	209.462
965.035	385.664
968.409	687.813
971.784	541.899
975.159	186.976
978.534	70.288
981.909	29.6141
985.284	13.5327
988.658	7.26022
992.033	2.13696
995.408	1.96014
998.783	2.72162
1002.16	2.82797
1005.53	18.3709
1008.91	23.7217
1012.28	9.92422
1015.66	2.35327
1019.03	1.36151
1022.41	4.2554
1025.78	0.277252
1029.16	4.87595
1032.53	4.08252
1035.91	2.79767
1039.28	2.67709
1042.66	11.6557
1046.03	13.4993
1049.4	13.3028
1052.78	25.1424
1056.15	32.7906
1059.53	22.1852
1062.9	9.37961
1066.28	6.33325
1069.65	8.91232
1073.03	6.83194
1076.4	13.171
1079.78	16.8312
1083.15	19.7948
1086.53	34.261
1089.9	55.6221
1093.28	88.6734
1096.65	136.934
1100.03	157.604
1103.4	134.48
1106.78	104.793
1110.15	81.454
1113.53	80.3667
1116.9	81.5464
1120.28	86.3119
1123.65	89.1873
1127.03	95.2729
1130.4	100.876
1133.78	107.8
1137.15	124.559
1140.53	135.521
1143.9	151.552
1147.28	170.443
1150.65	186.687
1154.03	197.84
1157.4	203.743
1160.77	192.053
1164.15	174.461
1167.52	173.234
1170.9	154.733
1174.27	136.826
1177.65	113.91
1181.02	90.9082
1184.4	69.1447
1187.77	51.6388
1191.15	27.7991
1194.52	14.054
1197.9	2.41126
1201.27	7.0741
1204.65	16.0912
1208.02	11.8325
1211.4	12.5558
1214.77	8.34326
1218.15	9.02039
1221.52	19.3077
1224.9	29.1834
1228.27	69.8106
1231.64	110.904
1235.02	190.58
1238.39	271.971
1241.77	336.697
1245.14	407.02
1248.52	470.985
1251.89	576.247
1255.27	688.161
1258.64	765.362
1262.02	763.528
1265.39	733.036
1268.77	587.843
1272.14	415.22
1275.52	262.363
1278.89	68.5505
1282.27	0
