Measurement: Raman, 532 nm, unoriented, Raman Data Processed
Mineral: Adanite
Rruff sample: R190033
Ideal chemistry: Pb^2+^_2_(Te^4+^O_3_)(S^6+^O_4_)
Locality: Tombstone, Cochise County, Arizona, USA
Source: John Callahan
Description: White massive crystalline aggregates on small euhedral jarosite crystals coating the surface of the matrix
Measured chemistry: Pb_2.02_(Te_1.01_O_3_)(S_0.99_O_4_)
Raman shift (cm-1)	intensity
88.1367	0
91.5115	16.5106
94.8863	46.3186
98.2612	135.894
101.636	76.818
105.011	51.0913
108.386	48.3506
111.76	150.385
115.135	316.442
118.51	415.473
121.885	480.57
125.26	551.353
128.635	524.013
132.009	516.824
135.384	567.472
138.759	621.641
142.134	702.6
145.509	791.17
148.883	925.595
152.258	832.564
155.633	531.179
159.008	291.253
162.383	191.571
165.757	128.271
169.132	68.125
172.507	59.1411
175.882	37.8567
179.257	23.4988
182.632	9.30591
186.006	5.45703
189.381	0.597168
192.756	3.31787
196.131	0.602051
199.506	8.84937
202.881	3.6416
206.255	20.0034
209.63	52.5425
213.005	91.1577
216.38	132.893
219.755	173.701
223.129	206.344
226.504	170.247
229.879	118.082
233.254	109.789
236.629	114.646
240.004	177.083
243.378	261.475
246.753	365.301
250.128	463.761
253.503	626.311
256.878	786.582
260.252	884.836
263.627	798.801
267.002	565.148
270.377	363.492
273.752	214.29
277.127	122.018
280.501	60.3401
283.876	28.3005
287.251	4.10986
290.626	5.40723
294.001	1.42895
297.375	4.32935
300.75	0.033447
304.125	3.49512
307.5	6.13208
310.875	5.03638
314.25	16.5259
317.624	50.3245
320.999	80.5762
324.374	125.686
327.749	177.184
331.124	212.445
334.498	181.391
337.873	126.503
341.248	76.2114
344.623	51.2996
347.998	59.145
351.373	62.2649
354.747	95.2747
358.122	69.7178
361.497	80.9265
364.872	93.5825
368.247	161.054
371.621	189.728
374.996	202.517
378.371	246.088
381.746	306.521
385.121	311.433
388.495	236.594
391.87	178.124
395.245	186.582
398.62	254.115
401.995	373.643
405.37	530.571
408.744	645.268
412.119	617.502
415.494	417.173
418.869	246.504
422.244	155.428
425.618	137.069
428.993	208.133
432.368	302.715
435.743	245.32
439.118	107.723
442.493	161.939
445.867	311.419
449.242	432.549
452.617	187.975
455.992	37.6501
459.367	2.97241
462.741	0.195557
466.116	9.55786
469.491	2.17578
472.866	4.95093
476.241	10.8879
479.615	0.847168
482.99	6.19116
486.365	1.44263
489.74	10.8433
493.115	5.56543
496.49	0.926025
499.864	18.7002
503.239	16.1516
506.614	28.1589
509.989	25.2686
513.364	16.5044
516.739	24.3118
520.113	9.80664
523.488	23.3247
526.863	39.187
530.238	26.0027
533.613	25.9951
536.987	18.3591
540.362	31.9531
543.737	11.1191
547.112	24.1995
550.487	13.5562
553.861	14.3755
557.236	11.3054
560.611	0.353516
563.986	5.72559
567.361	4.65894
570.736	2.00317
574.11	7.73193
577.485	3.17749
580.86	2.64453
584.235	43.5068
587.61	59.3918
590.985	106.59
594.359	102.816
597.734	96.9204
601.109	137.932
604.484	260.295
607.859	409.529
611.233	211.346
614.608	39.5581
617.983	51.9705
621.358	99.4673
624.733	159.054
628.107	181.018
631.482	171.708
634.857	136.667
638.232	102.988
641.607	94.3643
644.982	98.7825
648.356	144.922
651.731	171.575
655.106	186.283
658.481	156.898
661.856	102.545
665.231	42.4448
668.605	27.1028
671.98	15.2617
675.355	4.48096
678.73	6.14551
682.105	3.82202
685.479	17.2578
688.854	52.8403
692.229	74.4238
695.604	101.603
698.979	109.66
702.354	118.247
705.728	159.384
709.103	260.391
712.478	411.782
715.853	614.46
719.227	998.085
722.602	1611.98
725.977	2397.42
729.352	3371.42
732.727	4203.06
736.102	4105.35
739.476	2929.27
742.851	1742.43
746.226	992.437
749.601	595.832
752.976	379.215
756.351	247.285
759.725	173.987
763.1	127.234
766.475	68.6294
769.85	57.0981
773.225	22.7383
776.599	12.8818
779.974	4.33887
783.349	26.6919
786.724	24.2847
790.099	22.9185
793.473	3.41309
796.848	9.75049
800.223	8.50781
803.598	7.20117
806.973	4.33106
810.348	8.17822
813.722	11.729
817.097	16.4326
820.472	23.9136
823.847	13.5303
827.222	28.5884
830.597	36.4463
833.971	47.3838
837.346	47.5571
840.721	48.9233
844.096	51.3325
847.471	34.5688
850.846	36.5601
854.22	43.3506
857.595	40.481
860.97	54.314
864.345	39.625
867.72	29.3311
871.094	49.6377
874.469	4.28809
877.844	9.37988
881.219	10.6626
884.594	19.0166
887.968	22.313
891.343	22.7139
894.718	23.2349
898.093	6.33301
901.468	11.4219
904.842	16.2964
908.217	14.1782
911.592	19.2666
914.967	19.6387
918.342	19.0322
921.717	15.1401
925.091	3.69092
928.466	3.99414
931.841	29.9277
935.216	17.3457
938.591	15.1807
941.966	22.1089
945.34	52.9727
948.715	69.9214
952.09	141.835
955.465	282.753
958.84	617.794
962.214	1085.28
965.589	2061.78
968.964	3186.04
972.339	2092.46
975.714	711.002
979.088	289.613
982.463	139.417
985.838	63.2744
989.213	44.0273
992.588	35.2685
995.963	22.7988
999.337	34.0508
1002.71	34.105
1006.09	59.5298
1009.46	35.1309
1012.84	11.1855
1016.21	9.96631
1019.59	1.74512
1022.96	8.18896
1026.34	2.98193
1029.71	10.7139
1033.09	23.5776
1036.46	60.1875
1039.84	83.6201
1043.21	98.6948
1046.59	122.194
1049.96	132.789
1053.33	174.272
1056.71	219.181
1060.08	152.085
1063.46	124.556
1066.83	84.3989
1070.21	87.4014
1073.58	89.1299
1076.96	88.7549
1080.33	84.4424
1083.71	99.8296
1087.08	146.466
1090.46	235.327
1093.83	393.272
1097.21	599.217
1100.58	643.338
1103.96	467.156
1107.33	259.733
1110.71	154.451
1114.08	107.658
1117.46	137.694
1120.83	117.475
1124.21	64.9731
1127.58	19.2554
1130.95	7.85596
1134.33	8.82764
1137.7	17.9551
1141.08	22.5513
1144.45	12.5879
1147.83	15.5254
1151.2	4.17432
1154.58	6.14551
1157.95	4.6792
1161.33	6.57129
1164.7	14.3677
1168.08	3.9292
1171.45	15.1963
1174.83	35.4629
1178.2	20.561
1181.58	16.6602
1184.95	16.8355
1188.33	27.6235
1191.7	34.1343
1195.08	28.2163
1198.45	25.1421
1201.83	24.7295
1205.2	32.5576
1208.58	3.229
1211.95	27.0215
1215.33	48.9712
1218.7	43.8418
1222.08	30.6055
1225.45	19.6172
1228.83	13.9082
1232.2	9.11426
1235.58	20.5102
1238.95	25.3936
1242.32	28.397
1245.7	26.7031
1249.07	39.7544
1252.45	36.3325
1255.82	31.0986
1259.2	48.1885
1262.57	38.3413
1265.95	19.2007
1269.32	11.1807
1272.7	13.3081
1276.07	17.8364
1279.45	21.7793
1282.82	11.7847
1286.2	3.50977
1289.57	8.72315
1292.95	31.5591
1296.32	8.00781
1299.7	18.0332
