Measurement: Raman, 785 nm, unoriented, Raman Data RAW
Mineral: Aerinite
Rruff sample: R050610
Ideal chemistry: (Ca,Na)_6_(Fe^3+^,Fe^2+^,Mg,Al)_4_(Al,Mg)_6_Si_12_O_36_(OH)_12_(CO_3_)12H_2_O
Locality: Estopinian, Province of Huesca, Spain
Source: University of Arizona Mineral Museum
Description: Blue coating
Raman shift (cm-1)	intensity
154.644	6275.87
157.536	6576.93
160.429	6894.31
163.322	7138.04
166.214	7334.59
169.107	7420.71
172	7489.29
174.893	7576.64
177.785	7684.84
180.678	7789.98
183.571	7839.23
186.463	8016.9
189.356	8181.83
192.249	8251.1
195.141	8373.65
198.034	8422.87
200.927	8438.96
203.82	8540.12
206.712	8657.36
209.605	8733.23
212.498	8868.99
215.39	9032.76
218.283	9192.77
221.176	9204.68
224.068	9340.46
226.961	9342.98
229.854	9433.32
232.747	9538.07
235.639	9590.25
238.532	9596.21
241.425	9708.9
244.317	9782.65
247.21	9684.33
250.103	9808.93
252.995	9891.6
255.888	9930.76
258.781	9976.03
261.674	10028
264.566	10105.5
267.459	10188.7
270.352	10243.1
273.244	10367.3
276.137	10495.2
279.03	10616.9
281.922	10671.3
284.815	10736.2
287.708	10777.9
290.601	10819.8
293.493	10874.8
296.386	11035.3
299.279	11195.6
302.171	11273.1
305.064	11300.8
307.957	11446.8
310.849	11417.1
313.742	11478.4
316.635	11642.5
319.528	11717
322.42	11845.3
325.313	11913
328.206	11986.4
331.098	11916.9
333.991	11933.3
336.884	11929.1
339.776	11982.5
342.669	12065.3
345.562	12084.1
348.455	12019.8
351.347	11990.2
354.24	11939.5
357.133	11893
360.025	11818
362.918	11806
365.811	11769.2
368.703	11627.9
371.596	11502.8
374.489	11235.1
377.382	11076.4
380.274	11016.9
383.167	10828
386.06	10736.6
388.952	10583.8
391.845	10447.6
394.738	10372.3
397.63	10223.4
400.523	10183.1
403.416	9956.22
406.309	9971.56
409.201	9896.79
412.094	9747.15
414.987	9722.65
417.879	9573.82
420.772	9515.59
423.665	9418.17
426.557	9406.82
429.45	9347.06
432.343	9355.62
435.236	9358.33
438.128	9311.31
441.021	9284.89
443.914	9245.21
446.806	9207.37
449.699	9199.1
452.592	9178.83
455.484	9160.03
458.377	9226.29
461.27	9215.64
464.163	9183.7
467.055	9106.88
469.948	9098.11
472.841	9071.12
475.733	9147.44
478.626	9084.59
481.519	9098.88
484.411	9188.57
487.304	9077.27
490.197	9142.95
493.09	9114.87
495.982	9238
498.875	9276.83
501.768	9305.16
504.66	9273.41
507.553	9395.01
510.446	9435.18
513.338	9386.36
516.231	9325.52
519.124	9409.5
522.016	9365.43
524.909	9373.91
527.802	9389.6
530.695	9230.43
533.587	9207.99
536.48	9125.1
539.373	9090.77
542.265	9085.13
545.158	9004.95
548.051	8905.81
550.943	8887.06
553.836	8833.71
556.729	8785.58
559.622	8671.82
562.514	8586.59
565.407	8585.89
568.3	8520.78
571.192	8503.58
574.085	8505.43
576.978	8463.7
579.87	8394.94
582.763	8348.03
585.656	8293.63
588.549	8275.01
591.441	8233.07
594.334	8187.12
597.227	8148.52
600.119	8103.54
603.012	8116.08
605.905	8040.1
608.797	7974.61
611.69	7951.26
614.583	7943.17
617.476	7948.15
620.368	7854.3
623.261	7866.46
626.154	7812.72
629.046	7768.49
631.939	7760.01
634.832	7717.47
637.724	7627.02
640.617	7640.44
643.51	7616.95
646.403	7593.23
649.295	7511.46
652.188	7569.77
655.081	7509.72
657.973	7494.74
660.866	7445.59
663.759	7513.03
666.652	7452.02
669.544	7423.68
672.437	7460.55
675.33	7356.3
678.222	7418.48
681.115	7373.54
684.008	7290.23
686.901	7272.79
689.793	7284.19
692.686	7287.24
695.579	7283.53
698.471	7265.85
701.364	7176.31
704.257	7171.92
707.149	7161.31
710.042	7212.27
712.935	7123.74
715.828	7114.64
718.72	7081.63
721.613	7026.72
724.506	7027.35
727.398	6946.52
730.291	6951.43
733.184	6897.9
736.076	6946.65
738.969	6889.23
741.862	6802.5
744.755	6770.82
747.647	6753.86
750.54	6804.7
753.433	6758.48
756.325	6743.05
759.218	6739.91
762.111	6729.49
765.003	6739.29
767.896	6713.53
770.789	6638.52
773.682	6647.25
776.574	6622.85
779.467	6603.98
782.36	6598.97
785.252	6551.86
788.145	6528.26
791.038	6519.21
793.93	6513.48
796.823	6512.62
799.716	6513.74
802.609	6417.82
805.501	6394.82
808.394	6372.4
811.287	6389.66
814.179	6329.65
817.072	6430.98
819.965	6365.44
822.857	6269.04
825.75	6285.95
828.643	6324.11
831.535	6233.59
834.428	6263.07
837.321	6282.94
840.214	6188.73
843.106	6133.94
845.999	6168.03
848.892	6168.79
851.784	6138.09
854.677	6125.43
857.57	6135.77
860.462	6097.01
863.355	6104.5
866.248	6060.77
869.141	6066.15
872.033	5989.27
874.926	6023.79
877.819	5962.66
880.711	6038.27
883.604	5985.2
886.497	5964.76
889.389	5953.03
892.282	5982.05
895.175	5909.08
898.068	5969.06
900.96	5936.6
903.853	5949.18
906.746	5951.32
909.638	5883.24
912.531	5883.32
915.424	5857.95
918.316	5911.65
921.209	5875.27
924.102	5874.78
926.995	5805.54
929.887	5949.26
932.78	5910.9
935.673	5880.89
938.565	5920.2
941.458	5831.89
944.351	5805.7
947.243	5867.47
950.136	5772.29
953.029	5765.13
955.922	5704.74
958.814	5715.6
961.707	5688.72
964.6	5666.06
967.492	5638.56
970.385	5603.51
973.278	5584.44
976.17	5592.37
979.063	5595.83
981.956	5454.62
984.849	5516.9
987.741	5482.31
990.634	5441.34
993.527	5402.56
996.419	5358.99
999.312	5418.9
1002.21	5353.39
1005.1	5333.14
1007.99	5322.58
1010.88	5293.25
1013.78	5325.1
1016.67	5264.28
1019.56	5281.21
1022.45	5258.11
1025.35	5233.82
1028.24	5204.13
1031.13	5234.85
1034.02	5172.9
1036.92	5166.19
1039.81	5110.28
1042.7	5089.89
1045.6	5119.43
1048.49	5151.27
1051.38	5072.24
1054.27	5057.83
1057.17	5050.6
1060.06	5007.46
1062.95	4991.52
1065.84	4950.74
1068.74	5021.9
1071.63	4969.8
1074.52	4909.34
1077.41	4927.16
1080.31	4901.14
1083.2	4864.06
1086.09	4834.84
1088.99	4826.13
1091.88	4841.63
1094.77	4776.59
1097.66	4746.8
1100.56	4800.15
1103.45	4768.93
1106.34	4737.11
1109.23	4741.77
1112.13	4722.54
1115.02	4689.24
1117.91	4686.25
1120.81	4690.98
1123.7	4657.46
1126.59	4670.97
1129.48	4652.51
1132.38	4627.13
1135.27	4535.74
1138.16	4572.95
1141.05	4528.7
1143.95	4529.16
1146.84	4558.04
1149.73	4507.36
1152.62	4518.02
1155.52	4495.83
1158.41	4512.22
1161.3	4482.68
1164.2	4446.98
1167.09	4438.68
1169.98	4423.62
1172.87	4420.6
1175.77	4411.81
1178.66	4386.61
1181.55	4336.74
1184.44	4312.07
1187.34	4344.54
1190.23	4355.83
1193.12	4347.44
1196.02	4305.88
1198.91	4276.5
1201.8	4241.56
1204.69	4282.48
1207.59	4226.73
1210.48	4207.89
1213.37	4266.85
1216.27	4276.75
1219.16	4206.65
1222.05	4225.61
1224.94	4178.85
1227.84	4141.2
1230.73	4191.37
1233.62	4135.33
1236.51	4154.6
1239.41	4115.32
1242.3	4111.04
1245.19	4082.62
1248.08	4065.53
1250.98	4068.99
1253.87	4060.71
1256.76	4056.67
