Measurement: Raman, 532 nm, unoriented, Raman Data RAW
Mineral: Aeschynite-(Y)
Rruff sample: R060312
Ideal chemistry: (Y^3+^,Ca,Th^4+^)(Ti^4+^,Nb^5+^)_2_(O,OH)_6_
Locality: Hittero, Vest-Agder, Norway
Source: Herb Obodda
Description: Black glassy amorphous, note that a fragment of this sample was heated and is posted at R080045
Measured chemistry: (Y_0.66_Th_0.10_Ca_0.08_U_0.07_Fe^3+^_0.07_Nd_0.02_)(Ti_1.50_Nb_0.50_)(O_5.73_(OH)_0.27_)_Σ=6_·4.5H_2_O; trace amounts of Ce, La, Dy; OH estimated by charge balance; H_2_O by difference
Raman shift (cm-1)	intensity
90.4922	59.4656
93.867	58.9393
97.2418	56.8604
100.617	55.4321
103.992	57.2185
107.366	55.6159
110.741	55.7129
114.116	57.4734
117.491	57.8774
120.865	60.4835
124.24	58.9631
127.615	72.9695
130.99	105.539
134.365	172.511
137.74	318.387
141.114	580.517
144.489	851.019
147.864	1067.72
151.239	1432.41
154.614	1824.18
157.988	2079.89
161.363	2242.49
164.738	2460.7
168.113	2581.06
171.488	2678.98
174.863	2705.22
178.237	2702.79
181.612	2689.66
184.987	2706.07
188.362	2695.98
191.737	2700.19
195.112	2690.24
198.486	2698.48
201.861	2709.15
205.236	2724.5
208.611	2750.84
211.986	2771.14
215.36	2805.12
218.735	2840.89
222.11	2882
225.485	2925.93
228.86	2977.03
232.234	2992.24
235.609	3011.34
238.984	2994.21
242.359	2970.86
245.734	2942.85
249.109	2901.69
252.483	2880.97
255.858	2855.91
259.233	2826.64
262.608	2783.65
265.983	2784.17
269.358	2773.56
272.732	2769.72
276.107	2762.38
279.482	2771.13
282.857	2783.47
286.232	2794.92
289.606	2831.01
292.981	2843.42
296.356	2862.45
299.731	2898.17
303.106	2927.07
306.481	2954.17
309.855	2986.63
313.23	3025.52
316.605	3050.78
319.98	3071.27
323.355	3059.2
326.729	3029.48
330.104	3012.45
333.479	2976.27
336.854	2963.99
340.229	2950.05
343.603	2946.84
346.978	2933.82
350.353	2929.89
353.728	2925.6
357.103	2935.85
360.478	2945.45
363.852	2960.03
367.227	2970.02
370.602	2973.17
373.977	2993.8
377.352	3007.65
380.726	3030.01
384.101	3050.83
387.476	3081.88
390.851	3115
394.226	3129.27
397.601	3155.9
400.975	3180.95
404.35	3196.49
407.725	3198.1
411.1	3208.19
414.475	3209.41
417.849	3197.03
421.224	3201.86
424.599	3196.49
427.974	3208.87
431.349	3215.59
434.724	3217.99
438.098	3221.07
441.473	3204.61
444.848	3196.16
448.223	3183.72
451.598	3186.3
454.972	3190.37
458.347	3193.64
461.722	3216.35
465.097	3233.72
468.472	3228.55
471.846	3225.01
475.221	3203.16
478.596	3189.49
481.971	3184.7
485.346	3190.85
488.721	3190.65
492.095	3202.89
495.47	3208.96
498.845	3222.47
502.22	3236.11
505.595	3237.86
508.969	3237.52
512.344	3251.33
515.719	3278.69
519.094	3308.4
522.469	3337.61
525.844	3376.24
529.218	3394.63
532.593	3399.08
535.968	3399.16
539.343	3388.97
542.718	3378.79
546.092	3374.96
549.467	3371.88
552.842	3367.88
556.217	3373.67
559.592	3374.92
562.967	3371.03
566.341	3365.38
569.716	3361.63
573.091	3351.85
576.466	3346.04
579.841	3355.09
583.216	3369.84
586.59	3377.92
589.965	3383.09
593.34	3371.01
596.715	3367.66
600.09	3368.14
603.464	3365.64
606.839	3384.47
610.214	3391.71
613.589	3401.54
616.964	3413.22
620.338	3427.03
623.713	3429.76
627.088	3440
630.463	3451.09
633.838	3451.7
637.212	3449.68
640.587	3441.52
643.962	3430.43
647.337	3450.13
650.712	3458.8
654.087	3476.64
657.461	3488.64
660.836	3498.74
664.211	3504.66
667.586	3526.21
670.961	3534.48
674.335	3552.4
677.71	3546.89
681.085	3537
684.46	3525.18
687.835	3514.6
691.21	3502.46
694.584	3480.5
697.959	3471.38
701.334	3466.34
704.709	3458.16
708.084	3457.08
711.458	3470.54
714.833	3469.12
718.208	3454.53
721.583	3454.21
724.958	3448.61
728.332	3442.83
731.707	3439.74
735.082	3435.34
738.457	3417.03
741.832	3410.07
745.207	3407.63
748.581	3405.82
751.956	3394.64
755.331	3379.41
758.706	3372.83
762.081	3361.76
765.456	3372.38
768.83	3359.15
772.205	3361.18
775.58	3380.34
778.955	3365.26
782.33	3358.36
785.704	3364.88
789.079	3365.59
792.454	3367.58
795.829	3369.26
799.204	3352.25
802.578	3345.8
805.953	3338.12
809.328	3325.46
812.703	3311.09
816.078	3313.86
819.453	3299.19
822.827	3295.86
826.202	3262.91
829.577	3253.56
832.952	3239.56
836.327	3227.56
839.702	3195.63
843.076	3188.03
846.451	3180.22
849.826	3158.33
853.201	3142.8
856.576	3142.52
859.95	3117.52
863.325	3102.7
866.7	3083.11
870.075	3062.62
873.45	3060.23
876.824	3038.95
880.199	3018.11
883.574	2994.15
886.949	2979.65
890.324	2974.07
893.698	2958.94
897.073	2956.41
900.448	2938.44
903.823	2924.45
907.198	2915.49
910.573	2906.25
913.947	2897.99
917.322	2898.33
920.697	2895.08
924.072	2887.68
927.447	2877.94
930.822	2870.5
934.196	2867.69
937.571	2861.32
940.946	2857.53
944.321	2860.47
947.696	2865.41
951.07	2857.62
954.445	2861.26
957.82	2864.08
961.195	2852.83
964.57	2853.58
967.944	2857.26
971.319	2860.73
974.694	2862.42
978.069	2871.73
981.444	2863.07
984.819	2869.16
988.193	2872.98
991.568	2881.75
994.943	2868.06
998.318	2870.11
1001.69	2874.36
1005.07	2875.91
1008.44	2886.78
1011.82	2887.4
1015.19	2893.21
1018.57	2890.57
1021.94	2892.86
1025.32	2893.38
1028.69	2897.87
1032.07	2910.56
1035.44	2915.42
1038.82	2910.82
1042.19	2904.46
1045.57	2912.39
1048.94	2914.83
1052.32	2921.19
1055.69	2932.94
1059.07	2935.6
1062.44	2927.93
1065.81	2927.6
1069.19	2932.05
1072.56	2942.03
1075.94	2960.38
1079.31	2962.13
1082.69	2959.32
1086.06	2969.68
1089.44	2979.41
1092.81	2988.29
1096.19	2985.9
1099.56	2983.29
1102.94	2999.08
1106.31	3009.5
1109.69	3012.5
1113.06	3013.03
1116.44	3011.1
1119.81	3031.86
1123.19	3034.78
1126.56	3029.93
1129.94	3036.32
1133.31	3044.33
1136.68	3057.05
1140.06	3052.93
1143.43	3058.38
1146.81	3062.31
1150.18	3069.76
1153.56	3081.82
1156.93	3088.63
1160.31	3084.59
1163.68	3082.66
1167.06	3103.49
1170.43	3103.39
1173.81	3108.97
1177.18	3116.77
1180.56	3123.32
1183.93	3117.17
1187.31	3126.04
1190.68	3126.82
1194.06	3135.37
1197.43	3154.92
1200.81	3158.35
1204.18	3161.64
1207.56	3172.15
1210.93	3179.75
1214.31	3188.78
1217.68	3190.4
1221.06	3198.07
1224.43	3198.39
1227.81	3205.95
1231.18	3219.62
1234.56	3221.3
1237.93	3227.87
1241.31	3232
1244.68	3234.78
1248.05	3254.27
1251.43	3265.24
1254.8	3272.54
1258.18	3274.52
1261.55	3276.29
1264.93	3281.69
1268.3	3297.84
1271.68	3296.77
1275.05	3308.42
1278.43	3305.21
1281.8	3310.49
1285.18	3313.92
1288.55	3314.36
1291.93	3332.57
1295.3	3348.96
1298.68	3364.28
1302.05	3371.19
