Measurement: Raman, 780 nm, unoriented, Raman Data RAW
Mineral: Aeschynite-(Y)
Rruff sample: R080045
Ideal chemistry: (Y^3+^,Ca,Th^4+^)(Ti^4+^,Nb^5+^)_2_(O,OH)_6_
Locality: Hittero, Vest-Agder, Norway
Source: Herb Obodda
Description: Light brown glassy, from black amorphous sample R060312 after heating at T = 850 C for 18 hours
Raman shift (cm-1)	intensity
94.0999	0
97.4747	8088.24
100.85	7878.51
104.224	7600.38
107.599	7478.99
110.974	7388.06
114.349	7323.67
117.724	7303.56
121.098	7310.23
124.473	7330.11
127.848	7340.51
131.223	7373.85
134.598	7421.66
137.972	7477.71
141.347	7517.77
144.722	7571.96
148.097	7606.01
151.472	7676.51
154.847	7727.24
158.221	7786.68
161.596	7846.29
164.971	7886.44
168.346	7921.86
171.721	7961.19
175.095	7942.65
178.47	7895.79
181.845	7817.44
185.22	7741.99
188.595	7667
191.97	7662.68
195.344	7656.92
198.719	7687.96
202.094	7762.86
205.469	7886.09
208.844	8046.48
212.218	8273.62
215.593	8551.53
218.968	8884.2
222.343	9266
225.718	9673.02
229.093	10100
232.467	10503.2
235.842	10867.5
239.217	11168.2
242.592	11379.8
245.967	11542.8
249.341	11676
252.716	11726.8
256.091	11683.2
259.466	11531.4
262.841	11308
266.216	11075.6
269.59	10812.1
272.965	10596.9
276.34	10358.7
279.715	10166.4
283.089	9978.72
286.464	9829.94
289.839	9685.84
293.214	9575.83
296.589	9474.33
299.964	9399.43
303.338	9364.81
306.713	9333.41
310.088	9313.55
313.463	9302.53
316.838	9271.83
320.212	9202.09
323.587	9093.96
326.962	8957.72
330.337	8797.55
333.712	8634.03
337.087	8517.48
340.461	8413.03
343.836	8332.07
347.211	8302.89
350.586	8286.14
353.961	8300.44
357.335	8318.41
360.71	8396.72
364.085	8481.61
367.46	8617.52
370.835	8761.32
374.209	8926.67
377.584	9070.26
380.959	9269.24
384.334	9403.62
387.709	9520.59
391.084	9587.78
394.458	9653.38
397.833	9665.51
401.208	9655.83
404.583	9612.67
407.958	9586.1
411.332	9585.27
414.707	9601.63
418.082	9652.7
421.457	9701
424.832	9796.45
428.207	9867.32
431.581	9926.88
434.956	9981.1
438.331	9946.17
441.706	9874.71
445.081	9760.8
448.455	9550.2
451.83	9326.28
455.205	9080.85
458.58	8838.19
461.955	8614.19
465.329	8398.08
468.704	8200.25
472.079	8028.56
475.454	7856.78
478.829	7682.89
482.204	7500.38
485.578	7327.54
488.953	7121.03
492.328	6915.92
495.703	6696.43
499.078	6487.58
502.452	6273.55
505.827	6083.36
509.202	5900.48
512.577	5737.07
515.952	5582.77
519.327	5454.86
522.701	5343.04
526.076	5241.31
529.451	5151.16
532.826	5077.19
536.201	5000.11
539.575	4924.89
542.95	4873.77
546.325	4825.71
549.7	4764.55
553.075	4711.4
556.449	4634.89
559.824	4574.34
563.199	4487.45
566.574	4400.54
569.949	4326.15
573.324	4239.83
576.698	4144.77
580.073	4063.72
583.448	3982.24
586.823	3904.64
590.198	3813.96
593.572	3748.32
596.947	3670.31
600.322	3598.81
603.697	3519.67
607.072	3473.11
610.447	3397.33
613.821	3340.58
617.196	3282.07
620.571	3242.41
623.946	3207.79
627.321	3181.14
630.695	3163.57
634.07	3151.02
637.445	3167.61
640.82	3173.91
644.195	3203.89
647.569	3239.34
650.944	3281.84
654.319	3325.78
657.694	3375.82
661.069	3447.66
664.444	3481.56
667.818	3502.79
671.193	3502.79
674.568	3472.65
677.943	3407.91
681.318	3334.12
684.692	3242.36
688.067	3143.14
691.442	3047.66
694.817	2961.54
698.192	2880.41
701.567	2799.65
704.941	2724.02
708.316	2645.44
711.691	2574.21
715.066	2488.6
718.441	2411.26
721.815	2327.58
725.19	2237.74
728.565	2150.32
731.94	2072.18
735.315	1994.61
738.689	1922.5
742.064	1849.55
745.439	1792.54
748.814	1736.67
752.189	1679.49
755.564	1629.83
758.938	1578.16
762.313	1538.35
765.688	1505.32
769.063	1469.36
772.438	1439.51
775.812	1411.61
779.187	1384.59
782.562	1361.65
785.937	1338.1
789.312	1317.33
792.687	1306.04
796.061	1284.08
799.436	1270.31
802.811	1256.58
806.186	1239.3
809.561	1234.95
812.935	1217.6
816.31	1207.61
819.685	1192.35
823.06	1185.4
826.435	1169.39
829.809	1160.12
833.184	1145.95
836.559	1135.42
839.934	1127.85
843.309	1118.84
846.684	1104.04
850.058	1087.2
853.433	1070.08
856.808	1052.81
860.183	1024.98
863.558	1004.65
866.932	969.807
870.307	934.08
873.682	889.786
877.057	841.454
880.432	797.54
883.807	755.141
887.181	715.708
890.556	689.037
893.931	658.291
897.306	636.267
900.681	615.668
904.055	598.825
907.43	584.346
910.805	574.739
914.18	566.247
917.555	557.291
920.929	545.782
924.304	538.57
927.679	527.4
931.054	518.796
934.429	509.012
937.804	498.954
941.178	488.647
944.553	479.693
947.928	474.197
951.303	461.736
954.678	452.047
958.052	441.793
961.427	433.016
964.802	420.642
968.177	412.22
971.552	400.342
974.927	391.965
978.301	383.924
981.676	373.736
985.051	365.522
988.426	361.614
991.801	352.58
995.175	346.321
998.55	340.432
1001.92	334.734
1005.3	328.852
1008.67	320.225
1012.05	317.465
1015.42	313.685
1018.8	309.162
1022.17	303.569
1025.55	301.179
1028.92	297.766
1032.3	294.674
1035.67	289.42
1039.05	287.441
1042.42	284.312
1045.8	281.776
1049.17	278.06
1052.55	274.444
1055.92	277.206
1059.3	273.041
1062.67	272.161
1066.05	269.733
1069.42	266.487
1072.8	265.805
1076.17	264.342
1079.55	265.209
1082.92	263.658
1086.3	263.409
1089.67	261.253
1093.05	258.861
1096.42	260.141
1099.8	259.888
1103.17	261.504
1106.54	260.358
1109.92	260.502
1113.29	261.604
1116.67	260.072
1120.04	261.329
1123.42	259.528
1126.79	261.026
1130.17	260.954
1133.54	262.455
1136.92	263.06
1140.29	263.272
1143.67	264.129
1147.04	263.689
1150.42	267.991
1153.79	266.208
1157.17	267.496
1160.54	267.792
1163.92	270.508
1167.29	272.558
1170.67	272.962
1174.04	275.287
1177.41	274.851
1180.79	280.268
1184.16	279.65
1187.54	285.042
1190.91	285.087
1194.29	290.834
1197.66	293.367
1201.04	297.882
1204.41	302.449
1207.79	307.324
1211.16	314.969
1214.54	320.485
1217.91	327.917
1221.29	332.993
1224.66	340.825
1228.04	350.34
1231.41	363.545
1234.79	372.983
1238.16	388.104
1241.54	398.654
1244.91	410.598
1248.29	424.519
1251.66	433.444
1255.04	450.051
1258.41	461.089
1261.79	474.17
1265.16	488.63
1268.54	505.28
1271.91	524.726
1275.29	541.533
1278.66	564.912
1282.04	586.432
1285.41	614.339
