Measurement: Raman, 780 nm, unoriented, Raman Data RAW
Mineral: Aeschynite-(Y)
Rruff sample: R060312
Ideal chemistry: (Y^3+^,Ca,Th^4+^)(Ti^4+^,Nb^5+^)_2_(O,OH)_6_
Locality: Hittero, Vest-Agder, Norway
Source: Herb Obodda
Description: Black glassy amorphous, note that a fragment of this sample was heated and is posted at R080045
Measured chemistry: (Y_0.66_Th_0.10_Ca_0.08_U_0.07_Fe^3+^_0.07_Nd_0.02_)(Ti_1.50_Nb_0.50_)(O_5.73_(OH)_0.27_)_Σ=6_·4.5H_2_O; trace amounts of Ce, La, Dy; OH estimated by charge balance; H_2_O by difference
Raman shift (cm-1)	intensity
91.5332	60.4006
94.908	62.1126
98.2828	60.8876
101.658	58.0189
105.032	57.0345
108.407	57.1082
111.782	57.2695
115.157	57.8208
118.532	58.3914
121.907	58.8398
125.281	59.0701
128.656	58.1703
132.031	58.3284
135.406	57.84
138.781	58.0468
142.155	57.3096
145.53	56.6818
148.905	55.6142
152.28	55.5144
155.655	55.3785
159.03	54.236
162.404	54.3609
165.779	53.9791
169.154	53.3827
172.529	53.0724
175.904	51.8398
179.278	52.3473
182.653	52.4574
186.028	52.1104
189.403	52.3968
192.778	52.6753
196.153	52.4669
199.527	53.7341
202.902	54.0506
206.277	55.7637
209.652	56.4871
213.027	57.1127
216.401	59.4697
219.776	59.9236
223.151	60.7413
226.526	60.5924
229.901	60.6634
233.275	60.4299
236.65	60.1097
240.025	59.9402
243.4	60.0964
246.775	58.9957
250.15	58.2635
253.524	57.3473
256.899	56.5374
260.274	56.9072
263.649	56.6556
267.024	56.3586
270.399	56.4431
273.773	55.9044
277.148	56.4117
280.523	57.8248
283.898	58.1255
287.273	58.2135
290.647	59.9575
294.022	59.554
297.397	60.7681
300.772	62.33
304.147	63.1677
307.522	63.4049
310.896	63.7677
314.271	62.8005
317.646	62.5648
321.021	62.9517
324.396	61.6297
327.77	60.9327
331.145	60.6042
334.52	59.1278
337.895	59.5545
341.27	59.6279
344.644	57.69
348.019	58.1419
351.394	58.8056
354.769	58.898
358.144	58.7013
361.519	59.1706
364.893	58.8189
368.268	59.8043
371.643	59.7768
375.018	60.029
378.393	60.5371
381.767	61.5147
385.142	61.9885
388.517	62.2859
391.892	62.763
395.267	63.5252
398.642	62.9873
402.016	62.7251
405.391	63.4072
408.766	62.6062
412.141	61.9177
415.516	61.6658
418.89	60.8603
422.265	61.1708
425.64	60.6117
429.015	59.6604
432.39	58.6105
435.765	58.617
439.139	57.4907
442.514	57.3955
445.889	55.8443
449.264	56.0782
452.639	56.1464
456.014	55.6603
459.388	54.8208
462.763	54.8581
466.138	54.5575
469.513	54.5229
472.887	54.0054
476.262	53.796
479.637	53.3877
483.012	52.7287
486.387	52.7752
489.762	52.1359
493.136	50.6122
496.511	50.2222
499.886	49.4211
503.261	48.324
506.636	47.0749
510.01	47.1458
513.385	46.3206
516.76	47.173
520.135	44.747
523.51	44.6436
526.885	44.4671
530.259	43.8809
533.634	44.6531
537.009	42.8829
540.384	43.0635
543.759	42.5259
547.134	42.1755
550.508	42.4817
553.883	41.9632
557.258	42.3581
560.633	41.9947
564.008	41.1957
567.382	40.4335
570.757	40.0483
574.132	39.2786
577.507	38.8066
580.882	39.3629
584.256	39.1362
587.631	38.9368
591.006	38.4313
594.381	38.4094
597.756	37.8967
601.131	36.794
604.505	36.8997
607.88	37.2184
611.255	36.6232
614.63	37.3019
618.005	36.6357
621.38	37.5108
624.754	36.5337
628.129	37.7416
631.504	36.6691
634.879	37.2486
638.254	37.6943
641.628	37.46
645.003	38.2155
648.378	38.1087
651.753	38.3137
655.128	38.6843
658.503	38.4593
661.877	38.58
665.252	39.3237
668.627	40.0065
672.002	39.4276
675.377	38.9677
678.751	39.1935
682.126	39.2861
685.501	37.9448
688.876	38.0945
692.251	37.5797
695.625	37.1477
699	36.2381
702.375	35.9454
705.75	34.7958
709.125	34.5676
712.5	34.0648
715.874	33.3744
719.249	33.307
722.624	32.1619
725.999	31.9121
729.374	30.4595
732.749	30.6494
736.123	30.3262
739.498	29.5273
742.873	30.2414
746.248	28.4504
749.623	28.7335
752.997	27.8798
756.372	28.0447
759.747	26.8006
763.122	26.6609
766.497	26.574
769.871	25.4655
773.246	25.614
776.621	25.013
779.996	25.1123
783.371	25.1039
786.745	24.2711
790.12	24.2831
793.495	24.6641
796.87	24.1763
800.245	23.6138
803.62	23.3835
806.994	23.096
810.369	23.0098
813.744	22.3669
817.119	21.9722
820.494	21.7873
823.869	21.5498
827.243	21.0792
830.618	21.4908
833.993	20.7309
837.368	20.706
840.743	19.7771
844.117	19.4575
847.492	19.3755
850.867	18.601
854.242	17.8909
857.617	17.8031
860.991	17.6712
864.366	16.8315
867.741	15.8235
871.116	15.839
874.491	15.5989
877.866	15.5439
881.24	14.5573
884.615	14.2422
887.99	13.9762
891.365	13.3914
894.74	13.3589
898.115	13.0247
901.489	12.5513
904.864	11.9
908.239	11.9651
911.614	11.8645
914.989	11.5055
918.363	11.6344
921.738	11.1819
925.113	11.0449
928.488	11.0802
931.863	10.8838
935.237	10.2729
938.612	10.4474
941.987	10.2351
945.362	9.48935
948.737	9.58964
952.112	9.22763
955.486	9.48608
958.861	9.23216
962.236	8.86329
965.611	9.2754
968.986	9.04871
972.361	8.5516
975.735	8.50442
979.11	8.2709
982.485	8.24289
985.86	8.27245
989.235	8.09965
992.609	7.94693
995.984	7.90642
999.359	7.99428
1002.73	7.66448
1006.11	7.49854
1009.48	7.7524
1012.86	7.5226
1016.23	7.37516
1019.61	7.73264
1022.98	7.60896
1026.36	6.98904
1029.73	7.3561
1033.11	7.02797
1036.48	7.37318
1039.86	7.14337
1043.23	7.21551
1046.61	7.65636
1049.98	7.07786
1053.36	6.90128
1056.73	7.29648
1060.11	6.93459
1063.48	7.11628
1066.86	7.02391
1070.23	6.7059
1073.61	6.57698
1076.98	6.86817
1080.36	6.72239
1083.73	6.60572
1087.1	6.84714
1090.48	6.37171
1093.85	6.91251
1097.23	6.92113
1100.6	6.71267
1103.98	6.71361
1107.35	6.74351
1110.73	6.74712
1114.1	6.71835
1117.48	6.84995
1120.85	6.77244
1124.23	6.63883
1127.6	6.80039
1130.98	6.73376
1134.35	6.62681
1137.73	6.91941
1141.1	6.85669
1144.48	6.72363
1147.85	6.75236
1151.23	6.8806
1154.6	7.01083
1157.97	6.99874
1161.35	6.80912
1164.72	7.18028
1168.1	7.1372
1171.47	7.2684
1174.85	7.0523
1178.22	7.6387
1181.6	7.47005
1184.97	7.4905
1188.35	7.35797
1191.72	7.63271
1195.1	7.79046
1198.47	7.87733
1201.85	8.05518
1205.22	8.14124
1208.6	8.07464
1211.97	7.82885
1215.35	8.48743
1218.72	8.5517
1222.1	8.61476
1225.47	8.86658
1228.85	8.92665
1232.22	9.0806
1235.6	8.78041
1238.97	9.38293
1242.35	9.71303
1245.72	9.87471
1249.1	9.84808
1252.47	9.88558
1255.85	10.4471
1259.22	10.499
1262.6	10.5921
1265.97	11.0333
1269.34	11.0611
1272.72	11.0072
1276.09	11.1473
1279.47	11.206
1282.84	12.2955
