Measurement: Raman, 780 nm, unoriented, Raman Data Processed
Mineral: Agardite-(Y)
Rruff sample: R060924
Ideal chemistry: Cu^2+^_6_Y^3+^(As^5+^O_4_)_3_(OH)_6_3H_2_O
Locality: Bou Skour mine, Djebel Sarhro, Morocco
Source: Bob Jenkins
Description: Light bluish-green flexible fibers
Measured chemistry: (Cu_5.81_Ca_0.11_Fe_0.02_)_Σ=5.94_(Y_0.51_Nd_0.05_Gd_0.04_La_0.03_Sm_0.02_Pr_0.01_Ca_0.34_)_Σ=1.00_[(AsO_4_)_0.85_(PO_4_)_0.03_(SiO_4_)_0.01_]_3_(OH)_6_·4.04H_2_O
Raman shift (cm-1)	intensity
115.063	0
118.438	0.699978
121.813	0.818233
125.187	0.435253
128.562	0.457314
131.937	1.81713
135.312	2.00398
138.687	2.70452
142.061	2.06357
145.436	0.851873
148.811	0.659874
152.186	0.755941
155.561	1.1209
158.936	0.309608
162.31	0.674627
165.685	0.214975
169.06	0.388914
172.435	0.043322
175.81	0.931376
179.185	1.10336
182.559	1.63463
185.934	1.9659
189.309	2.16903
192.684	1.8846
196.059	1.7776
199.433	1.40926
202.808	2.32657
206.183	1.38817
209.558	1.67049
212.933	1.23832
216.308	1.84756
219.682	1.82015
223.057	1.86153
226.432	1.94961
229.807	2.0275
233.182	2.1655
236.556	2.26745
239.931	1.64265
243.306	1.38116
246.681	1.80249
250.056	1.41891
253.43	1.0888
256.805	0.968056
260.18	1.35796
263.555	0.414454
266.93	0.956552
270.305	0.164962
273.679	0.372769
277.054	0.128106
280.429	0.01005
283.804	0.473211
287.179	0.52093
290.553	0.105357
293.928	0.20532
297.303	0.100118
300.678	0.166465
304.053	0.047094
307.428	0.289566
310.802	0.650599
314.177	0.36269
317.552	0.825714
320.927	0.941935
324.302	1.06022
327.676	1.22427
331.051	0.655882
334.426	0.219031
337.801	0.653517
341.176	0.422908
344.551	0.52124
347.925	0.213009
351.3	0.22915
354.675	0.234085
358.05	0.238987
361.425	0.34484
364.8	0.095501
368.174	0.003177
371.549	0.264874
374.924	0.118485
378.299	0.232337
381.674	0.386737
385.048	0.41814
388.423	0.282132
391.798	0.145439
395.173	0.55874
398.548	0.501256
401.923	0.564746
405.297	0.32466
408.672	0.056734
412.047	0.218246
415.422	0.02788
418.796	0.415633
422.171	0.256869
425.546	0.686507
428.921	0.794527
432.296	1.13067
435.671	0.643578
439.045	0.400288
442.42	0.300054
445.795	0.175365
449.17	0.236469
452.545	0.217719
455.92	0.458395
459.294	0.40507
462.669	0.935139
466.044	0.883306
469.419	1.39306
472.794	1.81941
476.168	2.03474
479.543	2.74781
482.918	2.76579
486.293	2.11629
489.668	1.51246
493.043	0.730609
496.417	0.715389
499.792	0.61346
503.167	0.363729
506.542	0.587154
509.917	0.416427
513.291	0.13511
516.666	0.08902
520.041	0.246663
523.416	0.297767
526.791	0.373403
530.165	0.55642
533.54	0.581884
536.915	0.510569
540.29	0.858609
543.665	0.50216
547.04	0.550428
550.414	0.228425
553.789	0.408994
557.164	0.476626
560.539	0.175245
563.914	0.132462
567.288	0.013735
570.663	0.017118
574.038	0.134991
577.413	0.156793
580.788	0.585695
584.163	0.099508
587.537	0.013532
590.912	0.095536
594.287	0.195418
597.662	0.423001
601.037	0.289102
604.412	0.411859
607.786	0.536019
611.161	0.109552
614.536	0.685443
617.911	0.038786
621.286	0.254785
624.66	0.585315
628.035	0.367411
631.41	0.454362
634.785	0.285036
638.16	0.468778
641.534	0.431973
644.909	0.52107
648.284	0.201997
651.659	0.430326
655.034	0.419511
658.409	0.264707
661.783	0.100498
665.158	0.334265
668.533	0.299127
671.908	0.248962
675.283	0.465125
678.658	0.128006
682.032	0.352858
685.407	0.36121
688.782	0.029612
692.157	0.349993
695.532	0.18282
698.906	0.094993
702.281	0.126725
705.656	0.368062
709.031	0.051547
712.406	0.077579
715.78	0.437701
719.155	0.294352
722.53	0.354657
725.905	0.283813
729.28	0.163999
732.654	0.090646
736.029	0.186583
739.404	0.194209
742.779	0.309892
746.154	0.536088
749.529	0.323567
752.903	0.112566
756.278	0.08067
759.653	0.104538
763.028	0.060132
766.403	0.43084
769.778	0.026084
773.152	0.131716
776.527	0.426752
779.902	0.122215
783.277	0.15962
786.652	1.17643
790.026	0.40976
793.401	0.036785
796.776	0.23981
800.151	0.189584
803.526	0.199676
806.9	0.304418
810.275	0.004289
813.65	0.38641
817.025	0.507859
820.4	0.948803
823.775	1.28609
827.149	1.46049
830.524	1.85465
833.899	1.48621
837.274	1.32789
840.649	1.12859
844.024	0.925963
847.398	1.07916
850.773	1.5369
854.148	1.79211
857.523	2.22463
860.898	2.51395
864.272	3.33743
867.647	3.86549
871.022	3.82855
874.397	2.58817
877.772	1.67388
881.146	1.02344
884.521	0.774885
887.896	0.669715
891.271	0.642568
894.646	0.142456
898.021	0.057821
901.395	0.403218
904.77	0.399393
908.145	0.576715
911.52	0.444458
914.895	0.297722
918.269	0.059943
921.644	0.442427
925.019	0.34914
928.394	0.068802
931.769	0.139799
935.144	0.14021
938.518	0.305086
941.893	0.532283
945.268	0.085458
948.643	0.009764
952.018	0.040616
955.393	0.200188
958.767	0.041169
962.142	0.305558
965.517	0.503451
968.892	0.498487
972.266	0.494754
975.641	0.108387
979.016	0.340913
982.391	0.295593
985.766	0.022531
989.141	0.476243
992.515	0.503346
995.89	0.440104
999.265	0.373777
1002.64	0.454469
1006.01	0.333881
1009.39	0.280768
1012.76	0.287397
1016.14	0.268085
1019.51	0.253101
1022.89	0.773736
1026.26	0.416831
1029.64	0.204223
1033.01	0.266856
1036.39	0.318421
1039.76	0.283488
1043.14	0.593545
1046.51	0.2453
1049.89	0.102087
1053.26	0.035073
1056.64	0.245815
1060.01	0.552596
1063.39	0.467247
1066.76	0.442973
1070.14	0.740317
1073.51	0.307127
1076.89	0.418758
1080.26	0.322154
1083.63	0.058788
1087.01	0.362959
1090.38	0.202246
1093.76	0.398745
1097.13	0.308199
1100.51	0.050838
1103.88	0.422519
1107.26	0.112
1110.63	0.391221
1114.01	0.175374
1117.38	0.338122
1120.76	0.461245
1124.13	0.25331
1127.51	0.12642
1130.88	0.082256
1134.26	0.198311
1137.63	0.729568
1141.01	0.140406
1144.38	0.123296
1147.76	0.123924
1151.13	0.316383
1154.51	0.417868
1157.88	0.257257
1161.26	0.003554
1164.63	0.35292
1168.01	0.129743
1171.38	0.36375
1174.76	0.150442
1178.13	0.340957
1181.51	0.19205
1184.88	0.274227
1188.26	0.12953
1191.63	0.330072
1195.01	0.283472
1198.38	0.369648
1201.75	0.127705
1205.13	0.324195
1208.5	0.424246
1211.88	0.724802
1215.25	0.421886
1218.63	0.727316
1222	0.272403
1225.38	0.153715
1228.75	0.322242
1232.13	0.452662
1235.5	0.217345
1238.88	0.182664
1242.25	0.1036
1245.63	0.678449
1249	0.270002
1252.38	0.449151
1255.75	0.272218
1259.13	0.331401
1262.5	0.283344
1265.88	0.297448
1269.25	0.316357
1272.62	0.432503
1276	0.063103
1279.38	0.090602
