Measurement: Raman, 532 nm, unoriented, Raman Data Processed
Mineral: Agardite-(Y)
Rruff sample: R060924
Ideal chemistry: Cu^2+^_6_Y^3+^(As^5+^O_4_)_3_(OH)_6_3H_2_O
Locality: Bou Skour mine, Djebel Sarhro, Morocco
Source: Bob Jenkins
Description: Light bluish-green flexible fibers
Measured chemistry: (Cu_5.81_Ca_0.11_Fe_0.02_)_Σ=5.94_(Y_0.51_Nd_0.05_Gd_0.04_La_0.03_Sm_0.02_Pr_0.01_Ca_0.34_)_Σ=1.00_[(AsO_4_)_0.85_(PO_4_)_0.03_(SiO_4_)_0.01_]_3_(OH)_6_·4.04H_2_O
Raman shift (cm-1)	intensity
97.2969	0
100.672	12.6932
104.047	43.1613
107.421	150.722
110.796	126.561
114.171	104.644
117.546	86.4532
120.921	22.3194
124.296	15.4642
127.67	3.0658
131.045	42.7253
134.42	67.9528
137.795	93.3507
141.17	60.4519
144.544	24.201
147.919	24.7488
151.294	23.7495
154.669	42.6984
158.044	38.126
161.418	45.2754
164.793	59.881
168.168	82.7864
171.543	121.328
174.918	133.113
178.293	130.651
181.667	145.264
185.042	158.411
188.417	158.01
191.792	148.445
195.167	127.951
198.542	92.6468
201.916	63.7974
205.291	34.5971
208.666	23.5333
212.041	11.4424
215.416	13.5679
218.79	13.8465
222.165	31.6215
225.54	54.5532
228.915	87.0991
232.29	104.722
235.664	76.604
239.039	34.0663
242.414	6.23486
245.789	5.2243
249.164	7.63995
252.538	3.55231
255.913	2.42688
259.288	4.24347
262.663	9.9212
266.038	5.55878
269.413	11.6476
272.787	8.81641
276.162	10.9817
279.537	17.847
282.912	24.8008
286.287	31.0278
289.661	26.6954
293.036	17.0904
296.411	14.5526
299.786	19.2621
303.161	28.2929
306.536	43.9165
309.91	59.1161
313.285	84.2956
316.66	124.072
320.035	170.792
323.41	196.826
326.784	192.503
330.159	147.797
333.534	96.1608
336.909	63.858
340.284	43.3127
343.659	35.3301
347.033	23.8349
350.408	14.6616
353.783	7.23553
357.158	1.85504
360.533	3.76788
363.908	1.35169
367.282	5.22925
370.657	2.43097
374.032	2.17737
377.407	9.48401
380.782	20.6349
384.156	34.3314
387.531	50.9418
390.906	68.8195
394.281	80.2791
397.656	91.2543
401.031	87.4413
404.405	62.6996
407.78	33.1342
411.155	19.3065
414.53	18.8742
417.905	31.9869
421.279	60.0929
424.654	97.1168
428.029	120.348
431.404	111.507
434.779	78.5864
438.154	36.7416
441.528	11.9087
444.903	6.75263
448.278	17.8988
451.653	41.7963
455.028	79.8862
458.402	125.065
461.777	182.673
465.152	251.032
468.527	336.162
471.902	467.47
475.276	638.18
478.651	786.684
482.026	780.901
485.401	587.334
488.776	371.68
492.151	230.385
495.525	141.114
498.9	90.7774
502.275	59.0741
505.65	46.694
509.025	33.6633
512.399	18.3092
515.774	2.2699
519.149	4.44342
522.524	0.179138
525.899	17.4872
529.274	40.2283
532.648	58.2764
536.023	61.4915
539.398	46.8101
542.773	31.0375
546.148	18.0809
549.523	15.2614
552.897	14.9575
556.272	16.4859
559.647	12.2643
563.022	8.29443
566.396	6.48212
569.771	9.15405
573.146	2.35278
576.521	1.33069
579.896	3.5343
583.271	4.16052
586.645	0.124695
590.02	4.09314
593.395	0.208923
596.77	3.59253
600.145	5.85162
603.519	5.151
606.894	9.87408
610.269	15.4653
613.644	12.2723
617.019	13.5363
620.394	15.2493
623.768	14.7886
627.143	19.0609
630.518	21.5264
633.893	28.1619
637.268	27.2383
640.643	27.3987
644.017	29.1166
647.392	25.7848
650.767	27.0068
654.142	18.2407
657.517	19.9842
660.891	20.0297
664.266	18.683
667.641	22.0926
671.016	22.8212
674.391	25.9995
677.765	27.627
681.14	29.7321
684.515	33.0522
687.89	37.3994
691.265	42.288
694.64	41.3574
698.014	49.5601
701.389	41.8915
704.764	37.2146
708.139	31.8724
711.514	29.059
714.889	23.2471
718.263	19.679
721.638	15.5856
725.013	11.9519
728.388	9.78186
731.763	6.37036
735.137	7.0705
738.512	4.37775
741.887	3.43054
745.262	0.987244
748.637	1.69971
752.011	3.8006
755.386	3.8692
758.761	0.802185
762.136	0.808411
765.511	1.47925
768.886	2.96576
772.26	9.04016
775.635	11.0475
779.01	14.741
782.385	7.9787
785.76	4.00879
789.135	1.8009
792.509	1.01318
795.884	0.549622
799.259	2.63031
802.634	0.463989
806.009	4.50678
809.383	18.7946
812.758	37.3317
816.133	65.7367
819.508	111.685
822.883	156.61
826.257	204.677
829.632	230.097
833.007	225.577
836.382	193.856
839.757	168.304
843.132	161.426
846.506	173.21
849.881	217.506
853.256	291.13
856.631	400.361
860.006	559.124
863.38	758.703
866.755	953.857
870.13	1041.94
873.505	928.624
876.88	680.757
880.255	449.309
883.629	294.491
887.004	199.71
890.379	138.929
893.754	107.873
897.129	89.2543
900.504	75.5139
903.878	64.5923
907.253	59.5392
910.628	53.3212
914.003	42.7302
917.378	31.7855
920.752	23.2311
924.127	16.9855
927.502	8.08508
930.877	3.50854
934.252	1.10565
937.626	0.51239
941.001	0.533142
944.376	1.27826
947.751	3.09515
951.126	4.37372
954.5	2.74664
957.875	0.106812
961.25	0.59436
964.625	0.144775
968	1.37787
971.375	4.44495
974.75	4.62158
978.124	8.61224
981.499	13.0754
984.874	15.2213
988.249	20.3381
991.624	25.5873
994.998	27.1172
998.373	26.6451
1001.75	26.4244
1005.12	23.1599
1008.5	18.9478
1011.87	12.6057
1015.25	10.0312
1018.62	10.4196
1022	6.61957
1025.37	7.46411
1028.75	5.58307
1032.12	4.39423
1035.5	2.75623
1038.87	3.09216
1042.25	4.45752
1045.62	6.07886
1048.99	8.08215
1052.37	2.59112
1055.74	3.49792
1059.12	5.37646
1062.49	4.49902
1065.87	2.65857
1069.24	3.75543
1072.62	5.26202
1075.99	6.37994
1079.37	3.8913
1082.74	1.05023
1086.12	2.79871
1089.49	3.159
1092.87	0.338989
1096.24	1.60675
1099.62	0.016052
1102.99	2.01398
1106.37	3.37305
1109.74	2.08704
1113.12	2.7699
1116.49	8.26306
1119.87	2.69714
1123.24	1.74768
1126.62	4.74164
1129.99	6.63708
1133.37	3.76801
1136.74	3.7497
1140.12	2.67047
1143.49	2.60541
1146.87	1.43457
1150.24	1.48377
1153.62	0.382385
1156.99	0.406921
1160.36	1.45111
1163.74	0.035645
1167.11	1.62848
1170.49	2.10529
1173.86	0.466309
1177.24	0.115723
1180.61	0.438721
1183.99	3.90796
1187.36	1.38757
1190.74	4.08929
1194.11	3.76196
1197.49	3.45288
1200.86	2.02234
1204.24	2.09888
1207.61	3.15485
1210.99	1.87524
1214.36	1.65985
1217.74	2.28125
1221.11	4.26959
1224.49	3.26825
1227.86	0.7771
1231.24	1.19647
1234.61	2.53516
1237.98	1.90033
1241.36	1.7121
1244.73	4.59192
1248.11	2.7793
1251.48	1.64807
1254.86	0.579895
1258.23	0.727417
1261.61	1.9931
1264.98	2.65631
1268.36	2.61658
1271.73	2.3241
1275.11	1.16419
1278.48	4.15479
1281.86	2.6637
1285.23	4.69049
1288.61	4.18964
1291.98	5.72846
1295.36	1.23883
1298.73	9.45892
