Measurement: Raman, 785 nm, unoriented, Raman Data RAW
Mineral: Agrellite
Rruff sample: R060914
Ideal chemistry: NaCa_2_Si_4_O_10_F
Locality: Kipawa complex, Quebec, Canada
Source: Royal Ontario Museum
Description: White platy aggregates
Measured chemistry: (Na_0.99_K_0.01_)_Σ=1_(Ca_1.79_Na_0.10_Y_0.04_Ce_0.04_La_0.01_Nd_0.01_Mn_0.01_)_Σ=2_Si_4.00_O_10_F_1.00_
Raman shift (cm-1)	intensity
128.277	1108.94
131.17	1463.9
134.062	1632.36
136.955	1620.36
139.848	1882.71
142.741	2514.17
145.633	3414
148.526	4082.78
151.419	4334.63
154.311	4317.2
157.204	4268.35
160.097	4484
162.989	4838.37
165.882	5183.88
168.775	5479.85
171.668	5601.91
174.56	5550.44
177.453	5497.57
180.346	5508.61
183.238	5480.4
186.131	5590.28
189.024	5641.33
191.917	5679.99
194.809	5687.09
197.702	5785.52
200.595	5836.22
203.487	6088.08
206.38	6173.35
209.273	6363.59
212.165	6544.72
215.058	6786.67
217.951	7001.97
220.844	7254.8
223.736	7361.21
226.629	7497.51
229.522	7605.99
232.414	7725.29
235.307	7906.94
238.2	7948.6
241.092	8047.57
243.985	8155.35
246.878	8242.66
249.77	8104.46
252.663	8045.05
255.556	7923.37
258.449	7656.02
261.341	7429.11
264.234	7171.37
267.127	6999.16
270.019	6849.35
272.912	6822.12
275.805	6885.16
278.697	7070.95
281.59	7367.52
284.483	7796.61
287.376	8303.75
290.268	8999.77
293.161	9876.01
296.054	11075.5
298.946	12569.1
301.839	14254.1
304.732	16092.3
307.625	17920.7
310.517	19553.8
313.41	20922.4
316.303	22175.3
319.195	23172.7
322.088	24084.7
324.981	24903.7
327.873	25325.5
330.766	25679.8
333.659	25512
336.551	25635.2
339.444	25392.4
342.337	25261.6
345.23	25159.3
348.122	25032.5
351.015	24684.6
353.908	23909.8
356.8	22580.9
359.693	21035
362.586	19102.2
365.478	17490
368.371	16145.2
371.264	15000.8
374.157	14121.5
377.049	13454.9
379.942	13152.4
382.835	12914.6
385.727	12900.9
388.62	13199.9
391.513	13679.1
394.406	14193.1
397.298	14923.5
400.191	15501.4
403.084	16141.1
405.976	16705.8
408.869	17281.5
411.762	17791.6
414.654	18040.2
417.547	17860.8
420.44	17431.6
423.332	16521.7
426.225	15461.8
429.118	14240.5
432.011	13021.7
434.903	11911.7
437.796	10927.1
440.689	10051.8
443.581	9402.27
446.474	8778.92
449.367	8312.22
452.26	7844.18
455.152	7507.82
458.045	7215.49
460.938	7000.25
463.83	6852.7
466.723	6630.46
469.616	6577.88
472.508	6492.1
475.401	6410.5
478.294	6296.27
481.187	6304
484.079	6289.66
486.972	6258.94
489.865	6297.34
492.757	6339.73
495.65	6282.02
498.543	6324.34
501.435	6274.81
504.328	6305.2
507.221	6303.54
510.114	6280.64
513.006	6309.5
515.899	6322.61
518.792	6266.85
521.684	6322.23
524.577	6278.47
527.47	6332.63
530.362	6265.82
533.255	6264.34
536.148	6336.19
539.04	6393.68
541.933	6422.93
544.826	6452.31
547.719	6542.82
550.611	6597.18
553.504	6729.48
556.397	6836.36
559.289	6895.46
562.182	7037.85
565.075	7112.25
567.967	7174.4
570.86	7252.95
573.753	7356.26
576.646	7394.98
579.538	7552.65
582.431	7581.86
585.324	7589.38
588.216	7603.37
591.109	7661.71
594.002	7625.4
596.895	7675.33
599.787	7638.59
602.68	7680.57
605.573	7639.43
608.465	7737.9
611.358	7676.88
614.251	7699.82
617.144	7707.62
620.036	7798.86
622.929	7722.72
625.822	7738.62
628.714	7883.16
631.607	7827.67
634.5	7891.53
637.392	7992.56
640.285	7888.49
643.178	7951.75
646.071	7893.09
648.963	7798.63
651.856	7651.33
654.749	7611.29
657.641	7472.27
660.534	7344.48
663.427	7051.52
666.319	6834.26
669.212	6555.39
672.105	6383.2
674.997	6172.74
677.89	5972.56
680.783	5809.83
683.676	5683.92
686.568	5523.52
689.461	5469.4
692.354	5343.95
695.246	5283.38
698.139	5272.48
701.032	5247.88
703.924	5172.6
706.817	5124.47
709.71	5123.92
712.603	5035.18
715.495	5006.94
718.388	4915.29
721.281	4788.31
724.173	4593.03
727.066	4432.82
729.959	4195.67
732.851	3997.84
735.744	3820.26
738.637	3632.11
741.53	3435.64
744.422	3266.96
747.315	3121.72
750.208	3030.96
753.1	2862.94
755.993	2810.15
758.886	2698.78
761.779	2610.46
764.671	2565.87
767.564	2531.8
770.457	2516.83
773.349	2495.11
776.242	2451.88
779.135	2446.67
782.027	2426.45
784.92	2463.37
787.813	2474.04
790.706	2494.44
793.598	2492.75
796.491	2515.8
799.384	2558.52
802.276	2546.96
805.169	2585.93
808.062	2593.66
810.954	2605.88
813.847	2633.15
816.74	2597.74
819.633	2583.86
822.525	2549.94
825.418	2496.14
828.311	2421.12
831.203	2400.8
834.096	2313.48
836.989	2239.33
839.881	2158.87
842.774	2069.29
845.667	2036.08
848.559	1982.79
851.452	1934.82
854.345	1861.03
857.238	1822.21
860.13	1780.47
863.023	1769.48
865.916	1738.61
868.808	1742.46
871.701	1699.83
874.594	1703.58
877.486	1705.25
880.379	1712.65
883.272	1733.8
886.165	1698.23
889.057	1691.32
891.95	1762.1
894.843	1741.96
897.735	1741.5
900.628	1777.18
903.521	1811
906.413	1822.57
909.306	1868.85
912.199	1921.34
915.092	1936.1
917.984	1985.66
920.877	1969.91
923.77	2026.53
926.663	2051.75
929.555	2098.17
932.448	2156.39
935.341	2241.1
938.233	2264.27
941.126	2300.86
944.019	2365.29
946.911	2421.68
949.804	2479.78
952.697	2569.32
955.59	2669.69
958.482	2733.23
961.375	2796.34
964.268	2848.04
967.16	2967.36
970.053	3001.55
972.946	3130.32
975.838	3218.1
978.731	3329.65
981.624	3409.18
984.516	3500.12
987.409	3611.94
990.302	3740.87
993.195	3855.76
996.087	3905.85
998.98	4110.5
1001.87	4209.11
1004.76	4342.18
1007.66	4480.12
1010.55	4651.59
1013.44	4741.49
1016.34	4853.49
1019.23	4993.21
1022.12	5165.96
1025.01	5365.29
1027.91	5519.01
1030.8	5693.21
1033.69	5902.82
1036.59	6121.79
1039.48	6389.09
1042.37	6594.83
1045.26	6770.62
1048.16	7037.73
1051.05	7288.08
1053.94	7707.07
1056.83	8037.9
1059.73	8332.42
1062.62	8703.24
1065.51	9131.24
1068.4	9600.88
1071.3	10084
1074.19	10609.8
1077.08	11194.2
1079.98	11787.9
1082.87	12405
1085.76	13073.4
1088.65	13734.9
1091.55	14583.1
1094.44	15452.7
1097.33	16519
1100.22	17410.8
1103.12	18506.3
1106.01	19643
1108.9	20824.5
1111.8	22260.3
1114.69	23849.2
1117.58	25525.6
1120.47	27285.7
1123.37	29184.7
1126.26	31403
1129.15	33633
1132.04	36060.3
1134.94	38476.4
1137.83	41425.4
1140.72	44401.3
1143.62	47408.2
1146.51	50623.6
1149.4	54128.3
1152.29	57727.5
1155.19	61241.9
1158.08	65107.9
1160.97	69038.6
1163.86	72827.9
1166.76	76710.2
1169.65	80109.6
1172.54	83278.4
1175.43	86292.9
1178.33	88806.5
1181.22	91299.8
1184.11	93406.5
1187.01	95228.8
1189.9	97287.4
1192.79	98668.3
1195.68	99945.9
1198.58	101260
1201.47	102254
1204.36	102673
1207.25	102871
1210.15	103405
1213.04	104016
1215.93	104737
