Measurement: Raman, 780 nm, unoriented, Raman Data RAW
Mineral: Ajoite
Rruff sample: R060735
Ideal chemistry: K_3_Cu^2+^_20_Al_3_Si_29_O_76_(OH)_16_8H_2_O
Locality: Pinal County, Arizona, USA
Source: Bob Jenkins
Description: Radiating aggregates of blue acicular crystals
Raman shift (cm-1)	intensity
89.7532	0
93.1281	114.693
96.5029	103.264
99.8777	92.9231
103.252	89.1084
106.627	88.002
110.002	83.2131
113.377	82.3434
116.752	81.7716
120.127	81.0913
123.501	79.4811
126.876	77.0687
130.251	76.599
133.626	74.8186
137.001	76.0108
140.375	74.9149
143.75	74.42
147.125	73.0613
150.5	70.9142
153.875	69.253
157.25	68.2421
160.624	67.6817
163.999	68.1355
167.374	67.8337
170.749	68.0322
174.124	67.3442
177.498	68.0062
180.873	68.0927
184.248	68.7295
187.623	69.0594
190.998	70.0431
194.373	75.0016
197.747	70.1953
201.122	68.8647
204.497	66.0586
207.872	64.3396
211.247	62.56
214.621	61.4122
217.996	60.5216
221.371	59.6062
224.746	60.0957
228.121	58.1408
231.495	57.8627
234.87	57.363
238.245	57.385
241.62	57.9209
244.995	57.6559
248.369	57.1975
251.744	56.6863
255.119	56.9709
258.494	56.1559
261.869	55.6028
265.244	55.9818
268.618	54.6966
271.993	54.3357
275.368	54.8226
278.743	54.5186
282.118	54.075
285.493	53.787
288.867	53.4001
292.242	54.1649
295.617	53.3911
298.992	54.2107
302.366	53.8399
305.741	54.5345
309.116	55.57
312.491	55.1659
315.866	59.306
319.241	55.6844
322.615	56.3467
325.99	56.7446
329.365	56.9592
332.74	55.9832
336.115	56.0773
339.49	56.1103
342.864	54.6188
346.239	54.3161
349.614	53.4418
352.989	52.7502
356.364	51.8691
359.738	51.444
363.113	51.7298
366.488	51.883
369.863	51.3793
373.238	50.823
376.613	50.8874
379.987	50.438
383.362	50.979
386.737	51.2547
390.112	51.2225
393.486	51.2229
396.861	51.6571
400.236	51.5239
403.611	51.6731
406.986	52.058
410.361	52.4197
413.735	51.9184
417.11	52.3845
420.485	53.0136
423.86	52.3359
427.235	52.1547
430.61	52.7367
433.984	52.1738
437.359	51.9034
440.734	51.1723
444.109	50.7206
447.484	50.9659
450.858	50.7066
454.233	50.4192
457.608	49.2706
460.983	49.8186
464.358	49.3361
467.733	49.0522
471.107	49.3366
474.482	48.9878
477.857	48.6932
481.232	49.0435
484.606	48.8143
487.981	47.7791
491.356	47.1442
494.731	46.9174
498.106	47.0541
501.481	46.8661
504.855	46.3188
508.23	45.9118
511.605	46.4476
514.98	46.07
518.355	45.44
521.73	45.2412
525.104	44.3989
528.479	44.4522
531.854	44.8828
535.229	44.4376
538.604	44.0044
541.978	43.8984
545.353	44.0487
548.728	43.55
552.103	43.7452
555.478	43.2735
558.852	43.2902
562.227	43.4231
565.602	43.537
568.977	43.3321
572.352	43.4331
575.726	43.1324
579.101	42.5607
582.476	43.0487
585.851	42.869
589.226	42.637
592.601	42.6734
595.975	43.1236
599.35	42.4644
602.725	42.6459
606.1	42.6951
609.475	42.3509
612.85	42.8378
616.224	42.752
619.599	42.5267
622.974	43.2014
626.349	43.2985
629.723	43.2701
633.098	43.5989
636.473	44.3874
639.848	44.3763
643.223	45.4053
646.598	46.1629
649.972	46.5511
653.347	47.244
656.722	48.7675
660.097	49.913
663.472	50.9918
666.846	52.0694
670.221	53.0409
673.596	50.6582
676.971	48.6511
680.346	45.8989
683.721	44.2896
687.095	43.596
690.47	43.5371
693.845	42.5156
697.22	42.0857
700.595	42.249
703.97	41.8698
707.344	41.947
710.719	41.3854
714.094	42.2409
717.469	41.6529
720.843	43.7039
724.218	42.0766
727.593	41.6677
730.968	43.067
734.343	41.9346
737.718	41.607
741.092	41.3895
744.467	41.9432
747.842	41.8364
751.217	41.9227
754.592	41.2951
757.966	41.8815
761.341	41.0944
764.716	41.7205
768.091	41.5063
771.466	42.0071
774.841	41.862
778.215	41.8352
781.59	41.7745
784.965	42.115
788.34	41.971
791.715	42.1245
795.089	42.2944
798.464	41.976
801.839	41.7314
805.214	42.3864
808.589	42.0769
811.963	42.0301
815.338	42.076
818.713	41.6315
822.088	43.1375
825.463	42.2309
828.838	41.5905
832.212	41.9154
835.587	41.6389
838.962	42.025
842.337	41.571
845.712	41.6672
849.087	41.5697
852.461	41.4548
855.836	41.8912
859.211	41.5313
862.586	41.5224
865.961	41.7144
869.335	40.9257
872.71	41.0137
876.085	40.2681
879.46	40.4577
882.835	40.5195
886.209	40.5004
889.584	39.7629
892.959	39.7175
896.334	39.7878
899.709	39.5579
903.083	39.2703
906.458	39.245
909.833	38.9637
913.208	39.1198
916.583	39.197
919.958	38.9402
923.332	38.8425
926.707	38.9747
930.082	38.5509
933.457	38.7083
936.832	38.7345
940.207	38.5806
943.581	38.3625
946.956	38.5906
950.331	38.0626
953.706	38.3856
957.081	38.1875
960.455	38.1735
963.83	38.1664
967.205	38.1181
970.58	38.0014
973.955	37.9537
977.329	37.3753
980.704	37.952
984.079	38.0364
987.454	37.7903
990.829	37.4779
994.203	38.0992
997.578	37.9422
1000.95	38.3353
1004.33	37.5457
1007.7	37.7013
1011.08	37.9195
1014.45	38.1673
1017.83	39.4229
1021.2	40.4953
1024.58	38.2846
1027.95	38.2067
1031.33	38.7235
1034.7	38.5999
1038.08	38.8989
1041.45	38.8567
1044.83	38.7734
1048.2	38.3181
1051.58	38.1874
1054.95	38.2335
1058.33	37.9473
1061.7	37.9301
1065.08	37.5511
1068.45	37.7971
1071.82	37.6904
1075.2	37.23
1078.57	36.8165
1081.95	37.3848
1085.32	37.1197
1088.7	37.2257
1092.07	37.6803
1095.45	37.2535
1098.82	37.0285
1102.2	37.1715
1105.57	36.7833
1108.95	37.3619
1112.32	36.8752
1115.7	37.2977
1119.07	37.2081
1122.45	37.1512
1125.82	37.2997
1129.2	37.1206
1132.57	36.9548
1135.95	37.0823
1139.32	37.1403
1142.69	37.4956
1146.07	37.7244
1149.44	37.4657
1152.82	37.4994
1156.19	37.3875
1159.57	37.1371
1162.94	37.0147
1166.32	37.4276
1169.69	37.629
1173.07	37.0585
1176.44	37.2695
1179.82	37.5298
1183.19	38.0402
1186.57	36.6962
1189.94	39.1558
1193.32	36.5962
1196.69	36.9446
1200.07	36.9461
1203.44	36.5829
1206.82	36.5652
1210.19	36.3671
1213.57	36.7885
1216.94	36.8668
1220.32	36.6168
1223.69	36.746
1227.07	36.6979
1230.44	36.2222
1233.82	36.7195
1237.19	36.0971
1240.57	36.2833
1243.94	36.4559
1247.32	35.9241
1250.69	36.0115
1254.06	35.9802
1257.44	36.1392
1260.81	36.4721
1264.19	36.4089
1267.56	36.3519
1270.94	36.1912
1274.31	36.8654
1277.69	36.398
1281.06	36.7494
