Measurement: Raman, 785 nm, unoriented, Raman Data RAW
Mineral: Alforsite
Rruff sample: R070356
Ideal chemistry: Ba_5_(PO_4_)_3_Cl
Locality: Madrelena mine, Tres Pozos, Baja California Norte, Mexico
Source: Michael Scott
Description: Colorless fragment
Raman shift (cm-1)	intensity
113.788	51.4327
116.68	54.9891
119.573	64.8106
122.466	78.5329
125.359	95.8919
128.251	148.787
131.144	180.012
134.037	227.761
136.929	261.639
139.822	297.589
142.715	389.642
145.607	499.816
148.5	600.481
151.393	697.051
154.286	718.051
157.178	724.215
160.071	786.637
162.964	855.101
165.856	934.216
168.749	1023.34
171.642	1074.82
174.534	1119.67
177.427	1149.73
180.32	1172.55
183.212	1264.02
186.105	1305.66
188.998	1388.31
191.891	1451.38
194.783	1526.93
197.676	1588.42
200.569	1669.08
203.461	1738.52
206.354	1868.18
209.247	1913.7
212.139	2007.28
215.032	2120.49
217.925	2204.68
220.818	2351.94
223.71	2466.03
226.603	2532.18
229.496	2683.67
232.388	2768.59
235.281	2895.91
238.174	2982.83
241.066	3082.6
243.959	3210.31
246.852	3338.12
249.745	3438.7
252.637	3539.47
255.53	3682.6
258.423	3800.89
261.315	3920.16
264.208	4045.71
267.101	4157.61
269.993	4323.32
272.886	4395.65
275.779	4517.77
278.672	4639.65
281.564	4771.88
284.457	4879.38
287.35	5000.9
290.242	5135.42
293.135	5131.48
296.028	5228.05
298.921	5293.52
301.813	5280.81
304.706	5331.22
307.599	5281.41
310.491	5252.71
313.384	5209.9
316.277	5115.15
319.169	5025.14
322.062	4959.08
324.955	4816.1
327.847	4723.6
330.74	4638.28
333.633	4479.41
336.526	4352.41
339.418	4253.63
342.311	4145.35
345.204	4020.34
348.096	3912.39
350.989	3835.54
353.882	3744.77
356.774	3666.77
359.667	3580.57
362.56	3516.43
365.452	3423.68
368.345	3319.37
371.238	3285.61
374.131	3199.26
377.023	3200.19
379.916	3080.52
382.809	3015.97
385.701	2982.63
388.594	2899.43
391.487	2813.48
394.38	2774.48
397.272	2717.85
400.165	2636.74
403.058	2601.04
405.95	2563.48
408.843	2489.48
411.736	2426.2
414.628	2375.37
417.521	2319.5
420.414	2296.74
423.307	2247.26
426.199	2240.02
429.092	2164.33
431.985	2153.93
434.877	2118.2
437.77	2095.8
440.663	2032.07
443.555	2011.95
446.448	2023.41
449.341	1960.8
452.234	1967.06
455.126	1948.32
458.019	1945.32
460.912	1915.36
463.804	1919.15
466.697	1915.94
469.59	1883.18
472.483	1895.78
475.375	1899.23
478.268	1862.45
481.161	1881.86
484.053	1872.96
486.946	1892.34
489.839	1887.02
492.731	1891.84
495.624	1914.01
498.517	1910.19
501.409	1917.69
504.302	1889
507.195	1928.94
510.088	1906.65
512.98	1942.18
515.873	1937.17
518.766	1925.02
521.658	1946.42
524.551	1958.48
527.444	1955.84
530.337	1946.32
533.229	1937.55
536.122	1922.53
539.015	1928.08
541.907	1941.77
544.8	1917.78
547.693	1911.51
550.585	1889.17
553.478	1898.5
556.371	1902.78
559.263	1867.61
562.156	1846.31
565.049	1814.85
567.942	1777.67
570.834	1801.51
573.727	1805.52
576.62	1735.24
579.512	1732.39
582.405	1666.12
585.298	1634.18
588.19	1663.19
591.083	1599.81
593.976	1586.76
596.869	1543.27
599.761	1521.73
602.654	1509.62
605.547	1471.31
608.439	1422.96
611.332	1433.64
614.225	1384.16
617.117	1339.55
620.01	1337.96
622.903	1302.99
625.795	1318.54
628.688	1277.39
631.581	1248.66
634.474	1232.47
637.366	1167.36
640.259	1181.65
643.152	1128.42
646.044	1129.4
648.937	1114.17
651.83	1104.34
654.722	1073.96
657.615	1062.83
660.508	1032.01
663.401	1020.92
666.293	1007.26
669.186	1002.28
672.079	966.989
674.971	950.337
677.864	937.69
680.757	938.432
683.649	909.995
686.542	876.484
689.435	866.432
692.328	848.03
695.22	847.426
698.113	812.812
701.006	825.501
703.898	807.212
706.791	789.17
709.684	770.482
712.577	765.857
715.469	764.567
718.362	777.455
721.255	732.113
724.147	727.626
727.04	713
729.933	713.874
732.825	687.006
735.718	665.387
738.611	678.629
741.504	683.078
744.396	646.058
747.289	662.325
750.182	638.543
753.074	636.313
755.967	621.685
758.86	609.087
761.752	592.111
764.645	601.549
767.538	581.889
770.431	595.846
773.323	588.205
776.216	567.247
779.109	570.472
782.001	569.705
784.894	547.659
787.787	544.983
790.679	552.653
793.572	563.814
796.465	538.538
799.357	535.215
802.25	544.849
805.143	544.632
808.036	517.814
810.928	514.074
813.821	533.058
816.714	524.995
819.606	537.461
822.499	543.431
825.392	527.891
828.284	512.981
831.177	535.076
834.07	521.184
836.963	526.601
839.855	528.796
842.748	532.607
845.641	521.156
848.533	506.996
851.426	512.235
854.319	525.681
857.212	537.595
860.104	510.47
862.997	536.444
865.89	521.674
868.782	530.059
871.675	530.528
874.568	531.734
877.46	518.347
880.353	518.524
883.246	532.858
886.139	526.219
889.031	533.509
891.924	539.211
894.817	546.922
897.709	538.965
900.602	547.203
903.495	555.651
906.388	550.777
909.28	553.227
912.173	549.318
915.066	569.07
917.958	570.284
920.851	580.883
923.744	586.445
926.636	595.522
929.529	625.573
932.422	631.263
935.314	660.869
938.207	699.22
941.1	675.516
943.993	673.231
946.885	668.624
949.778	650.468
952.671	668.559
955.563	684.915
958.456	680.467
961.349	700.035
964.241	699.253
967.134	738.931
970.027	759.859
972.92	766.542
975.812	782
978.705	822.605
981.598	840.504
984.49	863.192
987.383	893.966
990.276	914.087
993.168	962.18
996.061	1016.15
998.954	1027.66
1001.85	1077.81
1004.74	1110.04
1007.63	1151.2
1010.52	1176.41
1013.42	1252.3
1016.31	1270.55
1019.2	1351.33
1022.1	1391.43
1024.99	1466.05
1027.88	1507.2
1030.77	1558.21
1033.67	1660.38
1036.56	1715.2
1039.45	1773.42
1042.34	1874.16
1045.24	1941.44
1048.13	2044.46
1051.02	2115.33
1053.91	2253.09
1056.81	2335.89
1059.7	2450.21
1062.59	2604.12
1065.49	2688.58
1068.38	2796.58
1071.27	2885.14
1074.16	3013.33
1077.06	3186.7
1079.95	3330.95
1082.84	3502.14
1085.73	3604.8
1088.63	3737.15
1091.52	3984.04
1094.41	4102.51
1097.31	4318
1100.2	4545.76
1103.09	4708.9
1105.98	4925.66
1108.88	5219.85
1111.77	5421.28
1114.66	5743.06
1117.56	5974.77
1120.45	6339.24
1123.34	6640.94
1126.23	6985.53
1129.12	7344.53
1132.02	7803.36
1134.91	8136.2
1137.8	8633.86
1140.7	9096.92
1143.59	9569.56
