Measurement: Raman, 532 nm, unoriented, Raman Data Processed
Mineral: Alluaudite
Rruff sample: R160081
Ideal chemistry: NaMn^2+^Fe^3+^_2_(PO_4_)_3_
Locality: Green Monster mine, Trimble, South Dakota, USA
Source: Rock Currier
Description: Dark green massive.
Measured chemistry: (Na_0.97_Ca_0.06_)_∑=1.03_(Mn_0.81_Fe^2+^_0.12_Mg_0.02_)_∑=0.95_Fe^3+^_2_(PO_4_)_3_
Raman shift (cm-1)	intensity
139.241	0
142.616	3.71777
145.991	4.03467
149.365	0.15155
152.74	3.94647
156.115	9.70941
159.49	7.96893
162.865	34.0547
166.24	59.4145
169.614	82.086
172.989	60.2762
176.364	57.3954
179.739	68.9683
183.114	56.3009
186.488	38.867
189.863	33.5244
193.238	42.293
196.613	28.2178
199.988	18.6448
203.363	27.9233
206.737	36.7346
210.112	20.7137
213.487	4.36523
216.862	8.31677
220.237	20.2886
223.612	25.0112
226.986	18.1716
230.361	8.60071
233.736	3.52862
237.111	7.57892
240.486	12.6289
243.86	21.1737
247.235	41.3214
250.61	79.0866
253.985	113.813
257.36	108.84
260.735	103.148
264.109	86.0857
267.484	70.4878
270.859	70.7079
274.234	84.997
277.609	91.655
280.983	74.1489
284.358	46.4205
287.733	29.0392
291.108	14.6609
294.483	6.84357
297.858	6.62286
301.232	7.53259
304.607	2.22003
307.982	1.49255
311.357	2.25214
314.732	2.66742
318.106	1.45062
321.481	3.75476
324.856	9.9187
328.231	19.1586
331.606	30.8091
334.981	44.9275
338.355	59.4968
341.73	63.1047
345.105	62.1932
348.48	60.4622
351.855	61.0721
355.229	61.1587
358.604	66.8472
361.979	67.8423
365.354	66.8375
368.729	62.6515
372.103	54.7501
375.478	41.8453
378.853	36.6451
382.228	32.1096
385.603	33.92
388.978	41.3473
392.352	49.7146
395.727	52.9442
399.102	54.2582
402.477	50.6235
405.852	30.3449
409.226	9.40723
412.601	3.96088
415.976	1.86054
419.351	5.8161
422.726	0.944641
426.101	3.01196
429.475	6.36865
432.85	12.4891
436.225	20.8584
439.6	42.0009
442.975	73.9091
446.349	114.13
449.724	153.089
453.099	173.469
456.474	171.358
459.849	137.216
463.224	109.879
466.598	88.0727
469.973	89.5091
473.348	101.157
476.723	101.301
480.098	98.8348
483.473	96.4109
486.847	85.986
490.222	67.2003
493.597	49.3491
496.972	36.0144
500.347	28.6969
503.721	24.0242
507.096	20.0432
510.471	17.6718
513.846	11.5182
517.221	8.84259
520.596	4.14502
523.97	0.738098
527.345	3.41455
530.72	0.306091
534.095	2.93622
537.47	1.74982
540.844	2.98383
544.219	7.12067
547.594	15.1826
550.969	24.8998
554.344	35.9674
557.718	51.6628
561.093	47.1387
564.468	34.9177
567.843	30.8767
571.218	31.133
574.592	39.8573
577.967	58.1813
581.342	93.9228
584.717	148.948
588.092	214.912
591.467	279.779
594.841	271.298
598.216	186.056
601.591	118.954
604.966	85.8124
608.341	73.2819
611.716	66.4736
615.09	64.2894
618.465	69.1264
621.84	77.4717
625.215	84.7372
628.59	84.0594
631.964	69.9752
635.339	49.6535
638.714	40.9298
642.089	31.2064
645.464	22.5411
648.838	15.1353
652.213	11.2593
655.588	7.52716
658.963	4.02582
662.338	1.16095
665.713	0.677246
669.087	2.72607
672.462	1.45264
675.837	3.70642
679.212	1.28174
682.587	0.651001
685.962	1.4942
689.336	0.892212
692.711	0.710388
696.086	1.55017
699.461	0.030029
702.836	1.76752
706.21	0.029968
709.585	0.371765
712.96	0.01001
716.335	0.300476
719.71	9.88709
723.085	0.908142
726.459	0.669922
729.834	0.927124
733.209	1.01385
736.584	4.33923
739.959	3.49085
743.333	1.302
746.708	2.30383
750.083	2.63995
753.458	2.54248
756.833	0.121094
760.207	1.58398
763.582	2.2475
766.957	2.47095
770.332	2.18768
773.707	5.25934
777.082	3.10205
780.456	6.57703
783.831	5.13794
787.206	4.09106
790.581	5.90558
793.956	7.38763
797.33	10.097
800.705	10.9906
804.08	10.9085
807.455	9.87793
810.83	9.6897
814.205	11.543
817.579	13.8568
820.954	13.5867
824.329	12.9183
827.704	12.7524
831.079	14.0414
834.453	17.6906
837.828	14.3808
841.203	16.1838
844.578	17.9332
847.953	19.1258
851.328	20.3101
854.702	23.2999
858.077	19.7296
861.452	22.5371
864.827	19.5468
868.202	19.2218
871.577	16.738
874.951	12.4781
878.326	9.92975
881.701	8.92596
885.076	5.79669
888.451	3.13251
891.825	2.20306
895.2	1.22131
898.575	1.3598
901.95	2.54639
905.325	3.26935
908.699	4.53076
912.074	6.1026
915.449	2.09943
918.824	1.2663
922.199	6.91193
925.573	14.0391
928.948	22.5197
932.323	32.6903
935.698	43.9601
939.073	61.3652
942.448	76.8312
945.822	90.2353
949.197	95.542
952.572	114.674
955.947	147.293
959.322	206.362
962.697	271.842
966.071	335.804
969.446	333.777
972.821	293.392
976.196	283.237
979.571	298.408
982.945	302.727
986.32	240.788
989.695	154.86
993.07	97.129
996.445	66.0867
999.819	53.4985
1003.19	57.3748
1006.57	73.8901
1009.94	86.9142
1013.32	81.9834
1016.69	78.5709
1020.07	90.3065
1023.44	97.0333
1026.82	123.141
1030.19	186.692
1033.57	338.83
1036.94	599.668
1040.32	907.145
1043.69	836.151
1047.07	446.92
1050.44	190.971
1053.82	90.3356
1057.19	45.9879
1060.57	22.3183
1063.94	12.1051
1067.32	4.41455
1070.69	2.80518
1074.07	4.96344
1077.44	5.7074
1080.82	6.6878
1084.19	2.23022
1087.57	0.605042
1090.94	4.15949
1094.31	6.56116
1097.69	8.14477
1101.06	15.7864
1104.44	15.4849
1107.81	22.7538
1111.19	22.4396
1114.56	28.0596
1117.94	32.8597
1121.31	41.2498
1124.69	54.7031
1128.06	80.6318
1131.44	108.112
1134.81	121.38
1138.19	91.9401
1141.56	60.5919
1144.94	44.1907
1148.31	36.705
1151.69	33.2411
1155.06	33.1305
1158.44	31.3474
1161.81	29.6086
1165.19	23.4415
1168.56	22.1443
1171.93	18.5894
1175.31	20.2201
1178.68	16.2205
1182.06	13.9824
1185.43	8.17554
1188.81	2.6864
1192.18	2.12781
1195.56	1.42578
1198.93	1.57159
1202.31	0.295898
1205.68	1.70648
1209.06	5.25043
1212.43	7.69519
1215.81	9.14856
1219.18	10.2918
1222.56	9.51782
1225.93	9.21033
1229.31	2.75067
1232.68	7.87885
1236.06	5.82233
1239.43	4.32318
1242.81	3.45569
1246.18	4.14136
1249.56	2.87427
1252.93	3.23242
1256.31	3.85919
1259.68	2.28778
1263.06	1.70728
1266.43	0.947693
1269.81	2.19806
1273.18	2.28656
1276.56	2.60364
1279.93	3.58911
1283.3	0.312195
1286.68	3.54657
1290.05	4.07684
1293.43	6.53723
1296.8	0.535095
1300.18	0.544678
