Measurement: Raman, 780 nm, unoriented, Raman Data Processed
Mineral: Alluaudite
Rruff sample: R140711
Ideal chemistry: NaMn^2+^Fe^3+^_2_(PO_4_)_3_
Locality: Dyke Lode, Custer, Custer District, Custer County, South Dakota, USA
Source: Rock Currier
Description: Dark green massive, associated with micas and quartz.
Measured chemistry: Na_0.98_(Mn_0.58_Fe^2+^_0.31_Mg_0.18_)_âˆ‘=1.07_Fe^3+^_2_(PO_4_)_3_
Raman shift (cm-1)	intensity
93.3677	0
96.7425	3.57849
100.117	0.310852
103.492	9.46021
106.867	35.2159
110.242	36.0089
113.617	23.3722
116.992	19.2931
120.366	19.918
123.741	25.1198
127.116	13.8414
130.491	12.528
133.865	2.82254
137.24	0.710724
140.615	1.39279
143.99	0.184937
147.365	1.8234
150.74	2.73837
154.114	11.5077
157.489	14.2399
160.864	23.8713
164.239	33.033
167.614	38.1459
170.988	41.4345
174.363	40.7624
177.738	42.9487
181.113	39.0469
184.488	33.773
187.863	34.8009
191.237	31.3297
194.612	33.3164
197.987	25.3959
201.362	24.3475
204.737	22.4572
208.112	18.9411
211.486	14.1445
214.861	13.2759
218.236	11.3182
221.611	12.7541
224.986	9.90723
228.36	11.2826
231.735	11.4184
235.11	10.9485
238.485	13.7727
241.86	12.8443
245.234	17.3916
248.609	16.731
251.984	18.7246
255.359	19.6956
258.734	21.6087
262.109	21.4739
265.483	20.9135
268.858	18.4962
272.233	19.2922
275.608	18.5201
278.983	12.2727
282.358	6.79193
285.732	4.61868
289.107	3.52362
292.482	0.039154
295.857	2.98288
299.232	0.285309
302.606	0.881592
305.981	0.041168
309.356	1.58343
312.731	0.955963
316.106	0.535217
319.481	2.20026
322.855	4.30676
326.23	6.72565
329.605	5.52023
332.98	5.46265
336.355	3.207
339.729	4.74359
343.104	6.27161
346.479	6.50986
349.854	4.4624
353.229	6.72
356.603	7.86139
359.978	7.72876
363.353	6.54889
366.728	8.91495
370.103	6.62118
373.478	4.95926
376.852	4.37415
380.227	5.28159
383.602	5.23343
386.977	4.59259
390.352	4.70642
393.726	7.91046
397.101	8.63608
400.476	7.45578
403.851	5.82471
407.226	1.08917
410.601	1.84424
413.975	0.635529
417.35	0.245941
420.725	0.684998
424.1	1.19501
427.475	1.06744
430.849	3.31888
434.224	5.27487
437.599	8.47287
440.974	9.2294
444.349	11.3905
447.724	12.6924
451.098	11.878
454.473	13.3469
457.848	16.9907
461.223	17.0471
464.598	20.498
467.972	24.3099
471.347	29.903
474.722	30.7759
478.097	29.3176
481.472	25.9658
484.846	21.7693
488.221	17.9365
491.596	17.3772
494.971	10.103
498.346	10.2259
501.721	9.15897
505.095	6.54187
508.47	6.09622
511.845	4.77008
515.22	0.911072
518.595	2.48547
521.97	2.45801
525.344	0.919098
528.719	0.063782
532.094	0.32019
535.469	1.44675
538.844	0.374847
542.218	0.459717
545.593	1.38556
548.968	1.70761
552.343	0.611969
555.718	0.36322
559.092	0.538696
562.467	1.3616
565.842	2.26651
569.217	2.9549
572.592	7.42265
575.967	8.58463
579.341	14.5054
582.716	18.8612
586.091	21.245
589.466	24.8803
592.841	26.1074
596.216	22.5287
599.59	18.8115
602.965	16.2295
606.34	15.4609
609.715	14.6822
613.09	17.6517
616.464	17.0175
619.839	19.2445
623.214	19.2644
626.589	17.0771
629.964	17.128
633.338	13.2324
636.713	9.44913
640.088	7.99309
643.463	5.34663
646.838	4.59369
650.213	4.01431
653.587	2.34346
656.962	3.42824
660.337	1.39096
663.712	1.03912
667.087	1.73685
670.462	0.034393
673.836	0.026093
677.211	2.2245
680.586	0.146835
683.961	0.477753
687.336	1.61064
690.71	0.137222
694.085	1.35771
697.46	0.337997
700.835	0.529999
704.21	1.80582
707.585	1.88864
710.959	0.971573
714.334	2.18579
717.709	0.730026
721.084	0.275665
724.459	1.21199
727.833	0.025101
731.208	1.07044
734.583	1.38892
737.958	0.177811
741.333	1.90556
744.707	0.41983
748.082	1.23488
751.457	0.13588
754.832	2.25307
758.207	1.92445
761.582	0.956177
764.956	0.02739
768.331	1.14435
771.706	1.35739
775.081	0.209198
778.456	1.12234
781.83	0.800369
785.205	1.36664
788.58	3.20767
791.955	1.59712
795.33	2.38001
798.705	2.26077
802.079	1.03305
805.454	2.90933
808.829	2.08431
812.204	1.24773
815.579	3.31091
818.953	2.52852
822.328	4.47632
825.703	2.05017
829.078	2.59016
832.453	4.68216
835.827	4.30692
839.202	3.49513
842.577	4.42493
845.952	5.52121
849.327	2.3119
852.702	3.87419
856.076	4.832
859.451	4.43207
862.826	1.95485
866.201	4.39743
869.576	2.23651
872.951	3.90477
876.325	1.9532
879.7	1.56811
883.075	0.115326
886.45	1.59969
889.825	0.903534
893.199	1.53905
896.574	1.37878
899.949	0.591202
903.324	0.528015
906.699	0.802795
910.073	0.104919
913.448	0.670151
916.823	0.015594
920.198	0.920181
923.573	2.16025
926.948	2.76349
930.322	4.89227
933.697	5.92035
937.072	8.49142
940.447	10.2903
943.822	12.6216
947.197	14.7765
950.571	17.3027
953.946	23.134
957.321	26.6137
960.696	33.9963
964.071	40.6521
967.445	40.025
970.82	36.4265
974.195	31.4688
977.57	28.5131
980.945	22.0316
984.319	18.0721
987.694	14.9881
991.069	12.8723
994.444	12.4963
997.819	11.7307
1001.19	13.5704
1004.57	14.85
1007.94	15.0994
1011.32	17.9039
1014.69	17.6685
1018.07	20.0847
1021.44	23.623
1024.82	30.5304
1028.19	39.6889
1031.57	54.1085
1034.94	60.1905
1038.32	51.2387
1041.69	37.4749
1045.07	22.5622
1048.44	14.6237
1051.82	9.41267
1055.19	4.19525
1058.57	4.04668
1061.94	1.79747
1065.32	0.582855
1068.69	0.023911
1072.07	1.22516
1075.44	0.010529
1078.81	1.37219
1082.19	0.293839
1085.56	0.134644
1088.94	0.503906
1092.31	0.977402
1095.69	1.09978
1099.06	1.12431
1102.44	0.170807
1105.81	3.13538
1109.19	2.50381
1112.56	2.84077
1115.94	3.06471
1119.31	2.63915
1122.69	4.43375
1126.06	4.87276
1129.44	3.7265
1132.81	4.52736
1136.19	3.80693
1139.56	2.10823
1142.94	2.06633
1146.31	4.95972
1149.69	1.75728
1153.06	2.60651
1156.43	2.70616
1159.81	1.68105
1163.18	2.57085
1166.56	2.43962
1169.93	2.66644
1173.31	3.51996
1176.68	2.9662
1180.06	1.68155
1183.43	0.355316
1186.81	1.65153
1190.18	0.805496
1193.56	2.11084
1196.93	0.444214
1200.31	0.952896
1203.68	1.45593
1207.06	2.70564
1210.43	2.24602
1213.81	2.09563
1217.18	1.44128
1220.56	0.693359
1223.93	1.30739
1227.31	1.57318
1230.68	1.65221
1234.06	1.35232
1237.43	1.26263
1240.81	1.86362
1244.18	1.58343
1247.56	1.21178
1250.93	0.037491
1254.31	0.199707
1257.68	1.22463
1261.05	2.2912
1264.43	0.106766
1267.8	0.884415
1271.18	0.608719
1274.55	0.231827
1277.93	1.63405
1281.3	0.387878
