Measurement: Raman, 780 nm, unoriented, Raman Data Processed
Mineral: Alluaudite
Rruff sample: R160080
Ideal chemistry: NaMn^2+^Fe^3+^_2_(PO_4_)_3_
Locality: Buranga pegmatite, Gatumba District, Western Province, Rwanda
Source: Rock Currier
Description: Vitreous, brownish-yellow large platelets in clusters with good cleavage in and on dark brown siliceous matrix.
Measured chemistry: (Na_0.70_Mn_0.23_Ca_0.07_)_Σ=1.00_Mn_1.00_(Fe^3+^_1.50_Al_0.29_Mg_0.10_Mn_0.11_)_Σ=2.00_(PO_4_)_3_
Raman shift (cm-1)	intensity
107.349	0
110.724	25.1293
114.099	33.6312
117.474	7.94556
120.848	5.76849
124.223	21.3293
127.598	30.6801
130.973	34.2724
134.348	18.1209
137.722	14.1518
141.097	7.46057
144.472	2.41113
147.847	2.36115
151.222	0.195374
154.597	4.3418
157.971	5.10968
161.346	15.2019
164.721	22.6707
168.096	27.9509
171.471	27.2232
174.845	31.1417
178.22	34.1777
181.595	30.8678
184.97	23.131
188.345	23.176
191.72	29.1767
195.094	30.9356
198.469	26.5461
201.844	26.6514
205.219	25.2026
208.594	20.5146
211.969	15.9078
215.343	12.7348
218.718	10.9428
222.093	9.40674
225.468	8.94571
228.843	8.71329
232.217	6.36267
235.592	4.95734
238.967	6.68307
242.342	13.682
245.717	22.9239
249.091	32.1079
252.466	39.5309
255.841	50.5749
259.216	54.309
262.591	57.4933
265.966	57.5025
269.34	59.1369
272.715	60.9097
276.09	59.727
279.465	50.9791
282.84	38.5534
286.214	25.4236
289.589	16.3723
292.964	8.50296
296.339	2.07721
299.714	0.523895
303.089	1.22684
306.463	2.25604
309.838	0.006958
313.213	1.2449
316.588	2.37595
319.963	5.89004
323.337	7.3147
326.712	12.2492
330.087	14.9443
333.462	16.1484
336.837	18.053
340.212	17.8755
343.586	20.3581
346.961	22.2052
350.336	26.7213
353.711	33.2445
357.086	35.8253
360.46	36.9472
363.835	35.3068
367.21	35.9241
370.585	33.0443
373.96	30.6552
377.334	30.9701
380.709	30.5222
384.084	29.2065
387.459	29.4791
390.834	27.5675
394.209	24.5831
397.583	25.3055
400.958	31.103
404.333	27.8656
407.708	15.0493
411.083	5.70889
414.457	0.512314
417.832	0.210281
421.207	0.052155
424.582	0.892502
427.957	0.392349
431.332	1.22311
434.706	2.29031
438.081	3.20566
441.456	10.395
444.831	18.6974
448.206	27.9383
451.58	40.448
454.955	44.6632
458.33	48.3263
461.705	51.1998
465.08	64.1663
468.455	84.1254
471.829	99.013
475.204	105.556
478.579	96.3811
481.954	81.2277
485.329	65.9933
488.704	52.0616
492.078	37.6595
495.453	29.8597
498.828	22.0122
502.203	17.4672
505.577	13.0587
508.952	10.1035
512.327	7.65871
515.702	5.03931
519.077	1.66457
522.452	0.277008
525.826	0.564728
529.201	1.68497
532.576	0.435699
535.951	0.954666
539.326	0.508621
542.701	2.19853
546.075	6.19067
549.45	7.21765
552.825	8.87463
556.2	11.1388
559.575	11.7288
562.949	11.2724
566.324	12.4515
569.699	16.3409
573.074	20.0731
576.449	26.3023
579.823	37.0245
583.198	51.6048
586.573	75.1774
589.948	90.4456
593.323	89.0156
596.698	75.3416
600.072	64.2823
603.447	58.5195
606.822	55.8779
610.197	56.0841
613.572	57.8708
616.947	60.4758
620.321	66.4498
623.696	70.7402
627.071	69.7715
630.446	59.5381
633.821	46.3003
637.195	35.1352
640.57	26.234
643.945	20.4585
647.32	15.3478
650.695	12.0966
654.069	8.16608
657.444	6.1514
660.819	3.84781
664.194	2.93762
667.569	2.94694
670.944	2.21361
674.318	1.33612
677.693	0.009415
681.068	0.229202
684.443	0.021255
687.818	0.701294
691.192	0.982742
694.567	0.663422
697.942	1.33431
701.317	1.22572
704.692	0.090652
708.067	0.016968
711.441	0.318497
714.816	1.07231
718.191	0.017487
721.566	1.11258
724.941	1.27747
728.316	1.52214
731.69	0.820862
735.065	1.99028
738.44	1.87547
741.815	1.73451
745.19	2.91031
748.564	3.4467
751.939	1.7402
755.314	1.36562
758.689	1.16186
762.064	2.19023
765.438	1.88969
768.813	1.2462
772.188	2.19933
775.563	1.42821
778.938	2.17497
782.313	2.13748
785.687	1.90498
789.062	3.00942
792.437	2.45331
795.812	3.30956
799.187	4.17947
802.562	3.44011
805.936	5.15433
809.311	3.99058
812.686	5.29761
816.061	5.74783
819.436	5.62746
822.81	5.20148
826.185	5.30449
829.56	5.90865
832.935	6.31898
836.31	7.43303
839.684	8.65846
843.059	10.1686
846.434	10.0122
849.809	8.9805
853.184	9.12132
856.558	8.89558
859.933	7.14931
863.308	8.27632
866.683	5.80574
870.058	6.3904
873.433	3.10661
876.807	3.67999
880.182	2.30603
883.557	1.10831
886.932	1.07294
890.307	0.581619
893.682	0.895599
897.056	1.4236
900.431	1.33664
903.806	1.26181
907.181	0.710602
910.556	0.051407
913.93	1.26436
917.305	2.48973
920.68	4.52838
924.055	5.7509
927.43	10.1256
930.804	13.2126
934.179	15.041
937.554	19.9301
940.929	27.0128
944.304	34.3241
947.679	43.5326
951.053	52.9011
954.428	68.3191
957.803	84.8683
961.178	103.413
964.553	113.677
967.928	109.646
971.302	96.3931
974.677	81.555
978.052	70.424
981.427	57.6255
984.802	44.4939
988.176	37.4129
991.551	30.9425
994.926	32.6245
998.301	35.5252
1001.68	42.5472
1005.05	47.8456
1008.42	52.5629
1011.8	55.4279
1015.17	57.2759
1018.55	58.4097
1021.92	63.5864
1025.3	70.5222
1028.67	88.4001
1032.05	120.503
1035.42	169.002
1038.8	205.602
1042.17	178.398
1045.55	107.369
1048.92	53.7549
1052.3	26.5269
1055.67	11.8082
1059.05	4.11792
1062.42	0.245407
1065.8	2.05839
1069.17	2.40762
1072.55	0.981262
1075.92	0.872437
1079.3	1.66569
1082.67	0.03746
1086.05	2.6062
1089.42	3.85941
1092.8	5.36426
1096.17	5.73727
1099.55	6.7303
1102.92	9.64203
1106.3	10.9829
1109.67	12.4122
1113.05	14.3958
1116.42	15.6595
1119.79	15.4738
1123.17	17.0935
1126.54	14.2393
1129.92	13.8812
1133.29	11.7895
1136.67	10.3177
1140.04	8.51709
1143.42	9.01625
1146.79	8.03616
1150.17	8.59009
1153.54	7.33353
1156.92	6.76755
1160.29	6.94362
1163.67	6.75497
1167.04	6.7841
1170.42	6.92102
1173.79	6.92343
1177.17	6.63351
1180.54	6.83921
1183.92	3.60899
1187.29	0.075928
1190.66	1.13123
1194.04	1.01858
1197.41	0.303787
1200.79	1.01814
1204.16	4.96576
1207.54	9.33462
1210.91	12.4785
1214.29	13.4611
1217.66	12.8302
1221.04	11.6665
1224.41	8.74187
1227.79	7.31849
1231.16	5.90949
1234.54	2.86855
1237.91	1.37495
1241.29	0.130142
1244.66	0.319214
1248.04	0.618507
1251.41	1.71682
1254.79	1.59119
1258.16	1.5513
1261.54	4.17742
1264.91	1.24692
1268.29	3.22269
1271.66	0.741409
1275.04	0.031212
1278.41	1.14463
1281.79	0.204659
