Measurement: Raman, 780 nm, unoriented, Raman Data Processed
Mineral: Alluaudite
Rruff sample: R141067
Ideal chemistry: NaMn^2+^Fe^3+^_2_(PO_4_)_3_
Locality: Pleasant Valley pegmatite, Fourmile, Custer District, Custer County, South Dakota, USA
Source: Rob Lavinsky
Description: Massive dark-brown crystals, associated with quartz, mica, and dark-green schorl.
Measured chemistry: (Na_0.93_Ca_0.03_)_∑=0.96_(Mn_0.77_Fe^2+^_0.21_Mg_0.06_)_∑=1.04_Fe^3+^_2_(PO_4_)_3_
Raman shift (cm-1)	intensity
159.9	0
162.792	2.87288
165.685	7.41609
168.578	15.0593
171.471	14.9928
174.363	14.9702
177.256	17.0466
180.149	17.0008
183.041	14.5233
185.934	15.8574
188.827	23.5418
191.72	25.9728
194.612	22.2714
197.505	12.6474
200.398	7.35609
203.29	6.52763
206.183	5.43251
209.076	1.85806
211.969	0.68251
214.861	2.35979
217.754	0.42572
220.647	2.95824
223.539	4.2312
226.432	7.58066
229.325	10.8372
232.217	11.6182
235.11	11.4184
238.003	11.705
240.895	11.149
243.788	11.9351
246.681	14.5882
249.574	17.7252
252.466	20.9169
255.359	25.6428
258.252	29.2094
261.144	29.5085
264.037	28.3398
266.93	28.5528
269.822	32.861
272.715	38.1854
275.608	45.2994
278.5	45.6125
281.393	37.1314
284.286	27.3128
287.179	17.1741
290.071	10.1472
292.964	6.27965
295.857	3.5145
298.75	4.03226
301.642	1.77623
304.535	0.056091
307.428	0.949654
310.32	0.238029
313.213	0.757629
316.106	0.969887
318.998	1.38495
321.891	1.89113
324.784	3.4282
327.676	5.3336
330.569	6.75751
333.462	9.07404
336.355	11.3195
339.247	12.5376
342.14	12.6061
345.033	12.549
347.925	11.9447
350.818	12.6302
353.711	16.0699
356.603	17.4962
359.496	17.0403
362.389	16.1201
365.282	15.8441
368.174	15.0075
371.067	14.1796
373.96	13.2467
376.852	11.46
379.745	12.3711
382.638	12.9313
385.531	13.9583
388.423	16.6199
391.316	16.594
394.209	17.036
397.101	16.7909
399.994	18.0364
402.887	16.1852
405.779	11.2158
408.672	4.72539
411.565	1.58122
414.457	0.083603
417.35	0.76091
420.243	1.23817
423.136	0.814713
426.028	0.242523
428.921	0.371513
431.814	0.456635
434.706	0.99263
437.599	3.03999
440.492	5.24495
443.385	8.34205
446.277	12.5259
449.17	15.7471
452.063	17.8605
454.955	18.4215
457.848	18.5619
460.741	17.8271
463.633	19.68
466.526	23.6074
469.419	30.0833
472.312	38.1438
475.204	41.3732
478.097	39.6057
480.99	35.074
483.882	30.8481
486.775	27.6651
489.668	22.7616
492.56	19.1622
495.453	16.066
498.346	13.9054
501.238	12.1788
504.131	11.2823
507.024	10.1302
509.917	9.19884
512.809	8.78439
515.702	6.51827
518.595	4.71431
521.487	3.22945
524.38	1.47036
527.273	0.408867
530.165	0.139645
533.058	0.631866
535.951	1.27127
538.844	0.140614
541.736	0.35865
544.629	0.563316
547.522	2.81602
550.414	3.85724
553.307	4.72093
556.2	6.37298
559.092	4.74745
561.985	3.92662
564.878	3.81781
567.771	4.42154
570.663	5.25787
573.556	5.60104
576.449	7.8576
579.341	11.1599
582.234	17.7929
585.127	27.0091
588.019	40.1907
590.912	53.349
593.805	53.8008
596.698	44.6184
599.59	33.7885
602.483	27.1417
605.376	23.3368
608.268	21.1228
611.161	21.2914
614.054	20.3782
616.947	22.4628
619.839	23.1794
622.732	26.8486
625.625	28.2021
628.517	27.8535
631.41	24.14
634.303	20.2259
637.195	17.9131
640.088	13.6858
642.981	12.3658
645.874	10.3738
648.766	7.43964
651.659	5.30334
654.552	3.94382
657.444	3.24199
660.337	3.67968
663.23	1.83283
666.122	1.23167
669.015	1.27718
671.908	0.516598
674.801	0.692841
677.693	0.289848
680.586	0.522964
683.479	0.328117
686.371	0.55407
689.264	0.47599
692.157	0.05624
695.049	0.033176
697.942	1.30392
700.835	0.325642
703.727	0.428959
706.62	0.316532
709.513	0.191692
712.406	0.198532
715.298	0.147015
718.191	0.566292
721.084	0.229248
723.976	0.437523
726.869	1.28508
729.762	0.552578
732.654	0.097435
735.547	0.338547
738.44	0.503288
741.333	1.61171
744.225	1.36232
747.118	1.25325
750.011	0.566322
752.903	1.22647
755.796	1.19826
758.689	0.923218
761.582	1.0797
764.474	0.826523
767.367	0.907501
770.26	1.07957
773.152	1.03841
776.045	0.847267
778.938	1.52213
781.83	1.04956
784.723	0.32457
787.616	1.16552
790.509	1.24004
793.401	2.09683
796.294	2.30601
799.187	1.93873
802.079	2.12798
804.972	2.71477
807.865	2.606
810.757	2.78365
813.65	2.03571
816.543	3.63226
819.436	3.97492
822.328	3.07395
825.221	3.89562
828.114	4.26241
831.006	3.57275
833.899	4.17857
836.792	4.01237
839.684	3.80342
842.577	4.16295
845.47	4.45113
848.362	5.38623
851.255	6.7775
854.148	5.95097
857.041	6.01664
859.933	5.35804
862.826	5.63137
865.719	4.16647
868.611	4.21268
871.504	4.97694
874.397	3.92652
877.29	3.87094
880.182	3.27423
883.075	3.17498
885.968	2.50438
888.86	2.14391
891.753	2.11412
894.646	0.968483
897.538	0.315159
900.431	0.638832
903.324	0.030815
906.217	1.02685
909.109	0.969566
912.002	0.964138
914.895	0.609974
917.787	0.072613
920.68	1.12735
923.573	1.45655
926.466	1.56174
929.358	3.79859
932.251	4.91751
935.144	6.48518
938.036	8.44488
940.929	11.1074
943.822	12.8585
946.714	14.0642
949.607	16.0423
952.5	19.4573
955.393	24.8463
958.285	30.2487
961.178	39.1988
964.071	50.0204
966.963	57.3252
969.856	57.5635
972.749	51.7602
975.641	47.3521
978.534	41.5759
981.427	38.4256
984.319	33.5134
987.212	27.5434
990.105	23.6333
992.998	22.695
995.89	20.9666
998.783	21.7211
1001.68	24.5547
1004.57	29.4129
1007.46	34.0693
1010.35	36.662
1013.25	37.289
1016.14	35.1869
1019.03	36.6193
1021.92	38.6699
1024.82	36.1103
1027.71	35.5559
1030.6	38.794
1033.49	49.0634
1036.39	71.6847
1039.28	98.6596
1042.17	111.117
1045.07	92.2509
1047.96	59.5286
1050.85	35.1888
1053.74	18.2477
1056.64	9.43507
1059.53	5.23786
1062.42	2.29256
1065.32	0.157509
1068.21	0.129669
1071.1	1.20471
1073.99	1.61306
1076.89	1.67288
1079.78	0.867134
1082.67	0.114567
1085.56	0.452034
1088.46	0.769817
1091.35	1.74313
1094.24	2.27408
1097.13	4.50339
1100.03	5.95708
1102.92	6.96418
1105.81	8.12022
1108.71	9.95926
1111.6	10.4391
1114.49	12.4089
1117.38	13.6524
1120.28	15.8188
1123.17	17.4347
1126.06	21.4792
1128.95	23.2979
1131.85	23.2694
1134.74	20.749
1137.63	15.7996
1140.53	11.0986
1143.42	8.94011
1146.31	6.78443
1149.2	6.93702
1152.1	5.87592
1154.99	5.72522
1157.88	6.12346
1160.77	5.68373
1163.67	4.49006
1166.56	5.23358
1169.45	5.64392
1172.35	5.59735
1175.24	7.85971
1178.13	8.71393
1181.02	10.259
1183.92	9.30728
1186.81	7.29583
1189.7	4.0583
1192.59	2.16021
1195.49	0.459469
1198.38	0.086067
1201.27	0.416832
1204.16	0.01754
1207.06	0.111855
1209.95	1.27599
1212.84	1.2631
1215.73	1.80143
1218.63	1.53964
1221.52	1.81575
1224.41	1.66581
1227.31	0.280514
1230.2	0.708672
1233.09	0.941799
1235.98	0.513058
1238.88	0.953945
1241.77	0.317482
1244.66	0.125736
1247.56	0.063969
1250.45	0.100121
1253.34	0.565399
1256.23	0.305767
1259.13	1.23925
1262.02	1.57627
1264.91	1.29761
1267.8	1.39597
1270.7	0.954338
1273.59	0.813343
1276.48	0.363258
1279.38	0.664238
1282.27	0
