Measurement: Raman, 532 nm, unoriented, Raman Data Processed
Mineral: Alluaudite
Rruff sample: R160080
Ideal chemistry: NaMn^2+^Fe^3+^_2_(PO_4_)_3_
Locality: Buranga pegmatite, Gatumba District, Western Province, Rwanda
Source: Rock Currier
Description: Vitreous, brownish-yellow large platelets in clusters with good cleavage in and on dark brown siliceous matrix.
Measured chemistry: (Na_0.70_Mn_0.23_Ca_0.07_)_Σ=1.00_Mn_1.00_(Fe^3+^_1.50_Al_0.29_Mg_0.10_Mn_0.11_)_Σ=2.00_(PO_4_)_3_
Raman shift (cm-1)	intensity
144.544	0
147.437	1.35205
150.33	0.983154
153.222	13.2077
156.115	28.96
159.008	45.2954
161.901	73.5867
164.793	98.6506
167.686	98.6641
170.579	81.4664
173.471	69.6888
176.364	63.0485
179.257	59.8732
182.149	52.9083
185.042	49.439
187.935	53.5286
190.828	64.8504
193.72	70.8491
196.613	73.5603
199.506	76.983
202.398	83.5045
205.291	82.1522
208.184	76.7856
211.077	66.4157
213.969	50.5575
216.862	36.7736
219.755	30.8623
222.647	23.4805
225.54	15.7318
228.433	7.78485
231.325	1.94305
234.218	3.12744
237.111	3.15588
240.004	1.33118
242.896	10.1031
245.789	25.2768
248.682	42.474
251.574	66.0562
254.467	88.2247
257.36	111.674
260.252	118.357
263.145	121.973
266.038	121.164
268.93	120.2
271.823	120.615
274.716	118.037
277.609	105.742
280.501	86.3782
283.394	66.5935
286.287	49.2934
289.179	32.2343
292.072	17.2359
294.965	7.6499
297.858	1.37784
300.75	0.454834
303.643	2.04785
306.536	1.44714
309.428	0.383118
312.321	2.49957
315.214	3.41061
318.106	8.8717
320.999	18.6249
323.892	26.0347
326.784	36.0349
329.677	45.2722
332.57	53.9977
335.463	63.8515
338.355	71.2628
341.248	80.9815
344.141	91.1504
347.033	106.364
349.926	119.101
352.819	135.726
355.712	139.941
358.604	143.545
361.497	144.117
364.39	140.65
367.282	134.135
370.175	125.248
373.068	115.268
375.96	111.44
378.853	105.265
381.746	104.518
384.639	102.587
387.531	100.528
390.424	100.943
393.317	96.6287
396.209	99.51
399.102	105.944
401.995	107.94
404.887	79.3323
407.78	48.9813
410.673	25.3638
413.565	12.1646
416.458	5.90765
419.351	7.84967
422.244	4.71695
425.136	2.24912
428.029	1.54923
430.922	2.87015
433.814	0.250122
436.707	5.79269
439.6	17.7522
442.493	30.2816
445.385	50.4959
448.278	68.1131
451.171	86.3361
454.063	99.7597
456.956	108.228
459.849	118.03
462.741	137.45
465.634	172.854
468.527	212.234
471.42	247.924
474.312	270.145
477.205	264.56
480.098	245.35
482.99	213.577
485.883	179.344
488.776	144.796
491.668	112.717
494.561	83.9568
497.454	64.856
500.347	52.2602
503.239	43.5087
506.132	35.0724
509.025	27.4894
511.917	18.7889
514.81	13.1009
517.703	6.53455
520.596	1.15149
523.488	1.55032
526.381	4.45395
529.274	3.69308
532.166	3.28207
535.059	3.11047
537.952	0.601196
540.844	7.03986
543.737	11.7649
546.63	16.2551
549.523	19.9873
552.415	25.604
555.308	23.993
558.201	27.194
561.093	25.9828
563.986	28.388
566.879	38.0656
569.771	46.3171
572.664	62.1836
575.557	85.8026
578.449	115.064
581.342	154.071
584.235	202.058
587.128	248.528
590.02	274.355
592.913	266.54
595.806	224.443
598.698	196.686
601.591	175.983
604.484	170.088
607.376	177.582
610.269	186.317
613.162	203.117
616.055	226.908
618.947	256.648
621.84	280.227
624.733	292.787
627.625	276.283
630.518	232.799
633.411	179.715
636.303	133.597
639.196	96.944
642.089	75.268
644.982	54.446
647.874	41.6339
650.767	31.5378
653.66	23.3535
656.552	16.7508
659.445	10.8611
662.338	8.06766
665.231	6.18317
668.123	4.61557
671.016	2.84491
673.909	0.815338
676.801	0.072784
679.694	0.057983
682.587	1.31982
685.479	0.935242
688.372	2.72983
691.265	1.29236
694.158	0.405243
697.05	0.518402
699.943	0.654633
702.836	0.318542
705.728	1.43127
708.621	0.162109
711.514	0.58728
714.406	2.85165
717.299	0.677124
720.192	1.61899
723.085	0.551178
725.977	8.034
728.87	2.43945
731.763	4.45111
734.655	3.17599
737.548	6.71182
740.441	5.43179
743.333	7.91623
746.226	6.32721
749.119	6.79468
752.011	5.23297
754.904	5.96725
757.797	6.77878
760.69	7.79349
763.582	6.90832
766.475	8.20914
769.368	7.14108
772.26	11.4919
775.153	10.4057
778.046	10.897
780.938	10.4304
783.831	12.336
786.724	11.1929
789.617	13.3084
792.509	13.9557
795.402	15.3763
798.295	16.4774
801.187	16.5429
804.08	16.4468
806.973	18.9469
809.865	18.3025
812.758	18.4062
815.651	18.0365
818.544	20.9625
821.436	20.6762
824.329	21.5604
827.222	23.9583
830.114	24.9298
833.007	26.7218
835.9	29.4357
838.793	33.3027
841.685	33.3295
844.578	34.9034
847.471	29.6347
850.363	30.2207
853.256	27.2457
856.149	27.4383
859.041	23.9928
861.934	21.0793
864.827	18.2145
867.72	16.9517
870.612	13.4908
873.505	7.86865
876.398	4.73862
879.29	2.28262
882.183	0.78009
885.076	0.895691
887.968	3.71097
890.861	7.18936
893.754	6.48172
896.646	6.7507
899.539	4.4494
902.432	4.44229
905.325	0.575989
908.217	4.28714
911.11	12.8952
914.003	17.0111
916.895	26.3336
919.788	34.0375
922.681	43.5019
925.573	53.2026
928.466	64.4807
931.359	80.3356
934.252	95.7505
937.144	119.515
940.037	147.538
942.93	181.076
945.822	218.917
948.715	264.404
951.608	324.204
954.5	402.329
957.393	495.61
960.286	578.753
963.179	631.377
966.071	629.88
968.964	578.245
971.857	501.907
974.75	426.551
977.642	361.76
980.535	299.095
983.428	235.643
986.32	181.573
989.213	143.888
992.106	124.664
994.998	124.435
997.891	130.702
1000.78	141.37
1003.68	154.075
1006.57	171.722
1009.46	179.348
1012.36	181.327
1015.25	184.384
1018.14	192.822
1021.03	207.151
1023.92	226.851
1026.82	270.086
1029.71	336.258
1032.6	438.421
1035.5	548.043
1038.39	621.471
1041.28	576.336
1044.17	412.778
1047.07	243.492
1049.96	137.516
1052.85	75.7284
1055.74	40.5062
1058.64	17.1896
1061.53	6.25299
1064.42	2.27451
1067.32	6.58817
1070.21	9.09253
1073.1	9.18298
1075.99	7.76108
1078.89	7.12259
1081.78	3.0878
1084.67	0.480225
1087.57	4.15344
1090.46	6.58664
1093.35	8.81622
1096.24	10.1714
1099.14	15.024
1102.03	17.4407
1104.92	20.3802
1107.81	20.7554
1110.71	27.0669
1113.6	29.4481
1116.49	32.6644
1119.38	34.5411
1122.28	35.8142
1125.17	38.5313
1128.06	38.1591
1130.95	33.9613
1133.85	31.5653
1136.74	33.0462
1139.63	32.2844
1142.53	33.9631
1145.42	37.6372
1148.31	42.0644
1151.2	50.2664
1154.1	55.7427
1156.99	61.8278
1159.88	67.6819
1162.78	73.9812
1165.67	77.8444
1168.56	84.8758
1171.45	85.2551
1174.35	84.8654
1177.24	78.3147
1180.13	68.0202
1183.02	46.8392
1185.92	32.1403
1188.81	18.5902
1191.7	6.03195
1194.6	5.92227
1197.49	9.63748
1200.38	18.4067
1203.27	31.9949
1206.17	46.6664
1209.06	67.7073
1211.95	81.4824
1214.84	87.7319
1217.74	84.1777
1220.63	73.5092
1223.52	59.9076
1226.41	44.8119
1229.31	33.7897
1232.2	22.3077
1235.09	15.7641
1237.98	6.16998
1240.88	0.745728
1243.77	0.99115
1246.66	2.51462
1249.56	1.76566
1252.45	1.27881
1255.34	0.681458
1258.23	3.21661
1261.13	3.13165
1264.02	5.08121
1266.91	7.68729
1269.81	7.07404
1272.7	9.39307
1275.59	5.42264
1278.48	4.82877
1281.38	4.74457
1284.27	4.98572
1287.16	4.7887
1290.05	3.10165
1292.95	2.15555
1295.84	2.86945
1298.73	0.173889
