Measurement: Raman, 532 nm, unoriented, Raman Data Processed
Mineral: Alluaudite
Rruff sample: R140711
Ideal chemistry: NaMn^2+^Fe^3+^_2_(PO_4_)_3_
Locality: Dyke Lode, Custer, Custer District, Custer County, South Dakota, USA
Source: Rock Currier
Description: Dark green massive, associated with micas and quartz.
Measured chemistry: Na_0.98_(Mn_0.58_Fe^2+^_0.31_Mg_0.18_)_âˆ‘=1.07_Fe^3+^_2_(PO_4_)_3_
Raman shift (cm-1)	intensity
103.564	0
106.939	27.4653
110.314	66.9226
113.689	65.0386
117.064	33.6202
120.439	13.6485
123.813	23.6817
127.188	18.4286
130.563	16.8645
133.938	3.88759
137.313	1.37071
140.687	4.3696
144.062	1.94867
147.437	0.218979
150.812	1.24721
154.187	8.80652
157.561	10.37
160.936	25.8468
164.311	43.1641
167.686	57.7342
171.061	63.2102
174.436	53.8588
177.81	51.2729
181.185	50.905
184.56	41.0048
187.935	36.3261
191.31	35.9333
194.685	27.7475
198.059	21.5049
201.434	20.9434
204.809	20.4358
208.184	16.8111
211.559	5.80623
214.933	0.207016
218.308	1.97278
221.683	0.754883
225.058	0.110825
228.433	0.821472
231.808	0.953033
235.182	2.28085
238.557	3.07414
241.932	8.14955
245.307	12.9394
248.682	18.8471
252.056	27.2626
255.431	38.6556
258.806	49.1946
262.181	48.9574
265.556	43.644
268.93	41.3628
272.305	43.1967
275.68	45.044
279.055	40.2268
282.43	28.0659
285.805	18.708
289.179	9.11067
292.554	3.95471
295.929	3.14067
299.304	0.999481
302.679	0.441467
306.053	0.160843
309.428	0.022888
312.803	0.001389
316.178	3.20541
319.553	4.80254
322.928	7.99162
326.302	14.6648
329.677	18.2548
333.052	28.8087
336.427	29.5252
339.802	34.6277
343.176	35.6358
346.551	37.3989
349.926	39.352
353.301	45.4467
356.676	47.6724
360.051	49.3199
363.425	50.2469
366.8	47.2973
370.175	42.1114
373.55	38.3992
376.925	33.688
380.3	30.5768
383.674	31.05
387.049	32.8297
390.424	34.9023
393.799	36.3677
397.174	39.8763
400.548	44.0987
403.923	34.1218
407.298	18.3271
410.673	7.72584
414.048	4.91635
417.423	0.428177
420.797	0.835938
424.172	1.16596
427.547	1.02089
430.922	0.173203
434.296	2.36717
437.671	5.75084
441.046	13.4997
444.421	21.8845
447.796	28.5888
451.171	33.1278
454.545	32.6289
457.92	36.5218
461.295	39.3597
464.67	48.7205
468.045	63.9735
471.42	87.2673
474.794	103.878
478.169	106.638
481.544	100.392
484.919	88.4679
488.294	72.6902
491.668	60.8094
495.043	46.2279
498.418	34.2463
501.793	31.3389
505.168	25.1087
508.543	22.1155
511.917	15.9553
515.292	12.2633
518.667	8.84114
522.042	4.51733
525.417	1.07942
528.791	0.229233
532.166	1.85452
535.541	1.03177
538.916	0.503448
542.291	0.072968
545.665	2.61833
549.04	4.96405
552.415	7.15544
555.79	9.65888
559.165	11.1438
562.54	11.1768
565.914	13.5454
569.289	17.2934
572.664	21.8403
576.039	31.0564
579.414	43.2814
582.788	62.934
586.163	86.561
589.538	113.87
592.913	123.869
596.288	114.253
599.663	93.9414
603.037	80.5528
606.412	76.7912
609.787	79.6476
613.162	82.7469
616.537	96.546
619.912	108.861
623.286	126.047
626.661	125.261
630.036	111.365
633.411	84.0957
636.786	62.7821
640.16	43.9684
643.535	34.5279
646.91	26.3033
650.285	17.6353
653.66	13.4145
657.034	8.55664
660.409	4.27754
663.784	1.72475
667.159	2.39537
670.534	0.291626
673.909	0.015091
677.283	0.841965
680.658	0.469421
684.033	1.11667
687.408	0.327377
690.783	0.197876
694.158	1.81566
697.532	1.48233
700.907	1.06534
704.282	1.38817
707.657	2.24753
711.032	0.15004
714.406	1.01085
717.781	0.170563
721.156	1.71832
724.531	0.382706
727.906	1.56357
731.28	1.85346
734.655	3.22601
738.03	3.18997
741.405	3.12636
744.78	0.981522
748.154	0.106186
751.529	0.74765
754.904	2.05606
758.279	3.25484
761.654	2.27177
765.029	2.28805
768.403	3.11095
771.778	3.13765
775.153	5.34331
778.528	5.31525
781.903	5.59584
785.278	5.20438
788.652	5.41916
792.027	5.00679
795.402	4.69194
798.777	5.78029
802.152	5.41885
805.526	5.64064
808.901	4.43092
812.276	6.72751
815.651	7.53947
819.026	5.71078
822.4	7.25664
825.775	5.06606
829.15	8.58301
832.525	6.38353
835.9	7.6413
839.275	8.7919
842.649	7.05621
846.024	8.56535
849.399	9.49409
852.774	9.45418
856.149	7.9474
859.524	6.71854
862.898	8.41714
866.273	5.93016
869.648	5.5313
873.023	4.16495
876.398	2.1494
879.773	3.22868
883.147	3.15227
886.522	1.24492
889.897	0.489212
893.272	0.072968
896.646	1.36472
900.021	1.6344
903.396	2.4716
906.771	1.95464
910.146	1.96608
913.521	1.53032
916.895	0.179138
920.27	4.72569
923.645	9.63487
927.02	17.8777
930.395	21.8347
933.769	31.7849
937.144	41.0483
940.519	52.0785
943.894	62.8962
947.269	75.8931
950.644	94.9598
954.018	118.961
957.393	152.296
960.768	195.446
964.143	244.865
967.518	276.443
970.893	279.37
974.267	252.486
977.642	219.975
981.017	181.27
984.392	146.373
987.767	114.057
991.141	91.9489
994.516	79.9251
997.891	74.6745
1001.27	78.4023
1004.64	82.9998
1008.02	90.3335
1011.39	88.2718
1014.76	91.8342
1018.14	94.8734
1021.51	97.3878
1024.89	106.405
1028.26	116.904
1031.64	146.547
1035.01	195.385
1038.39	242.311
1041.76	237.419
1045.14	179.006
1048.51	109.148
1051.89	63.9013
1055.26	33.1936
1058.64	15.9559
1062.01	7.54324
1065.39	1.56189
1068.76	1.63287
1072.14	2.99692
1075.51	0.665375
1078.89	5.53764
1082.26	4.99487
1085.64	0.539001
1089.01	1.53397
1092.39	3.13678
1095.76	4.96049
1099.14	8.38908
1102.51	7.88004
1105.88	9.72076
1109.26	13.066
1112.63	14.4876
1116.01	15.8866
1119.38	18.2086
1122.76	19.0357
1126.13	19.8715
1129.51	23.2605
1132.88	21.5807
1136.26	18.9078
1139.63	17.194
1143.01	17.5912
1146.38	17.0451
1149.76	17.6364
1153.13	18.9733
1156.51	18.5371
1159.88	20.4611
1163.26	16.8178
1166.63	18.7244
1170.01	17.862
1173.38	16.0164
1176.76	15.5409
1180.13	13.9753
1183.51	10.9857
1186.88	7.21884
1190.26	2.33307
1193.63	0.313354
1197.01	1.15076
1200.38	1.30542
1203.76	1.87946
1207.13	3.6113
1210.51	2.83542
1213.88	4.72574
1217.25	6.26251
1220.63	7.35651
1224	6.21143
1227.38	7.00617
1230.75	4.36594
1234.13	4.33264
1237.5	1.94418
1240.88	2.77948
1244.25	2.5072
1247.63	1.72372
1251	2.18086
1254.38	0.496368
1257.75	1.64032
1261.13	0.603546
1264.5	3.67264
1267.88	3.24014
1271.25	1.1962
1274.63	2.18893
1278	1.19595
1281.38	3.25024
1284.75	2.48795
1288.12	3.07202
1291.5	3.95431
1294.88	0.589996
1298.25	0.14032
