Measurement: Raman, 532 nm, unoriented, Raman Data Processed
Mineral: Alluaudite
Rruff sample: R141067
Ideal chemistry: NaMn^2+^Fe^3+^_2_(PO_4_)_3_
Locality: Pleasant Valley pegmatite, Fourmile, Custer District, Custer County, South Dakota, USA
Source: Rob Lavinsky
Description: Massive dark-brown crystals, associated with quartz, mica, and dark-green schorl.
Measured chemistry: (Na_0.93_Ca_0.03_)_∑=0.96_(Mn_0.77_Fe^2+^_0.21_Mg_0.06_)_∑=1.04_Fe^3+^_2_(PO_4_)_3_
Raman shift (cm-1)	intensity
187.935	0
190.828	0.061905
193.72	0.426559
196.613	0.424133
199.506	0.003189
202.398	2.08639
205.291	0.877792
208.184	1.44942
211.077	1.14581
213.969	2.11403
216.862	1.36676
219.755	1.6617
222.647	0.608078
225.54	0.470581
228.433	0.643234
231.325	0.347839
234.218	0.505402
237.111	1.02151
240.004	1.07204
242.896	1.5836
245.789	2.40626
248.682	3.61818
251.574	6.25922
254.467	6.89333
257.36	8.43352
260.252	8.67982
263.145	7.938
266.038	8.06406
268.93	6.60233
271.823	6.47832
274.716	5.67651
277.609	5.53455
280.501	5.24779
283.394	5.33479
286.287	2.91956
289.179	3.84551
292.072	2.97022
294.965	1.58792
297.858	1.68664
300.75	1.34995
303.643	0.504105
306.536	1.28789
309.428	0.655739
312.321	0.070221
315.214	0.030731
318.106	0.117508
320.999	0.38353
323.892	1.80078
326.784	1.81684
329.677	1.41755
332.57	2.29666
335.463	3.34489
338.355	3.03948
341.248	3.39175
344.141	2.48665
347.033	3.88144
349.926	2.80139
352.819	4.59789
355.712	3.09009
358.604	3.906
361.497	4.57572
364.39	4.15168
367.282	3.49486
370.175	4.50791
373.068	2.97434
375.96	3.14526
378.853	4.13889
381.746	4.03583
384.639	2.58879
387.531	3.88224
390.424	3.42921
393.317	4.05627
396.209	4.42259
399.102	3.83026
401.995	3.0236
404.887	1.61511
407.78	0.877022
410.673	0.035835
413.565	0.002731
416.458	0.342873
419.351	0.00679
422.244	0.251389
425.136	0.071083
428.029	0.531212
430.922	0.537483
433.814	3.16009
436.707	3.36049
439.6	4.8101
442.493	7.95019
445.385	10.1609
448.278	10.4782
451.171	11.2185
454.063	8.86089
456.956	10.7389
459.849	8.32645
462.741	8.89538
465.634	8.2747
468.527	9.05206
471.42	8.95486
474.312	10.7073
477.205	9.78854
480.098	9.03947
482.99	8.17892
485.883	7.51939
488.776	7.35716
491.668	7.56484
494.561	4.85169
497.454	4.89832
500.347	3.39681
503.239	3.84191
506.132	3.52126
509.025	2.94255
511.917	1.21172
514.81	1.48596
517.703	2.35189
520.596	0.241653
523.488	0.268188
526.381	0.629379
529.274	0.653679
532.166	0.735535
535.059	0.228088
537.952	0.376091
540.844	0.044662
543.737	1.5697
546.63	1.35606
549.523	2.23776
552.415	2.72571
555.308	3.87232
558.201	3.76023
561.093	3.97343
563.986	4.17909
566.879	3.92232
569.771	3.22049
572.664	2.91435
575.557	4.32272
578.449	5.06037
581.342	9.75127
584.235	8.62909
587.128	11.2446
590.02	14.0474
592.913	16.2317
595.806	15.2812
598.698	13.7955
601.591	11.2319
604.484	8.66344
607.376	7.60612
610.269	6.71401
613.162	6.52537
616.055	7.68341
618.947	8.96653
621.84	8.64039
624.733	10.2774
627.625	10.1264
630.518	7.35918
633.411	6.8381
636.303	5.16723
639.196	5.2532
642.089	2.90457
644.982	3.10596
647.874	2.06528
650.767	1.13285
653.66	2.14306
656.552	0.72242
659.445	0.433708
662.338	1.53637
665.231	0.356125
668.123	1.11665
671.016	0.895836
673.909	0.113281
676.801	0.051735
679.694	1.08949
682.587	0.509773
685.479	0.233856
688.372	0.735764
691.265	0.339073
694.158	0.329887
697.05	0.381378
699.943	0.242653
702.836	0.050529
705.728	0.453384
708.621	1.44725
711.514	0.31823
714.406	0.93856
717.299	0.44809
720.192	0.109726
723.085	0.888344
725.977	1.01222
728.87	0.835167
731.763	0.45153
734.655	0.762833
737.548	0.527618
740.441	0.18499
743.333	0.594345
746.226	0.271835
749.119	1.44666
752.011	0.214088
754.904	0.460213
757.797	0.203049
760.69	1.02995
763.582	1.28115
766.475	0.150253
769.368	2.09175
772.26	1.2987
775.153	1.85958
778.046	2.58064
780.938	1.78118
783.831	2.05675
786.724	2.88361
789.617	2.34898
792.509	3.25824
795.402	2.77347
798.295	3.00114
801.187	3.32493
804.08	3.66511
806.973	4.16361
809.865	5.13492
812.758	5.25024
815.651	5.15224
818.544	5.77503
821.436	5.7057
824.329	6.48161
827.222	6.34099
830.114	8.06368
833.007	7.32816
835.9	7.81649
838.793	7.83633
841.685	8.12044
844.578	9.188
847.471	9.26581
850.363	10.3199
853.256	9.04894
856.149	9.03156
859.041	10.37
861.934	10.19
864.827	9.97425
867.72	10.3332
870.612	8.83218
873.505	8.72836
876.398	7.02279
879.29	6.60773
882.183	6.40333
885.076	6.32237
887.968	3.92702
890.861	2.07742
893.754	2.61299
896.646	1.90106
899.539	1.19997
902.432	1.54913
905.325	0.554176
908.217	0.346054
911.11	0.84333
914.003	1.09801
916.895	0.910706
919.788	0.267097
922.681	0.430183
925.573	0.569115
928.466	0.619843
931.359	2.51234
934.252	2.35808
937.144	2.89407
940.037	4.42767
942.93	5.91384
945.822	7.18037
948.715	8.33875
951.608	10.4893
954.5	12.6106
957.393	14.7131
960.286	17.8918
963.179	19.1412
966.071	20.1913
968.964	21.4062
971.857	22.2589
974.75	21.6568
977.642	21.4911
980.535	20.8486
983.428	19.2928
986.32	16.7784
989.213	12.552
992.106	11.4951
994.998	8.62169
997.891	7.72125
1000.78	5.16595
1003.68	4.358
1006.57	4.16538
1009.46	4.5314
1012.36	5.41761
1015.25	5.67059
1018.14	7.40033
1021.03	9.85864
1023.92	12.3016
1026.82	16.8116
1029.71	21.9083
1032.6	27.7501
1035.5	37.1052
1038.39	43.2223
1041.28	47.4651
1044.17	45.4606
1047.07	34.9712
1049.96	24.4794
1052.85	16.6808
1055.74	10.1311
1058.64	6.57893
1061.53	4.47842
1064.42	2.66581
1067.32	1.84455
1070.21	1.23108
1073.1	0.348274
1075.99	0.642227
1078.89	0.118736
1081.78	0.193665
1084.67	0.326195
1087.57	0.026894
1090.46	0.202744
1093.35	0.565002
1096.24	0.112373
1099.14	0.897972
1102.03	1.14254
1104.92	2.05589
1107.81	2.19002
1110.71	3.48219
1113.6	2.40167
1116.49	2.41132
1119.38	2.45908
1122.28	1.83441
1125.17	3.24096
1128.06	3.12766
1130.95	3.09015
1133.85	3.73587
1136.74	4.36415
1139.63	2.94399
1142.53	2.84964
1145.42	3.24583
1148.31	3.00861
1151.2	3.04734
1154.1	2.21219
1156.99	1.74156
1159.88	2.60995
1162.78	1.83736
1165.67	2.83675
1168.56	2.33942
1171.45	2.10978
1174.35	2.41294
1177.24	3.34044
1180.13	2.45503
1183.02	3.1441
1185.92	2.45664
1188.81	0.644691
1191.7	1.23035
1194.6	0.249199
1197.49	0.280731
1200.38	0.318275
1203.27	0.917732
1206.17	0.878334
1209.06	1.09115
1211.95	2.29263
1214.84	2.06376
1217.74	2.14317
1220.63	1.46274
1223.52	1.81176
1226.41	2.06382
1229.31	2.25267
1232.2	1.94947
1235.09	1.71803
1237.98	2.10712
1240.88	2.04768
1243.77	1.1627
1246.66	1.49596
1249.56	0.122375
1252.45	0.346748
1255.34	0.785927
1258.23	0.791626
1261.13	0.8713
1264.02	0.666473
1266.91	0.80394
1269.81	0.439514
1272.7	0.834496
1275.59	0.482376
1278.48	0.272957
1281.38	1.66515
1284.27	1.12836
1287.16	1.00459
1290.05	0.992661
1292.95	2.17658
1295.84	0.30249
1298.73	1.30688
