Measurement: Raman, 780 nm, unoriented, Raman Data Processed
Mineral: Alluaudite
Rruff sample: R160081
Ideal chemistry: NaMn^2+^Fe^3+^_2_(PO_4_)_3_
Locality: Green Monster mine, Trimble, South Dakota, USA
Source: Rock Currier
Description: Dark green massive.
Measured chemistry: (Na_0.97_Ca_0.06_)_∑=1.03_(Mn_0.81_Fe^2+^_0.12_Mg_0.02_)_∑=0.95_Fe^3+^_2_(PO_4_)_3_
Raman shift (cm-1)	intensity
116.027	0
119.402	0.168243
122.777	16.2538
126.152	32.4507
129.526	29.6203
132.901	12.9769
136.276	10.6351
139.651	14.3084
143.026	5.32529
146.401	3.20438
149.775	0.62262
153.15	1.13312
156.525	2.45862
159.9	0.091003
163.275	5.78348
166.649	17.2322
170.024	17.1586
173.399	6.56802
176.774	10.3003
180.149	14.5425
183.524	13.2908
186.898	15.6221
190.273	18.1253
193.648	19.5003
197.023	14.3598
200.398	11.2626
203.773	15.3785
207.147	12.8597
210.522	7.76462
213.897	6.00363
217.272	6.42065
220.647	9.64475
224.021	12.2473
227.396	10.6581
230.771	10.7644
234.146	10.1561
237.521	9.94342
240.895	7.43793
244.27	10.0288
247.645	15.5553
251.02	21.5198
254.395	28.4915
257.769	28.6571
261.144	27.8418
264.519	22.7018
267.894	23.9435
271.269	31.4811
274.644	43.8955
278.018	48.6952
281.393	36.5623
284.768	23.4101
288.143	11.9076
291.518	8.04121
294.892	4.61757
298.267	3.20271
301.642	2.01267
305.017	0.150421
308.392	0.808273
311.767	0.170746
315.141	0.171738
318.516	2.39923
321.891	0.179047
325.266	0.908188
328.641	2.12326
332.015	6.15831
335.39	10.5353
338.765	12.5469
342.14	13.6819
345.515	12.1846
348.89	11.6506
352.264	13.8393
355.639	15.2817
359.014	15.1124
362.389	15.8123
365.764	15.5531
369.139	13.6252
372.513	11.0513
375.888	12.1581
379.263	8.55354
382.638	8.4789
386.013	9.08569
389.387	8.87909
392.762	11.057
396.137	11.7161
399.512	13.169
402.887	12.6202
406.262	6.36308
409.636	1.65556
413.011	0.24173
416.386	1.252
419.761	0.17836
423.136	0.123276
426.51	2.03827
429.885	1.41125
433.26	1.67403
436.635	3.79411
440.01	10.1507
443.385	15.9031
446.759	26.1061
450.134	34.4157
453.509	40.8914
456.884	39.5544
460.259	32.6804
463.633	25.7979
467.008	24.4758
470.383	28.2214
473.758	29.3659
477.133	28.876
480.507	28.8016
483.882	28.6522
487.257	25.5504
490.632	22.0504
494.007	17.317
497.382	14.799
500.756	12.95
504.131	11.074
507.506	10.0431
510.881	8.95357
514.256	7.24873
517.63	4.4935
521.005	2.55269
524.38	0.923294
527.755	0.432144
531.13	0.989395
534.505	1.25174
537.879	0.446655
541.254	0.00705
544.629	1.73706
548.004	0.393127
551.379	4.0932
554.753	7.86508
558.128	11.9381
561.503	9.29932
564.878	5.93131
568.253	6.49814
571.628	6.01939
575.002	6.77867
578.377	11.1747
581.752	16.4228
585.127	26.3118
588.502	45.7918
591.876	63.0803
595.251	56.1254
598.626	36.6018
602.001	24.3993
605.376	16.7195
608.75	14.2836
612.125	15.0064
615.5	15.2905
618.875	16.866
622.25	19.0474
625.625	19.7319
629	19.3722
632.374	16.1037
635.749	12.8636
639.124	12.4818
642.499	10.0765
645.874	7.17743
649.248	4.72469
652.623	3.16632
655.998	2.34197
659.373	1.8463
662.748	1.38542
666.122	1.69115
669.497	1.2485
672.872	0.502396
676.247	0.143982
679.622	0.858734
682.996	0.220367
686.371	2.10191
689.746	0.199554
693.121	0.027283
696.496	0.754623
699.871	0.270386
703.245	0.284851
706.62	0.0345
709.995	0.433792
713.37	1.00708
716.745	0.050476
720.12	1.18317
723.494	0.878403
726.869	2.45471
730.244	1.22307
733.619	1.48033
736.994	1.45898
740.368	1.31808
743.743	1.13185
747.118	1.61975
750.493	1.53027
753.868	1.20644
757.242	0.589432
760.617	0.029739
763.992	0.52153
767.367	0.66922
770.742	0.263596
774.117	0.189743
777.491	0.829361
780.866	0.630569
784.241	1.51463
787.616	1.3018
790.991	0.946152
794.365	2.26474
797.74	2.04422
801.115	4.70306
804.49	1.37926
807.865	3.00098
811.24	2.35976
814.614	2.79942
817.989	3.4061
821.364	2.89055
824.739	3.33586
828.114	3.19785
831.489	3.66892
834.863	3.8727
838.238	4.46886
841.613	3.74381
844.988	4.34454
848.362	4.83188
851.737	5.52739
855.112	5.53958
858.487	4.34761
861.862	4.82683
865.237	5.12697
868.611	4.95433
871.986	4.03281
875.361	4.09184
878.736	3.06722
882.111	3.26038
885.486	2.76331
888.86	1.96358
892.235	1.19949
895.61	0.371101
898.985	0.540161
902.36	0.164223
905.734	0.865952
909.109	0.740189
912.484	0.716194
915.859	0.161781
919.234	0.440399
922.609	0.210747
925.983	1.65406
929.358	4.24754
932.733	4.86321
936.108	7.77897
939.483	9.59563
942.857	12.2336
946.232	14.4787
949.607	17.1238
952.982	21.1515
956.357	27.3374
959.731	38.2861
963.106	53.8435
966.481	66.9274
969.856	61.5706
973.231	54.7542
976.606	53.1875
979.98	60.8495
983.355	62.3748
986.73	47.2623
990.105	28.3523
993.48	20.3538
996.855	14.4698
1000.23	12.8439
1003.6	15.3531
1006.98	19.7016
1010.35	22.9413
1013.73	21.7389
1017.1	20.4757
1020.48	22.6692
1023.85	18.9493
1027.23	20.1913
1030.6	28.2897
1033.98	53.8349
1037.35	103.464
1040.73	150.467
1044.1	111.068
1047.48	52.2678
1050.85	22.6867
1054.23	11.0975
1057.6	4.16119
1060.98	2.92802
1064.35	0.914345
1067.73	0.206177
1071.1	0.483681
1074.47	0.689659
1077.85	1.46501
1081.22	0.57032
1084.6	0.278229
1087.97	1.67996
1091.35	0.575829
1094.72	2.0447
1098.1	2.88969
1101.47	3.91953
1104.85	6.8761
1108.22	6.00503
1111.6	8.02657
1114.97	5.61308
1118.35	7.86999
1121.72	8.7476
1125.1	12.8171
1128.47	19.6932
1131.85	26.6399
1135.22	27.3129
1138.6	18.5135
1141.97	11.6659
1145.35	7.07932
1148.72	6.45094
1152.1	5.6747
1155.47	5.62073
1158.85	4.83043
1162.22	3.27965
1165.6	3.28813
1168.97	1.86369
1172.35	3.6233
1175.72	2.84344
1179.1	2.00259
1182.47	1.08258
1185.84	1.46917
1189.22	1.28867
1192.59	0.652107
1195.97	0.653297
1199.34	0.600899
1202.72	0.355057
1206.09	0.698997
1209.47	1.26042
1212.84	0.333687
1216.22	0.97097
1219.59	1.00175
1222.97	0.797401
1226.34	0.576164
1229.72	0.923378
1233.09	2.26154
1236.47	1.32136
1239.84	1.96185
1243.22	1.80835
1246.59	1.26133
1249.97	0.45845
1253.34	0.885345
1256.71	2.27443
1260.09	1.33208
1263.46	1.13871
1266.84	0.971687
1270.21	1.02364
1273.59	0.917747
1276.96	0.4645
1280.34	1.54651
