Measurement: Raman, 780 nm, unoriented, Raman Data Processed
Mineral: Alterite
Rruff sample: R180005
Ideal chemistry: Zn^2+^_2_Fe^3+^_4_(S^6+^O_4_)_4_((C_2_)^6+^O_4_)_2_(OH)_4_17H_2_O
Locality: Near Marble Canyon, Coconino County, Arizona, USA
Source: Malcom Alter
Description: Isolated or aggregates of pale-yellow green prismatic crystals on petrified wood, associated with gypsum and alunogen. This is the type sample.
Measured chemistry: (Zn_0.84_Fe^2+^_0.57_Mg_0.48_Mn_0.14_)_Σ2.03_Fe^3+^_4.00_(S_0.9925_O_4_)_4_(C_2_O_4_)_2_(OH)_4_·17H_2_O
Raman shift (cm-1)	intensity
89.5105	0
92.8853	116.604
96.2601	74.6603
99.635	72.189
103.01	93.0276
106.385	69.7175
109.759	20.789
113.134	0.182739
116.509	8.61743
119.884	5.37061
123.259	11.7536
126.633	24.6065
130.008	31.0537
133.383	24.9762
136.758	20.8228
140.133	19.8392
143.508	20.5822
146.882	23.5812
150.257	44.5507
153.632	75.1013
157.007	123.893
160.382	169.177
163.756	188.675
167.131	183.507
170.506	189.199
173.881	184.255
177.256	139.536
180.631	92.0011
184.005	68.223
187.38	60.1289
190.755	48.6559
194.13	30.916
197.505	16.2995
200.88	5.46385
204.254	0.805145
207.629	2.76999
211.004	2.0861
214.379	0.778275
217.754	6.52931
221.128	19.0815
224.503	32.4353
227.878	45.2612
231.253	43.7106
234.628	29.9234
238.002	19.4483
241.377	18.186
244.752	24.3334
248.127	36.8641
251.502	50.2858
254.877	66.8146
258.251	75.6443
261.626	79.126
265.001	70.2339
268.376	66.5052
271.751	75.2377
275.125	98.1131
278.5	120.775
281.875	113.254
285.25	77.7546
288.625	46.2123
292	31.1181
295.374	27.0637
298.749	28.5286
302.124	33.4204
305.499	45.7302
308.874	52.3886
312.248	61.7718
315.623	57.8572
318.998	44.5129
322.373	29.2656
325.748	18.2379
329.123	9.05144
332.497	4.78456
335.872	0.775208
339.247	1.35458
342.622	1.40826
345.997	0.775597
349.372	1.10326
352.746	0.647774
356.121	2.02674
359.496	2.3758
362.871	2.50594
366.246	3.15773
369.62	5.40881
372.995	5.1861
376.37	4.72404
379.745	6.09905
383.12	6.6171
386.495	5.60951
389.869	5.21256
393.244	5.10922
396.619	3.26491
399.994	2.56644
403.369	0.087975
406.743	1.14132
410.118	0.829849
413.493	1.52515
416.868	1.54398
420.243	0.320549
423.618	0.862411
426.992	1.41909
430.367	3.14196
433.742	7.44685
437.117	16.4512
440.492	26.1195
443.866	33.5455
447.241	34.1723
450.616	31.747
453.991	30.5345
457.366	31.9189
460.74	33.5463
464.115	39.1916
467.49	50.7094
470.865	72.815
474.24	103.814
477.615	135.2
480.989	150.132
484.364	144.741
487.739	135.462
491.114	116.866
494.489	86.5483
497.863	58.9114
501.238	40.3374
504.613	25.686
507.988	20.7927
511.363	17.1601
514.737	18.2683
518.112	20.706
521.487	22.9285
524.862	26.8668
528.237	37.6125
531.612	58.7833
534.986	86.8294
538.361	119.124
541.736	135.781
545.111	116.858
548.486	75.9192
551.861	41.832
555.235	20.5706
558.61	7.23466
561.985	1.1706
565.36	0.836678
568.735	1.66443
572.109	3.49226
575.484	0.574425
578.859	2.57613
582.234	6.09772
585.609	10.147
588.984	14.9059
592.358	20.1481
595.733	26.5203
599.108	31.0494
602.483	36.1195
605.858	41.0185
609.232	39.3396
612.607	31.9765
615.982	26.4819
619.357	20.291
622.732	16.065
626.107	12.7291
629.481	8.27322
632.856	5.20621
636.231	2.99223
639.606	3.57906
642.981	2.92429
646.356	3.54169
649.73	2.95982
653.105	3.48216
656.48	4.04568
659.855	2.99863
663.23	2.83744
666.604	1.32723
669.979	1.68975
673.354	0.4105
676.729	0.356537
680.104	0.067017
683.479	0.189857
686.853	0.867577
690.228	0.121105
693.603	0.793182
696.978	1.25364
700.352	3.60555
703.727	0.784275
707.102	0.187668
710.477	0.95414
713.852	1.51308
717.227	0.731285
720.601	1.93309
723.976	1.80121
727.351	3.37243
730.726	2.39179
734.101	2.98332
737.476	2.85954
740.85	1.66954
744.225	2.19623
747.6	2.45812
750.975	1.3502
754.35	0.290878
757.724	1.51062
761.099	1.2946
764.474	2.19141
767.849	1.60977
771.224	1.86014
774.598	0.911095
777.973	0.266037
781.348	0.31065
784.723	0.860603
788.098	1.92628
791.473	0.757504
794.847	1.86454
798.222	1.62872
801.597	0.309383
804.972	5.60106
808.347	1.46548
811.722	1.47359
815.096	1.56399
818.471	1.84949
821.846	1.47856
825.221	2.99178
828.596	2.85312
831.971	6.7432
835.345	10.2692
838.72	8.06949
842.095	4.5995
845.47	2.29371
848.845	6.76568
852.219	2.17917
855.594	2.48924
858.969	0.843105
862.344	0.349148
865.719	2.09964
869.093	0.199974
872.468	0.43232
875.843	2.42253
879.218	0.844383
882.593	1.45041
885.967	0.477333
889.342	0.578148
892.717	0.136322
896.092	0.666691
899.467	1.00341
902.842	0.065773
906.216	0.518188
909.591	0.137718
912.966	0.824787
916.341	0.030052
919.716	1.57093
923.091	0.329945
926.465	0.707497
929.84	0.744328
933.215	1.52177
936.59	4.15006
939.965	8.9841
943.339	20.0037
946.714	32.2072
950.089	47.7873
953.464	44.3336
956.839	27.5258
960.213	14.4738
963.588	9.09491
966.963	7.07377
970.338	8.28853
973.713	13.3096
977.088	16.4374
980.462	21.6559
983.837	30.7003
987.212	44.5746
990.587	54.0747
993.962	67.8452
997.337	92.3892
1000.71	144.621
1004.09	218.095
1007.46	289.151
1010.84	284.464
1014.21	178.919
1017.59	86.2672
1020.96	43.166
1024.34	24.7202
1027.71	15.1971
1031.09	8.80828
1034.46	4.35574
1037.83	2.72048
1041.21	1.07178
1044.58	0.515022
1047.96	0.908257
1051.33	1.52018
1054.71	0.411736
1058.08	0.699135
1061.46	2.70132
1064.83	7.33895
1068.21	9.87782
1071.58	14.9045
1074.96	21.6637
1078.33	33.5847
1081.71	43.8035
1085.08	56.7898
1088.46	61.4334
1091.83	60.9649
1095.21	52.0236
1098.58	41.9619
1101.96	32.4676
1105.33	27.3916
1108.71	20.2349
1112.08	14.7139
1115.45	12.1691
1118.83	11.6419
1122.2	12.6642
1125.58	12.181
1128.95	10.7816
1132.33	10.6133
1135.7	7.29448
1139.08	5.54131
1142.45	4.8009
1145.83	2.95075
1149.2	1.38827
1152.58	0.379635
1155.95	0.34861
1159.33	0.574039
1162.7	0.733746
1166.08	0.647511
1169.45	0.431179
1172.83	1.27287
1176.2	0.194717
1179.58	0.679939
1182.95	1.23447
1186.33	2.20974
1189.7	3.20504
1193.08	3.77202
1196.45	4.58524
1199.83	5.57609
1203.2	5.80033
1206.58	8.33635
1209.95	9.5594
1213.33	11.0511
1216.7	12.4024
1220.07	9.99827
1223.45	9.95231
1226.82	10.5135
1230.2	9.38204
1233.57	8.40524
1236.95	7.47005
1240.32	5.06921
1243.7	3.67689
1247.07	2.10937
1250.45	2.33948
1253.82	2.04181
1257.2	1.53969
1260.57	0.144337
1263.95	0.023899
1267.32	1.42018
1270.7	1.48272
1274.07	1.07977
1277.45	1.25549
1280.82	0.947952
