Measurement: Raman, 532 nm, unoriented, Raman Data Processed
Mineral: Alterite
Rruff sample: R180005
Ideal chemistry: Zn^2+^_2_Fe^3+^_4_(S^6+^O_4_)_4_((C_2_)^6+^O_4_)_2_(OH)_4_17H_2_O
Locality: Near Marble Canyon, Coconino County, Arizona, USA
Source: Malcom Alter
Description: Isolated or aggregates of pale-yellow green prismatic crystals on petrified wood, associated with gypsum and alunogen. This is the type sample.
Measured chemistry: (Zn_0.84_Fe^2+^_0.57_Mg_0.48_Mn_0.14_)_Σ2.03_Fe^3+^_4.00_(S_0.9925_O_4_)_4_(C_2_O_4_)_2_(OH)_4_·17H_2_O
Raman shift (cm-1)	intensity
88.1367	0
91.5115	28.324
94.8863	23.9682
98.2612	8.9187
101.636	4.92242
105.011	27.9717
108.386	90.3377
111.76	178.259
115.135	149.476
118.51	98.5521
121.885	71.6403
125.26	77.1283
128.635	69.1305
132.009	62.1017
135.384	70.5212
138.759	70.6931
142.134	54.37
145.509	32.9017
148.883	17.0087
152.258	20.763
155.633	39.3999
159.008	67.4853
162.383	90.1624
165.757	112.806
169.132	156.813
172.507	223.099
175.882	235.408
179.257	180.329
182.632	149.8
186.006	119.049
189.381	69.7024
192.756	31.4456
196.131	20.6216
199.506	15.6998
202.881	0.31485
206.255	10.3445
209.63	9.78787
213.005	0.200073
216.38	20.2971
219.755	50.2712
223.129	75.5044
226.504	76.5646
229.879	60.5971
233.254	57.7174
236.629	56.7075
240.004	61.332
243.378	80.8235
246.753	98.2739
250.128	106.987
253.503	99.2638
256.878	88.9405
260.252	88.857
263.627	96.7484
267.002	106.06
270.377	120.958
273.752	131.873
277.127	149.081
280.501	187.68
283.876	237.299
287.251	202.799
290.626	100.128
294.001	51.6843
297.375	36.3171
300.75	33.0008
304.125	30.125
307.5	23.8619
310.875	18.7605
314.25	18.5557
317.624	24.2443
320.999	29.6668
324.374	35.0061
327.749	31.0723
331.124	15.5095
334.498	10.2753
337.873	4.08693
341.248	2.15417
344.623	3.63419
347.998	0.880371
351.373	0.682022
354.747	0.584885
358.122	1.72669
361.497	2.31932
364.872	3.35867
368.247	6.20638
371.621	9.07654
374.996	8.87904
378.371	11.2745
381.746	14.0096
385.121	19.0482
388.495	26.5491
391.87	29.4261
395.245	25.7973
398.62	19.9447
401.995	13.952
405.37	8.35394
408.744	2.11728
412.119	0.461945
415.494	3.36621
418.869	0.120972
422.244	2.49617
425.618	6.93326
428.993	16.7137
432.368	27.6809
435.743	43.1609
439.118	60.1012
442.493	75.3351
445.867	87.2631
449.242	92.8221
452.617	96.3149
455.992	91.0113
459.367	96.0998
462.741	111.494
466.116	130.455
469.491	161.69
472.866	198.782
476.241	232.625
479.615	245.197
482.99	215.881
486.365	153.235
489.74	98.3777
493.115	65.5846
496.49	45.6971
499.864	39.7184
503.239	34.7085
506.614	28.4679
509.989	17.906
513.364	6.23132
516.739	2.948
520.113	5.74388
523.488	1.87738
526.863	14.3872
530.238	39.819
533.613	78.4077
536.987	129.412
540.362	176.637
543.737	219.852
547.112	248.614
550.487	211.84
553.861	106.486
557.236	35.2503
560.611	6.79927
563.986	0.719498
567.361	0.812424
570.736	11.2071
574.11	25.4891
577.485	51.6148
580.86	79.8492
584.235	103.946
587.61	101.663
590.985	87.1859
594.359	76.0222
597.734	74.0475
601.109	77.8742
604.484	78.5322
607.859	72.774
611.233	59.0065
614.608	45.0764
617.983	26.6498
621.358	15.9997
624.733	9.28702
628.107	3.39622
631.482	1.64671
634.857	3.33929
638.232	2.96883
641.607	7.02419
644.982	11.7399
648.356	15.8376
651.731	20.5184
655.106	16.8021
658.481	12.7358
661.856	7.13423
665.231	2.46649
668.605	0.545151
671.98	0.580093
675.355	3.23787
678.73	4.79536
682.105	0.477936
685.479	1.403
688.854	1.17363
692.229	1.32101
695.604	0.100861
698.979	0.642105
702.354	2.10002
705.728	2.90402
709.103	5.30862
712.478	4.48669
715.853	4.66315
719.227	5.37886
722.602	5.393
725.977	7.2054
729.352	8.17015
732.727	9.72649
736.102	14.2963
739.476	10.26
742.851	11.4087
746.226	7.87529
749.601	8.48882
752.976	6.82043
756.351	8.64281
759.725	6.87437
763.1	7.62096
766.475	5.77538
769.85	6.29965
773.225	5.15419
776.599	3.57433
779.974	3.71101
783.349	4.47531
786.724	3.71222
790.099	4.06781
793.473	2.95503
796.848	4.30212
800.223	4.10342
803.598	0.832794
806.973	2.66994
810.348	0.696915
813.722	0.042679
817.097	1.47353
820.472	1.94607
823.847	3.43259
827.222	3.756
830.597	9.42667
833.971	15.7224
837.346	13.4892
840.721	13.6954
844.096	7.685
847.471	4.76267
850.846	4.07681
854.22	4.66174
857.595	4.85074
860.97	6.17117
864.345	5.7771
867.72	6.57289
871.094	4.70926
874.469	5.04965
877.844	3.9697
881.219	3.88705
884.594	3.62552
887.968	4.57165
891.343	1.89757
894.718	1.27103
898.093	1.84734
901.468	1.81348
904.842	0.188904
908.217	1.37726
911.592	0.643021
914.967	0.186127
918.342	2.40143
921.717	0.278809
925.091	0.764618
928.466	0.182083
931.841	0.653397
935.216	2.56337
938.591	0.173508
941.966	3.96687
945.34	9.21982
948.715	18.0694
952.09	31.6218
955.465	49.9046
958.84	77.368
962.214	122.114
965.589	183.578
968.964	259.82
972.339	322.548
975.714	327.621
979.088	273.732
982.463	209.644
985.838	183.096
989.213	203.027
992.588	238.077
995.963	180.292
999.337	122.741
1002.71	110.792
1006.09	127.526
1009.46	186.44
1012.84	280.485
1016.21	248.224
1019.59	143.586
1022.96	135.921
1026.34	169.895
1029.71	214.113
1033.09	231.893
1036.46	195.788
1039.84	131.523
1043.21	71.013
1046.59	33.8618
1049.96	11.3448
1053.33	0.29216
1056.71	3.62584
1060.08	4.01868
1063.46	1.91118
1066.83	14.139
1070.21	24.2459
1073.58	38.7124
1076.96	46.9656
1080.33	43.5868
1083.71	43.3657
1087.08	43.3167
1090.46	41.0456
1093.83	42.9406
1097.21	45.3447
1100.58	39.0414
1103.96	28.983
1107.33	14.4997
1110.71	4.7514
1114.08	0.857452
1117.46	2.71323
1120.83	0.407379
1124.21	3.26645
1127.58	7.31139
1130.95	15.7554
1134.33	29.0642
1137.7	36.099
1141.08	39.9482
1144.45	35.8009
1147.83	24.5014
1151.2	14.7619
1154.58	8.01657
1157.95	1.01921
1161.33	1.22295
1164.7	0.06131
1168.08	0.88623
1171.45	0.232315
1174.83	4.8853
1178.2	9.09106
1181.58	14.8926
1184.95	19.69
1188.33	23.148
1191.7	22.4312
1195.08	19.1949
1198.45	11.744
1201.83	9.45021
1205.2	5.32811
1208.58	5.00339
1211.95	6.69606
1215.33	8.51178
1218.7	9.06613
1222.08	11.843
1225.45	9.49234
1228.83	7.44696
1232.2	4.30165
1235.58	1.02463
1238.95	2.49924
1242.32	0.396591
1245.7	1.6232
1249.07	0.877991
1252.45	0.877975
1255.82	1.14732
1259.2	1.98561
1262.57	1.68408
1265.95	2.94925
1269.32	2.7765
1272.7	3.42578
1276.07	2.91864
1279.45	2.90439
1282.82	3.10832
1286.2	1.8614
1289.57	1.53134
1292.95	1.92479
1296.32	1.30248
1299.7	0.273758
