Measurement: Raman, 532 nm, unoriented, Raman Data RAW
Mineral: Amber
Rruff sample: R060569
Locality: Baltic Sea Region, Poland
Source: Michael Scott
Description: Reddish-brown amorphous fragment
Raman shift (cm-1)	intensity
90.0101	0
93.3849	879.753
96.7597	881.786
100.135	918.89
103.509	921.679
106.884	928.189
110.259	976.59
113.634	1008.7
117.009	1052.29
120.383	1090.56
123.758	1130
127.133	1182.17
130.508	1218.72
133.883	1274.32
137.257	1331.94
140.632	1375.7
144.007	1457.64
147.382	1622.61
150.757	2016.59
154.132	3286.59
157.506	6233.64
160.881	11904.4
164.256	20441.7
167.631	29192.5
171.006	36276
174.381	43311.2
177.755	52407.2
181.13	59532.5
184.505	66020.6
187.88	70762.4
191.255	74058.5
194.629	76511.6
198.004	79242.9
201.379	82264.7
204.754	85001.2
208.129	86940
211.504	88101.7
214.878	88969.9
218.253	90021.1
221.628	91433.9
225.003	92614.1
228.377	93523.1
231.752	94206.2
235.127	94875.9
238.502	95233
241.877	95699.4
245.252	96124.9
248.626	96787.3
252.001	97298.2
255.376	97746.6
258.751	98343.6
262.126	98689.9
265.5	99186
268.875	99853
272.25	100255
275.625	100989
279	101341
282.375	101471
285.75	101313
289.124	101752
292.499	102404
295.874	102721
299.249	103321
302.623	103863
305.998	104321
309.373	104571
312.748	104907
316.123	105385
319.498	105673
322.872	105894
326.247	106119
329.622	106383
332.997	106762
336.372	107610
339.747	107911
343.121	107952
346.496	108000
349.871	108360
353.246	108990
356.621	109552
359.995	109792
363.37	110063
366.745	110302
370.12	110742
373.495	111058
376.87	110994
380.244	111435
383.619	111732
386.994	112220
390.369	112443
393.744	112545
397.118	112960
400.493	113314
403.868	113691
407.243	114200
410.618	114527
413.993	115077
417.367	115096
420.742	115096
424.117	115464
427.492	115858
430.866	116434
434.241	116514
437.616	116602
440.991	117038
444.366	117449
447.741	117876
451.115	118106
454.49	118160
457.865	118597
461.24	118925
464.615	119038
467.99	119030
471.364	119410
474.739	119784
478.114	119993
481.489	120268
484.864	120600
488.238	120913
491.613	121175
494.988	121729
498.363	122081
501.738	122057
505.113	122145
508.487	122408
511.862	122851
515.237	123113
518.612	123050
521.987	123407
525.361	124052
528.736	124403
532.111	124293
535.486	124301
538.861	124583
542.236	124987
545.61	125276
548.985	125575
552.36	125892
555.735	126000
559.11	126035
562.484	126051
565.859	126135
569.234	126162
572.609	126310
575.984	126544
579.359	127102
582.733	127349
586.108	127418
589.483	127636
592.858	127957
596.232	128067
599.607	128153
602.982	128176
606.357	128256
609.732	128713
613.107	128818
616.481	128810
619.856	129080
623.231	129121
626.606	129136
629.981	129311
633.356	129876
636.73	130184
640.105	130187
643.48	130443
646.855	130680
650.23	130752
653.604	131338
656.979	131488
660.354	131829
663.729	131818
667.104	131751
670.479	132375
673.853	132449
677.228	132686
680.603	133113
683.978	133558
687.353	133680
690.727	134130
694.102	134372
697.477	134699
700.852	134569
704.227	134356
707.601	134756
710.976	135240
714.351	135374
717.726	135133
721.101	135233
724.476	135785
727.85	136261
731.225	136418
734.6	136535
737.975	136433
741.35	136473
744.725	136516
748.099	136730
751.474	137182
754.849	137656
758.224	137926
761.599	137692
764.973	137959
768.348	138193
771.723	138263
775.098	138429
778.473	138532
781.847	138795
785.222	138931
788.597	138665
791.972	139178
795.347	139484
798.722	139332
802.096	139535
805.471	139636
808.846	140263
812.221	140054
815.596	140722
818.971	140997
822.345	141275
825.72	140818
829.095	140784
832.47	141314
835.845	141390
839.219	141276
842.594	141798
845.969	141922
849.344	141906
852.719	142060
856.093	142474
859.468	142854
862.843	142978
866.218	142882
869.593	142941
872.967	143517
876.342	143760
879.717	143574
883.092	143681
886.467	144349
889.842	144856
893.216	144444
896.591	144441
899.966	144452
903.341	144851
906.716	145344
910.091	145662
913.465	145738
916.84	146026
920.215	146110
923.59	146026
926.965	146276
930.339	146525
933.714	146187
937.089	146149
940.464	146578
943.839	146878
947.213	147131
950.588	147062
953.963	147162
957.338	147210
960.713	147223
964.088	147541
967.462	147964
970.837	148082
974.212	148150
977.587	148447
980.962	148892
984.337	148626
987.711	148880
991.086	149171
994.461	149363
997.836	149266
1001.21	149452
1004.59	149426
1007.96	149968
1011.34	150099
1014.71	149773
1018.09	150034
1021.46	150769
1024.83	150663
1028.21	150846
1031.58	150975
1034.96	151475
1038.33	151572
1041.71	151383
1045.08	151467
1048.46	151823
1051.83	152133
1055.21	152422
1058.58	152688
1061.96	152746
1065.33	152828
1068.71	152615
1072.08	152841
1075.46	152704
1078.83	152802
1082.21	152886
1085.58	153225
1088.96	153205
1092.33	153464
1095.7	153788
1099.08	154174
1102.45	154337
1105.83	154343
1109.2	154380
1112.58	155052
1115.95	155060
1119.33	154994
1122.7	155243
1126.08	155040
1129.45	155070
1132.83	155046
1136.2	155818
1139.58	156191
1142.95	155949
1146.33	156006
1149.7	156546
1153.08	156521
1156.45	156362
1159.83	156291
1163.2	156609
1166.58	156892
1169.95	156696
1173.33	157035
1176.7	157497
1180.08	157452
1183.45	157633
1186.83	158037
1190.2	158010
1193.58	158297
1196.95	158510
1200.33	158734
1203.7	158722
1207.07	159447
1210.45	159684
1213.82	159727
1217.2	159125
1220.57	159030
1223.95	159143
1227.32	159336
1230.7	159285
1234.07	159200
1237.45	159146
1240.82	159480
1244.2	160044
1247.57	160095
1250.95	160015
1254.32	160441
1257.7	160515
1261.07	160738
1264.45	161036
1267.82	161008
1271.2	161373
1274.57	161571
1277.95	161640
1281.32	161732
1284.69	162017
1288.07	162431
1291.44	162748
1294.82	162861
1298.19	162990
1301.57	162872
