Measurement: Raman, 532 nm, unoriented, Raman Data Processed
Mineral: Ammoniomathesiusite
Rruff sample: R200003
Ideal chemistry: (N^3-^H_4_)_5_(U^6+^O_2_)_4_(S^6+^O_4_)_4_(V^5+^O_5_)4H_2_O
Locality: Burro mine, Slick Rock, Colorado, USA
Source: Travis Olds
Description: Yellow-green tetragonal prismatic crystals, associated with needles of gypsum
Raman shift (cm-1)	intensity
88.1367	0
91.5115	158.384
94.8863	165.73
98.2612	169.954
101.636	54.5481
105.011	18.5259
108.386	11.9409
111.76	72.0444
115.135	209.713
118.51	334.394
121.885	450.738
125.26	558.073
128.635	706.353
132.009	829.082
135.384	977.418
138.759	1076.01
142.134	1115.71
145.509	1134.79
148.883	1072.55
152.258	1041.4
155.633	974.795
159.008	911.612
162.383	868.205
165.757	795.036
169.132	743.074
172.507	721.895
175.882	715.402
179.257	687.37
182.632	641.183
186.006	589.42
189.381	564.907
192.756	570.342
196.131	591.449
199.506	572.929
202.881	549.965
206.255	460.372
209.63	494.728
213.005	538.43
216.38	454.926
219.755	349.335
223.129	269.865
226.504	260.271
229.879	240.441
233.254	189.823
236.629	148.46
240.004	82.644
243.378	88.1523
246.753	74.563
250.128	64.0884
253.503	11.5459
256.878	10.6352
260.252	9.45166
263.627	4.84082
267.002	28.8584
270.377	31.5459
273.752	1.76807
277.127	0.459961
280.501	21.9683
283.876	10.0669
287.251	2.43359
290.626	18.1924
294.001	20.71
297.375	36.3594
300.75	29.7041
304.125	33.831
307.5	24.9331
310.875	18.103
314.25	25.6875
317.624	19.7886
320.999	35.8125
324.374	53.4849
327.749	65.1265
331.124	52.2988
334.498	83.3374
337.873	75.5913
341.248	110.735
344.623	106.325
347.998	100.941
351.373	100.286
354.747	117.489
358.122	110.664
361.497	138.385
364.872	157.648
368.247	191.825
371.621	207.913
374.996	201.717
378.371	188.641
381.746	212.077
385.121	235.691
388.495	225.801
391.87	193.126
395.245	193.244
398.62	202.753
401.995	174.723
405.37	147.553
408.744	126.682
412.119	117.532
415.494	109.149
418.869	46.7974
422.244	24.1113
425.618	1.82129
428.993	26.6548
432.368	0.888672
435.743	31.2793
439.118	7.17041
442.493	28.397
445.867	10.9761
449.242	37.6958
452.617	50.4072
455.992	113.24
459.367	198.335
462.741	156.984
466.116	34.1665
469.491	8.05664
472.866	3.23731
476.241	7.48535
479.615	39.3447
482.99	75.876
486.365	79.416
489.74	102.829
493.115	148.747
496.49	182.783
499.864	233.157
503.239	277.569
506.614	300.839
509.989	337.992
513.364	369.616
516.739	357.478
520.113	402.4
523.488	457.062
526.863	489.571
530.238	510.736
533.613	516.748
536.987	541.451
540.362	531.674
543.737	531.264
547.112	526.859
550.487	531.763
553.861	503.484
557.236	508.527
560.611	497.543
563.986	470.982
567.361	444.945
570.736	465.798
574.11	466.521
577.485	449.955
580.86	467.147
584.235	504.662
587.61	532.025
590.985	476.292
594.359	429.301
597.734	418.903
601.109	373.698
604.484	358.45
607.859	381.537
611.233	389.367
614.608	385.977
617.983	377.198
621.358	309.988
624.733	260.916
628.107	210.996
631.482	142.157
634.857	140.657
638.232	113.081
641.607	56.7969
644.982	17.4453
648.356	23.8594
651.731	5.1582
655.106	36.3516
658.481	33.001
661.856	45.8799
665.231	24.8311
668.605	22.9844
671.98	79.874
675.355	97.4375
678.73	131.894
682.105	249.543
685.479	329.042
688.854	373.727
692.229	286.242
695.604	204.291
698.979	116.293
702.354	45.2192
705.728	35.4712
709.103	46.7627
712.478	20.9629
715.853	0.835938
719.227	20.9673
722.602	0.611328
725.977	3.6333
729.352	5.1001
732.727	37.2256
736.102	70.6851
739.476	73.5303
742.851	73.4385
746.226	68.1665
749.601	95.6856
752.976	110.591
756.351	139.565
759.725	158.367
763.1	167.675
766.475	166.688
769.85	138.205
773.225	122.123
776.599	105.289
779.974	88.1201
783.349	104.214
786.724	88.1655
790.099	72.5498
793.473	89.1191
796.848	86.9766
800.223	93.312
803.598	83.1016
806.973	89.6821
810.348	88.834
813.722	125.397
817.097	169.167
820.472	221.865
823.847	380.153
827.222	660.281
830.597	1184.63
833.971	2692.69
837.346	1504.51
840.721	377.728
844.096	235.92
847.471	203.77
850.846	69.9114
854.22	29.6685
857.595	11.7266
860.97	2.09961
864.345	5.55151
867.72	13.2185
871.094	5.11084
874.469	1.40356
877.844	6.49927
881.219	3.17603
884.594	11.4846
887.968	33.5251
891.343	49.9026
894.718	80.8225
898.093	83.1575
901.468	100.893
904.842	126.628
908.217	65.0579
911.592	36.6526
914.967	30.624
918.342	31.7783
921.717	28.6853
925.091	9.29639
928.466	14.1821
931.841	3.57178
935.216	16.0105
938.591	9.54492
941.966	0.810059
945.34	4.37451
948.715	1.20898
952.09	2.52588
955.465	3.82104
958.84	13.3364
962.214	26.531
965.589	31.4163
968.964	53.1414
972.339	116.491
975.714	260.587
979.088	448.209
982.463	154.165
985.838	39.7483
989.213	21.3479
992.588	28.9009
995.963	59.291
999.337	126.192
1002.71	227.227
1006.09	379.492
1009.46	656.628
1012.84	357.507
1016.21	109.486
1019.59	30.1951
1022.96	15.7127
1026.34	8.7356
1029.71	0.093262
1033.09	11.294
1036.46	1.52344
1039.84	15.8486
1043.21	29.7791
1046.59	35.4678
1049.96	60.604
1053.33	112.184
1056.71	165.573
1060.08	183.258
1063.46	158.895
1066.83	122.345
1070.21	107.024
1073.58	56.7647
1076.96	32.4958
1080.33	30.6067
1083.71	15.8512
1087.08	31.4518
1090.46	20.7764
1093.83	23.9799
1097.21	26.2888
1100.58	15.3887
1103.96	9.24268
1107.33	8.25659
1110.71	2.60107
1114.08	2.96509
1117.46	14.9634
1120.83	14.1995
1124.21	6.95496
1127.58	2.5968
1130.95	2.54858
1134.33	22.36
1137.7	13.7101
1141.08	16.6898
1144.45	20.2987
1147.83	10.7136
1151.2	13.2946
1154.58	10.908
1157.95	6.54126
1161.33	13.3218
1164.7	30.7709
1168.08	14.2344
1171.45	21.7929
1174.83	39.204
1178.2	35.7731
1181.58	40.3799
1184.95	57.7511
1188.33	66.3931
1191.7	67.5081
1195.08	79.291
1198.45	88.0688
1201.83	59.1824
1205.2	37.7629
1208.58	17.8223
1211.95	47.6143
1215.33	36.9287
1218.7	26.946
1222.08	18.1414
1225.45	1.02881
1228.83	3.60938
1232.2	2.9331
1235.58	7.19311
1238.95	2.68506
1242.32	2.80908
1245.7	2.18091
1249.07	20.5142
1252.45	23.7209
1255.82	22.2444
1259.2	33.7537
1262.57	18.4128
1265.95	16.1604
1269.32	31.7114
1272.7	6.20239
1276.07	25.958
1279.45	21.9934
1282.82	20.1948
1286.2	9.70068
1289.57	22.4341
1292.95	12.7178
1296.32	10.4907
1299.7	9.896
