Measurement: Raman, 780 nm, unoriented, Raman Data Processed
Mineral: Ammoniomathesiusite
Rruff sample: R200003
Ideal chemistry: (N^3-^H_4_)_5_(U^6+^O_2_)_4_(S^6+^O_4_)_4_(V^5+^O_5_)4H_2_O
Locality: Burro mine, Slick Rock, Colorado, USA
Source: Travis Olds
Description: Yellow-green tetragonal prismatic crystals, associated with needles of gypsum
Raman shift (cm-1)	intensity
87.582	0
90.9569	54.3724
94.3317	78.4017
97.7065	41.5727
101.081	26.6319
104.456	27.8096
107.831	21.4143
111.206	7.15472
114.581	0.457932
117.955	3.98044
121.33	3.59857
124.705	0.521225
128.08	9.23189
131.455	15.3763
134.829	27.4212
138.204	39.8518
141.579	50.4419
144.954	54.9228
148.329	49.7354
151.704	52.9424
155.078	47.4933
158.453	52.8541
161.828	65.1556
165.203	90.273
168.578	107.641
171.952	119.952
175.327	141.504
178.702	143.4
182.077	113.338
185.452	115.808
188.827	149.149
192.201	208.871
195.576	294.12
198.951	345.631
202.326	337.375
205.701	323.137
209.076	398.27
212.45	443.129
215.825	300.834
219.2	207.237
222.575	186.424
225.95	186.054
229.324	163.212
232.699	127.371
236.074	74.7039
239.449	42.9397
242.824	34.1444
246.198	28.7923
249.573	13.6977
252.948	3.66238
256.323	6.04921
259.698	0.092499
263.073	6.85057
266.447	14.3939
269.822	15.4544
273.197	13.4972
276.572	12.3318
279.947	7.71311
283.322	5.08821
286.696	7.58458
290.071	12.0943
293.446	12.4842
296.821	9.56586
300.196	6.35201
303.57	2.67899
306.945	1.99128
310.32	0.50901
313.695	2.66333
317.07	1.5396
320.445	0.847534
323.819	2.14845
327.194	2.04368
330.569	2.81688
333.944	4.561
337.319	4.46018
340.693	7.20181
344.068	6.59213
347.443	6.06247
350.818	7.7914
354.193	11.1523
357.567	15.8863
360.942	21.9339
364.317	33.0392
367.692	44.2379
371.067	48.4472
374.442	33.0084
377.816	18.7154
381.191	11.2267
384.566	10.4589
387.941	8.1148
391.316	11.3098
394.69	17.3666
398.065	21.0579
401.44	13.9836
404.815	7.8095
408.19	3.01224
411.565	0.145767
414.939	1.4398
418.314	0.966423
421.689	2.40551
425.064	0.59359
428.439	3.1633
431.813	5.78021
435.188	11.1035
438.563	16.1139
441.938	29.1549
445.313	49.0022
448.688	74.643
452.062	111.185
455.437	133.599
458.812	126.038
462.187	78.6408
465.562	43.4954
468.937	27.2785
472.311	19.9758
475.686	21.1452
479.061	28.0888
482.436	25.9349
485.81	16.2771
489.185	9.08511
492.56	5.02018
495.935	1.16841
499.31	0.41758
502.685	0.229683
506.059	0.765388
509.434	0.839005
512.809	0.87117
516.184	0.792122
519.559	3.21452
522.933	2.31273
526.308	2.87311
529.683	5.47163
533.058	11.8151
536.433	21.198
539.808	33.097
543.182	43.488
546.557	53.2857
549.932	56.2321
553.307	50.4701
556.682	41.584
560.057	39.3597
563.431	34.8359
566.806	32.6571
570.181	34.5522
573.556	32.3543
576.931	30.8337
580.305	38.9995
583.68	47.8857
587.055	47.6151
590.43	47.2992
593.805	35.7634
597.18	27.2628
600.554	24.5649
603.929	24.1079
607.304	21.375
610.679	9.18646
614.054	19.3039
617.428	22.6202
620.803	26.0295
624.178	20.7153
627.553	8.56843
630.928	3.73721
634.303	2.50196
637.677	0.841347
641.052	4.01682
644.427	5.06503
647.802	5.22024
651.177	1.10171
654.552	1.64694
657.926	1.75076
661.301	0.507355
664.676	3.96187
668.051	12.5652
671.426	18.7123
674.8	34.7781
678.175	51.9239
681.55	77.0391
684.925	99.2317
688.3	100.968
691.674	78.6831
695.049	56.2792
698.424	37.6914
701.799	23.0412
705.174	16.8398
708.548	11.6944
711.923	5.967
715.298	4.4277
718.673	1.35623
722.048	0.302597
725.423	0.525578
728.797	0.802299
732.172	0.74374
735.547	0.458755
738.922	0.817432
742.297	0.715645
745.672	1.13294
749.046	1.22065
752.421	4.80985
755.796	8.04149
759.171	12.2548
762.546	11.5701
765.92	4.3371
769.295	3.32387
772.67	2.35297
776.045	2.26469
779.42	0.333786
782.795	0.204105
786.169	2.45283
789.544	3.40878
792.919	5.58846
796.294	9.85449
799.669	14.2614
803.043	19.1623
806.418	23.1373
809.793	37.2583
813.168	62.1291
816.543	85.5218
819.918	130.567
823.292	245.652
826.667	509.4
830.042	1205.43
833.417	2376.79
836.792	705.145
840.166	225.586
843.541	166.323
846.916	121.69
850.291	41.4382
853.666	16.6405
857.04	7.30171
860.415	4.99783
863.79	2.45033
867.165	3.48949
870.54	2.99315
873.915	1.51149
877.289	0.433018
880.664	0.04438
884.039	1.95862
887.414	6.34128
890.789	15.7347
894.163	32.8796
897.538	41.8205
900.913	33.2224
904.288	24.9308
907.663	7.38988
911.038	1.42181
914.412	0.792885
917.787	0.045803
921.162	2.41555
924.537	0.733906
927.912	1.14595
931.287	0.61285
934.661	4.69363
938.036	5.40766
941.411	7.27451
944.786	4.01935
948.161	4.78011
951.535	8.87858
954.91	18.1178
958.285	34.904
961.66	42.7884
965.035	40.7257
968.409	66.9648
971.784	162.233
975.159	425.971
978.534	399.942
981.909	111.868
985.284	32.0571
988.658	11.8029
992.033	10.6425
995.408	22.5296
998.783	57.3068
1002.16	108.614
1005.53	218.639
1008.91	282.766
1012.28	121.673
1015.66	39.1171
1019.03	12.154
1022.41	4.99941
1025.78	0.095608
1029.16	0.769764
1032.53	0.164371
1035.91	3.75677
1039.28	8.92435
1042.66	14.8605
1046.03	27.6791
1049.4	48.6279
1052.78	76.5177
1056.15	102.704
1059.53	102.567
1062.9	75.3644
1066.28	55.1299
1069.65	34.1975
1073.03	17.0913
1076.4	9.08707
1079.78	7.50585
1083.15	7.5878
1086.53	12.3255
1089.9	17.2866
1093.28	19.6118
1096.65	15.2755
1100.03	10.7477
1103.4	8.87394
1106.78	8.86145
1110.15	6.71069
1113.53	4.87838
1116.9	1.28621
1120.28	0.311676
1123.65	2.15688
1127.03	0.067772
1130.4	0.252392
1133.78	0.839699
1137.15	0.536724
1140.53	0.262924
1143.9	0.370541
1147.28	1.40923
1150.65	0.383488
1154.03	2.44315
1157.4	2.4584
1160.77	4.03347
1164.15	3.42943
1167.52	5.19392
1170.9	7.43015
1174.27	10.2194
1177.65	13.7957
1181.02	18.8072
1184.4	25.8585
1187.77	31.7617
1191.15	38.7293
1194.52	40.3125
1197.9	36.9784
1201.27	30.0368
1204.65	22.7437
1208.02	13.1247
1211.4	9.42187
1214.77	8.62369
1218.15	9.29927
1221.52	6.04492
1224.9	4.25874
1228.27	3.985
1231.64	3.80262
1235.02	2.42197
1238.39	2.63043
1241.77	2.55123
1245.14	1.48741
1248.52	1.3159
1251.89	0.94363
1255.27	1.66047
1258.64	0.117107
1262.02	1.32717
1265.39	2.76639
1268.77	1.79014
1272.14	0.199345
1275.52	0.316635
1278.89	1.39515
1282.27	0
