Measurement: Raman, 780 nm, unoriented, Raman Data Processed
Mineral: Anapaite
Rruff sample: R141081
Ideal chemistry: Ca_2_Fe^2+^(PO_4_)_2_4H_2_O
Locality: Messel mine, Messel, Darmstadt, Hesse, Germany
Source: Rock Currier
Description: Pale green to colorless subparallel aggregates. Associated with messelite (R140175).
Raman shift (cm-1)	intensity
110.724	0
114.099	39.2832
117.474	31.5195
120.848	76.2637
124.223	51.0488
127.598	26.7383
130.973	10.8574
134.348	8.38477
137.722	9.99414
141.097	29.4824
144.472	48.043
147.847	74.2988
151.222	114.912
154.597	100.076
157.971	104.912
161.346	169.647
164.721	164.695
168.096	82.8125
171.471	88.6856
174.845	96.9102
178.22	108.275
181.595	153.668
184.97	139.557
188.345	100.816
191.72	133.537
195.094	121.481
198.469	76.7168
201.844	97.9121
205.219	133.209
208.594	99.7891
211.969	122.934
215.343	108.644
218.718	105.303
222.093	120.33
225.468	105.647
228.843	120.359
232.217	97.7617
235.592	99.6465
238.967	26.791
242.342	32.5723
245.717	66.7051
249.091	35.1621
252.466	24.6797
255.841	24.3828
259.216	17.6016
262.591	15.2871
265.966	33.4141
269.34	26.3594
272.715	32.9707
276.09	33.9219
279.465	62.5605
282.84	57.0684
286.214	55.6836
289.589	36.0898
292.964	17.5234
296.339	23.9395
299.714	19.2578
303.089	24.1777
306.463	22.6953
309.838	21.6504
313.213	40.0605
316.588	72.4863
319.963	86.3106
323.337	70.0859
326.712	55.2598
330.087	52.0938
333.462	54.1152
336.837	14.4883
340.212	23.0996
343.586	6.07227
346.961	13.1191
350.336	4.41016
353.711	21.7754
357.086	0.851563
360.46	8.71875
363.835	17.9316
367.21	49.125
370.585	3.8418
373.96	9.00781
377.334	12.125
380.709	19.7402
384.084	13.1914
387.459	9.75586
390.834	42.3828
394.209	74.0606
397.583	57.1523
400.958	83.25
404.333	124.045
407.708	155.565
411.083	152.191
414.457	180.957
417.832	271.631
421.207	295.672
424.582	343.236
427.957	417.728
431.332	371.969
434.706	346.727
438.081	294.316
441.456	250.755
444.831	203.996
448.206	206.648
451.58	172.628
454.955	135.144
458.33	144.406
461.705	94.833
465.08	77.5186
468.455	76.8662
471.829	81.7022
475.204	94.7656
478.579	87.082
481.954	59.6836
485.329	59.2588
488.704	43.6445
492.078	78.7275
495.453	59.0234
498.828	35.3018
502.203	22.7324
505.577	14.5303
508.952	32.2022
512.327	32.0898
515.702	4.26465
519.077	17.5723
522.452	10.7773
525.826	12.9238
529.201	3.07812
532.576	11.8223
535.951	13.7891
539.326	27.0244
542.701	53.3115
546.075	98.2549
549.45	153.631
552.825	117.281
556.2	86.1348
559.575	54.2432
562.949	0.676758
566.324	13.5547
569.699	50.4961
573.074	45.791
576.449	49.7295
579.823	71.0312
583.198	104.822
586.573	88.7978
589.948	97.8809
593.323	91.2305
596.698	151.34
600.072	192.317
603.447	150.193
606.822	76.0273
610.197	50.6328
613.572	29.5576
616.947	28.9844
620.321	37.0518
623.696	30.8506
627.071	31.3672
630.446	16.9014
633.821	41.7725
637.195	52.8428
640.57	34.1777
643.945	19.7393
647.32	1.30762
650.695	6.65527
654.069	19.7871
657.444	24.6191
660.819	18.7607
664.194	4.97949
667.569	2.03418
670.944	9.22266
674.318	1.56348
677.693	24.8926
681.068	4.26562
684.443	12.71
687.818	14.7236
691.192	18.8506
694.567	5.21484
697.942	19.5342
701.317	6.63379
704.692	7.19531
708.067	19.7549
711.441	17.1279
714.816	15.9902
718.191	3.17285
721.566	18.7988
724.941	7.83301
728.316	32.9111
731.69	13.6729
735.065	13.4668
738.44	14.9199
741.815	38.3994
745.19	14.123
748.564	23.1455
751.939	3.6416
755.314	7.15625
758.689	7.21289
762.064	34.501
765.438	13.2988
768.813	11.5967
772.188	9.0332
775.563	7.78711
778.938	3.41406
782.313	10.5654
785.687	21.6035
789.062	18.7227
792.437	41.9492
795.812	29.7686
799.187	14.4209
802.562	37.2324
805.936	60.9365
809.311	46.8105
812.686	65.6504
816.061	45.2793
819.436	42.2041
822.81	44.1016
826.185	54.2236
829.56	33.9053
832.935	43.3682
836.31	76.8994
839.684	67.7031
843.059	50.3037
846.434	46.8291
849.809	54.3711
853.184	56.1221
856.558	35.706
859.933	18.4844
863.308	19.3457
866.683	22.3672
870.058	25.0371
873.433	12.293
876.807	0.693359
880.182	24.9238
883.557	32.8291
886.932	11.3809
890.307	0.675781
893.682	15.0342
897.056	5.64356
900.431	18.5225
903.806	28.4121
907.181	20.3691
910.556	36.6103
913.93	66.041
917.305	125.891
920.68	213.739
924.055	362.751
927.43	590.655
930.804	640.365
934.179	525.741
937.554	513.812
940.929	719.006
944.304	874.97
947.679	563.528
951.053	304.524
954.428	203.197
957.803	176.163
961.178	124.641
964.553	94.4746
967.928	68.4609
971.302	28.251
974.677	4.90527
978.052	12.3525
981.427	20.4521
984.802	10.0908
988.176	1.1875
991.551	24.5605
994.926	7.20215
998.301	13.3193
1001.68	4.89648
1005.05	14.1943
1008.42	1.56543
1011.8	26.2705
1015.17	34.0586
1018.55	21.9297
1021.92	20.7715
1025.3	14.6699
1028.67	31.1523
1032.05	22.4268
1035.42	17.2422
1038.8	21.5977
1042.17	18.5752
1045.55	1.49609
1048.92	0.460938
1052.3	17.0957
1055.67	5.33496
1059.05	14.3027
1062.42	19.2627
1065.8	6.7207
1069.17	27.6475
1072.55	27.1367
1075.92	30.4316
1079.3	40.5264
1082.67	47.3799
1086.05	62.5635
1089.42	93.8936
1092.8	122.109
1096.17	210.546
1099.55	220.93
1102.92	120.197
1106.3	73.21
1109.67	61.2656
1113.05	7.75586
1116.42	4.66992
1119.79	1.11816
1123.17	1.62402
1126.54	0.148438
1129.92	15.4521
1133.29	12.8965
1136.67	3.63477
1140.04	19.5244
1143.42	8.35449
1146.79	23.6621
1150.17	27.8975
1153.54	21.7852
1156.92	45.5742
1160.29	54.2754
1163.67	52.1875
1167.04	49.0654
1170.42	51.6387
1173.79	46.8267
1177.17	52.8306
1180.54	41.2383
1183.92	30.6069
1187.29	36.044
1190.66	42.1523
1194.04	37.4336
1197.41	37.1074
1200.79	23.8306
1204.16	33.1143
1207.54	22.9355
1210.91	31.8955
1214.29	28.3618
1217.66	22.8174
1221.04	9.07617
1224.41	20.6475
1227.79	9.86768
1231.16	21.6221
1234.54	12.5645
1237.91	0.936035
1241.29	13.1392
1244.66	15.8657
1248.04	7.01465
1251.41	12.2422
1254.79	10.5576
1258.16	19.8999
1261.54	33.0708
1264.91	21.9131
1268.29	23.7002
1271.66	16.4014
1275.04	35.0493
1278.41	4.90186
1281.79	0.019531
