Measurement: Raman, 780 nm, unoriented, Raman Data RAW
Mineral: Anatase
Rruff sample: R060277
Ideal chemistry: Ti^4+^O_2_
Locality: Taftan, near Dalbandi, Baluchistan Province, Pakistan
Source: Herb Obodda
Description: Dark brown tetragonal tabular crystals
Measured chemistry: Ti_1.00_O_2_
Raman shift (cm-1)	intensity
91.5332	10550.7
94.908	11146.5
98.2828	11665.3
101.658	12228.8
105.032	13809.4
108.407	15658.2
111.782	18752.6
115.157	23598.7
118.532	34068.1
121.907	53886.3
125.281	75197.2
128.656	95492
132.031	127977
135.406	179692
138.781	269945
142.155	357826
145.53	227484
148.905	98659.7
152.28	50905.4
155.655	31232.8
159.03	21401.3
162.404	15958.7
165.779	12582.7
169.154	10482.4
172.529	8936.74
175.904	8062.37
179.278	7461.72
182.653	6850.58
186.028	6517.62
189.403	6470.98
192.778	7364.93
196.153	9516.42
199.527	6222.1
202.902	4858.47
206.277	4472.86
209.652	4256.52
213.027	4091.49
216.401	4042.3
219.776	4137.6
223.151	4071.52
226.526	4044.15
229.901	3973.36
233.275	3890.17
236.65	3930.07
240.025	3908.3
243.4	3967.18
246.775	4066.17
250.15	4247.91
253.524	4366.55
256.899	4615.67
260.274	4865.56
263.649	5140.3
267.024	5443.9
270.399	5672.83
273.773	6091.08
277.148	6704.31
280.523	7232.32
283.898	8044.12
287.273	8950.65
290.647	9791.34
294.022	10751.1
297.397	11594
300.772	12268.4
304.147	12889.6
307.522	13390.6
310.896	13858.3
314.271	14112.6
317.646	14282.6
321.021	14206.3
324.396	14155.9
327.77	14188
331.145	14391.1
334.52	14550.8
337.895	14986.4
341.27	15779.7
344.644	16703.8
348.019	17913.5
351.394	19529
354.769	21753.7
358.144	24488.5
361.519	28373.8
364.893	33839.1
368.268	42153.9
371.643	53169.7
375.018	68371.4
378.393	89425.6
381.767	115887
385.142	147567
388.517	181545
391.892	212243
395.267	223598
398.642	201642
402.016	154354
405.391	108710
408.766	76586.5
412.141	56167.9
415.516	43515.6
418.89	35098.6
422.265	29365.6
425.64	25332
429.015	22035
432.39	19583.4
435.765	18026
439.139	16969.2
442.514	16270.1
445.889	15636.6
449.264	15264.3
452.639	14784.9
456.014	14624.2
459.388	14655
462.763	14825
466.138	15628.6
469.513	16508.7
472.887	17686.5
476.262	19263.1
479.637	21201.8
483.012	24151.7
486.387	27736.6
489.762	33395
493.136	41346.9
496.511	53044
499.886	68716.9
503.261	90311.4
506.636	120038
510.01	153220
513.385	167466
516.76	156502
520.135	133027
523.51	106954
526.885	84632.3
530.259	67824.4
533.634	55162.2
537.009	45694.4
540.384	38491
543.759	32972.6
547.134	28808.3
550.508	25307.2
553.883	22823.3
557.258	20868.6
560.633	19344.8
564.008	18106.5
567.382	17137.4
570.757	16253.1
574.132	15648.7
577.507	14808.5
580.882	14379.5
584.256	13775.2
587.631	13384.4
591.006	12913.3
594.381	12717.5
597.756	12872.1
601.131	12768.7
604.505	13120.4
607.88	13615.3
611.255	14468.5
614.63	15547.4
618.005	17356
621.38	19751.4
624.754	23014.7
628.129	27032.7
631.504	31303.3
634.879	34583.2
638.254	34221.7
641.628	30295.9
645.003	25002.2
648.378	20311.2
651.753	16788.9
655.128	14410.7
658.503	12762.9
661.877	11382.9
665.252	10388.2
668.627	9523.73
672.002	9041.89
675.377	8578.62
678.751	8299.47
682.126	8070.25
685.501	7867.46
688.876	7677.33
692.251	7574.36
695.625	7449.55
699	7233.25
702.375	6777.41
705.75	6425.12
709.125	5971.93
712.5	5659.74
715.874	5318.4
719.249	5050.74
722.624	4747.12
725.999	4527.28
729.374	4396.81
732.749	4222.82
736.123	4222.65
739.498	4155.83
742.873	4108.1
746.248	4148.59
749.623	4146.02
752.997	4294.78
756.372	4396.69
759.747	4584.44
763.122	4744.9
766.497	5027.61
769.871	5305.68
773.246	5782.88
776.621	6485.51
779.996	6865.84
783.371	7258.38
786.745	7715.16
790.12	7843.1
793.495	7980.75
796.87	7815.58
800.245	7580.51
803.62	7251.18
806.994	6886.48
810.369	6512.23
813.744	6234.47
817.119	5937.96
820.494	5608.85
823.869	5394.63
827.243	4991.02
830.618	4938.59
833.993	4930.33
837.368	4633.25
840.743	4627.41
844.117	4319.71
847.492	4312.45
850.867	4284.75
854.242	4048.8
857.617	3904.73
860.991	3765.22
864.366	3695.54
867.741	3637.65
871.116	3492.51
874.491	3202.57
877.866	3080.56
881.24	3018.66
884.615	2917.74
887.99	2740.74
891.365	2545.7
894.74	2563.52
898.115	2482.79
901.489	2435.84
904.864	2281.09
908.239	2270.37
911.614	2211.52
914.989	2082.19
918.363	2163.37
921.738	2087.83
925.113	2053.59
928.488	2022.06
931.863	1906.71
935.237	1846.17
938.612	1848.29
941.987	1767.51
945.362	1761.28
948.737	1702.9
952.112	1503.88
955.486	1626.6
958.861	1576.19
962.236	1540.18
965.611	1539.29
968.986	1492.16
972.361	1448.42
975.735	1394.36
979.11	1373.35
982.485	1369.97
985.86	1379.21
989.235	1305.28
992.609	1309.53
995.984	1300.72
999.359	1232.11
1002.73	1194.88
1006.11	1257.59
1009.48	1213.83
1012.86	1182.49
1016.23	1225.01
1019.61	1170.45
1022.98	1075.49
1026.36	1130.02
1029.73	1155.97
1033.11	1078.62
1036.48	1108.28
1039.86	1056.58
1043.23	1145.01
1046.61	941.723
1049.98	1022.33
1053.36	1019.84
1056.73	937.18
1060.11	1043.23
1063.48	940.316
1066.86	847.275
1070.23	1004.43
1073.61	929.954
1076.98	843.816
1080.36	939.784
1083.73	899.993
1087.1	771.585
1090.48	871.027
1093.85	661.393
1097.23	755.534
1100.6	787.609
1103.98	771.273
1107.35	769.202
1110.73	705.61
1114.1	688.925
1117.48	740.715
1120.85	677.48
1124.23	616.374
1127.6	654.648
1130.98	690.759
1134.35	650.992
1137.73	609.915
1141.1	676.648
1144.48	664.953
1147.85	563.186
1151.23	527.327
1154.6	567.463
1157.97	601.113
1161.35	682.524
1164.72	523.298
1168.1	628.041
1171.47	571.908
1174.85	603.977
1178.22	607.237
1181.6	583.933
1184.97	521.629
1188.35	658.32
1191.72	584.301
1195.1	471.71
1198.47	631.908
1201.85	563.852
1205.22	586.757
1208.6	611.709
1211.97	568.885
1215.35	574.417
1218.72	538.414
1222.1	599.064
1225.47	579.354
1228.85	656.84
1232.22	536.657
1235.6	603.929
1238.97	573.083
1242.35	643.937
1245.72	618.147
1249.1	549.882
1252.47	559.9
1255.85	692.215
1259.22	679.654
1262.6	650.375
1265.97	697.343
1269.34	675.044
1272.72	661.388
1276.09	633.738
1279.47	667.961
1282.84	503.493
