Measurement: Raman, 780 nm, unoriented, Raman Data RAW
Mineral: Andalusite
Rruff sample: R060212
Ideal chemistry: Al_2_SiO_5_
Locality: Brazil
Source: Marcus Origlieri
Description: Transparent yellow-green water-worn pebble
Measured chemistry: (Al_1.98_Fe^3+^_0.02_)_Î£=2_Si_1.00_O_5_
Raman shift (cm-1)	intensity
92.2061	153.229
95.5809	146.899
98.9557	135.409
102.331	121.745
105.705	118.38
109.08	108.817
112.455	107.771
115.83	105.152
119.205	102.73
122.579	103.438
125.954	97.3302
129.329	97.8453
132.704	94.4675
136.079	95.0753
139.453	95.3748
142.828	92.2198
146.203	90.4025
149.578	90.0048
152.953	89.8932
156.327	90.1656
159.702	88.09
163.077	87.2237
166.452	85.6901
169.827	84.8151
173.202	84.2681
176.576	83.8071
179.951	84.2031
183.326	82.6142
186.701	84.9077
190.076	83.6053
193.451	82.8763
196.825	82.1084
200.2	81.5584
203.575	81.9624
206.95	81.3635
210.325	79.9907
213.699	81.2073
217.074	82.4285
220.449	82.3402
223.824	83.3708
227.199	83.2333
230.573	83.3626
233.948	84.924
237.323	84.4124
240.698	83.8768
244.073	79.7351
247.447	80.7586
250.822	81.7332
254.197	83.0556
257.572	81.9634
260.947	83.8471
264.322	85.6993
267.696	91.9597
271.071	107.355
274.446	120.038
277.821	127.501
281.196	133.774
284.57	134.841
287.945	130.394
291.32	118.841
294.695	100.601
298.07	96.8631
301.445	110.263
304.819	125.359
308.194	131.858
311.569	138.237
314.944	141.286
318.319	134.744
321.693	114.631
325.068	93.868
328.443	85.7875
331.818	85.9488
335.193	90.3481
338.567	101.303
341.942	117.543
345.317	125.725
348.692	136.361
352.067	141.132
355.442	135.457
358.816	117.369
362.191	98.0861
365.566	88.0617
368.941	80.2777
372.316	77.6068
375.69	76.5672
379.065	72.0218
382.44	73.2765
385.815	71.5173
389.19	72.4091
392.565	70.3709
395.939	69.0683
399.314	70.8611
402.689	70.6947
406.064	70.9225
409.439	72.1698
412.813	69.9927
416.188	69.9836
419.563	69.443
422.938	68.9638
426.313	68.5506
429.688	67.5916
433.062	69.3298
436.437	71.282
439.812	71.4261
443.187	73.548
446.562	73.3542
449.936	72.4383
453.311	68.0664
456.686	67.6302
460.061	65.9037
463.436	66.4284
466.81	66.7885
470.185	67.8232
473.56	68.4253
476.935	66.9441
480.31	66.1346
483.685	67.5781
487.059	63.9976
490.434	64.3968
493.809	63.9994
497.184	64.0275
500.559	63.887
503.933	62.6307
507.308	63.1654
510.683	62.8985
514.058	62.8771
517.433	63.5157
520.808	62.5077
524.182	62.3871
527.557	60.9968
530.932	64.662
534.307	64.9509
537.682	68.3888
541.056	68.8088
544.431	70.318
547.806	69.8382
551.181	66.9021
554.556	64.6329
557.93	63.1633
561.305	62.1462
564.68	61.3313
568.055	62.0134
571.43	62.5832
574.804	61.4767
578.179	60.2735
581.554	59.1084
584.929	60.734
588.304	58.9498
591.679	59.2556
595.053	59.798
598.428	58.9128
601.803	60.4344
605.178	58.6626
608.553	61.4899
611.928	60.1171
615.302	60.5583
618.677	58.6109
622.052	58.0054
625.427	59.1249
628.802	59.1653
632.176	59.2446
635.551	57.8354
638.926	58.5072
642.301	59.2934
645.676	58.1912
649.05	58.4081
652.425	58.6329
655.8	58.1195
659.175	58.4089
662.55	59.2844
665.924	58.7649
669.299	59.2922
672.674	60.2706
676.049	59.07
679.424	59.7108
682.799	59.4721
686.173	60.7007
689.548	60.3002
692.923	59.1234
696.298	61.4391
699.673	62.6431
703.048	63.0671
706.422	65.9728
709.797	65.8597
713.172	64.0769
716.547	61.9094
719.922	61.1938
723.296	59.1003
726.671	58.6898
730.046	58.2475
733.421	58.6172
736.796	58.0507
740.17	57.8187
743.545	56.8755
746.92	56.8864
750.295	57.1201
753.67	57.6587
757.044	56.8813
760.419	57.0502
763.794	57.6885
767.169	56.5431
770.544	58.0545
773.919	57.3604
777.293	56.7555
780.668	57.7584
784.043	58.3938
787.418	58.5148
790.793	57.7484
794.167	59.9127
797.542	57.4078
800.917	58.532
804.292	58.9124
807.667	58.7297
811.042	58.4876
814.416	58.8559
817.791	59.8449
821.166	59.5262
824.541	60.6931
827.916	60.5864
831.29	60.3539
834.665	59.5843
838.04	58.9678
841.415	58.2961
844.79	57.0412
848.164	57.1479
851.539	58.5923
854.914	58.5038
858.289	58.194
861.664	58.1134
865.039	56.8385
868.413	58.4547
871.788	56.9917
875.163	57.7482
878.538	56.7172
881.913	57.0529
885.287	58.3961
888.662	57.5149
892.037	59.7606
895.412	63.2971
898.787	68.906
902.162	82.7015
905.536	110.591
908.911	129.402
912.286	140.678
915.661	136.201
919.036	111.45
922.41	85.8511
925.785	73.1643
929.16	66.0475
932.535	61.7502
935.91	61.544
939.284	61.569
942.659	62.4975
946.034	60.4769
949.409	60.8827
952.784	56.1024
956.159	50.7724
959.533	51.325
962.908	50.4857
966.283	49.761
969.658	49.7972
973.033	49.4205
976.407	48.4854
979.782	49.2286
983.157	48.4941
986.532	49.0405
989.907	47.2658
993.282	48.1366
996.656	48.9528
1000.03	49.2211
1003.41	49.898
1006.78	49.0483
1010.16	51.7737
1013.53	51.9751
1016.9	52.1725
1020.28	50.4256
1023.65	48.5183
1027.03	48.3223
1030.4	48.2743
1033.78	48.7205
1037.15	50.1308
1040.53	47.8755
1043.9	48.9003
1047.28	49.5015
1050.65	50.0943
1054.03	51.4346
1057.4	52.1341
1060.78	52.8191
1064.15	51.0956
1067.53	50.2975
1070.9	48.2858
1074.28	47.8465
1077.65	47.9234
1081.03	46.8319
1084.4	46.5654
1087.78	46.6235
1091.15	46.6621
1094.53	47.3306
1097.9	47.3835
1101.28	47.2775
1104.65	47.8993
1108.03	47.5589
1111.4	46.4649
1114.78	45.5062
1118.15	46.3352
1121.52	44.5985
1124.9	47.0089
1128.27	45.8837
1131.65	46.5092
1135.02	45.3094
1138.4	47.3343
1141.77	46.6947
1145.15	45.7858
1148.52	45.9644
1151.9	44.2782
1155.27	44.0972
1158.65	45.7481
1162.02	45.7205
1165.4	47.2735
1168.77	44.9367
1172.15	47.3792
1175.52	45.1988
1178.9	46.7278
1182.27	45.7513
1185.65	46.0748
1189.02	45.2677
1192.4	46.1296
1195.77	46.9228
1199.14	45.5346
1202.52	44.7636
1205.89	46.5071
1209.27	46.2103
1212.64	46.9273
1216.02	46.0826
1219.39	46.0516
1222.77	45.5618
1226.14	45.5989
1229.52	46.3276
1232.89	46.5831
1236.27	45.1963
1239.64	45.1428
1243.02	46.9203
1246.39	46.8399
1249.77	45.5327
1253.14	47.2989
1256.52	46.0733
1259.89	46.2607
1263.27	46.5273
1266.64	46.2645
1270.02	48.0842
1273.39	46.4755
1276.77	46.2949
1280.14	45.6317
1283.52	48.0549
