Measurement: Raman, 532 nm, unoriented, Raman Data RAW
Mineral: Andorite VI
Rruff sample: R100212
Ideal chemistry: Ag^1+^Pb^2+^Sb^3+^_3_S^2-^_6_
Locality: Felsobanya, Romania
Source: Mark N. Feinglos
Description: Elogated crystals with striations, associated with wurtzite
Measured chemistry: Ag_0.94_Pb_0.87_Cu_0.11_Fe_0.06_Mn_0.05_Bi_0.01_Sb_3.14_S_6_
Raman shift (cm-1)	intensity
189.387	23.5346
192.28	19.8269
195.173	17.545
198.065	14.7276
200.958	16.679
203.851	13.2637
206.743	24.7017
209.636	12.7208
212.529	27.5206
215.421	24.775
218.314	21.1139
221.207	30.9201
224.1	24.2568
226.992	25.8937
229.885	21.3429
232.778	23.9909
235.67	24.16
238.563	27.8187
241.456	21.4545
244.348	18.8677
247.241	27.5818
250.134	23.5697
253.026	27.001
255.919	27.8168
258.812	30.0791
261.705	34.3764
264.597	23.6
267.49	25.3853
270.383	17.8334
273.276	25.0938
276.168	23.1505
279.061	23.8476
281.954	22.4984
284.846	22.1205
287.739	17.8957
290.632	14.5566
293.524	20.4147
296.417	14.5723
299.31	12.6026
302.202	22.0941
305.095	25.0136
307.988	17.1366
310.881	17.8524
313.773	18.2737
316.666	22.9666
319.559	21.8599
322.451	24.4097
325.344	16.6922
328.237	17.9716
331.13	25.1377
334.022	13.6907
336.915	12.1262
339.808	11.05
342.7	21.3468
345.593	17.7736
348.486	16.7115
351.378	14.3603
354.271	14.2713
357.164	11.8517
360.057	8.50286
362.949	14.7308
365.842	13.6287
368.735	7.38712
371.627	3.14126
374.52	8.68034
377.413	5.23737
380.305	7.37908
383.198	5.655
386.091	14.5128
388.984	9.51657
391.876	0.62542
394.769	14.6943
397.662	10.5405
400.554	15.5297
403.447	9.63261
406.34	13.9461
409.233	11.7778
412.125	4.16643
415.018	5.79952
417.911	0.0801
420.803	11.5122
423.696	7.92564
426.589	6.67937
429.481	7.13893
432.374	7.19182
435.267	10.012
438.159	16.4056
441.052	7.10271
443.945	12.9099
446.838	6.23965
449.73	8.99755
452.623	6.53273
455.516	10.3295
458.409	7.15393
461.301	18.678
464.194	7.0111
467.087	4.24416
469.979	9.19884
472.872	9.01227
475.765	3.87699
478.657	13.0033
481.55	12.885
484.443	19.4419
487.336	11.1292
490.228	5.42883
493.121	3.84737
496.014	3.62255
498.906	12.5678
501.799	11.1015
504.692	11.8882
507.584	10.0841
510.477	14.983
513.37	10.4651
516.263	0.379673
519.155	6.19496
522.048	6.6096
524.941	9.09435
527.833	3.66422
530.726	7.14755
533.619	11.2158
536.511	9.19888
539.404	6.22364
542.297	7.1836
545.19	9.88563
548.082	3.97883
550.975	11.247
553.868	11.9045
556.76	7.50954
559.653	13.5641
562.546	11.139
565.438	5.36812
568.331	9.81851
571.224	4.26124
574.117	7.10671
577.009	5.81343
579.902	6.43564
582.795	3.77476
585.687	14.5413
588.58	2.84556
591.473	6.02182
594.365	5.15761
597.258	14.2913
600.151	11.0065
603.044	-0.216496
605.936	4.58582
608.829	8.25218
611.722	7.13357
614.614	8.3177
617.507	3.28112
620.4	-0.542199
623.293	11.6606
626.185	7.39717
629.078	5.92951
631.971	9.56075
634.863	9.47305
637.756	11.1918
640.649	8.36923
643.542	7.6843
646.434	8.69685
649.327	8.23486
652.22	6.9643
655.112	9.62148
658.005	8.15774
660.898	14.7542
663.79	8.71672
666.683	7.83205
669.576	12.2323
672.468	7.95895
675.361	9.99374
678.254	15.0088
681.147	9.60666
684.039	7.6037
686.932	8.33081
689.825	6.7819
692.717	5.94899
695.61	2.39818
698.503	14.0686
701.396	4.92298
704.288	5.61814
707.181	11.1951
710.074	7.04669
712.966	14.8646
715.859	5.47848
718.752	4.72305
721.644	5.27446
724.537	12.25
727.43	6.45068
730.323	10.7493
733.215	8.63988
736.108	5.28887
739.001	18.5555
741.893	7.97551
744.786	11.4656
747.679	-2.79659
750.572	4.2961
753.464	7.41953
756.357	4.90101
759.25	5.78793
762.142	11.1244
765.035	4.53161
767.928	14.1741
770.82	8.081
773.713	10.5307
776.606	5.47948
779.499	14.8196
782.391	5.16372
785.284	8.7857
788.177	10.056
791.069	5.40531
793.962	7.46397
796.855	7.63823
799.747	6.64108
802.64	10.129
805.533	8.89643
808.426	6.87319
811.318	11.4878
814.211	7.85454
817.104	11.0645
819.996	7.09614
822.889	7.98011
825.782	6.72521
828.674	10.1897
831.567	7.84322
834.46	7.04891
837.353	13.9127
840.245	11.4434
843.138	9.20299
846.031	9.29065
848.923	5.88996
851.816	5.38251
854.709	7.94596
857.601	17.4041
860.494	7.28599
863.387	9.37719
866.28	8.11046
869.172	7.65003
872.065	5.45516
874.958	13.1937
877.851	11.1048
880.743	6.15799
883.636	2.06327
886.529	3.79054
889.421	8.69576
892.314	4.69129
895.207	-0.815034
898.099	6.45549
900.992	8.45941
903.885	12.6638
906.778	8.99289
909.67	11.3493
912.563	12.8594
915.456	5.57998
918.348	9.30594
921.241	5.89344
924.134	10.0915
927.026	4.72174
929.919	8.60035
932.812	11.6682
935.705	14.448
938.597	12.4634
941.49	8.15835
944.383	9.83661
947.275	-2.82276
950.168	8.81597
953.061	1.31141
955.953	4.29655
958.846	6.86652
961.739	9.89372
964.631	4.83854
967.524	7.77069
970.417	2.90286
973.31	6.4482
976.202	12.6596
979.095	7.96866
981.988	9.17279
984.88	9.72578
987.773	13.0643
990.666	6.2028
993.559	11.2736
996.451	12.4873
999.344	8.91681
1002.24	11.895
1005.13	6.53085
1008.02	5.32059
1010.91	3.4054
1013.81	4.82472
1016.7	8.38787
1019.59	10.7492
1022.49	-2.42976
1025.38	7.11326
1028.27	4.95191
1031.16	10.1599
1034.06	10.5267
1036.95	12.1212
1039.84	10.5695
1042.73	6.57254
1045.63	5.70546
1048.52	5.9697
1051.41	5.58334
1054.31	12.4247
1057.2	7.97631
1060.09	5.63375
1062.98	10.9158
1065.88	2.00328
1068.77	3.84636
1071.66	6.69945
1074.55	6.52176
1077.45	8.31747
1080.34	4.63517
1083.23	5.61379
1086.12	12.312
1089.02	3.23857
1091.91	6.15897
1094.8	8.47983
1097.7	9.83979
1100.59	2.67878
1103.48	6.04223
1106.37	4.33968
1109.27	8.90752
1112.16	3.23682
1115.05	10.2994
1117.94	6.48872
1120.84	10.7065
1123.73	0.344325
1126.62	3.82025
1129.52	8.75407
1132.41	9.47166
1135.3	5.22009
1138.19	1.86405
1141.09	6.50321
1143.98	7.05028
1146.87	5.51168
1149.77	8.70623
1152.66	4.0375
1155.55	5.42651
1158.44	-1.27977
1161.34	6.4947
1164.23	7.55828
1167.12	5.17004
1170.01	10.4408
1172.91	4.51337
1175.8	7.89046
1178.69	7.064
1181.58	8.15271
1184.48	9.07052
1187.37	7.61916
1190.26	5.93006
1193.15	6.49716
1196.05	2.12257
1198.94	5.98651
1201.83	10.8867
1204.73	11.6427
1207.62	7.76004
1210.51	4.02372
1213.4	5.38735
1216.3	1.19629
1219.19	3.10588
1222.08	5.71171
1224.97	5.32754
1227.87	9.91515
1230.76	4.95227
1233.65	1.39236
1236.55	8.71698
1239.44	4.69117
1242.33	6.0122
1245.22	3.70302
1248.12	4.62667
1251.01	8.12542
1253.9	5.7995
1256.8	8.73199
1259.69	6.20779
1262.58	4.48924
1265.47	10.0985
1268.37	12.1482
1271.26	6.11105
1274.15	13.2222
1277.04	7.57633
1279.94	4.0082
1282.83	3.40583
1285.72	6.92145
1288.61	4.30614
1291.51	8.48115
1294.4	3.52597
1297.29	5.52697
1300.18	5.42978
