Measurement: Raman, 780 nm, unoriented, Raman Data RAW
Mineral: Andorite VI
Rruff sample: R070718
Ideal chemistry: Ag^1+^Pb^2+^Sb^3+^_3_S^2-^_6_
Locality: Bear Basin Mines, Lennox Creek, Bear Basin, North Bend, King County, Washington, USA
Source: Michael Scott
Description: Black, massive in polished section, associated with andorite IV and white kutnohorite. Andorite VI:andorite IV = 80:20
Raman shift (cm-1)	intensity
119.041	7585.15
122.416	7585.04
125.791	7383.62
129.166	7301.51
132.541	7230.79
135.915	7200.76
139.29	7170.2
142.665	7161.56
146.04	7169.77
149.415	7105.37
152.79	7027.46
156.164	6967.19
159.539	6822.11
162.914	6695.26
166.289	6640.56
169.664	6545.08
173.038	6514.71
176.413	6453.05
179.788	6502.25
183.163	6437.54
186.538	6459.76
189.912	6400.09
193.287	6480.36
196.662	6534.95
200.037	6629.09
203.412	6636.45
206.786	6847.59
210.161	7134.99
213.536	7401.94
216.911	7631.37
220.286	7864.28
223.661	8299.69
227.035	8413.84
230.41	8809.34
233.785	9079.94
237.16	9191.11
240.535	9252.42
243.91	9281.92
247.284	9305.15
250.659	9272.54
254.034	9179.95
257.409	9268
260.784	9331.74
264.158	9324.76
267.533	9298.38
270.908	9319.77
274.283	9127.84
277.658	8819.49
281.033	8512.24
284.407	8114.02
287.782	7569.24
291.157	7024.11
294.532	6509.96
297.907	5985.38
301.281	5688.8
304.656	5521.08
308.031	5550.89
311.406	5666.8
314.781	5840.18
318.156	6109.69
321.53	6163.07
324.905	6241.1
328.28	5997.98
331.655	5913.34
335.03	5992.57
338.404	6101.79
341.779	5979.42
345.154	5457.59
348.529	4450.53
351.904	3495.13
355.279	2788.59
358.653	2373.15
362.028	2106.55
365.403	1936.46
368.778	1813.35
372.153	1747.64
375.527	1635.41
378.902	1596.18
382.277	1560.15
385.652	1498.31
389.027	1486.98
392.401	1454.51
395.776	1397.72
399.151	1374.62
402.526	1335.41
405.901	1346.87
409.276	1286.79
412.65	1284.36
416.025	1280.67
419.4	1277.51
422.775	1256.56
426.15	1256.36
429.524	1260.92
432.899	1240.86
436.274	1198.28
439.649	1202.64
443.024	1176.45
446.399	1186.63
449.773	1159.39
453.148	1167.6
456.523	1164.78
459.898	1123.31
463.273	1153.56
466.647	1141.09
470.022	1136.52
473.397	1138.63
476.772	1129.89
480.147	1133.91
483.522	1125.99
486.896	1086.52
490.271	1081.67
493.646	1090.33
497.021	1088.37
500.396	1071.55
503.77	1068.27
507.145	1040.73
510.52	1052.18
513.895	1056.93
517.27	1015.06
520.644	1014.52
524.019	986.696
527.394	1015.29
530.769	992.012
534.144	968.23
537.519	988.398
540.893	965.253
544.268	959.91
547.643	937.483
551.018	923.347
554.393	912.331
557.768	903.729
561.142	905.743
564.517	893.227
567.892	878.021
571.267	853.201
574.641	855.788
578.016	840.867
581.391	842.111
584.766	822.627
588.141	811.359
591.516	817.631
594.89	785.472
598.265	778.509
601.64	765.53
605.015	735.382
608.39	719.223
611.764	718.908
615.139	724.627
618.514	710.592
621.889	697.676
625.264	733.555
628.639	689.108
632.013	697.498
635.388	677.486
638.763	662.362
642.138	632.68
645.513	599.258
648.888	616.728
652.262	604.309
655.637	596.559
659.012	574.101
662.387	615.3
665.762	578.238
669.136	566.77
672.511	565.962
675.886	543.382
679.261	571.462
682.636	540.427
686.01	529.398
689.385	501.544
692.76	522.44
696.135	509.396
699.51	508.456
702.885	509.609
706.259	513.061
709.634	489.02
713.009	482.542
716.384	508.132
719.759	517.083
723.134	499.034
726.508	489.818
729.883	482.9
733.258	467.218
736.633	465.291
740.008	456.899
743.382	462.151
746.757	470.924
750.132	456.281
753.507	453.787
756.882	434.789
760.256	479.925
763.631	448.075
767.006	444.624
770.381	463.366
773.756	460.743
777.131	454.805
780.505	455.49
783.88	439.687
787.255	454.684
790.63	452.565
794.005	410.977
797.38	444.65
800.754	443.725
804.129	419.942
807.504	419.308
810.879	415.911
814.254	414.262
817.628	425.653
821.003	442.731
824.378	398.036
827.753	425.89
831.128	423.638
834.502	414.605
837.877	397.099
841.252	405.38
844.627	401.695
848.002	421.611
851.376	422.322
854.751	405.672
858.126	397.269
861.501	412.877
864.876	378.08
868.25	390.075
871.625	397.589
875	395.666
878.375	377.774
881.75	390.872
885.125	393.831
888.5	362.457
891.874	393.32
895.249	391.542
898.624	380.237
901.999	375.034
905.374	376.441
908.748	378.693
912.123	368.48
915.498	372.841
918.873	358.56
922.248	327.632
925.622	338.299
928.997	353.917
932.372	379.234
935.747	335.232
939.122	361.061
942.496	370.187
945.871	315.334
949.246	336.479
952.621	337.79
955.996	343.347
959.371	342.246
962.745	352.581
966.12	318.194
969.495	354.461
972.87	316.092
976.245	355.256
979.62	348.261
982.994	348.373
986.369	365.535
989.744	349.677
993.119	346.98
996.494	326.683
999.868	332.684
1003.24	345.274
1006.62	320.237
1009.99	332.066
1013.37	325.007
1016.74	319.734
1020.12	341.483
1023.49	322.678
1026.87	307.632
1030.24	340.361
1033.62	319.935
1036.99	328.256
1040.37	340.216
1043.74	317.377
1047.12	330.286
1050.49	297.816
1053.87	308.723
1057.24	324.58
1060.62	350.137
1063.99	306.375
1067.37	332.442
1070.74	341.808
1074.11	287.194
1077.49	308.579
1080.86	308.741
1084.24	306.791
1087.61	296.068
1090.99	307.672
1094.36	320.462
1097.74	310.91
1101.11	298.612
1104.49	311.071
1107.86	303.756
1111.24	302.842
1114.61	324.31
1117.99	309.443
1121.36	314.584
1124.74	322.15
1128.11	298.716
1131.49	290.574
1134.86	289.162
1138.24	299.784
1141.61	309.83
1144.98	295.349
1148.36	293.859
1151.73	310.507
1155.11	295.665
1158.48	290.162
1161.86	316.657
1165.23	290.445
1168.61	277.395
1171.98	288.464
1175.36	292.048
1178.73	289.593
1182.11	286.798
1185.48	305.008
1188.86	295.067
1192.23	306.368
1195.61	288.427
1198.98	297.515
1202.36	271.613
1205.73	289.267
1209.11	300.225
1212.48	298.413
1215.86	287.541
1219.23	280.238
1222.61	275.453
1225.98	295.757
1229.36	287.512
1232.73	289.941
1236.11	266.345
1239.48	296.583
1242.86	283.705
1246.23	288.332
1249.61	283.161
1252.98	283.542
1256.35	283.916
1259.73	289.339
1263.1	270.209
1266.48	284.49
1269.85	264.788
1273.23	274.334
1276.6	262.43
1279.98	265.996
1283.35	267.286
