Measurement: Raman, 532 nm, unoriented, Raman Data RAW
Mineral: Andorite VI
Rruff sample: R060673
Ideal chemistry: Ag^1+^Pb^2+^Sb^3+^_3_S^2-^_6_
Locality: San Jose mine, Oruro, Bolivia
Source: Michael Scott S101092, Rock Currier
Description: Dark steel gray metallic prismatic crystals with striation parallel to the c-axis. About ten percent of the volume is andorite IV, as determined by X-ray diffraction.
Raman shift (cm-1)	intensity
120.405	25.2714
123.78	26.9746
127.154	28.2829
130.529	31.0494
133.904	29.5438
137.279	29.4813
140.654	30.1978
144.029	29.6471
147.403	29.699
150.778	28.7391
154.153	29.8397
157.528	28.0805
160.903	27.5704
164.277	26.9636
167.652	26.8018
171.027	27.1364
174.402	27.6554
177.777	27.7167
181.151	26.7135
184.526	26.5759
187.901	25.5962
191.276	25.4524
194.651	24.9822
198.025	24.6794
201.4	24.04
204.775	25.4065
208.15	25.1556
211.525	25.012
214.9	25.6908
218.274	27.218
221.649	27.836
225.024	29.4503
228.399	31.241
231.774	31.4801
235.149	32.7693
238.523	33.9258
241.898	34.549
245.273	33.8288
248.648	33.864
252.023	33.5968
255.397	33.2668
258.772	32.929
262.147	34.347
265.522	32.1144
268.897	33.8456
272.272	34.1752
275.646	33.2405
279.021	33.1026
282.396	31.2619
285.771	30.6712
289.146	30.0269
292.52	29.2429
295.895	27.7931
299.27	27.1497
302.645	26.3046
306.02	27.9216
309.394	27.7868
312.769	28.7829
316.144	29.5768
319.519	30.3128
322.894	30.4677
326.269	27.9095
329.643	25.0698
333.018	24.3042
336.393	23.112
339.768	21.7762
343.143	17.0298
346.517	14.4623
349.892	13.6176
353.267	12.6237
356.642	10.9429
360.017	10.6257
363.392	10.7043
366.766	10.4825
370.141	10.1268
373.516	9.99677
376.891	9.92868
380.266	9.59385
383.64	9.44992
387.015	9.72938
390.39	9.42711
393.765	8.88579
397.14	8.70212
400.514	8.79055
403.889	8.54389
407.264	9.28548
410.639	7.68098
414.014	7.91131
417.389	8.29841
420.763	8.14317
424.138	8.30448
427.513	7.64441
430.888	7.82894
434.263	7.47163
437.637	8.004
441.012	8.10031
444.387	7.72382
447.762	7.09654
451.137	7.70602
454.512	6.75964
457.886	7.61348
461.261	7.28685
464.636	7.25242
468.011	7.04946
471.386	7.28519
474.76	6.21758
478.135	6.81752
481.51	6.98682
484.885	6.42839
488.26	6.79428
491.635	6.34828
495.009	6.3741
498.384	6.93541
501.759	6.70067
505.134	6.80859
508.509	6.31978
511.883	6.65701
515.258	6.489
518.633	6.08727
522.008	6.51503
525.383	6.06814
528.758	6.10952
532.132	6.27458
535.507	6.14332
538.882	6.58401
542.257	6.46303
545.632	5.95712
549.006	5.55471
552.381	5.83391
555.756	6.31553
559.131	5.70507
562.506	5.65229
565.88	5.68124
569.255	5.76284
572.63	5.48892
576.005	5.17357
579.38	5.74177
582.755	5.68928
586.129	5.01075
589.504	5.52006
592.879	5.40001
596.254	5.31032
599.629	4.67175
603.003	5.30942
606.378	5.02349
609.753	5.15881
613.128	4.68593
616.503	4.32692
619.878	5.16081
623.252	5.3162
626.627	4.67644
630.002	4.53246
633.377	5.07095
636.752	4.72417
640.126	4.99766
643.501	4.7916
646.876	4.9327
650.251	4.55184
653.626	4.26626
657	4.59789
660.375	4.26846
663.75	4.2705
667.125	4.34482
670.5	3.99867
673.875	3.91447
677.249	4.18127
680.624	3.85369
683.999	4.26496
687.374	3.7925
690.749	4.25845
694.124	4.40026
697.498	4.06491
700.873	3.647
704.248	4.27257
707.623	3.24539
710.998	3.6937
714.372	3.67319
717.747	3.87692
721.122	3.94446
724.497	3.56847
727.872	4.10089
731.246	3.44552
734.621	3.89592
737.996	4.1006
741.371	3.79027
744.746	3.66771
748.12	3.77845
751.495	3.58143
754.87	4.09658
758.245	3.52687
761.62	4.1565
764.995	3.38141
768.369	4.09168
771.744	3.48611
775.119	3.44015
778.494	3.50965
781.869	3.96203
785.244	3.64951
788.618	3.65507
791.993	3.74587
795.368	3.78004
798.743	4.41128
802.118	3.86691
805.492	4.06406
808.867	3.79516
812.242	3.59698
815.617	3.40237
818.992	4.0267
822.366	3.49729
825.741	4.05617
829.116	3.64997
832.491	3.82409
835.866	3.63679
839.24	3.67566
842.615	3.27822
845.99	4.12918
849.365	4.06697
852.74	3.9061
856.115	3.96527
859.489	3.56399
862.864	3.89677
866.239	3.32303
869.614	3.16113
872.989	3.10948
876.364	3.44334
879.738	3.40517
883.113	3.40297
886.488	3.0769
889.863	2.94633
893.238	3.1522
896.612	3.12406
899.987	2.93922
903.362	3.34663
906.737	3.10586
910.112	2.78187
913.486	2.78663
916.861	2.70205
920.236	3.23463
923.611	3.02261
926.986	3.09504
930.361	2.46647
933.735	2.67494
937.11	3.17153
940.485	2.56516
943.86	2.69223
947.235	2.83799
950.61	2.7234
953.984	2.65716
957.359	1.76606
960.734	2.62242
964.109	3.36044
967.484	2.37704
970.858	3.36843
974.233	2.90124
977.608	2.94955
980.983	2.5866
984.358	2.5978
987.732	2.45453
991.107	2.49687
994.482	2.77146
997.857	2.24173
1001.23	2.80162
1004.61	2.68945
1007.98	2.40326
1011.36	2.52712
1014.73	1.97069
1018.11	2.67072
1021.48	2.51414
1024.86	2.74072
1028.23	3.11813
1031.61	2.62795
1034.98	2.53395
1038.36	2.62241
1041.73	2.95692
1045.1	2.16165
1048.48	2.58121
1051.85	2.78114
1055.23	2.80525
1058.6	2.77441
1061.98	2.68711
1065.35	2.38576
1068.73	2.36404
1072.1	2.32704
1075.48	2.13238
1078.85	2.01577
1082.23	2.77852
1085.6	2.00174
1088.98	2.46493
1092.35	2.30352
1095.73	2.57229
1099.1	2.23525
1102.48	2.31635
1105.85	2.52461
1109.23	2.18097
1112.6	1.67946
1115.97	2.47474
1119.35	2.2316
1122.72	2.1316
1126.1	2.53864
1129.47	2.25465
1132.85	1.6259
1136.22	2.04848
1139.6	2.0505
1142.97	1.98595
1146.35	2.49484
1149.72	1.85281
1153.1	2.21171
1156.47	1.71294
1159.85	1.81586
1163.22	1.95528
1166.6	2.16619
1169.97	1.86616
1173.35	2.08083
1176.72	2.1724
1180.1	1.79238
1183.47	1.97254
1186.85	2.30236
1190.22	1.75629
1193.6	1.77311
1196.97	2.12705
1200.35	1.91232
1203.72	2.37111
1207.1	1.66197
1210.47	2.13428
1213.85	1.64841
1217.22	1.55095
1220.6	1.6969
1223.97	1.84362
1227.34	1.4349
1230.72	2.22182
1234.09	2.12352
1237.47	1.94583
1240.84	2.40016
1244.22	1.78042
1247.59	1.92126
1250.97	1.29309
1254.34	2.14159
1257.72	1.91252
1261.09	1.81856
1264.47	2.43849
1267.84	1.90071
1271.22	1.41014
1274.59	2.14603
1277.97	1.82817
1281.34	1.62696
1284.72	1.9703
1288.09	2.08629
1291.47	2.09727
1294.84	1.9016
