Measurement: Raman, 532 nm, unoriented, Raman Data RAW
Mineral: Andorite VI
Rruff sample: R070718
Ideal chemistry: Ag^1+^Pb^2+^Sb^3+^_3_S^2-^_6_
Locality: Bear Basin Mines, Lennox Creek, Bear Basin, North Bend, King County, Washington, USA
Source: Michael Scott
Description: Black, massive in polished section, associated with andorite IV and white kutnohorite. Andorite VI:andorite IV = 80:20
Raman shift (cm-1)	intensity
128.805	1318.78
132.18	1384.31
135.555	1345.56
138.93	1349.52
142.305	1326.08
145.679	1351.88
149.054	1327.45
152.429	1332.32
155.804	1344.49
159.179	1316.49
162.554	1242.52
165.928	1246.88
169.303	1235.87
172.678	1242.21
176.053	1207.51
179.428	1270.86
182.803	1190.61
186.177	1245.81
189.552	1221.66
192.927	1151.54
196.302	1233.52
199.677	1203.35
203.051	1208.48
206.426	1262.19
209.801	1258.99
213.176	1257.75
216.551	1282.03
219.925	1299.8
223.3	1292.13
226.675	1362.06
230.05	1339.61
233.425	1328.41
236.799	1351.36
240.174	1326.8
243.549	1327.57
246.924	1357.49
250.299	1329.09
253.674	1376.72
257.048	1354.77
260.423	1327.63
263.798	1352.62
267.173	1300.56
270.548	1333.12
273.923	1258.99
277.297	1249.8
280.672	1190.88
284.047	1177.38
287.422	1135.5
290.796	1100.42
294.171	1045.57
297.546	1015.22
300.921	938.271
304.296	926.528
307.671	916.505
311.045	925.35
314.42	908.406
317.795	909.553
321.17	914.904
324.545	886.387
327.92	803.667
331.294	827.878
334.669	823.771
338.044	782.239
341.419	764.258
344.794	698.684
348.168	661.721
351.543	587.092
354.918	561.958
358.293	528.123
361.668	489.011
365.043	510.387
368.417	486.657
371.792	471.65
375.167	463.092
378.542	442.562
381.917	441.469
385.291	425.13
388.666	450.373
392.041	433.087
395.416	428.625
398.791	418.88
402.166	411.286
405.54	403.452
408.915	390.486
412.29	403.552
415.665	394.807
419.04	417.267
422.414	404.039
425.789	390.997
429.164	411.517
432.539	383.975
435.914	357.522
439.288	347.447
442.663	339.677
446.038	367.535
449.413	354.969
452.788	343.961
456.163	336.6
459.537	356.753
462.912	335.093
466.287	308.906
469.662	346.477
473.037	337.301
476.411	327.649
479.786	330.851
483.161	324.059
486.536	308.195
489.911	347.369
493.286	326.065
496.66	317.736
500.035	300.281
503.41	287.172
506.785	321.294
510.16	301.748
513.534	310.339
516.909	298.629
520.284	259.788
523.659	279.405
527.034	296.226
530.408	278.538
533.783	292.042
537.158	312.325
540.533	304.386
543.908	289.995
547.283	272.604
550.657	273.097
554.032	282.073
557.407	287.611
560.782	242.104
564.157	274.648
567.531	251.754
570.906	264.97
574.281	273.763
577.656	256.021
581.031	286.825
584.405	266.244
587.78	261.539
591.155	251.936
594.53	223.804
597.905	229.648
601.28	239.757
604.654	244.89
608.029	244.164
611.404	243.986
614.779	233.145
618.154	224.191
621.529	254.455
624.903	230.992
628.278	273.537
631.653	235.215
635.028	236.434
638.403	211.808
641.777	197.033
645.152	215.56
648.527	205.069
651.902	232.515
655.277	200.352
658.651	229.57
662.026	215.305
665.401	189.984
668.776	196.057
672.151	211.706
675.525	235.955
678.9	207.507
682.275	196.357
685.65	186.149
689.025	218.038
692.4	189.995
695.774	200.99
699.149	189.3
702.524	194.524
705.899	208.19
709.274	210.501
712.649	199.541
716.023	207.05
719.398	193.956
722.773	166.39
726.148	197.027
729.523	197.379
732.897	189.483
736.272	192.896
739.647	173.079
743.022	209.254
746.397	149.512
749.771	187.309
753.146	183.954
756.521	180.358
759.896	215.782
763.271	177.893
766.646	164.187
770.02	191.791
773.395	172.543
776.77	186.384
780.145	177.803
783.52	171.638
786.894	171.944
790.269	196.168
793.644	161.435
797.019	176.376
800.394	174.745
803.769	179.641
807.143	144.092
810.518	151.91
813.893	171.893
817.268	144.98
820.643	167.574
824.017	149.311
827.392	166.922
830.767	153.602
834.142	158.861
837.517	143.184
840.891	154.503
844.266	153.532
847.641	139.47
851.016	145.94
854.391	188.601
857.766	159.078
861.14	177.764
864.515	137.673
867.89	160.062
871.265	180.034
874.64	167.99
878.014	166.741
881.389	187.581
884.764	165.416
888.139	167.412
891.514	175.85
894.889	144.495
898.263	157.556
901.638	161.626
905.013	151.661
908.388	147.355
911.763	187.758
915.138	171.64
918.512	149.667
921.887	157.935
925.262	137.521
928.637	152.107
932.011	190.667
935.386	172.647
938.761	173.739
942.136	169.266
945.511	155.302
948.886	172.233
952.26	160.939
955.635	162.573
959.01	145.831
962.385	141.536
965.76	160.212
969.135	155.504
972.509	172.075
975.884	138.342
979.259	162.837
982.634	166.153
986.009	156.787
989.383	161.067
992.758	158.993
996.133	162.046
999.508	165.639
1002.88	163.669
1006.26	165.646
1009.63	187.702
1013.01	183.043
1016.38	174.547
1019.76	174.323
1023.13	170.025
1026.51	183.337
1029.88	177.254
1033.26	174.769
1036.63	174.268
1040.01	153.83
1043.38	167.305
1046.76	176.327
1050.13	157.933
1053.51	166.841
1056.88	157.617
1060.26	127.765
1063.63	167.708
1067	158.074
1070.38	157.655
1073.75	177.987
1077.13	173.732
1080.5	156.914
1083.88	124.382
1087.25	162.986
1090.63	166.097
1094	144.489
1097.38	142.302
1100.75	177.294
1104.13	162.29
1107.5	141.729
1110.88	169.987
1114.25	145.032
1117.63	167.641
1121	153.065
1124.38	151.089
1127.75	175.671
1131.13	161.857
1134.5	132.925
1137.88	163.183
1141.25	159.561
1144.62	152.44
1148	138.53
1151.38	141.914
1154.75	145.04
1158.12	131.329
1161.5	150.975
1164.87	134.136
1168.25	147.892
1171.62	145.317
1175	151.328
1178.37	123.338
1181.75	136.475
1185.12	141.115
1188.5	123.313
1191.87	146.143
1195.25	176.891
1198.62	142.5
1202	157.085
1205.37	163.582
1208.75	167.8
1212.12	148.645
1215.5	164.877
1218.87	139.723
1222.25	160.178
1225.62	136.385
1228.99	159.093
1232.37	172.384
1235.74	158.21
1239.12	149.124
1242.49	123.422
1245.87	156.469
1249.24	160.267
1252.62	144.015
1255.99	156.19
1259.37	142.291
1262.74	150.857
1266.12	146.595
1269.49	145.343
1272.87	141.844
1276.24	152.469
1279.62	150.405
1282.99	154.34
1286.37	134.03
1289.74	164.566
1293.12	148.657
1296.49	178.255
