Measurement: Raman, 780 nm, unoriented, Raman Data RAW
Mineral: Andorite VI
Rruff sample: R060673
Ideal chemistry: Ag^1+^Pb^2+^Sb^3+^_3_S^2-^_6_
Locality: San Jose mine, Oruro, Bolivia
Source: Michael Scott S101092, Rock Currier
Description: Dark steel gray metallic prismatic crystals with striation parallel to the c-axis. About ten percent of the volume is andorite IV, as determined by X-ray diffraction.
Raman shift (cm-1)	intensity
124.401	81.8972
127.294	81.2726
130.187	80.9735
133.079	80.1946
135.972	80.6921
138.865	79.6412
141.757	80.6684
144.65	79.2509
147.543	79.8847
150.436	79.6446
153.328	79.4321
156.221	78.4667
159.114	77.7888
162.006	78.2083
164.899	76.808
167.792	77.0529
170.685	77.6572
173.577	75.8971
176.47	76.8492
179.363	76.4957
182.255	76.288
185.148	73.6945
188.041	72.892
190.933	71.1572
193.826	69.951
196.719	67.93
199.612	68.214
202.504	68.5237
205.397	67.3874
208.29	67.6685
211.182	68.8068
214.075	68.7736
216.968	69.9477
219.86	71.1984
222.753	73.0769
225.646	74.5599
228.538	74.7233
231.431	78.8909
234.324	80.9711
237.217	82.5479
240.109	84.2004
243.002	84.2924
245.895	84.9826
248.787	85.4967
251.68	86.8917
254.573	87.0677
257.466	86.8822
260.358	86.1019
263.251	88.2686
266.144	87.429
269.036	85.7924
271.929	85.5836
274.822	82.6948
277.714	78.5045
280.607	73.7025
283.5	70.394
286.392	63.9092
289.285	60.8199
292.178	58.7956
295.071	58.0108
297.963	58.0808
300.856	60.0384
303.749	61.9347
306.641	63.3547
309.534	65.3557
312.427	67.3906
315.32	69.3624
318.212	69.1733
321.105	67.0331
323.998	63.647
326.89	58.8497
329.783	54.4376
332.676	50.0231
335.568	44.9334
338.461	40.5684
341.354	35.7179
344.247	30.6738
347.139	27.0224
350.032	25.3328
352.925	24.3304
355.817	23.1412
358.71	22.1986
361.603	21.8935
364.495	21.1786
367.388	20.5225
370.281	20.4312
373.173	19.7592
376.066	19.2719
378.959	19.4705
381.852	18.5269
384.744	18.1939
387.637	19.0137
390.53	18.1451
393.422	17.959
396.315	17.8989
399.208	16.9276
402.101	17.3928
404.993	16.8827
407.886	16.7591
410.779	16.4336
413.671	15.9588
416.564	16.1876
419.457	15.9048
422.349	16.0049
425.242	16.0223
428.135	16.3262
431.027	15.5302
433.92	15.212
436.813	14.9078
439.706	15.9341
442.598	15.5518
445.491	14.9894
448.384	14.2587
451.276	14.8442
454.169	14.718
457.062	14.9286
459.954	15.3208
462.847	14.2602
465.74	14.2446
468.633	14.7972
471.525	14.4481
474.418	14.603
477.311	13.7612
480.203	14.1526
483.096	14.1508
485.989	13.34
488.882	13.839
491.774	13.6773
494.667	13.5782
497.56	13.0301
500.452	12.9236
503.345	12.8272
506.238	13.502
509.13	12.636
512.023	12.7638
514.916	12.8637
517.808	12.9141
520.701	12.1941
523.594	12.8899
526.487	12.5117
529.379	12.6985
532.272	12.1674
535.165	12.0951
538.057	12.4457
540.95	12.1976
543.843	12.0396
546.736	11.7698
549.628	11.9799
552.521	11.8261
555.414	11.5495
558.306	10.9111
561.199	11.187
564.092	10.7294
566.984	11.2982
569.877	11.4074
572.77	10.5112
575.663	10.3085
578.555	10.9153
581.448	11.0768
584.341	10.5737
587.233	10.8598
590.126	10.1919
593.019	9.95043
595.911	10.0814
598.804	9.73185
601.697	10.0396
604.589	9.48998
607.482	10.1006
610.375	9.19642
613.268	9.06752
616.16	8.59187
619.053	9.17998
621.946	9.26833
624.838	8.70293
627.731	8.23457
630.624	8.39703
633.516	9.02384
636.409	8.93538
639.302	8.56795
642.194	8.09109
645.087	8.13329
647.98	8.21626
650.873	7.9482
653.765	8.26419
656.658	7.30021
659.551	7.9469
662.443	7.5484
665.336	7.55347
668.229	7.18015
671.121	6.95416
674.014	7.33627
676.907	7.62297
679.8	7.40273
682.692	7.7382
685.585	6.91587
688.478	7.41304
691.37	7.18806
694.263	6.71674
697.156	6.61312
700.048	7.17473
702.941	7.54786
705.834	6.40208
708.727	7.14761
711.619	7.47741
714.512	6.48716
717.405	6.28865
720.297	6.80842
723.19	6.05353
726.083	6.89954
728.976	6.53963
731.868	6.89182
734.761	6.30284
737.654	6.84836
740.546	6.37543
743.439	6.80068
746.332	6.47317
749.224	6.41617
752.117	6.36468
755.01	5.87894
757.903	6.59928
760.795	6.23421
763.688	6.59302
766.581	6.83941
769.473	5.96412
772.366	6.08662
775.259	6.26211
778.151	6.7302
781.044	5.93085
783.937	6.14184
786.83	6.55033
789.722	5.98657
792.615	6.31493
795.508	6.51345
798.4	5.81096
801.293	6.65777
804.186	6.08232
807.078	5.99479
809.971	5.97115
812.864	5.61033
815.756	6.10191
818.649	6.01199
821.542	6.49164
824.435	6.20887
827.327	6.2457
830.22	6.51279
833.113	5.98953
836.005	6.22752
838.898	6.42922
841.791	6.57763
844.683	6.12112
847.576	5.86142
850.469	5.41613
853.362	5.66077
856.254	5.70435
859.147	5.49086
862.04	5.54196
864.932	5.21043
867.825	5.29901
870.718	5.45977
873.611	5.51518
876.503	5.07469
879.396	5.61126
882.289	5.1181
885.181	5.12238
888.074	5.26173
890.967	4.83268
893.859	4.90532
896.752	4.94743
899.645	5.23768
902.538	4.83404
905.43	4.68246
908.323	4.80487
911.216	4.76337
914.108	4.77244
917.001	4.9493
919.894	4.42194
922.786	4.50598
925.679	5.15675
928.572	4.24253
931.465	4.9237
934.357	4.59067
937.25	4.79088
940.143	4.79611
943.035	4.87877
945.928	4.06664
948.821	4.72215
951.713	4.70331
954.606	4.11421
957.499	4.82392
960.391	4.05386
963.284	5.07631
966.177	4.1139
969.07	4.62206
971.962	4.72159
974.855	4.38134
977.748	4.22232
980.64	4.25188
983.533	4.3984
986.426	4.65187
989.318	4.50065
992.211	4.06475
995.104	4.18988
997.997	4.3582
1000.89	4.00868
1003.78	4.30908
1006.67	4.34528
1009.57	4.39895
1012.46	4.09345
1015.35	4.47367
1018.25	4.22564
1021.14	4.14025
1024.03	4.18127
1026.92	4.22695
1029.82	4.27216
1032.71	4.07312
1035.6	3.99651
1038.49	4.58528
1041.39	3.7379
1044.28	3.41767
1047.17	3.75076
1050.07	3.54194
1052.96	4.24398
1055.85	4.45139
1058.74	4.28032
1061.64	3.75616
1064.53	3.61209
1067.42	3.71365
1070.31	3.03145
1073.21	3.73562
1076.1	3.57723
1078.99	3.54143
1081.88	4.11508
1084.78	4.16355
1087.67	3.52525
1090.56	3.71006
1093.46	3.41882
1096.35	3.40759
1099.24	3.19792
1102.13	3.2322
1105.03	3.82663
1107.92	3.52301
1110.81	3.21921
1113.7	4.1345
1116.6	3.54008
1119.49	3.49946
1122.38	3.37619
1125.28	3.21794
1128.17	3.39162
1131.06	3.96782
1133.95	3.84532
1136.85	3.63345
1139.74	3.56555
1142.63	3.69178
1145.52	3.82162
1148.42	3.33758
1151.31	3.80917
1154.2	3.24957
1157.1	2.22632
1159.99	3.54054
1162.88	3.27241
1165.77	2.94439
1168.67	3.92176
1171.56	3.07992
1174.45	3.42947
1177.34	3.41955
1180.24	3.18201
1183.13	3.40876
1186.02	3.29862
1188.91	3.28006
1191.81	3.31218
1194.7	3.30634
1197.59	3.67367
1200.49	3.20381
1203.38	2.8956
1206.27	3.19612
1209.16	2.977
1212.06	3.43988
1214.95	3.40596
1217.84	2.86931
1220.73	3.36375
1223.63	3.30612
1226.52	3.54108
1229.41	3.07114
1232.31	3.27532
1235.2	3.15811
1238.09	3.36455
1240.98	3.42569
1243.88	3.1795
1246.77	3.50743
1249.66	3.5968
1252.55	3.35321
1255.45	2.63155
1258.34	3.26406
1261.23	2.90885
1264.12	3.31208
1267.02	3.77535
1269.91	3.0981
