Measurement: Raman, 780 nm, unoriented, Raman Data RAW
Mineral: Anglesite
Rruff sample: R040004
Ideal chemistry: Pb^2+^S^6+^O_4_
Locality: Erupcion mine, Los Lamentos, Chihuahua, Mexico
Source: University of Arizona Mineral Museum
Description: Tan colored tabular crystal
Measured chemistry: Pb_1.00_S_1.00_O_4_
Raman shift (cm-1)	intensity
112.831	640.421
116.205	657.102
119.58	685.752
122.955	730.732
126.33	789.874
129.705	844.215
133.079	882.607
136.454	846.509
139.829	764.364
143.204	698.303
146.579	672.987
149.953	670.489
153.328	624.728
156.703	509.172
160.078	417.774
163.453	364.43
166.828	323.43
170.202	285.92
173.577	265.663
176.952	248.21
180.327	234.083
183.702	219.246
187.077	206.945
190.451	196.886
193.826	183.769
197.201	173.918
200.576	164.921
203.951	158.92
207.325	149.838
210.7	144.661
214.075	136.449
217.45	130.562
220.825	119.291
224.199	110.588
227.574	102.245
230.949	96.4181
234.324	90.7488
237.699	86.06
241.073	82.0866
244.448	79.0046
247.823	75.0782
251.198	72.0278
254.573	69.5723
257.948	66.5636
261.322	64.7193
264.697	62.7492
268.072	60.0565
271.447	58.2993
274.822	56.6269
278.197	53.988
281.571	52.4507
284.946	50.3308
288.321	48.1616
291.696	46.9823
295.071	45.6429
298.445	44.8387
301.82	43.8311
305.195	43.4074
308.57	41.818
311.945	42.1152
315.32	40.9599
318.694	40.2814
322.069	40.6784
325.444	40.2665
328.819	39.721
332.194	39.9823
335.568	39.9336
338.943	39.1518
342.318	39.1868
345.693	39.2202
349.068	38.1638
352.442	38.0205
355.817	37.8541
359.192	37.8875
362.567	36.7793
365.942	37.5074
369.317	37.2094
372.691	38.0819
376.066	39.2957
379.441	40.5273
382.816	40.7732
386.191	43.0249
389.565	46.8111
392.94	49.2009
396.315	54.7206
399.69	59.5189
403.065	66.6737
406.44	74.1363
409.814	87.5283
413.189	107.238
416.564	149.891
419.939	250.31
423.314	330.873
426.688	453.067
430.063	716.34
433.438	1024.13
436.813	1289.35
440.188	1386.47
443.562	1371.58
446.937	1680.15
450.312	1680.3
453.687	843.912
457.062	406.298
460.437	268.788
463.811	203.338
467.186	155.886
470.561	126.625
473.936	106.188
477.311	89.8191
480.685	78.6338
484.06	69.228
487.435	60.449
490.81	56.0691
494.185	50.7463
497.56	46.3606
500.934	42.81
504.309	41.0411
507.684	39.8014
511.059	37.0299
514.434	35.1972
517.808	34.5729
521.183	33.5386
524.558	33.0544
527.933	30.7682
531.308	31.4827
534.683	30.8209
538.057	30.5207
541.432	30.6471
544.807	31.3726
548.182	31.1614
551.557	32.3007
554.932	31.9356
558.306	32.8276
561.681	34.0646
565.056	34.2989
568.431	35.7377
571.806	37.3861
575.18	40.6377
578.555	46.0129
581.93	53.0025
585.305	69.506
588.68	98.987
592.054	122.175
595.429	149.045
598.804	182.969
602.179	228.607
605.554	235.691
608.928	168.282
612.303	99.6625
615.678	71.2971
619.053	57.1838
622.428	38.4528
625.803	35.4059
629.177	34.8878
632.552	37.054
635.927	40.2539
639.302	46.3942
642.677	43.7794
646.052	32.4445
649.426	26.535
652.801	24.6491
656.176	23.0999
659.551	22.8076
662.926	24.1023
666.3	23.6779
669.675	23.0911
673.05	21.8416
676.425	20.836
679.8	21.1722
683.174	20.8726
686.549	20.3605
689.924	20.5005
693.299	20.0805
696.674	20.4002
700.048	20.5673
703.423	20.3332
706.798	20.5657
710.173	20.4974
713.548	20.2656
716.923	20.1569
720.297	19.5698
723.672	20.453
727.047	20.719
730.422	20.4188
733.797	20.2201
737.172	20.2129
740.546	20.8107
743.921	19.5746
747.296	20.038
750.671	20.4626
754.046	20.2508
757.42	19.5616
760.795	20.6843
764.17	20.452
767.545	20.4047
770.92	20.5132
774.294	20.0147
777.669	20.5736
781.044	20.1804
784.419	21.3901
787.794	20.6102
791.169	20.5923
794.543	21.0064
797.918	21.264
801.293	21.1909
804.668	22.0303
808.043	22.0491
811.418	21.7109
814.792	21.862
818.167	22.0003
821.542	22.0502
824.917	23.0431
828.292	23.0077
831.666	23.2148
835.041	23.94
838.416	25.2257
841.791	26.9843
845.166	26.1482
848.54	27.5706
851.915	29.5009
855.29	31.5814
858.665	33.3166
862.04	36.107
865.415	37.7559
868.789	39.2991
872.164	39.1825
875.539	41.1645
878.914	41.6909
882.289	42.2049
885.663	42.9206
889.038	44.5763
892.413	44.8461
895.788	45.6765
899.163	46.3788
902.538	47.8132
905.912	48.7998
909.287	49.6992
912.662	51.9355
916.037	52.7188
919.412	55.2146
922.786	58.3524
926.161	60.1869
929.536	62.7739
932.911	68.7134
936.286	78.4696
939.66	91.067
943.035	110.324
946.41	136.77
949.785	179.952
953.16	252.362
956.534	394.362
959.909	713.034
963.284	1399.54
966.659	2152.28
970.034	2937.17
973.409	3890.66
976.783	4630.12
980.158	3379.9
983.533	1591.39
986.908	835.931
990.283	519.948
993.658	369.888
997.032	284.506
1000.41	227.129
1003.78	187.107
1007.16	158.258
1010.53	136.907
1013.91	122.328
1017.28	109.955
1020.66	101.395
1024.03	93.8723
1027.41	88.6433
1030.78	82.7437
1034.15	78.6663
1037.53	75.5216
1040.9	71.9881
1044.28	69.7976
1047.65	68.3028
1051.03	66.6536
1054.4	66.9209
1057.78	66.6581
1061.15	64.0979
1064.53	64.537
1067.9	63.426
1071.28	63.3993
1074.65	62.4497
1078.03	62.7722
1081.4	63.2502
1084.78	64.4615
1088.15	64.1549
1091.53	66.8109
1094.9	68.3081
1098.28	71.5523
1101.65	73.7365
1105.03	77.3679
1108.4	81.2079
1111.78	84.732
1115.15	89.5543
1118.53	93.5979
1121.9	100.24
1125.28	106.657
1128.65	112.509
1132.03	117.832
1135.4	121.911
1138.78	124.785
1142.15	127.097
1145.52	125.113
1148.9	124.336
1152.27	120.99
1155.65	116.491
1159.02	105.454
1162.4	94.8873
1165.77	83.3162
1169.15	75.0211
1172.52	68.1513
1175.9	64.6958
1179.27	61.8514
1182.65	58.9516
1186.02	56.8614
1189.4	59.2206
1192.77	53.2597
1196.15	52.1388
1199.52	50.0986
1202.9	48.3283
1206.27	47.7403
1209.65	48.8494
1213.02	49.1258
1216.39	48.6744
1219.77	48.9487
1223.14	47.7381
1226.52	46.2367
1229.89	45.2298
1233.27	44.5256
1236.64	43.5207
1240.02	43.3422
1243.39	42.1263
1246.77	42.3003
1250.14	42.2046
1253.52	41.4501
1256.89	38.7149
1260.27	38.3227
1263.64	36.3734
1267.02	36.1086
1270.39	34.4641
