Measurement: Raman, 780 nm, unoriented, Raman Data RAW
Mineral: Ankerite
Rruff sample: R050197
Ideal chemistry: CaFe^2+^(CO_3_)_2_
Locality: Brownley Hill mine, Nenthead, Cumbria, England
Source: Marcus Origlieri
Description: Curved saddle-shaped rhombohedral crystals
Measured chemistry: Ca_1.00_(Fe^2+^_0.52_Mg_0.35_Ca_0.08_Mn^2+^_0.05_)_Î£=1_(CO_3_)_2_ ; where C was not measured but estimated by difference and stoichiometry
Raman shift (cm-1)	intensity
92.9658	110.507
96.3406	110.015
99.7155	106.134
103.09	104.057
106.465	103.864
109.84	102.747
113.215	103.572
116.59	104.032
119.964	105.478
123.339	107.604
126.714	108.859
130.089	110.426
133.464	113.725
136.838	117.25
140.213	122.203
143.588	129.056
146.963	138.793
150.338	147.736
153.713	159.31
157.087	171.818
160.462	186.953
163.837	202.976
167.212	204.93
170.587	185.109
173.961	153.443
177.336	133.926
180.711	121.722
184.086	115.64
187.461	110.579
190.835	107.983
194.21	106.85
197.585	105.476
200.96	104.768
204.335	104.786
207.709	104.739
211.084	104.156
214.459	104.097
217.834	104.2
221.209	104.512
224.584	105.402
227.958	108.052
231.333	109.444
234.708	112.364
238.083	115.911
241.458	120.42
244.833	127
248.207	136.465
251.582	149.142
254.957	166.179
258.332	187.022
261.707	211.79
265.081	244.041
268.456	274.009
271.831	308.227
275.206	336.209
278.581	353.462
281.955	352.21
285.33	332.343
288.705	300.914
292.08	262.946
295.455	221.803
298.83	187.194
302.204	160.561
305.579	141.155
308.954	127.2
312.329	118.547
315.704	111.243
319.079	107.609
322.453	102.963
325.828	100.626
329.203	97.3379
332.578	95.5914
335.952	93.8443
339.327	90.8705
342.702	89.4629
346.077	86.4994
349.452	85.2608
352.827	84.5137
356.201	83.0972
359.576	81.6876
362.951	80.8246
366.326	80.4471
369.701	79.8536
373.075	78.4809
376.45	78.3831
379.825	77.6031
383.2	78.0294
386.575	77.1059
389.95	76.6174
393.324	75.7724
396.699	75.2555
400.074	75.1732
403.449	74.6658
406.824	74.9223
410.199	74.4727
413.573	73.9357
416.948	73.4292
420.323	73.0139
423.698	72.486
427.072	72.7251
430.447	71.7785
433.822	71.27
437.197	71.3366
440.572	71.062
443.947	70.2538
447.321	70.3603
450.696	69.948
454.071	69.7575
457.446	69.657
460.821	69.7478
464.195	69.4383
467.57	68.3338
470.945	69.1748
474.32	68.5756
477.695	68.4117
481.07	67.963
484.444	68.2532
487.819	67.5794
491.194	68.2027
494.569	66.9014
497.944	67.3863
501.318	67.2146
504.693	67.1563
508.068	67.4265
511.443	66.6574
514.818	66.7945
518.193	67.1825
521.567	66.8218
524.942	66.7035
528.317	66.1887
531.692	65.8407
535.067	65.9643
538.442	65.5787
541.816	66.3786
545.191	64.9884
548.566	64.8992
551.941	65.0802
555.316	64.0401
558.69	64.3853
562.065	64.817
565.44	63.6614
568.815	64.5202
572.19	63.9058
575.564	63.9357
578.939	62.8897
582.314	62.5337
585.689	62.1823
589.064	61.7161
592.438	62.5015
595.813	61.8327
599.188	61.2111
602.563	61.1787
605.938	60.8485
609.313	60.1177
612.687	60.0732
616.062	60.2593
619.437	60.0784
622.812	60.1888
626.187	59.3661
629.562	58.4594
632.936	58.9028
636.311	58.3945
639.686	58.6655
643.061	57.9832
646.436	58.2421
649.81	57.6452
653.185	58.1468
656.56	57.9816
659.935	57.4154
663.31	57.5883
666.684	57.5726
670.059	57.8834
673.434	57.9437
676.809	58.0302
680.184	58.3954
683.558	58.8013
686.933	59.036
690.308	60.535
693.683	62.6608
697.058	65.6931
700.433	71.6124
703.807	79.4495
707.182	89.7947
710.557	104.073
713.932	115.46
717.307	129.379
720.682	132.335
724.056	115.681
727.431	92.0559
730.806	75.0449
734.181	65.9582
737.556	60.1153
740.93	56.9304
744.305	54.8812
747.68	53.4523
751.055	52.4437
754.43	51.9032
757.804	50.8991
761.179	50.8156
764.554	50.36
767.929	50.6246
771.304	50.2114
774.678	49.5836
778.053	49.3573
781.428	49.0453
784.803	49.6024
788.178	48.9797
791.553	49.251
794.927	49.2186
798.302	49.5414
801.677	49.1363
805.052	48.7609
808.427	49.0235
811.802	48.6713
815.176	48.4701
818.551	48.4816
821.926	48.5663
825.301	48.137
828.676	48.2313
832.05	48.1219
835.425	48.257
838.8	48.0911
842.175	47.9478
845.55	47.4954
848.924	47.5669
852.299	47.6334
855.674	47.2854
859.049	47.3557
862.424	47.7906
865.799	47.6721
869.173	48.3812
872.548	48.8344
875.923	47.18
879.298	46.5369
882.673	46.3079
886.047	46.3487
889.422	45.6088
892.797	44.8896
896.172	45.2993
899.547	44.6926
902.922	44.8724
906.296	44.496
909.671	44.0033
913.046	43.9136
916.421	44.395
919.796	43.9757
923.17	44.0619
926.545	44.0404
929.92	43.9083
933.295	43.8299
936.67	43.7033
940.044	43.4637
943.419	43.796
946.794	43.2711
950.169	42.7498
953.544	42.9688
956.919	43.4306
960.293	43.679
963.668	43.5495
967.043	43.3866
970.418	43.1296
973.793	43.5183
977.168	42.773
980.542	43.7319
983.917	43.5363
987.292	43.256
990.667	43.6764
994.042	43.377
997.416	44.2951
1000.79	45.1343
1004.17	45.3077
1007.54	45.0274
1010.92	45.9403
1014.29	45.9822
1017.66	46.7901
1021.04	47.71
1024.41	48.6498
1027.79	49.879
1031.16	50.4387
1034.54	51.1875
1037.91	52.4307
1041.29	53.4229
1044.66	54.3931
1048.04	55.2981
1051.41	57.8747
1054.79	60.3282
1058.16	64.2307
1061.54	70.0888
1064.91	78.8887
1068.29	92.343
1071.66	116.018
1075.04	175.085
1078.41	313.666
1081.79	486.81
1085.16	747.383
1088.54	1135.18
1091.91	1241.97
1095.29	672.393
1098.66	291.472
1102.04	144.572
1105.41	85.9735
1108.79	66.0958
1112.16	56.7025
1115.54	52.3109
1118.91	48.5089
1122.29	46.8387
1125.66	45.6582
1129.03	44.7971
1132.41	44.506
1135.78	44.1352
1139.16	43.7062
1142.53	43.6439
1145.91	43.2608
1149.28	43.6134
1152.66	43.8161
1156.03	44.0312
1159.41	43.9802
1162.78	44.4311
1166.16	45.1147
1169.53	45.1243
1172.91	45.9005
1176.28	46.7947
1179.66	47.226
1183.03	48.0693
1186.41	48.5476
1189.78	49.794
1193.16	50.3148
1196.53	51.6057
1199.9	52.2052
1203.28	53.6305
1206.65	55.8243
1210.03	56.7372
1213.4	58.2288
1216.78	59.6003
1220.15	60.6378
1223.53	61.9308
1226.9	63.9566
1230.28	64.628
1233.65	65.9908
1237.03	67.5819
1240.4	67.6919
1243.78	69.6445
1247.15	69.997
1250.53	71.4455
1253.9	72.3454
1257.28	73.0301
1260.65	74.5597
1264.03	75.2445
1267.4	75.3494
1270.78	76.2297
1274.15	76.8877
1277.53	76.4424
1280.9	76.5377
1284.28	77.4156
