Measurement: Raman, 514 nm, unoriented, Raman Data RAW
Mineral: Ankerite
Rruff sample: X050018
Ideal chemistry: CaFe^2+^(CO_3_)_2_
Locality: Erzberg, Austria
Source: American Museum of Natural History
Raman shift (cm-1)	intensity
206.6	4162.23
211.5	4255.56
216.4	4318.28
221.3	4387.26
226.2	4451.06
231.1	4494.51
236	4643.18
240.9	4815.41
245.9	4965.23
250.8	5231.61
255.7	5648.88
260.6	6248.6
265.5	7280.44
270.4	8675.19
275.3	10303.1
280.2	11510.7
285.1	11572.9
290	10727.5
294.9	9185.53
299.8	7872.76
304.7	6818.81
309.7	6216.64
314.6	5853.97
319.5	5582.34
324.4	5479.51
329.3	5495.39
334.2	5463
339.1	5472.6
344	5465.96
348.9	5404.21
353.8	5450.19
358.7	5525.2
363.6	5567.77
368.5	5513.44
373.5	5584.55
378.4	5615.47
383.3	5549.48
388.2	5606.26
393.1	5750
398	5769.48
402.9	5831.09
407.8	5896.85
412.7	5898.77
417.6	5871.01
422.5	5938.33
427.4	5941.9
432.3	6011.33
437.3	6028.15
442.2	6031.45
447.1	6062.7
452	6138.17
456.9	6203.67
461.8	6209.06
466.7	6281.28
471.6	6295.57
476.5	6426.33
481.4	6437.08
486.3	6491.46
491.2	6505.07
496.1	6534.46
501.1	6503.75
506	6619.5
510.9	6663.79
515.8	6733.69
520.7	6831.34
525.6	6814.56
530.5	6906.23
535.4	6905.99
540.3	6872.93
545.2	6953.6
550.1	6995.9
555	7037.11
559.9	7004.49
564.8	7003.18
569.8	7078.01
574.7	7149.25
579.6	7274.35
584.5	7196.99
589.4	7303.74
594.3	7294.94
599.2	7250.18
604.1	7270.52
609	7279.85
613.9	7368.04
618.8	7335.77
623.7	7357.47
628.6	7414.06
633.6	7448.69
638.5	7431.45
643.4	7497.73
648.3	7701.43
653.2	7723.31
658.1	7677.07
663	7634.84
667.9	7677.52
672.8	7680.8
677.7	7835.07
682.6	7655.44
687.5	7729.69
692.4	7780.36
697.4	7867.52
702.3	7903.31
707.2	8136.97
712.1	8338.22
717	8850.82
721.9	9090.27
726.8	9161.84
731.7	8712.97
736.6	8445.65
741.5	8244.18
746.4	8186.31
751.3	8101.36
756.2	8194.24
761.2	8155.4
766.1	8208.7
771	8172.7
775.9	8200.94
780.8	8246.4
785.7	8313.98
790.6	8373.63
795.5	8428.61
800.4	8343.52
805.3	8354.47
810.2	8488.04
815.1	8447.39
820	8455.84
825	8539.97
829.9	8469.94
834.8	8557.6
839.7	8633.46
844.6	8659.73
849.5	8530.39
854.4	8614.87
859.3	8598.09
864.2	8714.83
869.1	8766.49
874	8852.52
878.9	8783.72
883.8	8789.12
888.8	8749.58
893.7	8772.16
898.6	8786.91
903.5	8838.76
908.4	8803.83
913.3	8844.13
918.2	8785.84
923.1	8753.49
928	8855.94
932.9	8841.36
937.8	8978.73
942.7	8893.06
947.6	8823.07
952.6	8884.75
957.5	9087.21
962.4	8984.65
967.3	8900.75
972.2	9058.71
977.1	9030.99
982	9094.43
986.9	9107.7
991.8	9067.32
996.7	9069.17
1001.6	9165.33
1006.5	9186.5
1011.4	9169.06
1016.4	9386.23
1021.3	9542.58
1026.2	9566.72
1031.1	9655.09
1036	9909.9
1040.9	10081.6
1045.8	10231.9
1050.7	10214.2
1055.6	10139.2
1060.5	10185.2
1065.4	10458.2
1070.3	11095.7
1075.2	11830.5
1080.2	14072.8
1085.1	24253.1
1090	45158
1094.9	51062.7
1099.8	30313.3
1104.7	15173.6
1109.6	11367
1114.5	10479.5
1119.4	10054
1124.3	10004.6
1129.2	9848.08
1134.1	9818.07
1139	9856.11
1144	9816.79
1148.9	9735.66
1153.8	9713.74
1158.7	9699.58
1163.6	9807.41
1168.5	9888.67
1173.4	9752.08
1178.3	9895.72
1183.2	9729.48
1188.1	9737.02
1193	9751.95
1197.9	9806.81
1202.8	9764.18
1207.8	9863.55
1212.7	9941.32
1217.6	9788.06
1222.5	9907.75
1227.4	9830.25
1232.3	9947.05
1237.2	9944.01
1242.1	9934.01
1247	10062.3
1251.9	10076.7
1256.8	10134.2
1261.7	10133.5
1266.6	10174.8
1271.6	10196.1
1276.5	10295.5
1281.4	10228.4
1286.3	10391.9
1291.2	10365.3
1296.1	10490.8
1301	10572.5
1305.9	10432.3
1310.8	10438.8
1315.7	10403.9
1320.6	10270.5
1325.5	10377.9
1330.4	10437.6
1335.3	10356
1340.3	10448.6
1345.2	10448.8
1350.1	10391.5
1355	10503.9
1359.9	10424.3
1364.8	10444.5
1369.7	10695.8
1374.6	10549.2
1379.5	10601.5
1384.4	10651.6
1389.3	10616
1394.2	10624.8
1399.1	10809.3
1404.1	10811.1
1409	10857
1413.9	11035.1
1418.8	11064.3
1423.7	11233.6
1428.6	11340.5
1433.5	11730.1
1438.4	11774.1
1443.3	11773.7
1448.2	11665.6
1453.1	11605.4
1458	11442.8
1462.9	11384.5
1467.9	11420.6
1472.8	11347.2
1477.7	11347.1
1482.6	11327.6
1487.5	11353.8
1492.4	11353.2
1497.3	11414.6
1502.2	11317.5
1507.1	11402.3
1512	11423.6
1516.9	11499.5
1521.8	11599.7
1526.7	11522.2
1531.7	11586.2
1536.6	11669.6
1541.5	11621.4
1546.4	11761.3
1551.3	11855.9
1556.2	11925.3
1561.1	11899.2
1566	11967.4
1570.9	11868.9
1575.8	12038
1580.7	12280.7
1585.6	12333.3
1590.5	12325.7
1595.5	12463.7
1600.4	12756.8
1605.3	12728
1610.2	12569.4
1615.1	12311.2
1620	12333.7
1624.9	12270.9
1629.8	12363.5
1634.7	12527.8
1639.6	12385.6
1644.5	12327.6
1649.4	12562.4
1654.3	12531.9
1659.3	12656.9
1664.2	12747.5
1669.1	12634.9
1674	12705.2
1678.9	12756.4
1683.8	12895.8
1688.7	12935.4
1693.6	12914.5
1698.5	13018.9
1703.4	13053.7
1708.3	13195.8
1713.2	13359.9
1718.1	13565.6
1723.1	13777.9
1728	14004.5
1732.9	14201.6
1737.8	14426.9
1742.7	14760.4
1747.6	14544.6
1752.5	14429.1
1757.4	13933.2
1762.3	13661.1
1767.2	13651.8
1772.1	13571.4
1777	13539.8
1781.9	13563.4
1786.9	13513.1
1791.8	13645.8
1796.7	13684.1
1801.6	13601.1
1806.5	13676.5
1811.4	13751.3
1816.3	13795.4
1821.2	13715.2
1826.1	13820.1
1831	13779.1
1835.9	13839.6
1840.8	13910.2
1845.7	13877.9
1850.7	13938.6
1855.6	14049.3
1860.5	14016.6
1865.4	13995
1870.3	14114.7
1875.2	14052.7
1880.1	14086.1
1885	14252.9
1889.9	14133.2
1894.8	14200.7
1899.7	14277.9
1904.6	14370.9
1909.5	14467.2
1914.5	14341.6
1919.4	14329.3
1924.3	14414.6
1929.2	14366.2
1934.1	14351.8
1939	14384.5
1943.9	14411.8
1948.8	14487.8
1953.7	14562.2
1958.6	14595.6
1963.5	14652.1
1968.4	14573.3
1973.3	14626.2
1978.3	14649.9
1983.2	14676.5
1988.1	14560.8
1993	14662.7
1997.9	14418.2
2002.8	14710
