Measurement: Raman, 514 nm, unoriented, Raman Data RAW
Mineral: Ankerite
Rruff sample: X050019
Ideal chemistry: CaFe^2+^(CO_3_)_2_
Locality: Goldbrath, Austria
Source: American Museum of Natural History
Raman shift (cm-1)	intensity
101.1	72209.3
106	71620.4
110.9	71577.1
115.8	72259.3
120.7	73745.9
125.6	75993.8
130.5	78981.6
135.4	81930.4
140.3	85720.9
145.2	90420.3
150.2	94113.8
155.1	97786.8
160	102924
164.9	109602
169.8	114615
174.7	115094
179.6	112255
184.5	109413
189.4	107955
194.3	107364
199.2	107011
204.1	107287
209	107348
214	107366
218.9	107792
223.8	107847
228.7	108075
233.6	107998
238.5	108594
243.4	108987
248.3	109328
253.2	110624
258.1	111762
263	114056
267.9	118017
272.8	123788
277.8	131827
282.7	139381
287.6	143330
292.5	140647
297.4	133318
302.3	124970
307.2	117692
312.1	113162
317	111018
321.9	109488
326.8	108722
331.7	108291
336.6	108119
341.6	107918
346.5	108131
351.4	108452
356.3	107920
361.2	107957
366.1	107842
371	107777
375.9	107494
380.8	107776
385.7	107732
390.6	107861
395.5	108042
400.4	108220
405.4	108151
410.3	108145
415.2	108352
420.1	108221
425	107969
429.9	107900
434.8	107913
439.7	108045
444.6	108021
449.5	107989
454.4	107769
459.3	108171
464.2	107766
469.2	108080
474.1	107853
479	107936
483.9	107576
488.8	107730
493.7	108004
498.6	107912
503.5	107543
508.4	107731
513.3	107617
518.2	107664
523.1	107350
528	107499
533	107247
537.9	107392
542.8	107759
547.7	107640
552.6	107518
557.5	107496
562.4	107766
567.3	107698
572.2	107621
577.1	107696
582	108011
586.9	108096
591.8	108013
596.7	107992
601.7	108110
606.6	108235
611.5	108585
616.4	108560
621.3	108004
626.2	108384
631.1	108404
636	108010
640.9	108504
645.8	108897
650.7	109177
655.6	109149
660.5	109055
665.5	108458
670.4	108385
675.3	108605
680.2	108530
685.1	108908
690	108492
694.9	108589
699.8	108865
704.7	108889
709.6	109561
714.5	110316
719.4	111519
724.3	112401
729.3	111622
734.2	110626
739.1	109813
744	109370
748.9	109143
753.8	109172
758.7	108853
763.6	108708
768.5	108654
773.4	108714
778.3	108416
783.2	108568
788.1	108698
793.1	108868
798	108724
802.9	108741
807.8	108791
812.7	108954
817.6	108976
822.5	109075
827.4	108898
832.3	108627
837.2	108523
842.1	108376
847	108439
851.9	108507
856.9	108314
861.8	108385
866.7	108463
871.6	108652
876.5	108775
881.4	108550
886.3	108119
891.2	108176
896.1	108420
901	108199
905.9	107958
910.8	107574
915.7	107658
920.7	107478
925.6	107534
930.5	107178
935.4	107468
940.3	107288
945.2	107576
950.1	107234
955	107173
959.9	107748
964.8	107780
969.7	107469
974.6	107406
979.5	107530
984.5	107508
989.4	107367
994.3	107645
999.2	107991
1004.1	108043
1009	107799
1013.9	108156
1018.8	108397
1023.7	108522
1028.6	109423
1033.5	109775
1038.4	110386
1043.3	110987
1048.3	111201
1053.2	110696
1058.1	110224
1063	110294
1067.9	111273
1072.8	112711
1077.7	115269
1082.6	122760
1087.5	155356
1092.4	204845
1097.3	200786
1102.2	150442
1107.1	119494
1112.1	112280
1117	110057
1121.9	109910
1126.8	109361
1131.7	108890
1136.6	108903
1141.5	108931
1146.4	109083
1151.3	108543
1156.2	108580
1161.1	108855
1166	109195
1170.9	108958
1175.9	108679
1180.8	108536
1185.7	108220
1190.6	108246
1195.5	108480
1200.4	108932
1205.3	108880
1210.2	108450
1215.1	108081
1220	108336
1224.9	108489
1229.8	108194
1234.7	108159
1239.7	108426
1244.6	108594
1249.5	108245
1254.4	108428
1259.3	108698
1264.2	109154
1269.1	109188
1274	108911
1278.9	109571
1283.8	109185
1288.7	109394
1293.6	108973
1298.5	109431
1303.4	109007
1308.4	109260
1313.3	109209
1318.2	108994
1323.1	107838
1328	107897
1332.9	108015
1337.8	107993
1342.7	108262
1347.6	107907
1352.5	108508
1357.4	107997
1362.3	108041
1367.2	108169
1372.2	108351
1377.1	108342
1382	107972
1386.9	108147
1391.8	108385
1396.7	108507
1401.6	108704
1406.5	108781
1411.4	108364
1416.3	108735
1421.2	109284
1426.1	109714
1431	110473
1436	110975
1440.9	111443
1445.8	110879
1450.7	110148
1455.6	109874
1460.5	109233
1465.4	108787
1470.3	108521
1475.2	108353
1480.1	108584
1485	108457
1489.9	108836
1494.8	108650
1499.8	108523
1504.7	108241
1509.6	108113
1514.5	108495
1519.4	108595
1524.3	108530
1529.2	108593
1534.1	108505
1539	108470
1543.9	108679
1548.8	108891
1553.7	108838
1558.6	108691
1563.6	108462
1568.5	108787
1573.4	109012
1578.3	109282
1583.2	110100
1588.1	109929
1593	109773
1597.9	110894
1602.8	111690
1607.7	111147
1612.6	109863
1617.5	109290
1622.4	109298
1627.4	109289
1632.3	109117
1637.2	109485
1642.1	108740
1647	109253
1651.9	109510
1656.8	109414
1661.7	109651
1666.6	109623
1671.5	109306
1676.4	110287
1681.3	109874
1686.2	109404
1691.2	109768
1696.1	110168
1701	110125
1705.9	110201
1710.8	110988
1715.7	111330
1720.6	112211
1725.5	112679
1730.4	113403
1735.3	113428
1740.2	113760
1745.1	114609
1750	114461
1755	113570
1759.9	111950
1764.8	110997
1769.7	110243
1774.6	110082
1779.5	109166
1784.4	109249
1789.3	109465
1794.2	109148
1799.1	109281
1804	108575
1808.9	109177
1813.8	109205
1818.8	109073
1823.7	109000
1828.6	109560
1833.5	109129
1838.4	109926
1843.3	109158
1848.2	109422
1853.1	109246
1858	108944
1862.9	109837
1867.8	108988
1872.7	109615
1877.6	109459
1882.6	109453
1887.5	109405
1892.4	109625
1897.3	109574
1902.2	109635
1907.1	109753
1912	108726
1916.9	109202
1921.8	109218
1926.7	109495
1931.6	109394
1936.5	109266
1941.4	108923
1946.4	108996
1951.3	109238
1956.2	109104
1961.1	109169
1966	108702
1970.9	108923
1975.8	108945
1980.7	109127
1985.6	108664
1990.5	108972
1995.4	108742
2000.3	108520
