Measurement: Raman, 780 nm, unoriented, Raman Data RAW
Mineral: Annabergite
Rruff sample: R060564
Ideal chemistry: Ni^2+^_3_(As^5+^O_4_)_2_8H_2_O
Locality: Candelaria mine, Mineral County, Nevada, USA
Source: Michael Scott
Description: Aggregates of green thin bladed crystals
Raman shift (cm-1)	intensity
90.5957	561.509
93.9705	544.894
97.3453	437.293
100.72	375.493
104.095	336.136
107.47	315.189
110.845	294.066
114.219	276.298
117.594	285.801
120.969	319.248
124.344	287.89
127.719	222.845
131.094	208.272
134.468	196.48
137.843	192.903
141.218	200.788
144.593	192.336
147.968	192.657
151.342	198.509
154.717	223.685
158.092	279.195
161.467	301.36
164.842	224.165
168.216	191.444
171.591	171.569
174.966	156.988
178.341	148.948
181.716	146.443
185.09	146.693
188.465	154.052
191.84	150.37
195.215	147.312
198.59	154.199
201.965	174.249
205.339	213.18
208.714	239.826
212.089	241.612
215.464	250.549
218.839	274.058
222.214	287.791
225.588	286.696
228.963	253.344
232.338	209.005
235.713	174.809
239.088	163.239
242.462	168.523
245.837	183.751
249.212	199.133
252.587	181.192
255.962	149.951
259.336	134.651
262.711	131.325
266.086	132.442
269.461	130.869
272.836	131.802
276.211	136.328
279.585	147.218
282.96	159.934
286.335	164.601
289.71	155.68
293.085	136.378
296.459	117.855
299.834	102.998
303.209	93.3889
306.584	87.1345
309.959	82.6682
313.334	80.9132
316.708	80.6009
320.083	82.5467
323.458	83.8839
326.833	81.5502
330.207	75.8473
333.582	72.5868
336.957	71.2208
340.332	71.0893
343.707	73.253
347.082	76.5527
350.456	80.6483
353.831	79.5381
357.206	78.4662
360.581	76.4971
363.956	77.7882
367.33	81.664
370.705	85.3277
374.08	86.4473
377.455	85.811
380.83	83.0171
384.205	81.5732
387.579	83.1089
390.954	83.8107
394.329	84.6448
397.704	84.8205
401.079	83.844
404.453	83.0677
407.828	81.5973
411.203	78.8124
414.578	76.8782
417.953	76.4116
421.327	78.2798
424.702	85.3364
428.077	95.1367
431.452	110.283
434.827	131.383
438.202	161.042
441.576	193.223
444.951	221.678
448.326	223.91
451.701	204.487
455.076	176.538
458.45	156.263
461.825	142.374
465.2	135.365
468.575	131.341
471.95	118.306
475.325	100.642
478.699	85.8012
482.074	73.9762
485.449	66.672
488.824	60.7253
492.199	55.6155
495.573	52.7437
498.948	49.5654
502.323	48.0514
505.698	46.5107
509.073	44.6424
512.447	43.2854
515.822	43.4318
519.197	42.1842
522.572	42.2431
525.947	41.3266
529.322	41.4362
532.696	40.8194
536.071	40.6275
539.446	40.3656
542.821	40.8851
546.196	40.2956
549.57	40.0679
552.945	40.4675
556.32	40.3732
559.695	40.7796
563.07	40.2746
566.444	39.6113
569.819	39.4448
573.194	38.5062
576.569	38.6438
579.944	38.2906
583.319	38.5753
586.693	38.1567
590.068	38.2278
593.443	38.2658
596.818	38.998
600.193	38.9359
603.567	39.5701
606.942	39.5725
610.317	40.1819
613.692	40.8477
617.067	40.8034
620.442	41.2175
623.816	41.6182
627.191	41.5701
630.566	41.8963
633.941	43.287
637.316	44.2028
640.69	45.0052
644.065	45.8587
647.44	47.0235
650.815	49.1682
654.19	50.3944
657.564	52.5438
660.939	53.7973
664.314	55.4873
667.689	57.1568
671.064	57.6148
674.439	59.0559
677.813	58.4857
681.188	58.6257
684.563	57.4942
687.938	56.8531
691.313	55.7224
694.688	55.8542
698.062	55.9156
701.437	54.8233
704.812	54.6897
708.187	55.6707
711.562	56.0143
714.936	57.2764
718.311	57.7819
721.686	59.3285
725.061	60.2
728.436	61.3302
731.81	62.5238
735.185	63.965
738.56	65.4606
741.935	66.7751
745.31	68.1212
748.684	68.58
752.059	71.3617
755.434	73.5339
758.809	76.4797
762.184	79.1767
765.559	85.0335
768.933	90.9184
772.308	99.6274
775.683	110.115
779.058	127.377
782.433	152.954
785.808	192.32
789.182	254.1
792.557	346.968
795.932	479.685
799.307	631.296
802.682	750.964
806.056	804.995
809.431	742.395
812.806	586.864
816.181	424.484
819.556	301.914
822.93	224.592
826.305	175.054
829.68	142.943
833.055	121.457
836.43	107.622
839.804	99.7518
843.179	96.0289
846.554	94.8382
849.929	99.2721
853.304	105.039
856.679	114.205
860.053	121.21
863.428	123.729
866.803	116.993
870.178	106.113
873.553	91.6938
876.927	79.4554
880.302	67.9546
883.677	60.7893
887.052	55.5439
890.427	51.9558
893.802	50.1966
897.176	48.44
900.551	47.1424
903.926	46.2302
907.301	45.6937
910.676	44.6516
914.05	44.0754
917.425	43.5492
920.8	43.4625
924.175	42.9767
927.55	42.6323
930.924	43.2022
934.299	43.1379
937.674	43.739
941.049	42.6723
944.424	44.3852
947.799	42.6333
951.173	42.1008
954.548	40.7474
957.923	39.2009
961.298	37.2887
964.673	35.6531
968.047	35.3024
971.422	34.0632
974.797	33.744
978.172	32.6987
981.547	32.4686
984.922	32.2954
988.296	32.0521
991.671	31.7984
995.046	31.6275
998.421	30.9275
1001.8	31.3931
1005.17	30.065
1008.54	32.3443
1011.92	30.0102
1015.29	28.9827
1018.67	28.7606
1022.04	29.0395
1025.42	28.5019
1028.79	27.8055
1032.17	28.2729
1035.54	28.2954
1038.92	27.2483
1042.29	26.8617
1045.67	27.209
1049.04	26.3437
1052.42	26.1678
1055.79	25.5073
1059.17	25.7355
1062.54	25.5816
1065.92	25.0633
1069.29	24.1115
1072.67	24.3446
1076.04	24.594
1079.42	24.0709
1082.79	24.0585
1086.17	23.573
1089.54	23.6261
1092.92	23.3647
1096.29	23.0561
1099.66	22.8834
1103.04	23.1484
1106.41	22.4671
1109.79	22.8209
1113.16	22.5125
1116.54	22.2836
1119.91	22.4825
1123.29	22.1421
1126.66	22.3531
1130.04	22.3236
1133.41	21.7231
1136.79	21.6732
1140.16	21.8355
1143.54	21.5275
1146.91	21.9468
1150.29	22.227
1153.66	22.0389
1157.04	21.5221
1160.41	21.6303
1163.79	21.739
1167.16	21.3384
1170.54	22.7129
1173.91	22.0597
1177.29	21.9179
1180.66	21.5077
1184.04	21.495
1187.41	21.6058
1190.79	21.6351
1194.16	21.7117
1197.54	21.5875
1200.91	22.1379
1204.28	21.8156
1207.66	21.6609
1211.03	21.6276
1214.41	22.1507
1217.78	22.1859
1221.16	22.2484
1224.53	22.1399
1227.91	21.999
1231.28	22.208
1234.66	22.2378
1238.03	21.867
1241.41	21.6168
1244.78	22.0301
1248.16	22.4221
1251.53	22.0734
1254.91	21.8654
1258.28	22.3625
1261.66	21.7686
1265.03	22.773
1268.41	22.4097
1271.78	22.4128
1275.16	22.7947
1278.53	23.0956
1281.9	22.9666
