Measurement: Raman, 780 nm, unoriented, Raman Data RAW
Mineral: Annite
Rruff sample: R060204
Ideal chemistry: KFe^2+^_3_AlSi_3_O_10_(OH)_2_
Locality: Mont Saint-Hilaire, Rouville County, Quebec, Canada
Source: Royal Ontario Museum
Description: Black mica with pseudohexagonal outines
Measured chemistry: (K_0.96_Na_0.04_)_Σ=1_(Fe^2+^_2.04_Mg_0.81_Mn_0.09_Ti_0.03_[box]_0.03_)_Σ=3_(Si_3.00_Al_1.00_)O_10_((OH)_1.54_F_0.46_)_Σ=2_
Raman shift (cm-1)	intensity
91.8272	190.038
95.202	187.108
98.5768	166.836
101.952	148.904
105.326	139.176
108.701	134.098
112.076	131.264
115.451	131.077
118.826	129.173
122.201	129.595
125.575	128.843
128.95	127.539
132.325	126.799
135.7	126.828
139.075	128.678
142.449	129.726
145.824	133.062
149.199	136.647
152.574	143.708
155.949	150.165
159.323	159.53
162.698	174.393
166.073	189.214
169.448	208.268
172.823	224.734
176.198	230.891
179.572	226.925
182.947	209.84
186.322	188.368
189.697	166.438
193.072	148.111
196.446	134.135
199.821	122.232
203.196	116.038
206.571	111.024
209.946	106.032
213.321	103.22
216.695	102.696
220.07	101.018
223.445	98.937
226.82	97.8489
230.195	98.558
233.569	97.1142
236.944	97.3008
240.319	96.3814
243.694	97.0603
247.069	96.6304
250.444	96.5378
253.818	96.0839
257.193	95.0395
260.568	95.8398
263.943	96.5291
267.318	96.5301
270.692	95.6499
274.067	95.6198
277.442	95.3637
280.817	94.7428
284.192	92.4007
287.567	90.0743
290.941	88.2791
294.316	86.0971
297.691	84.398
301.066	83.1543
304.441	82.7344
307.815	81.7176
311.19	82.0325
314.565	81.0941
317.94	80.7119
321.315	80.4303
324.69	79.6688
328.064	79.1742
331.439	78.7548
334.814	79.3845
338.189	78.6187
341.563	78.3841
344.938	78.5598
348.313	78.3382
351.688	77.7948
355.063	77.8024
358.438	77.1256
361.812	76.3322
365.187	77.1649
368.562	76.3305
371.937	75.8698
375.312	73.8515
378.687	72.7481
382.061	72.5871
385.436	72.5694
388.811	71.5287
392.186	72.2234
395.561	71.5831
398.935	71.6861
402.31	71.3023
405.685	70.2903
409.06	69.9604
412.435	70.3959
415.81	68.3691
419.184	69.0898
422.559	68.9666
425.934	67.3435
429.309	68.1609
432.684	67.1167
436.058	66.4379
439.433	66.6838
442.808	66.4444
446.183	65.7454
449.558	65.8747
452.933	66.8763
456.307	66.4033
459.682	66.2044
463.057	67.2025
466.432	66.6196
469.807	66.9596
473.181	67.334
476.556	69.0239
479.931	69.2332
483.306	68.8032
486.681	69.5648
490.055	70.4225
493.43	70.8854
496.805	71.887
500.18	70.6229
503.555	71.5432
506.93	71.9576
510.304	72.1336
513.679	70.8371
517.054	70.9772
520.429	71.3843
523.804	70.1694
527.178	69.9809
530.553	69.9482
533.928	67.945
537.303	67.9273
540.678	66.5493
544.053	66.4161
547.427	65.5493
550.802	65.905
554.177	65.3623
557.552	64.9261
560.927	63.292
564.302	63.4112
567.676	62.5963
571.051	63.4535
574.426	61.0996
577.801	61.4843
581.176	60.835
584.55	61.2045
587.925	60.5218
591.3	61.5488
594.675	62.625
598.05	62.9094
601.424	64.2823
604.799	65.3358
608.174	67.023
611.549	68.4828
614.924	72.4877
618.298	71.898
621.673	73.8937
625.048	74.4448
628.423	72.8467
631.798	73.093
635.173	73.804
638.547	75.0589
641.922	76.5926
645.297	78.5257
648.672	82.9849
652.047	87.2228
655.421	93.8359
658.796	101.408
662.171	111.502
665.546	122.671
668.921	133.549
672.295	141.666
675.67	138.234
679.045	126.205
682.42	109.276
685.795	96.8034
689.17	87.4138
692.544	80.5496
695.919	76.6892
699.294	72.2447
702.669	70.108
706.044	70.1013
709.418	68.1714
712.793	66.2939
716.168	66.273
719.543	64.9875
722.918	63.3272
726.293	62.3267
729.667	61.4626
733.042	61.2772
736.417	60.5646
739.792	60.3324
743.167	58.4181
746.542	58.1974
749.916	58.3497
753.291	59.5844
756.666	57.9119
760.041	58.4398
763.416	57.229
766.79	58.1002
770.165	56.9635
773.54	55.9866
776.915	54.5825
780.29	55.3397
783.664	53.0098
787.039	52.2159
790.414	53.0057
793.789	51.9488
797.164	50.9365
800.539	50.7905
803.913	49.0004
807.288	49.5286
810.663	49.4733
814.038	49.9465
817.413	49.9696
820.788	49.0755
824.162	49.0952
827.537	48.391
830.912	48.1331
834.287	48.8512
837.662	48.8264
841.036	48.5326
844.411	47.3448
847.786	48.5265
851.161	48.4986
854.536	48.6056
857.91	49.1032
861.285	48.7699
864.66	49.4505
868.035	48.7422
871.41	49.4156
874.784	48.9923
878.159	49.4611
881.534	49.9136
884.909	50.2578
888.284	50.4233
891.659	49.8395
895.033	50.8101
898.408	51.7184
901.783	51.197
905.158	51.3666
908.533	50.714
911.908	52.4883
915.282	52.8178
918.657	52.1788
922.032	52.9498
925.407	52.7269
928.782	54.423
932.156	53.2934
935.531	54.05
938.906	54.5664
942.281	53.9901
945.656	54.867
949.03	54.6823
952.405	55.6879
955.78	55.6006
959.155	56.6242
962.53	57.2949
965.904	56.8128
969.279	57.965
972.654	58.9983
976.029	60.0205
979.404	59.4365
982.779	61.1679
986.153	62.9448
989.528	64.3592
992.903	65.514
996.278	66.3924
999.653	70.3861
1003.03	75.2968
1006.4	77.4927
1009.78	82.4679
1013.15	87.8216
1016.53	93.2471
1019.9	95.162
1023.28	95.4802
1026.65	95.3975
1030.03	91.0443
1033.4	84.7789
1036.78	81.8831
1040.15	77.6772
1043.53	74.2677
1046.9	70.8483
1050.28	69.6469
1053.65	67.8501
1057.03	65.6812
1060.4	64.0404
1063.77	62.4277
1067.15	61.5198
1070.52	59.7967
1073.9	57.1528
1077.27	56.6174
1080.65	55.0525
1084.02	53.2596
1087.4	51.6931
1090.77	49.9656
1094.15	48.9228
1097.52	46.7282
1100.9	45.4979
1104.27	44.4523
1107.65	44.9261
1111.02	44.3568
1114.4	42.5612
1117.77	44.0679
1121.15	42.8602
1124.52	42.5342
1127.9	41.8565
1131.27	42.566
1134.64	42.6866
1138.02	42.2813
1141.39	41.7951
1144.77	42.3158
1148.14	42.8254
1151.52	42.8642
1154.89	41.821
1158.27	41.9647
1161.64	41.9699
1165.02	42.3723
1168.39	42.4818
1171.77	42.0575
1175.14	41.7918
1178.52	41.8214
1181.89	41.6931
1185.27	41.7287
1188.64	41.7787
1192.02	42.2987
1195.39	41.554
1198.77	42.1114
1202.14	41.1915
1205.52	41.6361
1208.89	42.1262
1212.27	42.6659
1215.64	42.345
1219.02	42.2264
1222.39	41.7561
1225.77	41.0582
1229.14	42.2669
1232.52	41.1561
1235.89	41.839
1239.27	41.8312
1242.64	41.9196
1246.01	41.6088
1249.39	41.8019
1252.76	42.0703
1256.14	41.7867
1259.51	42.0662
1262.89	40.5009
1266.26	42.2316
1269.64	41.6238
1273.01	41.7176
1276.39	41.0263
1279.76	42.1528
1283.14	41.5019
