Measurement: Raman, 532 nm, unoriented, Raman Data RAW
Mineral: Anorthite
Rruff sample: R100170
Ideal chemistry: CaAl_2_Si_2_O_8_
Locality: La Elenda mine, near Nuevo Casas Grandes, Municipio de Nuevo Casas Grandes, Chihuahua, Mexico
Source: Mineralogical Museum, Harvard University
Description: Yellow-gray transparent fragment. Variety labradorite.
Raman shift (cm-1)	intensity
158.049	558.387
160.942	620.393
163.835	691.036
166.728	803.952
169.62	959.828
172.513	1057.04
175.406	1106.38
178.298	1132.53
181.191	1101.53
184.084	1063.88
186.976	1025.95
189.869	990.598
192.762	964.098
195.655	957.837
198.547	934.929
201.44	904.187
204.333	867.3
207.225	824.037
210.118	764.243
213.011	720.063
215.904	679.196
218.796	644.447
221.689	621.064
224.582	612.034
227.474	599.036
230.367	596.073
233.26	594.754
236.152	603.252
239.045	609.457
241.938	625.984
244.831	637.464
247.723	653.679
250.616	669.566
253.509	684.06
256.401	701.056
259.294	721.881
262.187	734.74
265.079	755.575
267.972	765.805
270.865	779.534
273.758	785.426
276.65	791.511
279.543	789.497
282.436	787.48
285.328	777.144
288.221	756.135
291.114	724.093
294.007	692.377
296.899	661.365
299.792	634.98
302.685	610.032
305.577	598.254
308.47	582.469
311.363	569.605
314.255	561.219
317.148	553.424
320.041	550.671
322.933	546.395
325.826	544.854
328.719	550.141
331.612	547.424
334.504	549.271
337.397	547.043
340.29	544.681
343.183	544.514
346.075	548.329
348.968	545.946
351.861	547.721
354.753	545.219
357.646	542.981
360.539	542.723
363.431	536.911
366.324	541.505
369.217	537.278
372.11	541.154
375.002	541.378
377.895	546.688
380.788	552.804
383.68	558.951
386.573	559.556
389.466	573.322
392.358	580.309
395.251	593.093
398.144	601.758
401.036	609.005
403.929	621.21
406.822	626.877
409.715	617.832
412.607	604.399
415.5	603.018
418.393	595.971
421.285	594.526
424.178	591.824
427.071	589.436
429.964	593.188
432.856	596.916
435.749	603.803
438.642	609.465
441.534	614.984
444.427	613.541
447.32	613.821
450.212	620.457
453.105	631.174
455.998	649.315
458.891	675.985
461.783	711.397
464.676	763.261
467.569	833.105
470.461	906.283
473.354	995.009
476.247	1086.98
479.139	1163.12
482.032	1200.37
484.925	1195.59
487.818	1149.92
490.71	1134.86
493.603	1163.63
496.496	1239.92
499.388	1372.74
502.281	1513.32
505.174	1624.6
508.067	1651.62
510.959	1579.88
513.852	1420.6
516.745	1243.44
519.637	1082.24
522.53	959.1
525.423	866.486
528.316	801.317
531.208	746.313
534.101	709.166
536.994	692.105
539.886	685.331
542.779	692.309
545.672	705.075
548.564	729.529
551.457	763.336
554.35	799.246
557.242	832.197
560.135	859.015
563.028	866.678
565.921	835.442
568.813	789.213
571.706	740.976
574.599	701.771
577.491	666.113
580.384	644.62
583.277	633.881
586.17	617.273
589.062	615.22
591.955	607.34
594.848	600.771
597.74	595.158
600.633	595.573
603.526	590.061
606.418	587.094
609.311	585.405
612.204	587.316
615.097	590.858
617.989	587.684
620.882	591.25
623.775	588.982
626.667	597.457
629.56	598.548
632.453	594.902
635.346	596.844
638.238	593.26
641.131	598.653
644.024	593.729
646.916	593.739
649.809	596.388
652.702	595.446
655.594	596.883
658.487	600.509
661.38	597.774
664.273	597.978
667.165	601.193
670.058	604.531
672.951	606.342
675.843	611.166
678.736	613.805
681.629	618.154
684.521	624.108
687.414	623.715
690.307	627.437
693.199	625.789
696.092	628.047
698.985	628.271
701.878	630.909
704.77	631.147
707.663	629.967
710.556	633.931
713.448	631.208
716.341	635.719
719.234	629.703
722.127	633.99
725.019	635.671
727.912	636.187
730.805	641.393
733.697	643.82
736.59	650.275
739.483	656.705
742.375	654.852
745.268	660.35
748.161	664.152
751.054	668.519
753.946	672.648
756.839	676.434
759.732	677.979
762.625	683.151
765.517	695.029
768.41	696.33
771.303	701.331
774.195	704.332
777.088	704.166
779.981	702.291
782.873	699.533
785.766	694.33
788.659	692.032
791.552	690.738
794.444	682.274
797.337	675.039
800.23	670.703
803.122	656.12
806.015	653.947
808.908	644.253
811.8	640.823
814.693	633.392
817.586	635.245
820.479	639.183
823.371	637.795
826.264	633.825
829.157	637.091
832.049	635.049
834.942	632.985
837.835	633.42
840.727	636.765
843.62	637.56
846.513	634.454
849.405	636.323
852.298	642.935
855.191	640.047
858.084	642.468
860.976	645.181
863.869	647.831
866.762	654.183
869.654	647.837
872.547	650.176
875.44	654.355
878.333	657.622
881.225	658.801
884.118	655.889
887.011	662.851
889.903	666.156
892.796	664.43
895.689	671.645
898.582	674.066
901.474	679.327
904.367	684.624
907.26	685.854
910.152	693.508
913.045	694.796
915.938	700.478
918.83	698.639
921.723	702.307
924.616	706.152
927.509	705.16
930.401	707.098
933.294	711.616
936.187	711.84
939.079	712.104
941.972	704.888
944.865	702.965
947.757	715.553
950.65	719.08
953.543	726.78
956.436	728.762
959.328	733.845
962.221	739.508
965.114	748.666
968.006	754.83
970.899	756.052
973.792	765.458
976.684	776.981
979.577	776.992
982.47	780.644
985.362	778.543
988.255	778.683
991.148	779.346
994.041	776.008
996.933	780.456
999.826	775.067
1002.72	773.039
1005.61	769.04
1008.5	772.852
1011.4	772.829
1014.29	770.304
1017.18	774.059
1020.08	772.324
1022.97	773.303
1025.86	770.394
1028.75	773.181
1031.65	770.766
1034.54	767.265
1037.43	770.81
1040.32	766.33
1043.22	767.366
1046.11	769.183
1049	769.705
1051.89	766.444
1054.79	767.554
1057.68	768.693
1060.57	766.253
1063.47	762.506
1066.36	760.47
1069.25	763.527
1072.14	764.337
1075.04	760.465
1077.93	762.886
1080.82	758.534
1083.71	758.437
1086.61	755.687
1089.5	752.153
1092.39	751.038
1095.29	751.429
1098.18	744.027
1101.07	742.793
1103.96	746.928
1106.86	744.946
1109.75	744.706
1112.64	748.137
1115.53	741.876
1118.43	741.491
1121.32	741.898
1124.21	740.479
1127.11	740.16
1130	740.373
1132.89	740.496
1135.78	736.794
1138.68	738.903
1141.57	735.173
1144.46	730.958
1147.35	732.706
1150.25	728.505
1153.14	732.938
1156.03	725.089
1158.92	726.635
1161.82	725.64
1164.71	726.924
1167.6	728.122
1170.5	722.469
1173.39	725.548
1176.28	723.988
1179.17	718.74
1182.07	721.285
1184.96	722.247
1187.85	722.459
1190.74	718.82
1193.64	718.403
1196.53	720.193
1199.42	714.219
1202.32	715.263
1205.21	712.776
1208.1	712.366
1210.99	714.124
1213.89	715.011
1216.78	715.944
1219.67	711.035
1222.56	713.088
1225.46	715.548
1228.35	721.71
1231.24	713.245
1234.13	712.573
1237.03	711.613
1239.92	713.493
1242.81	713.342
1245.71	712.965
1248.6	712.496
1251.49	714.182
1254.38	714.375
1257.28	715.321
1260.17	715.701
1263.06	717.813
1265.95	717.302
1268.85	717.045
1271.74	712.512
1274.63	715.725
1277.53	716.397
1280.42	717.2
1283.31	715.416
1286.2	716.447
1289.1	716.61
1291.99	719.938
1294.88	715.077
1297.78	715.136
1300.67	716.702
