Measurement: Raman, 532 nm, unoriented, Raman Data RAW
Mineral: Anorthite
Rruff sample: R050104
Ideal chemistry: CaAl_2_Si_2_O_8_
Locality: unknown
Source: Rock Currier
Description: Iridescent slab, labradorite/andesine
Measured chemistry: Ca_0.50_Na_0.47_K_0.03_Al_1.50_Si_2.50_O_8_
Raman shift (cm-1)	intensity
141.074	127.438
143.967	134.172
146.859	142.664
149.752	152.359
152.645	161.475
155.537	169.493
158.43	173.629
161.323	178.218
164.215	186.488
167.108	194.38
170.001	199.763
172.894	205.438
175.786	205.088
178.679	204.19
181.572	201.705
184.464	194.168
187.357	187.899
190.25	180.286
193.143	172.75
196.035	168.481
198.928	163.729
201.821	159.103
204.713	153.484
207.606	146.685
210.499	139.708
213.391	132.125
216.284	127.372
219.177	125.087
222.069	124.102
224.962	122.441
227.855	125.448
230.748	125.777
233.64	128.954
236.533	133.094
239.426	138.333
242.318	145.512
245.211	149.565
248.104	156.336
250.996	160.925
253.889	163.505
256.782	165.254
259.675	168.664
262.567	173.045
265.46	178.86
268.353	184.999
271.245	193.755
274.138	199.466
277.031	206.205
279.923	210.749
282.816	212.191
285.709	212.404
288.601	203.747
291.494	190.737
294.387	178.525
297.28	163.45
300.172	149.325
303.065	138.734
305.958	130.91
308.85	126.029
311.743	121.837
314.636	118.466
317.529	116.644
320.421	116.589
323.314	115.246
326.207	113.495
329.099	113.344
331.992	114.038
334.885	113.289
337.777	112.099
340.67	111.559
343.563	109.419
346.455	109.426
349.348	106.974
352.241	105.795
355.134	104.912
358.026	103.826
360.919	102.55
363.812	102.858
366.704	102.883
369.597	103.148
372.49	103.212
375.382	104.119
378.275	105.273
381.168	107.963
384.061	110.734
386.953	114.388
389.846	119.28
392.739	123.963
395.631	130.318
398.524	134.67
401.417	139.305
404.309	145.506
407.202	148.157
410.095	145.285
412.988	139.397
415.88	131.707
418.773	125.902
421.666	121.956
424.558	118.632
427.451	115.032
430.344	112.862
433.236	110.705
436.129	110.271
439.022	111.619
441.915	111.212
444.807	111.783
447.7	113.498
450.593	117.328
453.485	121.264
456.378	127.824
459.271	136.013
462.163	147.18
465.056	164.804
467.949	185.31
470.841	210.127
473.734	236.426
476.627	261.469
479.52	277.149
482.412	278.519
485.305	265.772
488.198	251.32
491.09	245.111
493.983	256.442
496.876	289.662
499.769	334.903
502.661	381.819
505.554	424.346
508.447	438.29
511.339	427.033
514.232	380.566
517.125	318.08
520.017	259.007
522.91	215.493
525.803	184.933
528.696	161.347
531.588	143.482
534.481	133.241
537.374	126.277
540.266	121.844
543.159	119.295
546.052	120.29
548.944	120.002
551.837	121.193
554.73	122.788
557.622	123.21
560.515	126.761
563.408	128.817
566.301	129.949
569.193	125.555
572.086	119.854
574.979	112.725
577.871	109.049
580.764	105.182
583.657	101.965
586.549	100.477
589.442	98.5629
592.335	97.714
595.227	97.9537
598.12	96.8404
601.013	96.6348
603.906	96.3386
606.798	96.1025
609.691	95.4956
612.584	97.4001
615.476	97.4959
618.369	97.43
621.262	97.4389
624.154	97.8674
627.047	98.0006
629.94	99.0455
632.833	99.6372
635.725	98.9954
638.618	99.0292
641.511	98.4874
644.403	98.7234
647.296	98.8254
650.189	98.8233
653.082	98.4091
655.974	98.8363
658.867	98.7728
661.76	99.1949
664.652	98.7736
667.545	99.1967
670.438	99.921
673.33	100.846
676.223	101.243
679.116	101.85
682.009	101.985
684.901	102.032
687.794	101.968
690.687	102.442
693.579	101.531
696.472	102.907
699.365	103.237
702.257	103.652
705.15	105.126
708.043	105.216
710.936	106.664
713.828	106.769
716.721	106.331
719.614	107.387
722.506	107.646
725.399	107.596
728.292	108.377
731.184	109.185
734.077	111.053
736.97	112.915
739.862	113.409
742.755	115.71
745.648	116.258
748.541	116.111
751.433	115.966
754.326	115.463
757.219	116.561
760.111	117.151
763.004	117.535
765.897	117.255
768.789	117.895
771.682	117.198
774.575	116.942
777.468	116.005
780.36	115.362
783.253	111.478
786.146	110.202
789.038	110.561
791.931	109.895
794.824	108.618
797.716	108.488
800.609	105.652
803.502	104.059
806.395	102.71
809.287	100.873
812.18	100.122
815.073	99.8871
817.965	98.2369
820.858	97.8298
823.751	98.1298
826.643	96.9123
829.536	97.3167
832.429	97.0089
835.322	96.3131
838.214	97.1629
841.107	97.8377
844	96.8072
846.892	97.6616
849.785	97.0702
852.678	96.1659
855.57	96.8326
858.463	96.4928
861.356	96.6141
864.249	96.7763
867.141	97.9438
870.034	97.7067
872.927	98.6229
875.819	97.7102
878.712	97.7313
881.605	98.6963
884.497	98.6579
887.39	99.1145
890.283	100.076
893.176	99.2742
896.068	100.927
898.961	101.028
901.854	101.277
904.746	102.15
907.639	102.575
910.532	103.202
913.424	104.19
916.317	104.849
919.21	104.542
922.102	105.147
924.995	105.835
927.888	107.309
930.781	107.919
933.673	108.11
936.566	110.047
939.459	110.41
942.351	110.31
945.244	110.461
948.137	111.48
951.029	112.298
953.922	113.402
956.815	114.417
959.708	116.346
962.6	117.866
965.493	118.203
968.386	121.487
971.278	123.45
974.171	124.793
977.064	126.425
979.957	126.879
982.849	126.372
985.742	126.107
988.635	125.307
991.527	123.432
994.42	123.471
997.313	123.931
1000.21	124.591
1003.1	122.864
1005.99	123.927
1008.88	122.629
1011.78	123.573
1014.67	124.239
1017.56	124.611
1020.45	124.152
1023.35	123.516
1026.24	123.38
1029.13	123.354
1032.03	122.779
1034.92	121.804
1037.81	121.79
1040.7	120.581
1043.6	120.692
1046.49	119.145
1049.38	119.026
1052.27	119.645
1055.17	118.978
1058.06	118.827
1060.95	118.52
1063.85	118.403
1066.74	118.811
1069.63	119.003
1072.52	119.87
1075.42	119.24
1078.31	119.507
1081.2	118.447
1084.09	118.387
1086.99	118.577
1089.88	118.341
1092.77	117.087
1095.66	117.332
1098.56	115.968
1101.45	114.996
1104.34	115.654
1107.23	113.85
1110.13	114.1
1113.02	113.414
1115.91	112.366
1118.81	111.745
1121.7	111.181
1124.59	111.043
1127.48	109.76
1130.38	109.586
1133.27	108.65
1136.16	108.795
1139.06	106.654
1141.95	107.052
1144.84	104.903
1147.73	105.194
1150.63	105.386
1153.52	104.603
1156.41	103.753
1159.3	103.714
1162.2	102.789
1165.09	102
1167.98	102.185
1170.88	101.533
1173.77	100.676
1176.66	100.201
1179.55	100.157
1182.44	99.925
1185.34	99.1536
1188.23	98.8004
1191.12	98.1201
1194.02	98.2068
1196.91	97.0576
1199.8	97.639
1202.69	97.3927
1205.59	97.3438
1208.48	97.3304
1211.37	96.6785
1214.27	96.5817
1217.16	96.2522
1220.05	95.5174
1222.94	95.987
1225.84	96.1975
1228.73	96.0569
1231.62	96.3429
1234.51	95.3725
1237.41	95.3977
1240.3	95.5807
1243.19	94.8914
1246.09	95.0774
1248.98	95.0079
1251.87	95.3124
1254.76	95.1814
1257.66	94.9157
1260.55	94.926
1263.44	94.3326
1266.33	95.1373
1269.23	94.664
1272.12	95.0881
1275.01	93.8937
1277.9	94.3306
1280.8	94.522
1283.69	95.2093
1286.58	94.3544
1289.47	94.7266
