Measurement: Raman, 780 nm, unoriented, Raman Data RAW
Mineral: Anorthite
Rruff sample: R100170
Ideal chemistry: CaAl_2_Si_2_O_8_
Locality: La Elenda mine, near Nuevo Casas Grandes, Municipio de Nuevo Casas Grandes, Chihuahua, Mexico
Source: Mineralogical Museum, Harvard University
Description: Yellow-gray transparent fragment. Variety labradorite.
Raman shift (cm-1)	intensity
132.067	2014.72
134.96	2023.8
137.853	2026.61
140.746	2034.97
143.638	2050.71
146.531	2060.72
149.424	2062.6
152.316	2068.59
155.209	2061.01
158.102	2052.83
160.994	2050.71
163.887	2061.84
166.78	2064.76
169.673	2073.83
172.565	2078.84
175.458	2080.16
178.351	2101.87
181.243	2107.82
184.136	2108.38
187.029	2109.93
189.921	2116.19
192.814	2122.48
195.707	2125.8
198.6	2125.11
201.492	2116.96
204.385	2103.12
207.278	2087.86
210.17	2070.26
213.063	2066.16
215.956	2054.66
218.848	2047.29
221.741	2040.27
224.634	2046.8
227.526	2045.95
230.419	2048.16
233.312	2053.17
236.205	2065.98
239.097	2077.3
241.99	2087.16
244.883	2095.86
247.775	2109.91
250.668	2126.78
253.561	2132.37
256.454	2148.65
259.346	2159.9
262.239	2171.71
265.132	2176.42
268.024	2187.71
270.917	2195.87
273.81	2200.71
276.702	2206.36
279.595	2212.41
282.488	2208.57
285.38	2201.87
288.273	2188.29
291.166	2179.23
294.059	2157.07
296.951	2138.49
299.844	2133.73
302.737	2124.57
305.629	2115.79
308.522	2120.68
311.415	2118.36
314.308	2130.41
317.2	2130.64
320.093	2147.47
322.986	2158.26
325.878	2173.68
328.771	2187.53
331.664	2191
334.556	2208.86
337.449	2215.91
340.342	2222.34
343.234	2222.24
346.127	2231.51
349.02	2229.07
351.913	2225.02
354.805	2217.16
357.698	2220.45
360.591	2208.04
363.483	2210.04
366.376	2201.32
369.269	2202.45
372.161	2190.41
375.054	2195.65
377.947	2197.23
380.839	2197.22
383.732	2201.4
386.625	2198.88
389.518	2207.64
392.41	2214.02
395.303	2216.78
398.196	2247.69
401.088	2254.33
403.981	2273.57
406.874	2269.4
409.767	2259.18
412.659	2241.34
415.552	2229.34
418.445	2223.89
421.337	2220.09
424.23	2214.97
427.123	2207.8
430.015	2212.92
432.908	2204.17
435.801	2208.81
438.693	2207.62
441.586	2207.78
444.479	2204.3
447.372	2210.12
450.264	2221.14
453.157	2235.1
456.05	2245.28
458.942	2265.33
461.835	2285.18
464.728	2313.53
467.62	2355.9
470.513	2401.96
473.406	2462.8
476.299	2525.98
479.191	2587.55
482.084	2613.99
484.977	2603.25
487.869	2570.48
490.762	2552.06
493.655	2567.12
496.547	2627.52
499.44	2723.99
502.333	2849.44
505.226	2931.27
508.118	2951.14
511.011	2889.59
513.904	2764.39
516.796	2634.08
519.689	2524.54
522.582	2436.77
525.474	2371.85
528.367	2321.24
531.26	2280.57
534.153	2244.31
537.045	2228.75
539.938	2212.59
542.831	2208.42
545.723	2216.51
548.616	2222.02
551.509	2239.41
554.401	2248.79
557.294	2264.9
560.187	2273.47
563.08	2273.85
565.972	2263.71
568.865	2241.23
571.758	2216.86
574.65	2197.74
577.543	2177.72
580.436	2171.56
583.328	2152.81
586.221	2151.07
589.114	2146.7
592.006	2144.06
594.899	2137.49
597.792	2139.61
600.685	2133.95
603.577	2122.42
606.47	2121.35
609.363	2122.87
612.255	2123.58
615.148	2123.05
618.041	2117.62
620.933	2117.66
623.826	2120.48
626.719	2123.86
629.611	2111.66
632.504	2114.98
635.397	2113.24
638.29	2116.64
641.182	2107.59
644.075	2107.65
646.968	2106.82
649.86	2108.44
652.753	2104.75
655.646	2096.4
658.538	2102.48
661.431	2100.45
664.324	2102.57
667.217	2102.82
670.109	2096.45
673.002	2101.51
675.895	2103.61
678.787	2105.32
681.68	2103.41
684.573	2106.48
687.466	2110.23
690.358	2108.16
693.251	2102.89
696.144	2105.13
699.036	2101.03
701.929	2107.67
704.822	2105.22
707.714	2105.68
710.607	2109.26
713.5	2113
716.393	2107.93
719.285	2110.84
722.178	2106.47
725.071	2113.44
727.963	2110.05
730.856	2105.92
733.749	2106.47
736.641	2110.31
739.534	2105.6
742.427	2116.74
745.319	2114.81
748.212	2116.53
751.105	2113.58
753.998	2112.43
756.89	2114.94
759.783	2116.72
762.676	2118.02
765.568	2125.83
768.461	2117.45
771.354	2122.07
774.246	2114.71
777.139	2114.13
780.032	2106.1
782.925	2099.82
785.817	2098.31
788.71	2095.41
791.603	2091.74
794.495	2087.6
797.388	2079.34
800.281	2073.78
803.173	2057.12
806.066	2066.52
808.959	2050.22
811.851	2044.26
814.744	2049.04
817.637	2045.27
820.53	2044.23
823.422	2046.05
826.315	2042.85
829.208	2035.79
832.1	2030.78
834.993	2031.83
837.886	2028.88
840.779	2029.34
843.671	2023.19
846.564	2032.41
849.457	2021.43
852.349	2025.94
855.242	2021.59
858.135	2025.79
861.027	2015.61
863.92	2025.72
866.813	2016.39
869.706	2013.55
872.598	2012.89
875.491	2007.84
878.384	2005.47
881.276	2007.42
884.169	2001.3
887.062	2005.95
889.954	1998.92
892.847	2007.67
895.74	1999.18
898.632	2000.04
901.525	1992.93
904.418	2001.02
907.311	2006.33
910.203	2000.43
913.096	1997.57
915.989	1996.43
918.881	1993.98
921.774	1991.08
924.667	1989.64
927.559	1993.83
930.452	1997.58
933.345	1999.69
936.237	1989.9
939.13	1988.54
942.023	1994.61
944.916	1994.91
947.808	1995.4
950.701	1992.89
953.594	1989.96
956.486	1989.7
959.379	1996.49
962.272	1987.95
965.164	1992.7
968.057	1990.35
970.95	1997.47
973.843	1992.44
976.735	1995.58
979.628	1994.72
982.521	2002.89
985.413	1990.65
988.306	1998.73
991.199	1993.79
994.091	1997.26
996.984	1997.46
999.877	1993.11
1002.77	1994.01
1005.66	1986.71
1008.55	1997.23
1011.45	1988.18
1014.34	1986.9
1017.23	1990.01
1020.13	1989.35
1023.02	1983.34
1025.91	1988.36
1028.8	1993.33
1031.7	1997.35
1034.59	1986.22
1037.48	1993.2
1040.38	1989.01
1043.27	1993.5
1046.16	1993.56
1049.05	1993.04
1051.94	1989.43
1054.84	1987.69
1057.73	1988.41
1060.62	1989.74
1063.52	1992.3
1066.41	1997.61
1069.3	1994.16
1072.19	1995.25
1075.09	1999.93
1077.98	1995.16
1080.87	1996.83
1083.77	1999.34
1086.66	1999.77
1089.55	2007.59
1092.44	2011.74
1095.34	2007.52
1098.23	2013.87
1101.12	2012.95
1104.01	2014.86
1106.91	2020.88
1109.8	2029.73
1112.69	2030.85
1115.59	2032.13
1118.48	2034.53
1121.37	2041.72
1124.26	2061.68
1127.16	2064.69
1130.05	2084.09
1132.94	2095.15
1135.83	2107.73
1138.73	2117.96
1141.62	2131.86
1144.51	2151.86
1147.4	2171.46
1150.3	2189.18
1153.19	2202.12
1156.08	2224.93
1158.97	2252.91
1161.87	2269.37
1164.76	2285.32
1167.65	2303.23
1170.55	2325.36
1173.44	2346.23
1176.33	2355.64
1179.22	2374.37
1182.12	2385.21
1185.01	2399.26
1187.9	2405
1190.8	2418.97
1193.69	2423.03
1196.58	2433.29
1199.47	2431.33
1202.37	2433.24
1205.26	2430.57
1208.15	2437.62
1211.04	2440.9
1213.94	2436.05
1216.83	2448.68
1219.72	2455.23
1222.62	2466.05
1225.51	2477.9
1228.4	2493.1
1231.29	2519.28
1234.18	2542.01
1237.08	2561.75
1239.97	2588.86
1242.86	2621.66
1245.76	2652.29
1248.65	2685.96
1251.54	2713.34
1254.43	2739.48
1257.33	2774.26
1260.22	2816.77
1263.11	2838.69
1266.01	2863.63
1268.9	2882.51
1271.79	2909.99
1274.68	2913.16
1277.58	2942.86
1280.47	2947.07
1283.36	2963.42
