Measurement: Raman, 780 nm, unoriented, Raman Data RAW
Mineral: Anorthite
Rruff sample: R040059
Ideal chemistry: CaAl_2_Si_2_O_8_
Locality: Miyakejima, Japan
Source: University of Arizona Mineral Museum
Description: Colorless fragments of crystals
Measured chemistry: (Ca_0.94_Na_0.04_Fe_0.02_)(Al_0.98_Si_0.02_)_2_Si_2.00_O_8_
Raman shift (cm-1)	intensity
114.219	324.098
117.112	322.949
120.004	325.63
122.897	333.704
125.79	347.653
128.682	364.377
131.575	383.56
134.468	396.058
137.361	404.224
140.253	420.45
143.146	445.395
146.039	434.286
148.931	383.872
151.824	340.426
154.717	317.46
157.609	312.738
160.502	311.163
163.395	318.98
166.287	335.78
169.18	353.198
172.073	373.766
174.966	398.868
177.858	419.447
180.751	443.138
183.644	467.199
186.536	484.714
189.429	501.271
192.322	504.877
195.214	495.6
198.107	478.978
201	454.14
203.893	444.385
206.785	428.64
209.678	413.009
212.571	390.628
215.463	369.407
218.356	354.865
221.249	352.75
224.142	341.038
227.034	330.325
229.927	327.501
232.82	336.952
235.712	346.597
238.605	362.99
241.498	380.645
244.39	393.339
247.283	403.083
250.176	405.057
253.069	409.592
255.961	407.887
258.854	394.887
261.747	380.289
264.639	371.424
267.532	370.629
270.425	371.691
273.317	369.911
276.21	364.676
279.103	361.767
281.995	356.191
284.888	346.3
287.781	324.885
290.674	302.671
293.566	276.192
296.459	259.369
299.352	250.692
302.244	243.808
305.137	241.327
308.03	237.073
310.923	229.656
313.815	225.647
316.708	227.837
319.601	230.045
322.493	231.574
325.386	223.753
328.279	213.632
331.171	208.357
334.064	205.899
336.957	204.561
339.849	201.716
342.742	201.153
345.635	198.768
348.527	195.869
351.42	195.663
354.313	197.651
357.206	200.008
360.098	204.79
362.991	209.848
365.884	216.844
368.776	218.98
371.669	216.364
374.562	215.004
377.454	212.676
380.347	216.614
383.24	219.301
386.133	224.928
389.025	227.226
391.918	232.679
394.811	243.741
397.703	248.875
400.596	253.136
403.489	256.141
406.382	256.354
409.274	244.168
412.167	240.093
415.06	236.374
417.952	239.392
420.845	252.135
423.738	270.438
426.63	286.568
429.523	288.067
432.416	275.225
435.308	263.251
438.201	257.26
441.094	246.033
443.987	236.017
446.879	230.28
449.772	228.176
452.665	232.51
455.557	247.145
458.45	258.079
461.343	268.975
464.236	277.385
467.128	302.963
470.021	332.757
472.914	365.447
475.806	396.418
478.699	443.423
481.592	508.43
484.484	582.572
487.377	611.494
490.27	582.531
493.163	586.608
496.055	637.316
498.948	723.358
501.841	810.884
504.733	791.806
507.626	675.396
510.519	556.966
513.411	474.325
516.304	396.197
519.197	334.521
522.09	294.947
524.982	274.152
527.875	256.495
530.768	246.825
533.66	244.687
536.553	251.781
539.446	261.991
542.338	280.036
545.231	300.961
548.124	325.49
551.016	352.598
553.909	378.732
556.802	373.613
559.695	343.005
562.587	303.072
565.48	264.845
568.373	232.992
571.265	213.18
574.158	198.478
577.051	190.307
579.943	185.028
582.836	183.306
585.729	184.977
588.621	189.335
591.514	193.05
594.407	193.919
597.3	189.554
600.192	185.194
603.085	176.017
605.978	167.554
608.87	165.044
611.763	161.741
614.656	161.976
617.548	162.856
620.441	166.212
623.334	165.594
626.227	161.206
629.119	155.057
632.012	151.426
634.905	149.55
637.797	149.501
640.69	148.343
643.583	147.522
646.476	144.864
649.368	146.411
652.261	147.175
655.154	148.519
658.046	150.634
660.939	156.617
663.832	161.793
666.724	169.697
669.617	179.899
672.51	190.226
675.403	204.087
678.295	211.238
681.188	210.425
684.081	203.316
686.973	186.596
689.866	175.973
692.759	164.657
695.651	160.203
698.544	154.987
701.437	151.977
704.33	154.191
707.222	152.44
710.115	152.2
713.008	152.439
715.9	152.665
718.793	154.51
721.686	156.508
724.578	160.203
727.471	164.136
730.364	170.212
733.256	174.8
736.149	184.697
739.042	194.029
741.935	199.075
744.827	200.43
747.72	198.295
750.613	203.118
753.505	210.785
756.398	224.079
759.291	235.221
762.183	238.61
765.076	230.16
767.969	214.537
770.862	197.603
773.754	183.454
776.647	170.642
779.54	161.733
782.432	154.109
785.325	148.838
788.218	145.214
791.111	143.87
794.003	141.807
796.896	138.329
799.789	135.368
802.681	133.1
805.574	131.803
808.467	132.211
811.359	130.336
814.252	131.374
817.145	130.008
820.038	131.278
822.93	132.839
825.823	130.355
828.716	129.828
831.608	129.833
834.501	131.022
837.394	128.417
840.286	129.666
843.179	129.555
846.072	130.686
848.965	131.185
851.857	130.965
854.75	131.241
857.643	130.403
860.535	130.756
863.428	128.914
866.321	132.104
869.213	132.257
872.106	133.963
874.999	135.123
877.891	136.744
880.784	138.041
883.677	139.788
886.569	142.206
889.462	144.08
892.355	148.345
895.248	154.094
898.14	157.382
901.033	159.382
903.926	164.288
906.818	168.963
909.711	173.206
912.604	174.717
915.496	173.673
918.389	166.804
921.282	164.204
924.175	161.463
927.067	163.535
929.96	167.09
932.853	170.231
935.745	175.301
938.638	180.769
941.531	186.937
944.423	194.151
947.316	202.015
950.209	211.647
953.102	219.961
955.994	221.825
958.887	215.572
961.78	208.304
964.672	209.316
967.565	217.243
970.458	223.332
973.351	227.307
976.243	230.81
979.136	223.799
982.029	215.78
984.921	204.209
987.814	194.106
990.707	183.218
993.599	175.444
996.492	168.982
999.385	164.031
1002.28	157.939
1005.17	155.367
1008.06	151.498
1010.96	148.555
1013.85	148.892
1016.74	147.87
1019.63	146.714
1022.53	147.983
1025.42	144.871
1028.31	146.015
1031.2	146.74
1034.1	147.175
1036.99	148.212
1039.88	150.611
1042.78	152.195
1045.67	154.687
1048.56	156.362
1051.45	155.64
1054.35	156.19
1057.24	156.122
1060.13	153.064
1063.02	151.672
1065.92	152.325
1068.81	153.182
1071.7	153.73
1074.6	154.797
1077.49	153.394
1080.38	150.398
1083.27	145.916
1086.17	139.981
1089.06	136.485
1091.95	132.945
1094.84	129.225
1097.74	128.281
1100.63	124.756
1103.52	125.552
1106.41	124.832
1109.31	124.769
1112.2	124.295
1115.09	123.871
1117.98	123.2
1120.88	124.489
1123.77	123.578
1126.66	123.902
1129.56	121.838
1132.45	122.556
1135.34	123.244
1138.23	123.696
1141.13	121.522
1144.02	122.805
1146.91	122.368
1149.81	123.623
1152.7	124.392
1155.59	124.019
1158.48	124.576
1161.38	126.119
1164.27	126.074
1167.16	127.117
1170.05	128.018
1172.95	127.525
1175.84	128.085
1178.73	128.747
1181.62	129.865
1184.52	130.294
1187.41	131.012
1190.3	131.86
1193.2	131.106
1196.09	132.048
1198.98	131.832
1201.87	132.22
1204.77	130.714
1207.66	132.431
1210.55	131.672
1213.44	131.856
1216.34	131.7
1219.23	131.299
1222.12	132.319
1225.02	130.643
1227.91	131.297
1230.8	130.878
1233.69	131.281
1236.59	132.256
1239.48	133.61
1242.37	132.44
1245.26	132.961
1248.16	132.998
1251.05	134.709
