Measurement: Raman, 780 nm, unoriented, Raman Data RAW
Mineral: Anorthite
Rruff sample: R070598
Ideal chemistry: CaAl_2_Si_2_O_8_
Locality: Eyscott Hill, Keswick, Cumberland, England
Source: James Shigley
Description: Massive, greyish-green heterogenous aggregates on plagioclase matrix. Variety bytownite.
Measured chemistry: Na_0.25_K_0.03_Ca_0.72_(Al_1.70_Fe^3+^_0.02_Si_2.28_)O_8_ ; light gray
Raman shift (cm-1)	intensity
146.265	2258.63
149.157	2348.25
152.05	2497.6
154.943	2552.84
157.836	2637.83
160.728	2782.14
163.621	3167.07
166.514	3070.82
169.406	2872.74
172.299	2762.26
175.192	2759.22
178.084	2785.99
180.977	2821.74
183.87	2875.31
186.763	2887.38
189.655	2924.43
192.548	3003.27
195.441	3106.21
198.333	3047.2
201.226	2953.93
204.119	2828.1
207.012	2679.42
209.904	2537.19
212.797	2405.61
215.69	2259.84
218.582	2292.39
221.475	2076.59
224.368	1920.21
227.261	1826.13
230.153	1729.3
233.046	1681.63
235.939	1697.42
238.831	1697.02
241.724	1796.39
244.617	1955.84
247.509	2156.22
250.402	2450.24
253.295	2667.36
256.187	3027.28
259.08	3505.37
261.973	3831.23
264.865	3888.58
267.758	3475.33
270.651	2957.18
273.544	2530.29
276.436	2308.8
279.329	2299.57
282.222	2269.93
285.114	2209.6
288.007	2176.39
290.9	2111.16
293.793	1924.78
296.685	1831.98
299.578	1661.02
302.471	1562.79
305.363	1664.9
308.256	1605.64
311.149	1670.62
314.041	1758.13
316.934	1857.06
319.827	1867.79
322.719	1758.09
325.612	1633.94
328.505	1573.49
331.398	1529.84
334.29	1519.75
337.183	1475.54
340.076	1393.67
342.969	1421.53
345.861	1407.89
348.754	1397.35
351.647	1430.63
354.539	1473.08
357.432	1512.77
360.325	1545.35
363.217	1506.22
366.11	1535.69
369.003	1517.07
371.896	1563.54
374.788	1618.25
377.681	1693.79
380.574	1764.54
383.466	1842.02
386.359	2010.49
389.252	2099.78
392.144	1992.06
395.037	1936.97
397.93	1850.36
400.822	1896.16
403.715	1869.49
406.608	1908.77
409.501	1882.34
412.393	1848.12
415.286	1754.93
418.179	1758.87
421.071	1650.12
423.964	1507.77
426.857	1496.35
429.75	1483.04
432.642	1443.1
435.535	1381.9
438.428	1419.55
441.32	1353.7
444.213	1374.04
447.106	1319.44
449.998	1374.03
452.891	1351.84
455.784	1368.94
458.676	1389.45
461.569	1464.84
464.462	1509.2
467.355	1537.49
470.247	1725.91
473.14	1821.6
476.033	2013.45
478.925	2172.37
481.818	2104.93
484.711	2034.98
487.603	1805.12
490.496	1748.3
493.389	1786.91
496.282	1973.88
499.174	2207.29
502.067	2531.91
504.96	2910.08
507.852	3217.4
510.745	3234.8
513.638	3045.97
516.53	2953.4
519.423	2849.5
522.316	2662.27
525.209	2347.05
528.101	1969.65
530.994	1668.71
533.887	1520.06
536.779	1463.23
539.672	1448.15
542.565	1407.75
545.457	1324.85
548.35	1285.56
551.243	1207.85
554.136	1179.75
557.028	1150.45
559.921	1217.26
562.814	1163.17
565.706	1155.94
568.599	1159.91
571.492	1172.11
574.385	1166.05
577.277	1140.24
580.17	1099.54
583.063	1107.97
585.955	1080.72
588.848	1092.39
591.741	1075.05
594.633	1069.3
597.526	1096.8
600.419	1168.2
603.312	1121.82
606.204	1145.18
609.097	1156.88
611.99	1192.44
614.882	1175.33
617.775	1150.65
620.668	1182.43
623.56	1162.85
626.453	1183.08
629.346	1167.28
632.239	1162.85
635.131	1161.66
638.024	1202.92
640.917	1180.37
643.809	1138.09
646.702	1108.12
649.595	1105.15
652.487	1065.63
655.38	1060.9
658.273	1028.18
661.165	978.85
664.058	1015.87
666.951	1037
669.844	1016.88
672.736	1068.69
675.629	1124.47
678.522	1143.59
681.414	1195.09
684.307	1317.66
687.2	1380.41
690.092	1464.57
692.985	1524.6
695.878	1658.69
698.771	1800.26
701.663	1846.65
704.556	1800.19
707.449	1596.57
710.341	1450.16
713.234	1304.54
716.127	1198.66
719.019	1130.4
721.912	1059.07
724.805	1038.25
727.698	1020.49
730.59	992.195
733.483	1000.85
736.376	1034.34
739.268	1054.83
742.161	1078.36
745.054	1097.12
747.947	1140.92
750.839	1155.77
753.732	1230.24
756.625	1199.09
759.517	1166.49
762.41	1096.36
765.303	1117.4
768.195	1135.83
771.088	1136.75
773.981	1107.91
776.874	1123.08
779.766	1125.43
782.659	1039.03
785.552	1023.96
788.444	999.046
791.337	961.632
794.23	967.843
797.122	955.255
800.015	1015.27
802.908	957.513
805.801	986.999
808.693	964.407
811.586	965.231
814.479	934.869
817.371	882.377
820.264	856.19
823.157	818.639
826.049	815.842
828.942	823.297
831.835	812.077
834.727	823.467
837.62	807.17
840.513	801.571
843.406	791.429
846.298	798.095
849.191	808.769
852.084	779.103
854.976	778.611
857.869	773.328
860.762	766.261
863.654	736.44
866.547	795.595
869.44	787.73
872.333	776.729
875.225	786.682
878.118	764.747
881.011	777.192
883.903	771.719
886.796	815.271
889.689	806.798
892.582	873.19
895.474	847.304
898.367	842.264
901.26	867.859
904.152	900.636
907.045	923.63
909.938	893.532
912.83	892.352
915.723	898.756
918.616	932.488
921.509	948.68
924.401	937.634
927.294	952.088
930.187	974.663
933.079	983.16
935.972	1017.93
938.865	1043.37
941.757	1088.15
944.65	1050.22
947.543	1073.59
950.436	1117.79
953.328	1061.46
956.221	1020.72
959.114	974.498
962.006	946.207
964.899	930.771
967.792	910.71
970.684	912.849
973.577	928.117
976.47	966.688
979.362	974.577
982.255	1012.23
985.148	1011.41
988.041	1081.65
990.933	1100.97
993.826	1018.35
996.719	977.584
999.611	955.758
1002.5	901.045
1005.4	906.436
1008.29	886.349
1011.18	884.349
1014.08	884.433
1016.97	869.587
1019.86	881.287
1022.75	844.964
1025.65	867.887
1028.54	871.594
1031.43	886.477
1034.32	871.535
1037.22	865.999
1040.11	896.825
1043	903.129
1045.89	837.882
1048.79	859.497
1051.68	930.56
1054.57	894.594
1057.46	936.753
1060.36	914.87
1063.25	945.569
1066.14	920.189
1069.04	947.069
1071.93	992.312
1074.82	1037.79
1077.71	1051.66
1080.61	1069.07
1083.5	1012.64
1086.39	998.222
1089.29	1000.48
1092.18	959.55
1095.07	957.846
1097.96	923.858
1100.86	953.056
1103.75	954.606
1106.64	947.768
1109.53	978.061
1112.43	880.755
1115.32	897.126
1118.21	857.64
1121.11	891.565
1124	877.675
1126.89	839.732
1129.78	864.307
1132.68	842.53
1135.57	838.565
1138.46	832.042
1141.35	788.052
1144.25	794.929
1147.14	780.339
1150.03	790.986
1152.92	754.165
1155.82	749.316
1158.71	802.883
1161.6	763.756
1164.49	757.996
1167.39	742.287
1170.28	766.03
1173.17	734.739
1176.07	740.067
1178.96	722.006
1181.85	753.375
1184.74	736.776
1187.64	747.452
1190.53	770.881
1193.42	753.759
1196.32	778.922
1199.21	745.931
1202.1	776.414
1204.99	777.136
1207.89	758.071
1210.78	729.944
1213.67	747.488
1216.56	729.872
1219.46	735.294
1222.35	694.127
1225.24	726.442
1228.13	785.098
1231.03	771.332
1233.92	768.951
1236.81	793.07
1239.71	768.386
1242.6	777.068
1245.49	764.767
1248.38	791.102
1251.28	814.004
1254.17	786.363
1257.06	781.681
1259.95	776.648
1262.85	784.601
1265.74	799.547
1268.63	763.462
1271.53	813.388
1274.42	829.817
1277.31	809.481
1280.2	818.936
1283.1	825.105
1285.99	809.4
