Measurement: Raman, 780 nm, unoriented, Raman Data RAW
Mineral: Anorthite
Rruff sample: R050104
Ideal chemistry: CaAl_2_Si_2_O_8_
Locality: unknown
Source: Rock Currier
Description: Iridescent slab, labradorite/andesine
Measured chemistry: Ca_0.50_Na_0.47_K_0.03_Al_1.50_Si_2.50_O_8_
Raman shift (cm-1)	intensity
139.419	695.676
142.312	704.546
145.204	714.454
148.097	725.824
150.99	738.73
153.882	750.426
156.775	760.372
159.668	773.309
162.56	786.505
165.453	802.293
168.346	812.854
171.238	821.763
174.131	826.775
177.024	825.996
179.917	818.739
182.809	804.938
185.702	788.812
188.595	772.523
191.487	757.653
194.38	748.088
197.273	742.093
200.166	737.019
203.058	728.627
205.951	720.375
208.844	712.386
211.736	706.264
214.629	699.771
217.522	689.558
220.414	686.456
223.307	685.466
226.2	684.275
229.093	684.76
231.985	687.639
234.878	691.59
237.771	700.049
240.663	702.751
243.556	712.594
246.449	716.374
249.341	725.086
252.234	730.639
255.127	737.264
258.019	741.684
260.912	747.803
263.805	760.059
266.698	767.813
269.59	776.254
272.483	787.521
275.376	793.825
278.268	799.361
281.161	802.871
284.054	801.324
286.946	794.636
289.839	787.582
292.732	777.651
295.625	765.916
298.517	756.86
301.41	753.372
304.303	751.742
307.195	749.337
310.088	754.919
312.981	761.594
315.873	767.034
318.766	772.778
321.659	780.679
324.551	787.86
327.444	791.384
330.337	791.664
333.23	793.136
336.122	789.627
339.015	786.431
341.908	779.975
344.8	775.404
347.693	769.187
350.586	766.061
353.478	757.353
356.371	752.594
359.264	747.862
362.157	746.65
365.049	744.771
367.942	740.962
370.835	739.531
373.727	740.696
376.62	739.896
379.513	741.788
382.406	742.484
385.298	743.746
388.191	751.14
391.084	754.989
393.976	757.567
396.869	758.217
399.762	760.717
402.654	761.156
405.547	761.822
408.44	762.506
411.332	755.815
414.225	751.829
417.118	747.975
420.011	742.156
422.903	741.494
425.796	738.383
428.689	736.851
431.581	737.913
434.474	734.966
437.367	733.72
440.26	735.734
443.152	733.781
446.045	736.158
448.938	734.816
451.83	736.56
454.723	739.933
457.616	744.84
460.508	753.767
463.401	763.888
466.294	776.541
469.186	793.976
472.079	812.586
474.972	828.228
477.865	842.158
480.757	845.388
483.65	838.75
486.543	825.564
489.435	821.954
492.328	826.862
495.221	843.556
498.113	874.929
501.006	904.811
503.899	929.669
506.791	945.163
509.684	939.489
512.577	909.457
515.47	867.525
518.362	822.317
521.255	785.493
524.148	763.676
527.04	745.302
529.933	732.423
532.826	720.823
535.718	715.752
538.611	710.817
541.504	709.534
544.397	709.85
547.289	710.672
550.182	709.184
553.075	706.966
555.967	710.571
558.86	711.238
561.753	711.46
564.645	711.057
567.538	710.765
570.431	706.499
573.323	702.023
576.216	694.309
579.109	692.324
582.002	688.454
584.894	684.687
587.787	683.672
590.68	684.168
593.572	681.864
596.465	680.881
599.358	679.533
602.25	678.92
605.143	678.133
608.036	677.712
610.929	675.588
613.821	674.916
616.714	676.839
619.607	677.017
622.5	675.032
625.392	676.014
628.285	677.474
631.178	675.158
634.07	674.359
636.963	673.705
639.856	671.407
642.748	674.387
645.641	673.508
648.534	673.278
651.426	672.084
654.319	670.701
657.212	669.648
660.105	670.256
662.997	670.423
665.89	670.148
668.783	669.301
671.675	670.398
674.568	667.868
677.461	672.41
680.353	667.969
683.246	669.02
686.139	668.119
689.032	666.966
691.924	665.133
694.817	667.352
697.71	662.514
700.602	665.221
703.495	664.486
706.388	662.702
709.28	663.231
712.173	664.797
715.066	663.394
717.958	663.772
720.851	661.693
723.744	662.311
726.636	662.743
729.529	663.399
732.422	663.478
735.315	663.191
738.207	661.677
741.1	661.879
743.993	662.36
746.885	661.181
749.778	661.047
752.671	662.152
755.563	658.666
758.456	659.015
761.349	656.795
764.242	656.431
767.134	656.682
770.027	655.403
772.92	654.188
775.812	654.495
778.705	652.756
781.598	648.934
784.49	649.027
787.383	648.684
790.276	646.459
793.169	644.043
796.061	640.846
798.954	640.058
801.847	637.294
804.739	633.455
807.632	631.824
810.525	631.556
813.418	630.123
816.31	625.614
819.203	625.969
822.096	625.525
824.988	624.629
827.881	622.085
830.774	621.431
833.666	620.153
836.559	619.22
839.452	619.691
842.345	618.773
845.237	619.8
848.13	618.075
851.023	613.546
853.915	615.355
856.808	613.319
859.701	612.748
862.593	610.272
865.486	611.566
868.379	611.13
871.271	610.659
874.164	608.943
877.057	607.507
879.949	605.801
882.842	607.581
885.735	607.127
888.628	606.237
891.52	603.794
894.413	605.663
897.306	605.004
900.198	606.203
903.091	603.505
905.984	603.5
908.876	602.158
911.769	602.753
914.662	603.681
917.555	604.402
920.447	602.346
923.34	601.911
926.233	603.579
929.125	599.596
932.018	600.253
934.911	600.974
937.803	600.758
940.696	599.752
943.589	598.795
946.482	601.42
949.374	602.061
952.267	599.865
955.16	598.538
958.052	601.412
960.945	600.549
963.838	600.64
966.731	601.728
969.623	601.866
972.516	599.652
975.409	602.386
978.301	601.88
981.194	600.143
984.087	600.913
986.979	599.886
989.872	596.251
992.765	594.026
995.658	594.516
998.55	595.228
1001.44	595.365
1004.34	595.135
1007.23	593.679
1010.12	593.753
1013.01	594.215
1015.91	593.052
1018.8	591.991
1021.69	592.914
1024.58	590.815
1027.48	590.152
1030.37	589.555
1033.26	587.284
1036.15	588.303
1039.05	586.412
1041.94	584.183
1044.83	587.241
1047.73	586.151
1050.62	587.853
1053.51	584.9
1056.4	584.113
1059.3	585.953
1062.19	586.841
1065.08	583.927
1067.97	586.365
1070.87	588.283
1073.76	586.36
1076.65	587.433
1079.55	586.247
1082.44	587.069
1085.33	589.384
1088.22	588.484
1091.12	589.884
1094.01	591.861
1096.9	591.459
1099.8	592.029
1102.69	593.46
1105.58	591.117
1108.47	591.17
1111.37	596.322
1114.26	595.283
1117.15	599.848
1120.04	602.695
1122.94	605.593
1125.83	609.554
1128.72	610.307
1131.61	616.38
1134.51	618.106
1137.4	627.02
1140.29	634.484
1143.18	641.227
1146.08	647.606
1148.97	652.692
1151.86	664.12
1154.76	674.144
1157.65	681.197
1160.54	692.165
1163.43	702.986
1166.33	712.25
1169.22	724.576
1172.11	735.455
1175.01	742.35
1177.9	752.911
1180.79	761.983
1183.68	772.712
1186.58	779.687
1189.47	786.883
1192.36	786.83
1195.25	788.073
1198.15	790.234
1201.04	791.237
1203.93	788.595
1206.82	788.74
1209.72	785.619
1212.61	785.574
1215.5	786.907
1218.39	784.371
1221.29	779.694
1224.18	782.036
1227.07	786.125
1229.97	789.542
1232.86	797.861
1235.75	808.24
1238.64	814.652
1241.54	825.004
1244.43	836.057
1247.32	851.357
1250.21	864.677
1253.11	878.659
1256	886.232
1258.89	906.307
1261.79	913.002
1264.68	921.63
1267.57	927.732
1270.46	933.65
1273.36	936.259
