Measurement: Raman, 532 nm, unoriented, Raman Data RAW
Mineral: Anthraxolite
Rruff sample: R060634
Locality: China
Source: Gemological Institute of America
Description: Black inclusions in quartz
Raman shift (cm-1)	intensity
107.261	243.983
124.617	1705.88
141.974	1976.06
159.33	2137.18
176.686	2425.66
194.042	3410.25
211.398	4420.35
228.755	3064.12
246.111	2642.23
263.467	2804.2
280.823	2427.42
298.179	2353.64
315.536	2280.49
332.892	2245.73
350.248	2177.71
367.604	2139.03
384.96	2126.01
402.317	2178.04
419.673	2093.07
437.029	2238.69
454.385	3908.79
471.741	7689.5
489.098	2472.64
506.454	2045.06
523.81	1909.47
541.166	1858.92
558.523	1824.88
575.879	1831.68
593.235	1804.17
610.591	1780.96
627.947	1743.12
645.304	1906.77
662.66	1706.86
680.016	1714.84
697.372	1791.47
714.728	1745.81
732.084	1771.43
749.441	1807.82
766.797	1824.14
784.153	1888.18
801.509	2082.05
818.865	2008.66
836.222	2024.96
853.578	2020.83
870.934	2111.69
888.29	2073.61
905.646	2029.6
923.003	2078.61
940.359	2166.11
957.715	2215.88
975.071	2270.86
992.427	2335.54
1009.78	2497.4
1027.14	2651.75
1044.5	2795.93
1061.85	3006.66
1079.21	3486.73
1096.57	3431.3
1113.92	3560.37
1131.28	3986.36
1148.63	5048.97
1165.99	6241.01
1183.35	7312.28
1200.7	8701.01
1218.06	10489.8
1235.41	13002.5
1252.77	16049.8
1270.13	18054
1287.48	19205.4
1304.84	20970.3
1322.19	27640.8
1339.55	30274.3
1356.91	24776.8
1374.26	20041.5
1391.62	15540.1
1408.98	12187.5
1426.33	10230
1443.69	9598.91
1461.05	9322.8
1478.4	9409.92
1495.76	9542.35
1513.11	9740.61
1530.47	10150.7
1547.83	10462.8
1565.18	12895.9
1582.54	22509.9
1599.89	47584.9
1617.25	44111.4
1634.61	15692.8
1651.96	8521.22
1669.32	6386.86
1686.68	5902.91
1704.03	5565.05
1721.39	5378.49
1738.74	5178.71
1756.1	5100.69
1773.46	5015.11
1790.81	5051.31
1808.17	4983.76
1825.53	4929.83
1842.88	4994
1860.24	4956.94
1877.59	4951.17
1894.95	4960.25
1912.31	4909.28
1929.66	4869.91
1947.02	4832.56
1964.38	4770.42
1981.73	4734.11
1999.09	4747.48
2016.44	4840.45
2033.8	4834.73
2051.16	4779.23
2068.51	4831.71
2085.87	4851
2103.22	4858.31
2120.58	4780.57
2137.94	4863.55
2155.29	4870.95
2172.65	4929.76
2190.01	5054.52
2207.36	5088.01
2224.72	5066.97
2242.07	5090.65
2259.43	5220.45
2276.79	5259.32
2294.14	5415.5
2311.5	5549.84
2328.86	5703.73
2346.21	5837.47
2363.57	6046.17
2380.92	6309.29
2398.28	6538.24
2415.64	6862.19
2432.99	7262.2
2450.35	7638.81
2467.7	8204.85
2485.06	8816.31
2502.42	9501.97
2519.77	10236.8
2537.13	10801
2554.49	11336.4
2571.84	11929.5
2589.2	12588.1
2606.55	13143.5
2623.91	13605.1
2641.27	13945.9
2658.62	14249.8
2675.98	14147.3
2693.34	13842.6
2710.69	13553.1
2728.05	13372.6
2745.4	13226.2
2762.76	13384.4
2780.12	13692.5
2797.47	14269.5
2814.83	14978
2832.18	15912.2
2849.54	16912.1
2866.9	17619.8
2884.25	17772.2
2901.61	18039.8
2918.97	18927
2936.32	19725.6
2953.68	19037.9
2971.03	17358.8
2988.39	15596.9
3005.75	14082.9
3023.1	13136.4
3040.46	12467.6
3057.82	12309.3
3075.17	12117.1
3092.53	12082.1
3109.88	12188
3127.24	12072.2
3144.6	12339
3161.95	12801.1
3179.31	14027.7
3196.66	16111.3
3214.02	16937
3231.38	14537.5
3248.73	12059.9
3266.09	11047.5
3283.45	10542.1
3300.8	10495.1
3318.16	10453.2
3335.51	10364
3352.87	10362.9
3370.23	10350.3
3387.58	10470.8
3404.94	10475.4
3422.3	10531
3439.65	10626.2
3457.01	10756.2
3474.36	10740.2
3491.72	10791.5
3509.08	10864.3
3526.43	11035.4
3543.79	11034.1
3561.14	11183.5
3578.5	11221.1
3595.86	11399.1
3613.21	11594.6
3630.57	11714.1
3647.93	11947.5
3665.28	12061.1
3682.64	12388.4
3699.99	12555.3
3717.35	12883.9
3734.71	13113.3
3752.06	13458.5
3769.42	13756.5
3786.78	14088.8
3804.13	14493.2
3821.49	14782.6
3838.84	15214.1
3856.2	15531.9
3873.56	15932.6
3890.91	16126.6
3908.27	16649.1
3925.62	16942.4
3942.98	17220.8
3960.34	17554
3977.69	17812.9
3995.05	18189.2
4012.41	18492.7
4029.76	18845.9
4047.12	19164.5
4064.47	19654.8
4081.83	20097.5
4099.19	20425
4116.54	20911.6
4133.9	21287.9
4151.26	21579
4168.61	22107.5
4185.97	22513.1
4203.32	22740
4220.68	23026.5
4238.04	23261.7
4255.39	23507.6
4272.75	23392.5
4290.1	23506
4307.46	23365.4
4324.82	23459.2
4342.17	23583.6
4359.53	23594.8
4376.89	23736.1
4394.24	23911.8
4411.6	24268.4
4428.95	24455.8
4446.31	24903.7
4463.67	25188.8
4481.02	25553.8
4498.38	25599.6
4515.74	25722.7
4533.09	26126.6
4550.45	26087.2
4567.81	25789.2
4585.16	25532.9
4602.52	25425.3
4619.87	25392.2
4637.23	25397.6
4654.59	25441.3
4671.94	25719.2
4689.3	25652.8
4706.65	25973.3
4724.01	26060.2
4741.37	26354.5
4758.72	26680
4776.08	26946
4793.44	27530.4
4810.79	27757.5
4828.15	27756
4845.5	27690.8
4862.86	27898.2
4880.22	28034.2
4897.57	28295.3
4914.93	28439.8
4932.28	28636.5
4949.64	29001.7
4967	29145.8
4984.35	29496.6
5001.71	29707.6
5019.07	30046.5
5036.42	30367.9
5053.78	30789.7
5071.14	31100.2
5088.49	31547.6
5105.85	31787.5
5123.2	31843
5140.56	32485.6
5157.92	32755.4
5175.27	33363.5
5192.63	33610
5209.98	34166
5227.34	34604.2
5244.7	34854.5
5262.05	35225.3
5279.41	35378.4
5296.77	35944
5314.12	36277.2
5331.48	36760.1
5348.83	37216.2
5366.19	37271.8
5383.55	37817.5
5400.9	38197.1
5418.26	38360
5435.61	38957.8
5452.97	38952.9
5470.33	39287.2
5487.68	39543.4
5505.04	39915.1
5522.4	40137.4
5539.75	40395.2
5557.11	40711.2
5574.47	40815.8
5591.82	40983
5609.18	41072.3
5626.53	41584.7
5643.89	41750.2
5661.25	42000.4
5678.6	42268.5
5695.96	42301.4
5713.31	42551.8
5730.67	42957.2
5748.03	43215.5
5765.38	43362
5782.74	43503.1
5800.1	43689.8
5817.45	43907.4
5834.81	43991.4
5852.16	44168.2
5869.52	44235.5
5886.88	44389.3
5904.23	44650.2
5921.59	44702.8
5938.94	44810
5956.3	45005.5
5973.66	45058.7
5991.01	45633.1
6008.37	45681.2
6025.73	45863.6
6043.08	46357
6060.44	46604
6077.79	46510.6
6095.15	47075.5
6112.51	47153.3
6129.86	47564.9
6147.22	47573.9
6164.57	47944.3
6181.93	48354.1
6199.29	48452.3
6216.64	48525.9
6234	48906
6251.36	48739.3
6268.71	49067.8
6286.07	49359.5
6303.43	49574
6320.78	49633.3
6338.14	50083.4
6355.49	50412.8
6372.85	50484.6
6390.21	50905.5
6407.56	50774.2
6424.92	51149.5
6442.27	51579.8
6459.63	51352.1
6476.99	51736
6494.34	51881.3
6511.7	51976.4
6529.06	52323.1
6546.41	52594.4
6563.77	52440.4
