Measurement: Raman, 514 nm, unoriented, Raman Data RAW
Mineral: Anthophyllite
Rruff sample: X050022
Ideal chemistry: [box]Mg_2_Mg_5_Si_8_O_22_(OH)_2_
Locality: Winchester, Riverside County, California, USA
Source: Caltech
Description: Single crystal
Raman shift (cm-1)	intensity
284.798	27970
287.529	27920
290.259	27820
292.989	27670
295.717	27800
298.444	27940
301.171	28190
303.896	28200
306.621	28420
309.345	28190
312.067	28030
314.789	28370
317.51	28500
320.23	28600
322.949	28740
325.667	28650
328.385	28930
331.101	29610
333.816	30520
336.531	31570
339.244	33290
341.957	33000
344.669	31990
347.38	30740
350.09	30530
352.799	30420
355.507	30170
358.214	29850
360.92	29960
363.625	30100
366.33	30350
369.033	30170
371.736	30210
374.437	29960
377.138	29920
379.838	30350
382.537	30440
385.235	30360
387.932	30710
390.628	30630
393.323	30610
396.018	31040
398.711	31420
401.404	31540
404.096	31410
406.786	31480
409.476	31330
412.165	31450
414.853	31880
417.54	31580
420.226	31720
422.912	31590
425.596	31570
428.28	31770
430.962	32000
433.644	32060
436.325	32150
439.005	31970
441.684	32250
444.362	32720
447.039	32190
449.715	32290
452.39	31960
455.065	32050
457.739	31780
460.411	32470
463.083	32730
465.754	32350
468.424	32240
471.093	32490
473.761	32560
476.429	32630
479.095	32800
481.76	32790
484.425	32910
487.089	32670
489.752	32980
492.414	33320
495.075	32980
497.735	32660
500.394	32810
503.052	33270
505.71	33560
508.366	33400
511.022	33320
513.677	33460
516.331	33530
518.984	33830
521.636	33790
524.287	33740
526.938	33420
529.587	33890
532.236	34300
534.883	34170
537.53	34170
540.176	34150
542.821	34020
545.465	34350
548.109	34810
550.751	34680
553.393	34460
556.033	34380
558.673	34440
561.312	34740
563.95	34900
566.587	34460
569.223	34660
571.859	34790
574.493	34960
577.127	35000
579.759	34950
582.391	34840
585.022	34980
587.652	35250
590.281	35390
592.91	35430
595.537	35060
598.164	35290
600.789	35460
603.414	35920
606.038	35750
608.661	35840
611.283	35670
613.905	35690
616.525	36370
619.145	35900
621.763	36060
624.381	35960
626.998	36450
629.614	36520
632.229	36720
634.844	36520
637.457	36540
640.07	36750
642.682	36810
645.292	37170
647.902	37000
650.512	37280
653.12	37220
655.727	38400
658.334	39360
660.939	39690
663.544	39920
666.148	39230
668.751	39070
671.353	39420
673.955	39130
676.555	39310
679.155	40400
681.754	41300
684.352	41720
686.949	40410
689.545	39460
692.14	39020
694.735	38980
697.328	38840
699.921	38650
702.513	38270
705.104	38540
707.694	39030
710.283	38850
712.872	38390
715.459	38310
718.046	38710
720.632	39020
723.217	39400
725.801	38940
728.384	38590
730.967	39220
733.548	39350
736.129	39800
738.709	39490
741.288	39040
743.866	39220
746.443	39580
749.02	40070
751.596	39360
754.17	39530
756.744	39940
759.317	40080
761.89	40030
764.461	39870
767.031	40160
769.601	40430
772.17	40670
774.738	40070
777.305	40070
779.871	40400
782.437	40660
785.001	40600
787.565	40950
790.128	40840
792.69	40870
795.251	41210
797.812	41210
800.371	40950
802.93	40910
805.488	41350
808.045	41500
810.601	41450
813.156	41020
815.711	41330
818.264	41510
820.817	41630
823.369	41520
825.92	41330
828.47	41430
831.02	42370
833.569	41780
836.116	41720
838.663	41600
841.209	42320
843.755	42560
846.299	42140
848.843	42270
851.385	42880
853.927	43110
856.468	43130
859.008	42740
861.548	42680
864.086	42960
866.624	43540
869.161	43140
871.697	42880
874.232	43050
876.767	42990
879.3	43300
881.833	43310
884.365	42920
886.896	44340
889.426	44140
891.956	43840
894.484	43950
897.012	43740
899.539	44280
902.065	44690
904.591	43750
907.115	43820
909.639	44640
912.161	44940
914.683	44460
917.205	44050
919.725	44830
922.244	45260
924.763	45600
927.281	44870
929.798	44800
932.314	45570
934.83	46190
937.344	45640
939.858	45120
942.371	45640
944.883	46010
947.394	45670
949.905	45320
952.414	45640
954.923	46460
957.431	46610
959.938	45310
962.445	46060
964.95	46700
967.455	46720
969.959	46560
972.462	45910
974.964	45630
977.466	46770
979.966	47330
982.466	46170
984.965	46160
987.464	46530
989.961	47410
992.458	47190
994.953	47100
997.448	47600
999.942	47760
1002.44	47950
1004.93	47810
1007.42	48100
1009.91	48770
1012.4	48800
1014.89	48070
1017.38	48140
1019.87	49420
1022.35	48900
1024.84	48420
1027.33	48940
1029.81	49700
1032.29	49520
1034.78	49330
1037.26	48460
1039.74	48990
1042.22	49360
1044.7	48780
1047.18	48150
1049.65	48640
1052.13	49200
1054.61	49590
1057.08	48330
1059.56	49310
1062.03	50360
1064.51	49320
1066.98	48810
1069.45	49210
1071.92	50610
1074.39	50070
1076.86	49510
1079.33	49370
1081.8	50310
1084.26	50390
1086.73	49690
1089.19	49020
1091.66	50300
1094.12	50300
1096.59	49210
1099.05	49930
1101.51	50580
1103.97	50440
1106.43	50360
1108.89	49610
1111.34	50740
1113.8	51460
1116.26	50590
1118.71	50420
1121.17	50950
1123.62	51160
1126.08	51450
1128.53	49450
1130.98	50700
1133.43	51730
1135.88	51880
1138.33	50130
1140.78	50960
1143.23	51650
1145.67	51400
1148.12	50610
1150.56	51260
1153.01	52460
1155.45	51770
1157.9	51300
1160.34	51380
1162.78	52480
1165.22	52230
1167.66	51340
1170.1	51860
1172.54	53000
1174.97	52690
1177.41	51790
1179.85	52040
1182.28	53080
1184.72	53160
1187.15	52340
1189.58	52590
1192.01	53850
1194.45	53140
1196.88	52420
1199.31	53240
1201.73	54170
1204.16	54070
1206.59	52730
1209.02	53630
1211.44	54810
1213.87	54780
1216.29	53080
1218.71	54010
1221.14	55160
1223.56	54690
1225.98	53750
1228.4	54790
1230.82	55540
1233.24	55070
1235.66	53590
1238.07	55230
1240.49	55790
1242.9	55220
1245.32	54640
