Measurement: Raman, 780 nm, unoriented, Raman Data Processed
Mineral: Antipinite
Rruff sample: R160005
Ideal chemistry: KNa_3_Cu^2+^_2_((C_2_)^6+^O_4_)_4_
Locality: Rowley mine, Maricopa County, Arizona, USA
Source: Danielle Sotomayor and Keith Wentz
Description: Blue euhedral crystals exhibiting hemihedral symmetry. Associated with colorless barite, yellow hedyphane, and orange wulfenite.
Raman shift (cm-1)	intensity
130.972	0
133.865	2.38956
136.758	9.39003
139.651	16.0535
142.543	19.1906
145.436	22.7943
148.329	24.247
151.221	25.8021
154.114	26.288
157.007	26.1155
159.9	24.7102
162.792	26.9177
165.685	26.8023
168.578	20.3375
171.47	14.7606
174.363	11.2313
177.256	8.56464
180.149	4.92724
183.041	3.19092
185.934	2.83373
188.827	0.332581
191.719	0.469437
194.612	1.36898
197.505	1.39822
200.397	0.578285
203.29	0.363029
206.183	0.391319
209.076	1.39787
211.968	1.6429
214.861	2.75503
217.754	3.66231
220.646	5.44143
223.539	6.26618
226.432	7.31327
229.324	8.68028
232.217	10.4937
235.11	13.0944
238.002	14.5743
240.895	17.5062
243.788	21.7056
246.681	27.2726
249.573	30.0182
252.466	29.621
255.359	22.8067
258.251	15.6456
261.144	12.5284
264.037	10.1644
266.93	8.02803
269.822	6.12595
272.715	5.52714
275.608	4.53062
278.5	3.30756
281.393	2.99018
284.286	2.88375
287.178	2.25268
290.071	2.53396
292.964	1.73875
295.856	1.66578
298.749	1.40738
301.642	0.170109
304.535	0.253227
307.427	0.547096
310.32	0.051735
313.213	0.638351
316.105	0.284084
318.998	0.309883
321.891	0.146885
324.784	0.234367
327.676	0.218315
330.569	0.613178
333.462	0.507065
336.354	0.802998
339.247	0.091614
342.14	0.683025
345.032	0.868805
347.925	1.19032
350.818	1.24204
353.711	0.402008
356.603	0.334652
359.496	0.227005
362.389	0.762806
365.281	0.305775
368.174	0.881184
371.067	1.36519
373.959	2.45538
376.852	3.81308
379.745	4.74512
382.637	6.41588
385.53	8.0235
388.423	8.63434
391.316	8.25176
394.208	6.89457
397.101	4.85387
399.994	2.34317
402.886	1.40824
405.779	1.45152
408.672	1.07136
411.565	0.704044
414.457	0.358067
417.35	0.651245
420.243	0.640015
423.135	0.19104
426.028	0.074375
428.921	0.262173
431.813	0.035141
434.706	0.204697
437.599	0.050503
440.492	0.107189
443.384	0.416874
446.277	0.032993
449.17	0.279423
452.062	0.115036
454.955	0.144268
457.848	0.328323
460.74	0.261456
463.633	0.334938
466.526	0.14698
469.419	0.061584
472.311	0.647667
475.204	0.732952
478.097	0.385395
480.989	0.378044
483.882	0.390305
486.775	1.1996
489.668	1.07727
492.56	1.9218
495.453	2.23591
498.346	2.74545
501.238	3.79048
504.131	4.58923
507.024	4.53599
509.916	5.35928
512.809	6.12707
515.702	6.90945
518.595	8.53015
521.487	8.75488
524.38	8.90508
527.273	9.59629
530.165	11.5603
533.058	15.3607
535.951	20.3098
538.843	26.9721
541.736	35.1185
544.629	44.1783
547.521	54.5793
550.414	61.1936
553.307	65.6568
556.2	76.4515
559.092	89.8081
561.985	90.81
564.878	63.5838
567.77	33.4653
570.663	17.9684
573.556	11.3698
576.448	9.25362
579.341	8.42187
582.234	8.25557
585.127	6.98765
588.019	7.94041
590.912	4.9618
593.805	3.71623
596.697	2.38987
599.59	2.08157
602.483	1.04796
605.375	0.349911
608.268	0.141388
611.161	0.189964
614.054	0.230579
616.946	0.043613
619.839	0.436028
622.732	0.011116
625.625	0.366104
628.517	0.03392
631.41	0.026821
634.303	0.009926
637.195	0.399429
640.088	0.371353
642.981	1.53308
645.873	0.672775
648.766	0.515121
651.659	0.869019
654.552	0.560524
657.444	0.823727
660.337	1.21597
663.23	0.89476
666.122	0.633141
669.015	0.798801
671.908	0.998512
674.8	1.30361
677.693	0.631802
680.586	1.42262
683.479	1.04443
686.371	0.76738
689.264	1.061
692.157	0.469749
695.049	0.095486
697.942	0.550011
700.835	0.059406
703.727	0.70451
706.62	0.20042
709.513	0.271355
712.405	0.60701
715.298	0.137348
718.191	0.16357
721.084	0.018059
723.976	0.309387
726.869	0.151962
729.762	0.488335
732.654	0.168304
735.547	0.571648
738.44	0.652641
741.332	0.148258
744.225	0.704311
747.118	0.943661
750.011	0.427959
752.903	0.029297
755.796	0.341251
758.689	0.444347
761.581	0.355755
764.474	0.657913
767.367	0.659687
770.26	0.864647
773.152	1.06212
776.045	1.08822
778.938	1.97334
781.83	2.75851
784.723	4.12791
787.616	5.62825
790.508	4.54566
793.401	2.21002
796.294	1.84193
799.187	0.944668
802.079	0.745949
804.972	0.805279
807.865	0.250366
810.757	0.040916
813.65	0.100742
816.543	0.150448
819.435	0.307007
822.328	0.42313
825.221	0.565819
828.114	0.578953
831.006	0.332649
833.899	1.02421
836.792	1.54029
839.684	2.04523
842.577	2.9258
845.47	4.86276
848.362	8.14791
851.255	14.9625
854.148	16.5679
857.04	8.26384
859.933	3.28826
862.826	1.86263
865.719	0.820618
868.611	1.07266
871.504	0.75602
874.397	1.02027
877.289	1.28673
880.182	0.854519
883.075	1.65118
885.967	2.76697
888.86	4.0465
891.753	6.04914
894.646	7.85676
897.538	9.54272
900.431	11.5385
903.324	11.7122
906.216	9.72271
909.109	6.07657
912.002	2.86945
914.894	1.61271
917.787	0.904375
920.68	0.664433
923.573	0.000887
926.465	0.148336
929.358	0.237858
932.251	0.297235
935.143	0.264355
938.036	0.149664
940.929	0.320072
943.822	0.029902
946.714	0.176929
949.607	0.140772
952.5	0.167286
955.392	0.389175
958.285	0.446552
961.178	0.128397
964.07	0.648754
966.963	0.180862
969.856	0.717566
972.749	1.16176
975.641	0.06366
978.534	0.479975
981.427	1.10406
984.319	0.594782
987.212	0.77103
990.105	0.450584
992.997	0.763378
995.89	0.545481
998.783	0.592184
1001.68	0.44627
1004.57	0.737627
1007.46	0.737795
1010.35	0.631802
1013.25	0.698349
1016.14	0.881475
1019.03	0.578585
1021.92	0.90189
1024.82	0.248129
1027.71	0.40863
1030.6	0.713705
1033.49	1.46622
1036.39	1.02083
1039.28	0.5557
1042.17	0.989075
1045.07	0.52389
1047.96	1.02245
1050.85	0.516115
1053.74	0.908422
1056.64	1.39255
1059.53	1.24823
1062.42	0.924236
1065.32	0.899427
1068.21	0.971169
1071.1	0.687717
1073.99	1.11538
1076.89	0.593742
1079.78	0.43203
1082.67	0.979303
1085.56	0.129236
1088.46	0.339529
1091.35	0.321487
1094.24	0.473991
1097.13	0.26597
1100.03	0.62571
1102.92	0.14352
1105.81	0.889769
1108.71	0.294119
1111.6	0.387508
1114.49	0.214539
1117.38	0.229187
1120.28	0.364262
1123.17	0.587088
1126.06	0.765261
1128.95	0.608866
1131.85	0.564415
1134.74	0.43751
1137.63	0.275267
1140.53	0.101997
1143.42	0.519035
1146.31	0.846518
1149.2	0.626339
1152.1	2.00162
1154.99	0.367615
1157.88	0.508057
1160.77	0.609135
1163.67	0.034372
1166.56	1.00596
1169.45	0.548929
1172.35	0.911747
1175.24	0.512098
1178.13	0.822859
1181.02	0.782959
1183.92	0.957151
1186.81	1.34551
1189.7	1.28199
1192.59	0.506207
1195.49	0.415085
1198.38	0.942461
1201.27	0.242828
1204.16	0.851751
1207.06	0.571993
1209.95	0.78215
1212.84	1.15564
1215.73	0.968424
1218.63	0.278189
1221.52	0.064686
1224.41	0.992844
1227.31	0.369761
1230.2	0.186451
1233.09	0.373198
1235.98	0.595251
1238.88	0.50721
1241.77	0.207041
1244.66	0.809385
1247.56	0.925344
1250.45	1.95579
1253.34	2.58
1256.23	2.74149
1259.13	2.00869
1262.02	0.080797
1264.91	0.310486
1267.8	0.14234
1270.7	0.488161
1273.59	1.01327
1276.48	1.89674
1279.38	1.06728
1282.27	0
