Measurement: Raman, 532 nm, unoriented, Raman Data Processed
Mineral: Antipinite
Rruff sample: R160005
Ideal chemistry: KNa_3_Cu^2+^_2_((C_2_)^6+^O_4_)_4_
Locality: Rowley mine, Maricopa County, Arizona, USA
Source: Danielle Sotomayor and Keith Wentz
Description: Blue euhedral crystals exhibiting hemihedral symmetry. Associated with colorless barite, yellow hedyphane, and orange wulfenite.
Raman shift (cm-1)	intensity
125.26	0
128.635	3.6803
132.009	6.13086
135.384	27.4762
138.759	103.963
142.134	187.788
145.509	236.607
148.883	276.978
152.258	320.099
155.633	355.789
159.008	319.768
162.383	246.645
165.757	229.701
169.132	184.232
172.507	132.815
175.882	106.132
179.257	95.3228
182.632	74.1152
186.006	54.1372
189.381	42.142
192.756	19.3449
196.131	5.66211
199.506	4.28723
202.881	4.85696
206.255	4.96518
209.63	1.31937
213.005	1.79694
216.38	5.26032
219.755	14.0677
223.129	26.4514
226.504	44.4329
229.879	71.4262
233.254	128.11
236.629	213.769
240.004	302.559
243.378	403.391
246.753	567.292
250.128	828.325
253.503	1045.79
256.878	831.062
260.252	451.651
263.627	260.286
267.002	178.271
270.377	134.376
273.752	113.836
277.127	90.2346
280.501	61.1552
283.876	39.1655
287.251	25.0613
290.626	16.3224
294.001	10.4492
297.375	13.5849
300.75	4.57382
304.125	2.46271
307.5	0.444611
310.875	0.218445
314.25	1.15482
317.624	0.949219
320.999	0.926331
324.374	1.38452
327.749	2.53577
331.124	5.0191
334.498	9.7659
337.873	12.9557
341.248	22.157
344.623	32.5515
347.998	36.8184
351.373	33.4481
354.747	20.1932
358.122	10.3288
361.497	8.31775
364.872	7.62125
368.247	6.98608
371.621	7.55142
374.996	8.72919
378.371	9.47894
381.746	13.4735
385.121	20.261
388.495	24.4495
391.87	24.5686
395.245	20.8367
398.62	15.4206
401.995	11.9806
405.37	8.38556
408.744	7.20013
412.119	6.25333
415.494	6.02905
418.869	3.13846
422.244	1.50623
425.618	2.07855
428.993	1.52853
432.368	0.736298
435.743	1.03705
439.118	0.520538
442.493	1.25397
445.867	0.958527
449.242	1.42862
452.617	0.739349
455.992	1.65765
459.367	1.38788
462.741	0.794006
466.116	0.92749
469.491	0.27533
472.866	0.197754
476.241	1.58466
479.615	1.29175
482.99	3.24026
486.365	5.03805
489.74	5.40149
493.115	5.23923
496.49	6.63892
499.864	6.31244
503.239	11.6427
506.614	16.3041
509.989	20.8136
513.364	23.5728
516.739	23.4155
520.113	25.6891
523.488	27.0236
526.863	22.2699
530.238	20.3847
533.613	29.3931
536.987	44.62
540.362	66.2839
543.737	95.7192
547.112	134.787
550.487	174.106
553.861	201.238
557.236	245.525
560.611	322.233
563.986	339.454
567.361	195.916
570.736	88.6815
574.11	58.7985
577.485	60.4462
580.86	71.9277
584.235	86.1264
587.61	93.0735
590.985	89.1071
594.359	63.5687
597.734	37.6125
601.109	21.4728
604.484	10.9757
607.859	6.49951
611.233	3.48538
614.608	1.90311
617.983	1.3663
621.358	0.303284
624.733	0.507324
628.107	1.57932
631.482	1.10196
634.857	0.583801
638.232	0.079041
641.607	5.91647
644.982	0.832825
648.356	1.65192
651.731	4.10126
655.106	1.87268
658.481	3.33719
661.856	2.98471
665.231	4.8598
668.605	4.87515
671.98	5.71252
675.355	5.16333
678.73	3.15585
682.105	4.59149
685.479	7.58533
688.854	3.22952
692.229	2.23984
695.604	5.47357
698.979	2.40054
702.354	0.037354
705.728	0.144196
709.103	3.11862
712.478	2.07593
715.853	1.28708
719.227	0.984619
722.602	0.894409
725.977	1.40595
729.352	1.21945
732.727	2.12106
736.102	4.92166
739.476	2.75555
742.851	1.60779
746.226	0.800262
749.601	1.25952
752.976	1.67416
756.351	1.73202
759.725	2.77603
763.1	2.12726
766.475	3.42902
769.85	6.14392
773.225	11.754
776.599	17.7512
779.974	28.0248
783.349	42.135
786.724	60.4165
790.099	68.7364
793.473	41.432
796.848	21.0243
800.223	12.1904
803.598	5.07928
806.973	2.72583
810.348	1.61768
813.722	1.3038
817.097	2.40909
820.472	1.70618
823.847	0.427643
827.222	2.16153
830.597	2.91898
833.971	3.78677
837.346	6.04349
840.721	6.27371
844.096	8.81281
847.471	12.9499
850.846	25.7299
854.22	39.6219
857.595	24.6854
860.97	14.7392
864.345	4.92657
867.72	4.02371
871.094	2.95258
874.469	2.30814
877.844	1.87561
881.219	2.70636
884.594	4.23511
887.968	6.77527
891.343	9.82019
894.718	14.6255
898.093	19.8121
901.468	25.6099
904.842	28.7531
908.217	22.8072
911.592	11.6571
914.967	3.55875
918.342	1.19486
921.717	0.820007
925.091	2.36514
928.466	0.426697
931.841	0.252411
935.216	0.480988
938.591	0.149902
941.966	0.563293
945.34	0.116608
948.715	1.71802
952.09	2.83215
955.465	1.9266
958.84	2.02856
962.214	1.0007
965.589	2.63696
968.964	1.68018
972.339	1.45282
975.714	3.47217
979.088	3.75815
982.463	3.57617
985.838	1.75089
989.213	3.40582
992.588	3.51126
995.963	3.07883
999.337	1.92224
1002.71	3.41608
1006.09	4.37546
1009.46	2.85068
1012.84	0.989563
1016.21	1.80963
1019.59	2.5437
1022.96	3.01083
1026.34	2.16666
1029.71	4.03607
1033.09	5.10022
1036.46	3.86572
1039.84	4.38965
1043.21	6.73517
1046.59	6.29767
1049.96	5.88159
1053.33	7.30341
1056.71	8.61899
1060.08	7.0806
1063.46	2.97836
1066.83	3.11111
1070.21	3.09933
1073.58	3.54071
1076.96	3.63321
1080.33	2.75891
1083.71	3.64975
1087.08	2.38303
1090.46	0.739136
1093.83	0.55014
1097.21	0.271057
1100.58	2.35642
1103.96	2.67285
1107.33	1.88162
1110.71	1.04571
1114.08	0.54007
1117.46	1.57587
1120.83	5.10855
1124.21	2.94376
1127.58	0.22171
1130.95	1.20972
1134.33	1.02103
1137.7	2.00385
1141.08	1.905
1144.45	3.27399
1147.83	2.86056
1151.2	2.50928
1154.58	2.48196
1157.95	4.11853
1161.33	3.13995
1164.7	2.89319
1168.08	2.91107
1171.45	3.12747
1174.83	9.25726
1178.2	5.60602
1181.58	3.59119
1184.95	4.4169
1188.33	3.92319
1191.7	5.46417
1195.08	6.7941
1198.45	6.53903
1201.83	5.71863
1205.2	3.62726
1208.58	2.08777
1211.95	4.28644
1215.33	3.31216
1218.7	4.0907
1222.08	4.01315
1225.45	1.19788
1228.83	0.428284
1232.2	0.064362
1235.58	0.893616
1238.95	1.5224
1242.32	2.24484
1245.7	4.20789
1249.07	9.16821
1252.45	16.5024
1255.82	28.6154
1259.2	29.0674
1262.57	12.0117
1265.95	3.28809
1269.32	4.8591
1272.7	9.20041
1276.07	19.7046
1279.45	39.7555
1282.82	51.7618
1286.2	34.6086
1289.57	27.2875
1292.95	12.3231
1296.32	3.49741
1299.7	0.123505
