Measurement: Raman, 780 nm, unoriented, Raman Data RAW
Mineral: Aphthitalite
Rruff sample: R050651
Ideal chemistry: K_3_Na(S^6+^O_4_)_2_
Locality: Searles Lake, Trona, San Bernardino County, California, USA
Source: University of Arizona Mineral Museum
Description: Colorless hexagonal crystals displaying P-3m1 space group symmetry, associated with halite.
Raman shift (cm-1)	intensity
92.0254	5586.99
95.4002	5563.64
98.775	5027.36
102.15	4460.2
105.525	4137.51
108.9	3856.47
112.274	3563.27
115.649	3282.82
119.024	3080.81
122.399	2911.26
125.773	2759.72
129.148	2645.68
132.523	2546.74
135.898	2446.13
139.273	2389.34
142.648	2339.88
146.022	2310.36
149.397	2286.19
152.772	2281.85
156.147	2298.19
159.522	2340.03
162.897	2359.31
166.271	2217.17
169.646	2072.88
173.021	1990.37
176.396	1948.92
179.771	1911.92
183.145	1894.45
186.52	1879.18
189.895	1864.24
193.27	1851.65
196.645	1840.66
200.019	1838.44
203.394	1822.91
206.769	1828.21
210.144	1811.99
213.519	1802.94
216.893	1805.21
220.268	1805.37
223.643	1796.29
227.018	1779.85
230.393	1784.88
233.768	1779.84
237.142	1784.2
240.517	1777.72
243.892	1761.57
247.267	1753.48
250.642	1734.23
254.017	1717.42
257.391	1710.31
260.766	1703.07
264.141	1694.25
267.516	1693.71
270.891	1688.26
274.265	1679.82
277.64	1670.41
281.015	1667.48
284.39	1663.4
287.765	1658.79
291.139	1647.85
294.514	1636.69
297.889	1629.07
301.264	1624.66
304.639	1622.56
308.014	1621.63
311.388	1624.1
314.763	1607.3
318.138	1607.12
321.513	1602.52
324.888	1597.37
328.262	1592.9
331.637	1596.54
335.012	1586.48
338.387	1587.6
341.762	1581.26
345.137	1574.33
348.511	1568.2
351.886	1560.94
355.261	1544.3
358.636	1536.89
362.01	1517.89
365.385	1515.89
368.76	1519.94
372.135	1512.97
375.51	1512.38
378.885	1524.56
382.259	1530.27
385.634	1535.17
389.009	1552.18
392.384	1553.28
395.759	1539.92
399.134	1528.89
402.508	1497.92
405.883	1484.06
409.258	1479.48
412.633	1474.58
416.008	1462.36
419.382	1452.17
422.757	1449.97
426.132	1452.64
429.507	1451.34
432.882	1501.22
436.257	1599.52
439.631	1620.46
443.006	1704.35
446.381	1827.82
449.756	2117.64
453.13	2222.55
456.505	1592.77
459.88	1464.01
463.255	1435.02
466.63	1412.64
470.005	1404.85
473.379	1398.32
476.754	1387.97
480.129	1384.88
483.504	1373.73
486.879	1370.46
490.253	1365.02
493.628	1359.17
497.003	1352.13
500.378	1346.31
503.753	1343.92
507.128	1333.88
510.502	1318.49
513.877	1316.86
517.252	1318.69
520.627	1307.86
524.002	1299.22
527.376	1292.59
530.751	1291.38
534.126	1287.25
537.501	1284.61
540.876	1284.2
544.25	1271.79
547.625	1276.26
551	1274.73
554.375	1273.11
557.75	1267.12
561.125	1264.17
564.499	1257.93
567.874	1268.6
571.249	1252.37
574.624	1247.91
577.999	1241.17
581.374	1233.11
584.748	1231.68
588.123	1230.55
591.498	1234.15
594.873	1235.12
598.248	1241.27
601.622	1277.07
604.997	1369.38
608.372	1439.31
611.747	1543.84
615.122	1749.98
618.496	2055.07
621.871	2108.59
625.246	1560.07
628.621	1695.49
631.996	1360.8
635.37	1300.57
638.745	1380.15
642.12	1319.82
645.495	1241.62
648.87	1225.39
652.245	1223.74
655.619	1209.5
658.994	1207.58
662.369	1200.97
665.744	1203.89
669.119	1215.5
672.494	1203.53
675.868	1185.94
679.243	1179.58
682.618	1161.24
685.993	1151.43
689.368	1141.61
692.742	1132.11
696.117	1127.32
699.492	1118.86
702.867	1121.37
706.242	1106.42
709.616	1099.74
712.991	1101.44
716.366	1092.94
719.741	1096.46
723.116	1099.27
726.49	1109
729.865	1110.03
733.24	1126.1
736.615	1134.6
739.99	1111.12
743.365	1083.99
746.739	1077.29
750.114	1074.85
753.489	1077.56
756.864	1071.45
760.239	1077.13
763.614	1068.39
766.988	1065.62
770.363	1057.41
773.738	1056.14
777.113	1046.15
780.487	1043.32
783.862	1041.48
787.237	1051.64
790.612	1055.56
793.987	1076.87
797.362	1104.28
800.736	1145.17
804.111	1198.68
807.486	1248.85
810.861	1272.1
814.236	1280.39
817.611	1329.92
820.985	1362.59
824.36	1357.12
827.735	1332.79
831.11	1314.89
834.485	1309.21
837.859	1306.59
841.234	1278.51
844.609	1235.75
847.984	1193.3
851.359	1147.57
854.734	1124.54
858.108	1105.3
861.483	1088.05
864.858	1077.01
868.233	1065.44
871.607	1060.89
874.982	1050.55
878.357	1041.17
881.732	1037.89
885.107	1028.08
888.482	1023.75
891.856	1025.43
895.231	1028.35
898.606	1019.12
901.981	1014.74
905.356	1003.02
908.731	1007.28
912.105	1012.11
915.48	1028.36
918.855	1015.67
922.23	999.675
925.605	991.482
928.979	999.039
932.354	1008.92
935.729	1004.81
939.104	998.603
942.479	980.414
945.854	973.453
949.228	966.526
952.603	963.583
955.978	970.236
959.353	974.774
962.727	974.836
966.102	983.228
969.477	1013.11
972.852	1080.08
976.227	1226.38
979.602	1792.15
982.976	2377.99
986.351	3198.93
989.726	4827.72
993.101	6863.38
996.476	2717.91
999.851	1404.42
1003.23	1140.94
1006.6	1044.21
1009.98	1000.6
1013.35	970.402
1016.73	950.742
1020.1	927.598
1023.47	912.492
1026.85	914.877
1030.22	926.823
1033.6	944.324
1036.97	965.018
1040.35	978.759
1043.72	948.978
1047.1	921.745
1050.47	905.577
1053.85	902.889
1057.22	895.124
1060.6	902.105
1063.97	905.341
1067.35	927.171
1070.72	975.417
1074.1	1040
1077.47	1119.79
1080.85	1207.8
1084.22	1204.09
1087.6	1034.86
1090.97	943.053
1094.35	920.297
1097.72	903.355
1101.1	919.255
1104.47	953.605
1107.84	1010.02
1111.22	1080.17
1114.59	1081.54
1117.97	995.512
1121.34	930.183
1124.72	885.628
1128.09	854.5
1131.47	840.494
1134.84	833.855
1138.22	829.819
1141.59	834.357
1144.97	830.457
1148.34	822.722
1151.72	823.005
1155.09	807.237
1158.47	803.291
1161.84	810.696
1165.22	811.191
1168.59	807.215
1171.97	813.25
1175.34	827.35
1178.72	857.599
1182.09	910.888
1185.46	945.995
1188.84	931.186
1192.21	873.1
1195.59	840.011
1198.96	830.361
1202.34	846.367
1205.71	849.305
1209.09	829.608
1212.46	843.92
1215.84	858.167
1219.21	883.916
1222.59	898.582
1225.96	915.957
1229.34	921.021
1232.71	907.056
1236.09	889.735
1239.46	885.79
1242.84	865.986
1246.21	866.28
1249.59	866.646
1252.96	860.425
1256.34	857.183
1259.71	834.619
1263.09	821.556
1266.46	815.888
1269.84	807.917
1273.21	813.448
1276.59	811.854
1279.96	825.654
1283.34	833.609
