Measurement: Raman, 780 nm, unoriented, Raman Data RAW
Mineral: Armangite
Rruff sample: R100041
Ideal chemistry: Mn^2+^_26_As^3+^_18_O_50_(CO_3_)(OH)_4_
Locality: Langban, Filipstad, Varmland, Sweden
Source: William W. Pinch
Description: Elongated prismatic transparent brown, associated with green magnussonite R100027, and white nadorite
Measured chemistry: (Mn_25.07_Fe_0.26_Ca_0.09_)_Î£25.42_As_18.38_O_50_(CO_3_)(OH)_4_
Raman shift (cm-1)	intensity
91.5332	879.688
94.908	904.03
98.2828	883.859
101.658	880.503
105.032	913.576
108.407	955.48
111.782	1011.04
115.157	1065.87
118.532	1091.62
121.907	1080.58
125.281	1032.12
128.656	974.618
132.031	917.205
135.406	851.659
138.781	805.065
142.155	758.878
145.53	741.491
148.905	750.193
152.28	776.127
155.655	814.644
159.03	859.078
162.404	922.026
165.779	991.029
169.154	1052.4
172.529	1096.46
175.904	1119.22
179.278	1115.17
182.653	1070.93
186.028	978.996
189.403	865.726
192.778	772.427
196.153	705.227
199.527	646.084
202.902	617.573
206.277	610.049
209.652	622.886
213.027	675.391
216.401	625.823
219.776	543.33
223.151	521.125
226.526	516.494
229.901	520.21
233.275	526.055
236.65	545.419
240.025	562.704
243.4	577.537
246.775	585.143
250.15	580.713
253.524	566.932
256.899	540.075
260.274	509.272
263.649	478.279
267.024	448.958
270.399	425.023
273.773	405.504
277.148	380.397
280.523	363.718
283.898	345.208
287.273	330.702
290.647	320.665
294.022	314.335
297.397	305.178
300.772	299.242
304.147	298.68
307.522	298.344
310.896	302.247
314.271	311.531
317.646	320.963
321.021	325.264
324.396	329.345
327.77	328.261
331.145	323.996
334.52	314.686
337.895	301.93
341.27	283.998
344.644	267.758
348.019	251.142
351.394	241.359
354.769	231.568
358.144	224.506
361.519	221.019
364.893	223.489
368.268	224.494
371.643	229.42
375.018	229.181
378.393	235.46
381.767	237.333
385.142	242.794
388.517	245.607
391.892	248.488
395.267	249.552
398.642	248.462
402.016	246.338
405.391	244.905
408.766	247.033
412.141	251.766
415.516	255.859
418.89	258.645
422.265	265.45
425.64	273.967
429.015	282.455
432.39	287.569
435.765	290.676
439.139	289.188
442.514	285.606
445.889	280.971
449.264	274.431
452.639	268.386
456.014	265.344
459.388	261.98
462.763	267.524
466.138	270.92
469.513	278.557
472.887	285.769
476.262	285.709
479.637	286.02
483.012	292.337
486.387	297.109
489.762	307.012
493.136	312.451
496.511	317.537
499.886	314.106
503.261	306.461
506.636	286.71
510.01	262.773
513.385	241.473
516.76	226.126
520.135	212.486
523.51	204.154
526.885	202.793
530.259	202.327
533.634	203.795
537.009	205.984
540.384	208.355
543.759	209.438
547.134	211.956
550.508	210.239
553.883	211.282
557.258	206.73
560.633	204.818
564.008	205.77
567.382	205.313
570.757	206.558
574.132	208.363
577.507	209.666
580.882	210.177
584.256	210.764
587.631	211.927
591.006	211.878
594.381	214.143
597.756	218.377
601.131	226.237
604.505	237.198
607.88	247.105
611.255	262.92
614.63	278.055
618.005	295.411
621.38	310.425
624.754	320.665
628.129	327.627
631.504	331.712
634.879	333.643
638.254	330.588
641.628	328.95
645.003	326.115
648.378	324.724
651.753	320.864
655.128	321.894
658.503	327.284
661.877	331.795
665.252	341.896
668.627	351.084
672.002	354.007
675.377	356.562
678.751	356.392
682.126	356.916
685.501	362.453
688.876	372.689
692.251	392.096
695.625	416.991
699	452.469
702.375	484.203
705.75	509.358
709.125	527.125
712.5	529.482
715.874	520.063
719.249	508.946
722.624	503.809
725.999	497.133
729.374	504.881
732.749	514.138
736.123	518.693
739.498	520.076
742.873	532.316
746.248	541.398
749.623	562.722
752.997	598.628
756.372	650.014
759.747	743.311
763.122	869.33
766.497	1036.68
769.871	1253.03
773.246	1506.98
776.621	1749.78
779.996	1914.85
783.371	1998.03
786.745	1968.06
790.12	1736.81
793.495	1359.53
796.87	989.683
800.245	722.086
803.62	550.648
806.994	445.539
810.369	380.36
813.744	336.303
817.119	319.108
820.494	308.485
823.869	301.464
827.243	295.761
830.618	285.869
833.993	256.471
837.368	222.305
840.743	193.112
844.117	171.082
847.492	154.62
850.867	146.563
854.242	137.447
857.617	130.494
860.991	127.622
864.366	121.959
867.741	118.259
871.116	114.794
874.491	112.253
877.866	110.301
881.24	106.448
884.615	105.821
887.99	103.783
891.365	100.55
894.74	99.5714
898.115	97.1411
901.489	96.8573
904.864	94.9669
908.239	93.6635
911.614	92.8423
914.989	91.8178
918.363	90.4539
921.738	91.8864
925.113	88.5113
928.488	88.0402
931.863	87.5854
935.237	86.5586
938.612	85.459
941.987	83.9982
945.362	83.5927
948.737	81.8826
952.112	81.8447
955.486	81.7761
958.861	78.4267
962.236	79.5637
965.611	79.102
968.986	77.9642
972.361	78.5213
975.735	77.1139
979.11	75.0088
982.485	77.1148
985.86	76.391
989.235	76.3991
992.609	75.9406
995.984	76.6962
999.359	75.6351
1002.73	75.5587
1006.11	74.0457
1009.48	73.8893
1012.86	74.6267
1016.23	72.5633
1019.61	73.2686
1022.98	72.2367
1026.36	71.5938
1029.73	71.5529
1033.11	71.416
1036.48	68.5284
1039.86	70.2571
1043.23	71.3064
1046.61	70.9866
1049.98	71.3749
1053.36	70.1937
1056.73	72.2489
1060.11	70.0344
1063.48	69.4269
1066.86	68.2682
1070.23	68.4978
1073.61	67.3746
1076.98	68.7776
1080.36	69.638
1083.73	72.1158
1087.1	78.6719
1090.48	86.2217
1093.85	97.0083
1097.23	110.079
1100.6	119.77
1103.98	122.384
1107.35	119.626
1110.73	105.87
1114.1	82.4971
1117.48	69.7197
1120.85	68.5554
1124.23	67.0164
1127.6	68.0073
1130.98	67.7223
1134.35	66.6643
1137.73	67.3111
1141.1	67.4413
1144.48	65.6575
1147.85	66.6707
1151.23	65.3638
1154.6	64.1995
1157.97	65.4091
1161.35	66.0424
1164.72	66.5301
1168.1	65.607
1171.47	65.9054
1174.85	66.8927
1178.22	64.6779
1181.6	65.9353
1184.97	66.1869
1188.35	65.9434
1191.72	65.386
1195.1	65.5371
1198.47	64.4364
1201.85	65.8362
1205.22	65.8471
1208.6	64.3459
1211.97	65.5346
1215.35	65.6824
1218.72	65.432
1222.1	64.697
1225.47	66.9229
1228.85	64.5338
1232.22	65.2087
1235.6	65.9632
1238.97	65.0858
1242.35	65.4076
1245.72	67.0193
1249.1	65.4166
1252.47	65.9543
1255.85	65.1478
1259.22	65.5476
1262.6	65.8859
1265.97	66.9674
1269.34	66.8903
1272.72	67.7004
1276.09	67.8072
1279.47	67.2568
1282.84	68.1739
