Measurement: Raman, 780 nm, unoriented, Raman Data RAW
Mineral: Arsentsumebite
Rruff sample: R070629
Ideal chemistry: Pb^2+^_2_Cu^2+^(As^5+^O_4_)(S^6+^O_4_)(OH)
Locality: Tsumeb mine, Tsumeb, Otavi District, Oshikoto, Namibia
Source: Royal Ontario Museum
Description: Pale green tabular crystals coating white anglesite
Raman shift (cm-1)	intensity
113.256	14686
116.631	14658.4
120.006	14546.5
123.38	14306.8
126.755	14271.2
130.13	14035.5
133.505	13728.5
136.88	13296.7
140.255	13220.4
143.629	12896.8
147.004	12772.8
150.379	12532.7
153.754	12536.3
157.129	12272
160.503	11999.6
163.878	12033
167.253	11664.4
170.628	11417.9
174.003	11178.5
177.377	11008.8
180.752	10909.1
184.127	10732.8
187.502	10425.8
190.877	10283
194.251	10098.5
197.626	9913.68
201.001	9775
204.376	9741.86
207.751	9503.8
211.126	9432.49
214.5	9312.87
217.875	9418.6
221.25	9373
224.625	9230.1
228	9222.1
231.375	9227.89
234.749	9204.12
238.124	9152.63
241.499	9137.34
244.874	8920.46
248.249	8945.64
251.623	8989.31
254.998	8823.3
258.373	8875.8
261.748	8964.97
265.123	8756.13
268.498	8933.15
271.872	9012.07
275.247	9019.31
278.622	9065.4
281.997	9218.54
285.372	9264.25
288.746	9413.72
292.121	9629.76
295.496	9867.81
298.871	10074.8
302.246	10347.5
305.62	10790.7
308.995	10943.2
312.37	10987.1
315.745	11233.4
319.12	11172.4
322.495	11164.4
325.869	10980.2
329.244	10774.7
332.619	10686.8
335.994	10382.3
339.369	10144.9
342.743	9802.41
346.118	9439.9
349.493	9142.88
352.868	8775.28
356.243	8526.63
359.618	8389.54
362.992	8251.81
366.367	7965.98
369.742	7982.8
373.117	7721.73
376.492	7776.54
379.866	7698.41
383.241	7607.51
386.616	7775.58
389.991	7636.98
393.366	7383.94
396.74	7355.34
400.115	7541.76
403.49	7213.22
406.865	7352.96
410.24	7240.55
413.615	7185.08
416.989	7282.15
420.364	7216.29
423.739	7385.02
427.114	7543.92
430.489	8036.2
433.863	8353.34
437.238	8706.13
440.613	8869.03
443.988	8624.76
447.363	8378.48
450.738	7718.35
454.112	7449.94
457.487	7320.62
460.862	7055.31
464.237	6859.21
467.612	6787.8
470.986	6621.75
474.361	6595.54
477.736	6499.04
481.111	6358.55
484.486	6358.96
487.861	6392.41
491.235	6204.36
494.61	6283.41
497.985	6276.17
501.36	6280.39
504.735	6201.52
508.109	6143.14
511.484	6163.21
514.859	6067.35
518.234	5903.91
521.609	6033.15
524.984	6104.65
528.358	6000.55
531.733	5918.77
535.108	5935.27
538.483	5706.09
541.858	5824.15
545.232	5787
548.607	5853.42
551.982	5856.75
555.357	5740.61
558.732	5857.81
562.106	5883.22
565.481	5747.11
568.856	5786.83
572.231	5804.06
575.606	5883.64
578.981	5713
582.355	5920.58
585.73	5905.32
589.105	5736.33
592.48	5787.32
595.855	5876.23
599.23	5874.34
602.604	5957.65
605.979	5864.54
609.354	5890.28
612.729	5849.54
616.104	5917.31
619.478	5793.11
622.853	5707.44
626.228	5695.54
629.603	5682.01
632.978	5650.04
636.352	5683.84
639.727	5720.94
643.102	5736.42
646.477	5656.69
649.852	5684.88
653.227	5697.06
656.601	5659.78
659.976	5766.06
663.351	5693.87
666.726	5614.64
670.101	5644.31
673.476	5740.88
676.85	5771.83
680.225	5819.51
683.6	5780.38
686.975	5747.96
690.35	5798.72
693.724	5801.37
697.099	5793.86
700.474	5830.71
703.849	5841.86
707.224	5896.13
710.598	5845.97
713.973	5882.52
717.348	5804.78
720.723	5775.88
724.098	5969.2
727.472	5923.65
730.847	5967.97
734.222	5999.24
737.597	5984.47
740.972	6122.51
744.347	6059.51
747.721	6287.55
751.096	6300.02
754.471	6517.34
757.846	6687.53
761.221	6745.63
764.596	6950.98
767.97	7181.94
771.345	7376.78
774.72	7644.81
778.095	7888.83
781.47	8114.56
784.844	8854.23
788.219	9462.77
791.594	10228.2
794.969	11005.3
798.344	11808.1
801.718	12405.9
805.093	12714.7
808.468	12614.4
811.843	12265.3
815.218	11954.9
818.593	11694.7
821.967	11032.9
825.342	10350.7
828.717	9760.61
832.092	9189.51
835.467	8842.83
838.841	8340.28
842.216	7949.15
845.591	7566.6
848.966	7225.14
852.341	6995.22
855.716	6633.97
859.09	6414.3
862.465	6412.04
865.84	6157.06
869.215	6100.92
872.59	6021.23
875.964	6003.55
879.339	5876.52
882.714	5794.07
886.089	5787.25
889.464	5726.24
892.838	5704.99
896.213	5749.46
899.588	5710.91
902.963	5530.11
906.338	5568.65
909.713	5554.97
913.087	5551.02
916.462	5552.25
919.837	5459.77
923.212	5457.04
926.587	5561.33
929.962	5598.03
933.336	5571.34
936.711	5726.51
940.086	5907.33
943.461	6051.51
946.836	6360.22
950.21	6739.11
953.585	7242.4
956.96	7975.32
960.335	8688.98
963.71	9240.82
967.085	8903.76
970.459	8504.37
973.834	8115.02
977.209	7306.97
980.584	6856.85
983.959	6061.09
987.333	5848.27
990.708	5765.75
994.083	5538.41
997.458	5492.26
1000.83	5328.69
1004.21	5395.22
1007.58	5328.12
1010.96	5411.69
1014.33	5294.38
1017.71	5208.83
1021.08	5278.79
1024.46	5247.9
1027.83	5345.5
1031.21	5314.23
1034.58	5182.99
1037.96	5324.44
1041.33	5248.41
1044.7	5226.9
1048.08	5156.77
1051.45	5345.15
1054.83	5282.33
1058.2	5196.84
1061.58	5234.66
1064.95	5238.22
1068.33	5321.79
1071.7	5306.61
1075.08	5228.47
1078.45	5291.42
1081.83	5252.06
1085.2	5286.48
1088.58	5156.23
1091.95	5118.57
1095.33	5096.51
1098.7	5151.97
1102.08	5167.73
1105.45	5194.71
1108.83	5139.15
1112.2	5134.78
1115.58	5222.07
1118.95	5126.36
1122.33	5172.12
1125.7	5184.16
1129.08	5164.15
1132.45	5164.99
1135.83	5203.39
1139.2	5173.09
1142.58	5108.87
1145.95	5250.46
1149.33	5253.08
1152.7	5160.53
1156.07	5260.07
1159.45	5107.67
1162.82	5121.04
1166.2	5043.41
1169.57	5154.51
1172.95	5069.93
1176.32	5093.54
1179.7	4965.32
1183.07	5032.9
1186.45	5103.23
1189.82	5174.42
1193.2	5014.68
1196.57	5072.95
1199.95	5043.28
1203.32	5138.09
1206.7	5098.53
1210.07	5095.91
1213.45	5045.66
1216.82	5027.11
1220.2	5074.12
1223.57	5060.31
1226.94	5089.47
1230.32	4935.63
1233.69	5025.7
1237.07	5058.65
1240.44	5038.33
1243.82	5004.42
1247.19	4884.77
1250.57	5107.43
1253.94	4969.01
1257.32	4964.39
1260.69	4995.62
1264.07	5062.27
1267.44	5044.74
1270.82	5059.95
1274.19	5144.21
1277.57	5000.25
1280.94	5066.22
1284.32	5009.1
