Measurement: Raman, 785 nm, unoriented, Raman Data RAW
Mineral: Asbecasite
Rruff sample: R060719
Ideal chemistry: Ca_3_Ti^4+^As^3+^_6_Be_2_Si_2_O_20_
Locality: Binntal, Wallis, Switzerland
Source: Bob Jenkins
Description: Brownish-yellow transparent fragments associated with dark green chamosite
Raman shift (cm-1)	intensity
121.046	4575.69
123.939	8849.37
126.831	17783.5
129.724	24086.4
132.617	28450.6
135.509	26586.2
138.402	26899.6
141.295	32907.4
144.188	44275.2
147.08	55879.6
149.973	63570.2
152.866	65976.5
155.758	66507.5
158.651	67756.7
161.544	70273
164.436	76838.8
167.329	82201.5
170.222	86068.8
173.115	88608.4
176.007	91233
178.9	94117.5
181.793	98853.7
184.685	102920
187.578	99149
190.471	96991.3
193.363	98013.1
196.256	101029
199.149	105526
202.042	110904
204.934	116126
207.827	118248
210.72	120200
213.612	124126
216.505	127555
219.398	129549
222.29	129728
225.183	128395
228.076	126836
230.969	126185
233.861	126894
236.754	128952
239.647	131325
242.539	135090
245.432	139291
248.325	144086
251.217	150470
254.11	157828
257.003	165457
259.896	173762
262.788	181276
265.681	186896
268.574	190585
271.466	191823
274.359	192254
277.252	192054
280.144	191435
283.037	189075
285.93	185153
288.823	178952
291.715	171822
294.608	165776
297.501	160256
300.393	156942
303.286	154370
306.179	153188
309.071	152663
311.964	153116
314.857	155122
317.75	159451
320.642	165844
323.535	173111
326.428	178481
329.32	177247
332.213	170171
335.106	160637
337.998	153209
340.891	148444
343.784	145258
346.677	139913
349.569	135300
352.462	132092
355.355	130040
358.247	128510
361.14	127965
364.033	127826
366.925	128187
369.818	128585
372.711	127439
375.603	125144
378.496	122315
381.389	119869
384.282	116835
387.174	114796
390.067	112922
392.96	111701
395.852	110852
398.745	109459
401.638	107763
404.53	106317
407.423	104590
410.316	103223
413.209	102633
416.101	102072
418.994	102218
421.887	101886
424.779	102508
427.672	102957
430.565	103956
433.457	104843
436.35	105760
439.243	106194
442.136	105963
445.028	105282
447.921	104467
450.814	102884
453.706	100331
456.599	97757.1
459.492	95669.8
462.384	94105
465.277	93314.5
468.17	92448.1
471.063	91341.9
473.955	90289.7
476.848	88865.1
479.741	87547.1
482.633	86213.6
485.526	85194.6
488.419	83855.4
491.311	81987.3
494.204	79924
497.097	77579.7
499.99	75181.7
502.882	73178.8
505.775	71419.3
508.668	70169.6
511.56	68937
514.453	68593.2
517.346	68146.2
520.239	67978.5
523.131	67487.6
526.024	65823.9
528.917	64145.8
531.809	62450
534.702	61478.1
537.595	60976.8
540.487	60639.2
543.38	60301.7
546.273	60081.3
549.166	59587
552.058	59279.8
554.951	58996.6
557.844	58716
560.736	58744.8
563.629	58569.7
566.522	57523.5
569.414	55555.4
572.307	53766
575.2	52461.1
578.093	51310.8
580.985	50783.8
583.878	49991.4
586.771	49073.7
589.663	47826
592.556	46602.6
595.449	45570.5
598.341	44670
601.234	44083.7
604.127	43493.8
607.019	43075.3
609.912	42780
612.805	42692.8
615.698	42303.6
618.59	42040.4
621.483	41673.7
624.376	41578.8
627.268	41556.6
630.161	41630.5
633.054	41798.5
635.946	41685.5
638.839	41311.6
641.732	40846
644.625	39968.5
647.517	39238.6
650.41	38430.8
653.303	37760.6
656.195	37204.3
659.088	36845.4
661.981	36413.7
664.873	36247.7
667.766	36281.9
670.659	36577.9
673.552	36992.4
676.444	37482.5
679.337	37997.1
682.23	38412.4
685.122	38465
688.015	37952
690.908	37352.9
693.8	36664.3
696.693	35809.5
699.586	34881.7
702.479	33687.4
705.371	32514.4
708.264	31061.3
711.157	30140.7
714.049	29220.5
716.942	28621.1
719.835	27984.4
722.727	27553.5
725.62	27178.4
728.513	26480.2
731.406	26292.2
734.298	26131.7
737.191	25870.3
740.084	25712.2
742.976	25557.8
745.869	25325.1
748.762	25188.9
751.654	25002.9
754.547	24896.9
757.44	24846.6
760.333	24449.6
763.225	23685
766.118	22943.6
769.011	22297.6
771.903	21915.7
774.796	21742.7
777.689	21671
780.581	21683
783.474	21770.4
786.367	21914.5
789.26	22066.8
792.152	21960.4
795.045	21993.1
797.938	21973.2
800.83	21876.5
803.723	21854
806.616	21673.2
809.508	21531.4
812.401	21236.9
815.294	20913
818.187	20725.2
821.079	20711.5
823.972	20927.7
826.865	21363.4
829.757	21524.3
832.65	20594.8
835.543	19218.8
838.435	18281.6
841.328	17799.5
844.221	17458
847.114	17175.8
850.006	17012
852.899	16879.6
855.792	16728.5
858.684	16669.1
861.577	16587.7
864.47	16494.7
867.362	16426.2
870.255	16511.1
873.148	16312.4
876.041	16371.2
878.933	16496.6
881.826	16584.9
884.719	16475.3
887.611	16310
890.504	16198.4
893.397	16054.4
896.289	16030.4
899.182	15914
902.075	15991.7
904.968	15844.8
907.86	15847.9
910.753	15808.5
913.646	15908.8
916.538	15726.5
919.431	15712.7
922.324	15636.8
925.216	15622.9
928.109	15735.7
931.002	15603.5
933.895	15699
936.787	15755.6
939.68	15691.5
942.573	15700.9
945.465	15804
948.358	15764.8
951.251	15671.9
954.143	15693.2
957.036	15719
959.929	15615.3
962.822	15672.5
965.714	15667.3
968.607	15688
971.5	15815.1
974.392	15996.7
977.285	15915.1
980.178	15988.2
983.07	16000.2
985.963	16146.9
988.856	16241.7
991.749	16258.9
994.641	16330.6
997.534	16584.9
1000.43	16725.1
1003.32	16909.1
1006.21	16906.4
1009.11	17152.7
1012	17224.1
1014.89	17347.6
1017.78	17519.3
1020.68	17574.8
1023.57	17847.3
1026.46	18051.1
1029.35	18334.4
1032.25	18553.5
1035.14	18755.3
1038.03	19004.8
1040.92	19187.5
1043.82	19500.2
1046.71	19652.2
1049.6	19852.1
1052.49	20187.5
1055.39	20493.3
1058.28	20702.6
1061.17	21058.7
1064.07	21291.1
1066.96	21628.8
1069.85	21985.1
1072.74	22563.5
1075.64	23014.6
1078.53	23596
1081.42	24067.7
1084.32	24717.2
1087.21	25401.2
1090.1	26054.5
1092.99	26966.3
1095.89	27777.4
1098.78	28756.4
1101.67	29637.1
1104.56	30442.6
1107.46	31516.1
1110.35	32584.1
1113.24	33808.4
1116.13	35047.2
1119.03	36342.9
1121.92	37833.5
1124.81	39597.6
1127.7	41720.9
1130.6	44474.5
1133.49	47742.7
1136.38	51729.6
1139.28	56888.5
1142.17	62878.5
1145.06	70196.2
1147.95	78799.5
1150.85	88671.8
1153.74	100042
1156.63	113286
1159.53	128532
1162.42	146866
1165.31	169094
1168.2	197361
1171.1	234324
1173.99	280980
1176.88	337961
1179.77	399635
1182.67	457053
1185.56	503625
1188.45	533634
1191.35	550698
1194.24	549595
1197.13	539489
1200.02	519390
1202.92	492772
1205.81	461747
1208.7	428132
1211.59	392064
1214.49	355141
1217.38	318034
1220.27	281435
1223.16	249146
1226.06	221607
1228.95	198460
1231.84	179551
1234.73	164565
1237.63	152842
1240.52	143922
1243.41	136399
1246.31	130276
1249.2	125868
1252.09	122100
1254.98	119545
1257.88	117941
