Measurement: Raman, 532 nm, unoriented, Raman Data Processed
Mineral: Ashburtonite
Rruff sample: R200010
Ideal chemistry: HPb^2+^_4_Cu^2+^_4_(Si_4_O_12_)(HCO_3_)_4_(OH)_4_Cl
Locality: Rowley mine, Maricopa County, Arizona, USA
Source: Bruce Murphy
Description: Sprays of blue prismatic or acicular crystals, associated with calendonite, cerussite.
Raman shift (cm-1)	intensity
88.1367	0
91.5115	20.7766
94.8863	14.1071
98.2612	6.72705
101.636	23.5566
105.011	87.0348
108.386	192.581
111.76	310.136
115.135	417.052
118.51	541.792
121.885	637.18
125.26	756.737
128.635	867.296
132.009	995.081
135.384	1130.01
138.759	1239.98
142.134	1300.74
145.509	1293.66
148.883	1250.21
152.258	1139.29
155.633	1025.82
159.008	880.973
162.383	757.583
165.757	645.001
169.132	544.027
172.507	462.981
175.882	403.111
179.257	337.968
182.632	293.782
186.006	255.068
189.381	216.301
192.756	184.726
196.131	166.002
199.506	130.09
202.881	106.685
206.255	95.3613
209.63	91.3285
213.005	87.204
216.38	72.0615
219.755	57.7993
223.129	39.0056
226.504	25.1457
229.879	14.5561
233.254	8.47937
236.629	5.05182
240.004	6.52173
243.378	4.12262
246.753	3.16229
250.128	2.01379
253.503	0.610657
256.878	2.33685
260.252	7.34992
263.627	12.1649
267.002	10.1553
270.377	8.3855
273.752	6.40277
277.127	7.32989
280.501	5.65454
283.876	11.1317
287.251	16.8406
290.626	40.7619
294.001	67.338
297.375	99.2191
300.75	142.008
304.125	161.302
307.5	142.364
310.875	124.525
314.25	103.625
317.624	99.5358
320.999	98.579
324.374	82.5658
327.749	65.0446
331.124	43.26
334.498	23.1233
337.873	3.42499
341.248	5.0221
344.623	7.70502
347.998	7.61926
351.373	7.02771
354.747	26.8599
358.122	46.5682
361.497	73.364
364.872	106.702
368.247	138.449
371.621	169.621
374.996	176.173
378.371	176.725
381.746	165.58
385.121	149.025
388.495	128.897
391.87	98.8533
395.245	94.0923
398.62	76.3735
401.995	73.83
405.37	77.762
408.744	95.2987
412.119	122.204
415.494	168.53
418.869	189.633
422.244	206.956
425.618	215.322
428.993	222.006
432.368	256.772
435.743	287.014
439.118	324.135
442.493	356.537
445.867	370.342
449.242	349.884
452.617	279.326
455.992	217.328
459.367	165.321
462.741	127.625
466.116	100.446
469.491	85.8518
472.866	72.3939
476.241	55.5311
479.615	45.7164
482.99	25.2237
486.365	13.2084
489.74	3.0072
493.115	6.39581
496.49	8.63788
499.864	11.803
503.239	1.7561
506.614	0.576599
509.989	10.6312
513.364	16.0661
516.739	23.1802
520.113	48.5156
523.488	58.2927
526.863	69.6195
530.238	78.2424
533.613	74.2773
536.987	73.5922
540.362	78.9408
543.737	74.864
547.112	67.2324
550.487	64.7814
553.861	67.5112
557.236	59.6852
560.611	53.36
563.986	52.955
567.361	43.3098
570.736	35.7016
574.11	42.519
577.485	50.9742
580.86	55.8265
584.235	56.4313
587.61	62.5239
590.985	57.3126
594.359	51.2779
597.734	51.4722
601.109	58.7334
604.484	64.0063
607.859	61.5924
611.233	67.1536
614.608	68.8145
617.983	77.2587
621.358	69.1568
624.733	70.8647
628.107	47.3684
631.482	39.5763
634.857	24.6484
638.232	11.9019
641.607	5.36432
644.982	3.4259
648.356	1.23431
651.731	4.59558
655.106	0.973877
658.481	4.41553
661.856	1.89441
665.231	2.67896
668.605	4.37408
671.98	6.46497
675.355	0.810364
678.73	0.943359
682.105	3.39453
685.479	5.84558
688.854	0.980286
692.229	4.03638
695.604	5.49432
698.979	6.40649
702.354	0.673096
705.728	2.09015
709.103	3.88153
712.478	7.94861
715.853	11.3275
719.227	6.95648
722.602	2.52405
725.977	3.26227
729.352	7.45856
732.727	10.1566
736.102	4.10992
739.476	8.52972
742.851	10.8173
746.226	18.9632
749.601	14.3242
752.976	20.2067
756.351	25.2578
759.725	25.2058
763.1	26.3438
766.475	32.1146
769.85	38.6641
773.225	54.268
776.599	80.4052
779.974	127.362
783.349	179.533
786.724	197.141
790.099	152.749
793.473	103.503
796.848	67.7988
800.223	51.552
803.598	43.7865
806.973	34.338
810.348	27.3667
813.722	24.1677
817.097	21.0345
820.472	21.7475
823.847	16.5007
827.222	18.8193
830.597	16.3435
833.971	23.785
837.346	24.9627
840.721	13.4653
844.096	16.0125
847.471	17.7539
850.846	13.3019
854.22	14.9404
857.595	13.7935
860.97	12.1669
864.345	4.34992
867.72	7.97144
871.094	4.93646
874.469	4.50793
877.844	3.44928
881.219	3.79462
884.594	2.84259
887.968	0.673645
891.343	7.81146
894.718	6.97058
898.093	0.181885
901.468	3.08057
904.842	3.37537
908.217	3.55511
911.592	2.38385
914.967	2.5332
918.342	3.90759
921.717	4.2793
925.091	9.56897
928.466	9.74152
931.841	24.1431
935.216	34.2686
938.591	48.5837
941.966	65.397
945.34	84.397
948.715	117.222
952.09	154.742
955.465	183.439
958.84	252.456
962.214	381.597
965.589	656.862
968.964	1157.89
972.339	1919.35
975.714	2157.34
979.088	1355.95
982.463	644.335
985.838	331.132
989.213	202.044
992.588	124.156
995.963	77.5296
999.337	50.0806
1002.71	28.4008
1006.09	23.2969
1009.46	3.30621
1012.84	5.354
1016.21	6.3927
1019.59	5.39331
1022.96	6.32794
1026.34	2.42944
1029.71	0.849731
1033.09	20.9374
1036.46	66.7634
1039.84	166.717
1043.21	296.209
1046.59	294.665
1049.96	160.878
1053.33	69.6937
1056.71	59.9252
1060.08	63.4992
1063.46	56.6311
1066.83	68.5165
1070.21	74.949
1073.58	82.702
1076.96	85.6619
1080.33	86.8658
1083.71	89.3367
1087.08	100.369
1090.46	102.054
1093.83	107.044
1097.21	114.019
1100.58	112.682
1103.96	110.779
1107.33	102.593
1110.71	93.8591
1114.08	89.847
1117.46	85.6613
1120.83	83.1334
1124.21	72.2524
1127.58	55.4642
1130.95	42.4798
1134.33	50.8619
1137.7	40.1085
1141.08	34.0096
1144.45	28.7137
1147.83	24.5203
1151.2	24.0473
1154.58	18.95
1157.95	21.0121
1161.33	16.1722
1164.7	10.0437
1168.08	7.56372
1171.45	1.71887
1174.83	10.1118
1178.2	4.34454
1181.58	1.81177
1184.95	1.39673
1188.33	4.9306
1191.7	2.67267
1195.08	0.270142
1198.45	1.23291
1201.83	0.200012
1205.2	1.63428
1208.58	4.70465
1211.95	1.15021
1215.33	8.05865
1218.7	6.12451
1222.08	9.36999
1225.45	4.09836
1228.83	7.28531
1232.2	6.20288
1235.58	7.33279
1238.95	3.40784
1242.32	11.0313
1245.7	8.01025
1249.07	12.4046
1252.45	11.9927
1255.82	15.1981
1259.2	12.4099
1262.57	14.865
1265.95	3.50857
1269.32	6.63919
1272.7	11.1922
1276.07	7.16303
1279.45	7.26279
1282.82	3.70599
1286.2	0.394623
1289.57	5.35483
1292.95	6.88767
1296.32	2.28314
1299.7	1.70145
