Measurement: Raman, 780 nm, unoriented, Raman Data Processed
Mineral: Ashburtonite
Rruff sample: R200010
Ideal chemistry: HPb^2+^_4_Cu^2+^_4_(Si_4_O_12_)(HCO_3_)_4_(OH)_4_Cl
Locality: Rowley mine, Maricopa County, Arizona, USA
Source: Bruce Murphy
Description: Sprays of blue prismatic or acicular crystals, associated with calendonite, cerussite.
Raman shift (cm-1)	intensity
124.705	0
128.08	6.79443
131.455	18.4373
134.829	31.7634
138.204	46.4111
141.579	50.9607
144.954	56.7924
148.329	59.3347
151.704	64.9616
155.078	62.3781
158.453	44.8196
161.828	33.4648
165.203	23.5789
168.578	16.0637
171.952	5.61066
175.327	1.37512
178.702	2.50024
182.077	4.73798
185.452	2.91138
188.827	7.77087
192.201	6.93579
195.576	6.92932
198.951	19.4194
202.326	26.6343
205.701	28.7943
209.076	28.0525
212.45	31.711
215.825	37.1165
219.2	34.4674
222.575	30.8053
225.95	36.8846
229.324	38.1317
232.699	31.0509
236.074	32.2705
239.449	29.3716
242.824	26.4992
246.198	25.3728
249.573	26.3484
252.948	12.1934
256.323	16.4109
259.698	10.7854
263.073	13.6967
266.447	9.18454
269.822	3.79044
273.197	4.51379
276.572	2.20392
279.947	2.28589
283.322	3.85205
286.696	10.8307
290.071	16.3781
293.446	19.3319
296.821	21.5818
300.196	24.3845
303.57	27.0852
306.945	25.7579
310.32	26.9135
313.695	29.5174
317.07	31.1013
320.445	27.4568
323.819	18.1353
327.194	15.4645
330.569	5.29651
333.944	5.22199
337.319	3.27341
340.693	5.20801
344.068	2.70062
347.443	2.45554
350.818	10.6441
354.193	15.586
357.567	17.3115
360.942	20.1945
364.317	20.6702
367.692	21.8961
371.067	17.8294
374.442	21.0651
377.816	14.9767
381.191	16.5298
384.566	10.6254
387.941	10.9561
391.316	5.96942
394.69	4.42731
398.065	0.550446
401.44	0.013428
404.815	6.84973
408.19	5.14917
411.565	15.6286
414.939	26.6775
418.314	40.6578
421.689	41.4511
425.064	50.9141
428.439	65.2623
431.813	72.4559
435.188	79.7068
438.563	80.6372
441.938	86.6678
445.313	79.0312
448.688	71.5076
452.062	64.4087
455.437	52.3376
458.812	39.4625
462.187	26.6611
465.562	21.8209
468.937	17.2195
472.311	16.5931
475.686	8.34073
479.061	8.9787
482.436	0.287354
485.81	0.520294
489.185	0.426239
492.56	0.411926
495.935	2.60187
499.31	2.53155
502.685	0.989716
506.059	2.89053
509.434	2.82037
512.809	3.06204
516.184	8.73297
519.559	13.788
522.933	15.1523
526.308	17.6115
529.683	17.4763
533.058	11.64
536.433	12.0753
539.808	9.56168
543.182	15.2206
546.557	12.6912
549.932	15.4204
553.307	10.8423
556.682	15.3598
560.057	13.5049
563.431	13.5745
566.806	8.47315
570.181	6.74484
573.556	7.45914
576.931	5.78189
580.306	6.68985
583.68	11.3583
587.055	11.45
590.43	9.36466
593.805	13.2869
597.18	12.859
600.554	15.9259
603.929	20.1455
607.304	17.7654
610.679	13.4603
614.054	14.9438
617.428	16.4704
620.803	17.6204
624.178	12.0508
627.553	8.53949
630.928	4.7381
634.303	0.695526
637.677	6.98721
641.052	5.85791
644.427	4.41229
647.802	0.925751
651.177	0.220581
654.552	3.46448
657.926	3.4129
661.301	0.785034
664.676	2.48624
668.051	1.05215
671.426	0.11496
674.8	0.512878
678.175	2.31418
681.55	2.22378
684.925	2.72299
688.3	2.41089
691.674	1.78021
695.049	1.88745
698.424	0.157928
701.799	1.18091
705.174	5.34351
708.548	5.00561
711.923	2.7597
715.298	7.33411
718.673	3.0256
722.048	0.802368
725.423	3.89087
728.797	4.75394
732.172	4.68033
735.547	6.53812
738.922	6.11539
742.297	8.5556
745.672	7.11664
749.046	7.97607
752.421	10.2645
755.796	6.72449
759.171	5.60617
762.546	7.17813
765.92	10.9901
769.295	18.5796
772.67	16.061
776.045	24.8213
779.42	30.1393
782.795	40.9244
786.169	34.9143
789.544	29.3499
792.919	17.3119
796.294	17.2843
799.669	17.6431
803.043	15.386
806.418	9.37494
809.793	7.05039
813.168	9.07877
816.543	7.83237
819.918	8.81006
823.292	1.20679
826.667	3.42264
830.042	5.80142
833.417	1.98114
836.792	5.22522
840.166	0.613007
843.541	1.2952
846.916	1.59274
850.291	5.23401
853.666	2.28668
857.04	3.85931
860.415	0.437073
863.79	1.02972
867.165	2.49979
870.54	1.46603
873.915	2.77063
877.289	0.476715
880.664	5.85919
884.039	4.09464
887.414	1.44077
890.789	5.66193
894.163	1.33682
897.538	1.79587
900.913	2.02139
904.288	0.266205
907.663	3.4982
911.038	0.55835
914.412	1.58896
917.787	5.04746
921.162	6.1131
924.537	7.6893
927.912	12.3591
931.287	17.5209
934.661	23.0394
938.036	28.9804
941.411	36.2296
944.786	43.0261
948.161	48.2895
951.535	52.4633
954.91	58.6439
958.285	81.3059
961.66	113.915
965.035	168.275
968.409	252.938
971.784	321.896
975.159	281.999
978.534	184.149
981.909	112.185
985.284	63.2963
988.658	53.1287
992.033	35.2967
995.408	19.2117
998.783	12.7966
1002.16	11.6211
1005.53	7.88004
1008.91	1.90466
1012.28	0.162048
1015.66	1.49689
1019.03	2.86069
1022.41	0.643463
1025.78	0.354736
1029.16	7.68808
1032.53	7.66583
1035.91	13.9861
1039.28	30.6606
1042.66	40.2864
1046.03	36.1176
1049.4	14.0607
1052.78	2.12592
1056.15	7.60202
1059.53	5.67874
1062.9	10.2601
1066.28	13.32
1069.65	14.1138
1073.03	13.1754
1076.4	15.8316
1079.78	17.1329
1083.15	19.8585
1086.53	25.4396
1089.9	25.5312
1093.28	25.3399
1096.65	25.2116
1100.03	22.5364
1103.4	24.0705
1106.78	23.3843
1110.15	17.7617
1113.53	19.2275
1116.9	14.6613
1120.28	22.3996
1123.65	13.0197
1127.03	11.3072
1130.4	7.66287
1133.78	11.7678
1137.15	9.68527
1140.53	5.59775
1143.9	4.43173
1147.28	2.70975
1150.65	5.65143
1154.03	2.18085
1157.4	1.15921
1160.77	0.043335
1164.15	1.57105
1167.52	0.460907
1170.9	0.35553
1174.27	3.6044
1177.65	2.50766
1181.02	1.71866
1184.4	2.10648
1187.77	3.85196
1191.15	3.33569
1194.52	2.90558
1197.9	2.22415
1201.27	5.7605
1204.65	10.3215
1208.02	4.9523
1211.4	9.59375
1214.77	5.06735
1218.15	6.98544
1221.52	10.9482
1224.9	12.3766
1228.27	3.81088
1231.64	5.72522
1235.02	10.2
1238.39	8.85159
1241.77	5.22473
1245.14	13.1276
1248.52	3.46768
1251.89	8.62738
1255.27	3.8078
1258.64	8.30392
1262.02	5.37921
1265.39	9.89319
1268.77	1.01974
1272.14	6.99194
1275.52	5.01193
1278.89	4.52191
1282.27	0
