Measurement: Raman, 780 nm, unoriented, Raman Data RAW
Mineral: Atacamite
Rruff sample: R050098
Ideal chemistry: Cu^2+^_2_Cl(OH)_3_
Locality: La Farola mine, Tierra Amarilla, Atacama, Chile
Source: Rock Currier
Description: Green prismatic single crystals
Measured chemistry: Cu_2.00_Cl_1.00_(OH)_3_
Raman shift (cm-1)	intensity
90.1216	379.157
93.4964	520.315
96.8712	585.49
100.246	743.825
103.621	955.263
106.996	970.842
110.371	780.265
113.745	887.284
117.12	1094.88
120.495	1139.59
123.87	822.703
127.245	664.875
130.619	588.308
133.994	595.996
137.369	632.231
140.744	677.456
144.119	699.504
147.493	831.638
150.868	707.689
154.243	508.723
157.618	471.919
160.993	424.309
164.368	427.918
167.742	382.968
171.117	352.359
174.492	375.248
177.867	334.988
181.242	342.064
184.616	358.975
187.991	354.19
191.366	352.017
194.741	364.06
198.116	337.268
201.49	378.82
204.865	365.113
208.24	369.207
211.615	328.24
214.99	322.779
218.365	415.04
221.739	399.348
225.114	363.15
228.489	346.365
231.864	353.733
235.239	350.614
238.613	376.754
241.988	355.815
245.363	336.153
248.738	343.878
252.113	341.554
255.488	366.235
258.862	361.058
262.237	360.788
265.612	354.475
268.987	308.163
272.362	289.114
275.736	294.575
279.111	249.319
282.486	282.713
285.861	289.991
289.236	257.347
292.611	243.914
295.985	258.419
299.36	272.775
302.735	270.504
306.11	230.959
309.485	240.893
312.859	242.779
316.234	243.59
319.609	204.786
322.984	230.595
326.359	215.478
329.733	258.397
333.108	222.223
336.483	252.619
339.858	245.416
343.233	254.492
346.608	285.41
349.982	295.18
353.357	301.965
356.732	331.388
360.107	312.378
363.482	260.433
366.856	290.341
370.231	294.922
373.606	265.405
376.981	247.712
380.356	267.493
383.731	269.714
387.105	295.946
390.48	296.673
393.855	290.509
397.23	275.093
400.605	251.874
403.979	263.683
407.354	277.266
410.729	264.518
414.104	274.816
417.479	236.835
420.853	239.006
424.228	222.476
427.603	249.566
430.978	215.809
434.353	218.68
437.728	235.335
441.102	263.899
444.477	268.997
447.852	293.886
451.227	277.075
454.602	270.773
457.976	220.661
461.351	229.331
464.726	240.858
468.101	236.868
471.476	231.956
474.851	215.231
478.225	228.897
481.6	262.064
484.975	254.098
488.35	271.258
491.725	315.353
495.099	372.725
498.474	384.504
501.849	421.915
505.224	407.748
508.599	453.068
511.974	484.138
515.348	400.371
518.723	368.84
522.098	303.606
525.473	286.544
528.848	269.25
532.222	251.555
535.597	207.443
538.972	215.598
542.347	201.104
545.722	196.853
549.096	197.174
552.471	172.397
555.846	182.58
559.221	203.79
562.596	197.489
565.971	184.255
569.345	217.419
572.72	189.299
576.095	216.035
579.47	210.641
582.845	225.376
586.219	212.323
589.594	236.231
592.969	221.116
596.344	198.794
599.719	212.66
603.093	208.762
606.468	216.635
609.843	189.653
613.218	167.472
616.593	158.296
619.968	161.46
623.342	196.692
626.717	158.205
630.092	174.339
633.467	165.968
636.842	158.289
640.216	183.463
643.591	146.502
646.966	182.383
650.341	152.45
653.716	189.164
657.091	152.285
660.465	181.417
663.84	162.34
667.215	121.24
670.59	140.012
673.965	170.63
677.34	147.936
680.714	183.819
684.089	190.165
687.464	151.063
690.839	151.899
694.214	158.195
697.588	168.623
700.963	190.683
704.338	145.419
707.713	185.569
711.088	206.887
714.462	173.133
717.837	201.366
721.212	162.644
724.587	183.694
727.962	177.955
731.337	169.675
734.711	192.696
738.086	193.393
741.461	149.52
744.836	183.937
748.211	188.538
751.585	157.8
754.96	177.477
758.335	172.215
761.71	168.719
765.085	175.228
768.46	173.069
771.834	199.839
775.209	187.378
778.584	178.616
781.959	188.431
785.334	182.872
788.708	192.574
792.083	194.127
795.458	217.267
798.833	202.385
802.208	225.431
805.582	255.839
808.957	289.241
812.332	281.742
815.707	290.676
819.082	292.483
822.457	311.549
825.831	294.707
829.206	265.961
832.581	228.437
835.956	236.666
839.331	198.98
842.705	219.158
846.08	186.146
849.455	205.904
852.83	185.76
856.205	181.689
859.58	201.164
862.954	161.96
866.329	189.249
869.704	181.036
873.079	194.965
876.454	208.436
879.828	208.753
883.203	238.892
886.578	217.563
889.953	243.077
893.328	241.289
896.702	276.818
900.077	316.807
903.452	324.681
906.827	389.184
910.202	389.36
913.577	353.904
916.951	255.049
920.326	235.382
923.701	256.154
927.076	207.016
930.451	193.531
933.825	220.172
937.2	189.627
940.575	201.463
943.95	207.301
947.325	215.237
950.699	197.94
954.074	216.643
957.449	235.577
960.824	228.099
964.199	232.329
967.574	250.555
970.948	304.297
974.323	275.75
977.698	238.147
981.073	248.777
984.448	237.746
987.822	206.736
991.197	197.924
994.572	193.973
997.947	182.219
1001.32	199.701
1004.7	188.67
1008.07	183.85
1011.45	182.768
1014.82	167.936
1018.2	174.319
1021.57	191.77
1024.94	196.14
1028.32	189.169
1031.69	167.128
1035.07	188.136
1038.44	182.146
1041.82	189.506
1045.19	186.672
1048.57	193.082
1051.94	189.793
1055.32	207.046
1058.69	170.844
1062.07	164.447
1065.44	184.699
1068.82	199.83
1072.19	184.739
1075.57	209.675
1078.94	197.768
1082.32	197.268
1085.69	188.171
1089.07	178.963
1092.44	201.046
1095.82	208.874
1099.19	184.577
1102.57	155.313
1105.94	177.777
1109.32	179.264
1112.69	167.495
1116.07	190
1119.44	188.066
1122.82	189.839
1126.19	172.149
1129.57	189.233
1132.94	183.914
1136.31	176.626
1139.69	221.954
1143.06	159.041
1146.44	201.957
1149.81	190.922
1153.19	195.082
1156.56	177.63
1159.94	206.895
1163.31	176.836
1166.69	172.48
1170.06	201.414
1173.44	168.453
1176.81	175.49
1180.19	176.131
1183.56	162.795
1186.94	178.121
1190.31	199.057
1193.69	187.48
1197.06	210.838
1200.44	199.743
1203.81	203.066
1207.19	201.922
1210.56	192.527
1213.93	218.014
1217.31	211.289
1220.68	206.772
1224.06	184.655
1227.43	197.328
1230.81	199.731
1234.18	232.279
1237.56	216.795
1240.93	219.414
1244.31	209.532
1247.68	212.527
1251.06	191.332
1254.43	199.929
1257.81	196.587
1261.18	206.636
1264.56	198.676
1267.93	202.708
1271.31	202.845
1274.68	229.956
1278.06	196.735
1281.43	198.604
