Measurement: Raman, 780 nm, unoriented, Raman Data RAW
Mineral: Avogadrite
Rruff sample: R110062
Ideal chemistry: KBF_4_
Locality: Mount Vesuvius, near Naples, Campania, Italy
Source: James Shigley
Description: Colorless consolidated granular. Some of the material consists of transparent gemmy crystals. The unidentified associated yellow material is a thin coating, something like a bubble surface, that turns white under acetone.
Raman shift (cm-1)	intensity
178.385	116.427
181.277	115.522
184.17	114.947
187.063	111.755
189.955	111.778
192.848	114.223
195.741	113.954
198.633	113.925
201.526	111.273
204.419	110.309
207.311	109.746
210.204	108.192
213.097	109.562
215.99	106.385
218.882	106.857
221.775	104.979
224.668	104.773
227.56	104.523
230.453	103.787
233.346	103.865
236.238	103.355
239.131	104.102
242.024	101.11
244.917	104.349
247.809	104.785
250.702	101.459
253.595	103.133
256.487	102.415
259.38	106.993
262.273	106.513
265.166	104.084
268.058	106.662
270.951	105.367
273.844	103.871
276.736	103.089
279.629	101.711
282.522	103.771
285.414	101.518
288.307	100.912
291.2	97.3012
294.092	97.6158
296.985	97.1196
299.878	96.8433
302.771	95.9545
305.663	96.7882
308.556	93.2836
311.449	94.3697
314.341	94.7417
317.234	94.4005
320.127	92.3899
323.019	93.6178
325.912	93.7212
328.805	93.9597
331.698	96.089
334.59	96.0118
337.483	101.252
340.376	128.719
343.268	145.138
346.161	153.611
349.054	183.989
351.947	238.711
354.839	373.211
357.732	538.376
360.625	304.97
363.517	140.103
366.41	108.921
369.303	98.129
372.195	94.5601
375.088	93.2439
377.981	91.7238
380.873	93.0074
383.766	88.5407
386.659	88.3579
389.552	90.991
392.444	88.2246
395.337	88.8729
398.23	89.854
401.122	87.9148
404.015	86.1186
406.908	88.9069
409.8	87.8555
412.693	87.4809
415.586	86.0119
418.479	86.3463
421.371	85.4289
424.264	84.8643
427.157	86.4126
430.049	86.2149
432.942	86.368
435.835	84.8436
438.728	87.4096
441.62	86.3505
444.513	85.5289
447.406	84.6016
450.298	82.1518
453.191	83.8152
456.084	83.2445
458.976	84.0075
461.869	82.9371
464.762	81.4793
467.654	80.5635
470.547	82.6732
473.44	81.7147
476.333	79.7269
479.225	79.5627
482.118	79.0551
485.011	77.6961
487.903	76.6684
490.796	78.8002
493.689	77.3633
496.582	76.601
499.474	76.0314
502.367	77.2312
505.26	74.3457
508.152	77.3846
511.045	81.7713
513.938	87.6711
516.83	97.0326
519.723	118.157
522.616	147.239
525.509	200.289
528.401	254.989
531.294	291.805
534.187	377.12
537.079	244.115
539.972	94.7779
542.865	77.9108
545.757	73.2591
548.65	71.9181
551.543	69.9365
554.436	69.4421
557.328	68.6704
560.221	70.3058
563.114	68.2643
566.006	69.5431
568.899	68.8333
571.792	68.9881
574.684	68.644
577.577	68.382
580.47	68.0747
583.362	67.4517
586.255	67.7915
589.148	68.2394
592.041	69.01
594.933	66.764
597.826	67.9372
600.719	68.1645
603.611	68.294
606.504	68.0435
609.397	66.8171
612.29	65.9242
615.182	66.4231
618.075	67.0333
620.968	65.5148
623.86	66.5555
626.753	64.9989
629.646	65.8419
632.538	65.845
635.431	65.5553
638.324	66.1054
641.217	65.5749
644.109	65.1349
647.002	65.309
649.895	66.2116
652.787	65.6263
655.68	64.3717
658.573	64.1663
661.466	65.7479
664.358	62.7681
667.251	65.4266
670.144	64.2062
673.036	64.2797
675.929	64.301
678.822	63.482
681.714	64.1801
684.607	63.2922
687.5	65.127
690.393	65.1145
693.285	63.7452
696.178	64.8452
699.071	65.4702
701.963	64.9646
704.856	68.2041
707.749	68.9909
710.641	70.0792
713.534	68.2776
716.427	69.0525
719.319	69.3983
722.212	68.8791
725.105	66.0046
727.998	68.729
730.89	69.2468
733.783	67.0111
736.676	67.927
739.568	66.4965
742.461	63.785
745.354	67.7018
748.246	66.814
751.139	67.5514
754.032	71.6655
756.925	84.6881
759.817	187.618
762.71	213.095
765.603	288.241
768.495	498.437
771.388	1445.84
774.281	1897.09
777.173	203.996
780.066	87.641
782.959	74.9262
785.852	72.7547
788.744	68.0016
791.637	66.5526
794.53	66.681
797.422	67.4436
800.315	65.7894
803.208	66.0936
806.101	65.6548
808.993	66.8864
811.886	66.0321
814.779	64.8619
817.671	66.0666
820.564	63.0346
823.457	66.3106
826.349	65.5203
829.242	66.7853
832.135	65.8586
835.028	66.0541
837.92	63.9692
840.813	63.6664
843.706	64.8675
846.598	63.9934
849.491	63.2363
852.384	62.9903
855.276	63.9682
858.169	62.9406
861.062	61.2928
863.955	63.4187
866.847	62.3553
869.74	61.5415
872.633	60.4773
875.525	59.3076
878.418	60.5206
881.311	59.2938
884.203	60.218
887.096	59.2561
889.989	55.9838
892.881	57.1547
895.774	56.7924
898.667	56.4323
901.56	54.5009
904.452	56.856
907.345	55.95
910.238	55.0778
913.13	55.1546
916.023	54.5389
918.916	54.1926
921.808	52.4786
924.701	53.3767
927.594	56.0984
930.487	55.8982
933.379	56.7368
936.272	54.4057
939.165	53.9492
942.057	54.3104
944.95	53.8419
947.843	53.4079
950.736	52.9731
953.628	54.2864
956.521	52.4364
959.414	52.7598
962.306	51.6699
965.199	51.0358
968.092	51.6323
970.984	52.2266
973.877	52.675
976.77	51.7936
979.663	52.103
982.555	52.4618
985.448	52.9976
988.341	53.0075
991.233	52.5194
994.126	53.045
997.019	53.227
999.911	52.3487
1002.8	52.6146
1005.7	55.075
1008.59	54.956
1011.48	53.0585
1014.38	54.237
1017.27	52.9674
1020.16	52.9634
1023.05	54.2107
1025.95	55.0783
1028.84	57.7103
1031.73	56.9963
1034.62	57.6107
1037.52	58.9062
1040.41	57.6528
1043.3	59.4432
1046.19	58.9648
1049.09	59.4011
1051.98	61.5901
1054.87	59.6206
1057.77	60.1083
1060.66	62.3912
1063.55	62.8398
1066.44	63.1373
1069.34	63.5392
1072.23	66.35
1075.12	67.4834
1078.01	67.3484
1080.91	68.3947
1083.8	69.3844
1086.69	71.5336
1089.59	71.8274
1092.48	75.0774
1095.37	75.6267
1098.26	75.9094
1101.16	75.8157
1104.05	73.5088
1106.94	72.6797
1109.83	74.751
1112.73	75.9431
1115.62	76.7099
1118.51	78.4236
1121.4	82.5999
1124.3	85.0571
1127.19	89.1445
1130.08	92.9434
1132.98	97.3968
1135.87	98.0383
1138.76	100.81
1141.65	103.766
1144.55	104.243
1147.44	106.384
1150.33	108.059
1153.22	108.519
1156.12	105.449
1159.01	108.374
1161.9	106.288
1164.8	103.207
1167.69	100.576
1170.58	98.8755
1173.47	96.4907
1176.37	93.3511
1179.26	93.7127
1182.15	90.4632
1185.04	89.1893
1187.94	89.4044
1190.83	87.2763
1193.72	87.9265
1196.62	86.9442
1199.51	87.7305
1202.4	87.3897
1205.29	88.1288
1208.19	88.5901
1211.08	87.4903
1213.97	92.095
1216.86	92.6953
1219.76	93.2569
1222.65	95.5696
1225.54	96.041
1228.43	97.2331
1231.33	100.543
1234.22	100.629
1237.11	102.776
1240.01	104.011
1242.9	104.223
1245.79	108.813
1248.68	106.01
1251.58	105.532
1254.47	106.763
1257.36	111.478
1260.25	112.597
1263.15	111.975
1266.04	112.552
1268.93	114.62
1271.83	117.246
1274.72	119.026
1277.61	124.517
1280.5	126.765
1283.4	131.781
