Measurement: Raman, 780 nm, unoriented, Raman Data RAW
Mineral: Axinite-(Fe)
Rruff sample: R060558
Ideal chemistry: Ca_4_Fe^2+^_2_Al_4_[B_2_Si_8_O_30_](OH)_2_
Locality: unknown
Source: Gemological Institute of America
Description: Brown flattened crystal
Measured chemistry: Ca_2.00_(Fe^2+^_0.60_Mg_0.35_Mn_0.05_)_Î£=1_Al_2.00_BSi_4.00_O_15_(OH) ; B not measured
Raman shift (cm-1)	intensity
90.5957	702.421
93.9705	698.06
97.3453	613.013
100.72	578.785
104.095	576.135
107.47	678.312
110.845	736.144
114.219	517.226
117.594	400.164
120.969	348.269
124.344	327.464
127.719	297.033
131.094	288.18
134.468	285.751
137.843	303.168
141.218	348.88
144.593	359.484
147.968	349.65
151.342	382.37
154.717	404.975
158.092	394.391
161.467	396.021
164.842	410.243
168.216	488.5
171.591	606.778
174.966	503.632
178.341	363.835
181.716	270.285
185.09	238.079
188.465	248.497
191.84	307.375
195.215	430.671
198.59	390.554
201.965	384.274
205.339	457.092
208.714	545.694
212.089	603.52
215.464	593.211
218.839	511.888
222.214	412.472
225.588	322.395
228.963	264.43
232.338	233.549
235.713	219.823
239.088	227.015
242.462	243.401
245.837	263.075
249.212	300.663
252.587	338.485
255.962	373.788
259.336	375.762
262.711	398.83
266.086	456.005
269.461	539.456
272.836	582.62
276.211	557.136
279.585	488.897
282.96	401.493
286.335	357.089
289.71	379.211
293.085	453.225
296.459	567.707
299.834	661.893
303.209	680.532
306.584	646.348
309.959	580.29
313.334	505.915
316.708	507.062
320.083	565.258
323.458	484.485
326.833	333.503
330.207	266.479
333.582	257.351
336.957	283.704
340.332	353.142
343.707	496.574
347.082	588.516
350.456	496.899
353.831	439.435
357.206	354.265
360.581	235.744
363.956	171.286
367.33	143.08
370.705	131.436
374.08	131.308
377.455	136.653
380.83	154.183
384.205	188.87
387.579	256.085
390.954	329.148
394.329	340.213
397.704	279.863
401.079	210.003
404.453	183.9
407.828	178.859
411.203	196.252
414.578	247.776
417.953	357.243
421.327	410.284
424.702	406.891
428.077	502.629
431.452	600.249
434.827	514.137
438.202	334.843
441.576	251.285
444.951	256.363
448.326	236.454
451.701	161.958
455.076	123.382
458.45	107.749
461.825	101.715
465.2	98.2212
468.575	99.8371
471.95	105.997
475.325	112.299
478.699	124.501
482.074	152.631
485.449	196.926
488.824	196.827
492.199	138.35
495.573	115.2
498.948	116.01
502.323	126.551
505.698	140.545
509.073	160.587
512.447	176.304
515.822	159.359
519.197	134.255
522.572	116.185
525.947	103.437
529.322	101.959
532.696	103.824
536.071	117.064
539.446	136.219
542.821	168.22
546.196	203.127
549.57	200.537
552.945	168.337
556.32	157.691
559.695	173.476
563.07	190.584
566.444	171.92
569.819	161.976
573.194	179.133
576.569	191.388
579.944	190.283
583.319	200.009
586.693	233.706
590.068	273.656
593.443	248.665
596.818	176.7
600.193	133.225
603.567	117.483
606.942	116.216
610.317	122.391
613.692	129.519
617.067	130.677
620.442	126.058
623.816	114.006
627.191	98.214
630.566	88.7465
633.941	88.6483
637.316	94.0496
640.69	106.06
644.065	121.831
647.44	121.637
650.815	106.588
654.19	93.1696
657.564	89.3942
660.939	92.8593
664.314	101.583
667.689	120.004
671.064	149.551
674.439	198.873
677.813	241.209
681.188	210.242
684.563	155.456
687.938	125.789
691.313	118.692
694.688	126.195
698.062	151.18
701.437	198.401
704.812	278.297
708.187	417.829
711.562	639.855
714.936	827.591
718.311	696.979
721.686	435.631
725.061	271.116
728.436	193.685
731.81	153.548
735.185	129.241
738.56	115.715
741.935	107.661
745.31	105.298
748.684	105.589
752.059	108.734
755.434	118.902
758.809	134.246
762.184	158.914
765.559	187.524
768.933	206.331
772.308	189.691
775.683	152.512
779.058	125.979
782.433	108
785.808	96.2402
789.182	89.9749
792.557	86.1565
795.932	83.9681
799.307	83.1535
802.682	83.1146
806.056	83.8609
809.431	88.5571
812.806	94.565
816.181	91.326
819.556	85.402
822.93	79.292
826.305	78.2167
829.68	76.9512
833.055	77.2104
836.43	78.6788
839.804	78.9785
843.179	80.4198
846.554	83.2282
849.929	84.7519
853.304	84.9269
856.679	87.8216
860.053	89.3681
863.428	89.4834
866.803	89.2373
870.178	88.2322
873.553	87.1876
876.927	87.6874
880.302	86.5572
883.677	86.6038
887.052	89.7027
890.427	91.8448
893.802	100.265
897.176	108.732
900.551	117.734
903.926	124.396
907.301	123.735
910.676	115.074
914.05	102.049
917.425	92.1436
920.8	86.5611
924.175	84.3309
927.55	86.0576
930.924	90.1229
934.299	93.0581
937.674	94.4381
941.049	95.7341
944.424	102.061
947.799	114.726
951.173	133.637
954.548	167.079
957.923	210.827
961.298	282.967
964.673	359.421
968.047	361.45
971.422	313.982
974.797	302.966
978.172	345.437
981.547	369.731
984.922	317.823
988.296	253.658
991.671	222.102
995.046	216.262
998.421	227.408
1001.8	250.224
1005.17	262.09
1008.54	240.57
1011.92	187.886
1015.29	139.982
1018.67	111.885
1022.04	98.5845
1025.42	96.9986
1028.79	104.237
1032.17	106.234
1035.54	99.0918
1038.92	94.9477
1042.29	92.8559
1045.67	90.832
1049.04	92.0032
1052.42	97.3697
1055.79	104.656
1059.17	106.935
1062.54	102.58
1065.92	92.2665
1069.29	82.0243
1072.67	79.1337
1076.04	88.4382
1079.42	104.493
1082.79	132.659
1086.17	143.133
1089.54	121.401
1092.92	94.2433
1096.29	76.9529
1099.66	69.2334
1103.04	66.0793
1106.41	62.7831
1109.79	60.2248
1113.16	57.0666
1116.54	53.5853
1119.91	50.1512
1123.29	48.8241
1126.66	47.5224
1130.04	45.8723
1133.41	43.8025
1136.79	44.8694
1140.16	44.3926
1143.54	42.5061
1146.91	42.7693
1150.29	42.0612
1153.66	41.9711
1157.04	41.5021
1160.41	41.2364
1163.79	41.3319
1167.16	40.7056
1170.54	41.4614
1173.91	40.7975
1177.29	40.0982
1180.66	39.599
1184.04	39.3046
1187.41	38.8542
1190.79	38.6747
1194.16	39.434
1197.54	38.709
1200.91	38.5694
1204.28	38.6803
1207.66	38.7022
1211.03	37.7843
1214.41	37.6975
1217.78	37.2081
1221.16	36.7559
1224.53	36.3422
1227.91	37.2637
1231.28	36.6228
1234.66	37.1951
1238.03	36.5235
1241.41	37.1086
1244.78	35.8986
1248.16	36.6808
1251.53	36.2458
1254.91	36.5324
1258.28	36.0272
1261.66	36.841
1265.03	36.4228
1268.41	36.3148
1271.78	36.5683
1275.16	36.7276
1278.53	36.8449
1281.9	36.5825
