Measurement: Raman, 780 nm, unoriented, Raman Data RAW
Mineral: Babingtonite
Rruff sample: R060083
Ideal chemistry: Ca_2_Fe^2+^Fe^3+^Si_5_O_14_(OH)
Locality: Hampden Quarry, Springfield, Massachusetts, USA
Source: University of Arizona Mineral Museum
Description: Black stubby prismatic crystal associated with quartz
Measured chemistry: Ca_2.00_(Fe^2+^_0.73_Mg_0.21_Mn_0.06_)(Fe^3+^_0.93_Al_0.07_)Si_5.00_O_14_(OH)
Raman shift (cm-1)	intensity
93.4668	27.7041
96.8416	27.1496
100.216	25.0148
103.591	25.0846
106.966	28.1953
110.341	28.5569
113.716	29.3823
117.091	31.0911
120.465	32.3866
123.84	37.5323
127.215	42.3213
130.59	27.2849
133.965	23.0611
137.339	23.0726
140.714	24.5442
144.089	24.4697
147.464	22.6358
150.839	24.0236
154.214	24.4976
157.588	25.6007
160.963	26.9202
164.338	27.6675
167.713	28.6874
171.088	29.4679
174.462	27.469
177.837	24.4534
181.212	20.1273
184.587	18.1616
187.962	18.2237
191.337	18.2014
194.711	18.2336
198.086	18.2287
201.461	18.3443
204.836	18.8189
208.211	19.9331
211.585	21.3515
214.96	22.8539
218.335	22.267
221.71	22.7022
225.085	23.932
228.459	24.9107
231.834	27.3542
235.209	25.3157
238.584	21.322
241.959	20.07
245.333	20.6401
248.708	22.451
252.083	23.3358
255.458	24.5677
258.833	26.8956
262.208	30.2162
265.582	33.2164
268.957	32.9463
272.332	27.7951
275.707	24.5528
279.082	23.3236
282.457	22.5872
285.831	20.9357
289.206	18.7654
292.581	18.2369
295.956	18.0397
299.331	18.5667
302.705	19.7901
306.08	20.7487
309.455	21.2302
312.83	21.991
316.205	22.1502
319.579	21.6496
322.954	20.6634
326.329	19.5772
329.704	19.1961
333.079	18.702
336.454	18.6362
339.828	17.9389
343.203	17.3162
346.578	17.5193
349.953	17.8368
353.328	18.6223
356.702	19.1311
360.077	18.6895
363.452	18.7002
366.827	19.4609
370.202	20.5008
373.577	21.4306
376.951	22.4393
380.326	22.523
383.701	23.1678
387.076	23.7543
390.451	22.9478
393.825	22.5355
397.2	23.0079
400.575	23.4032
403.95	22.0017
407.325	19.2264
410.7	16.3699
414.074	15.5256
417.449	16.024
420.824	16.4064
424.199	16.9765
427.574	17.4909
430.948	18.3665
434.323	18.5136
437.698	15.9444
441.073	13.4191
444.448	11.9655
447.822	11.3195
451.197	11.2618
454.572	11.4888
457.947	11.8737
461.322	12.1495
464.697	12.5309
468.071	12.8322
471.446	13.6541
474.821	14.002
478.196	14.3509
481.571	14.2691
484.945	14.0809
488.32	13.9688
491.695	14.4764
495.07	15.4482
498.445	15.9193
501.82	15.569
505.194	13.932
508.569	12.5278
511.944	11.7887
515.319	12.0636
518.694	12.5915
522.068	13.855
525.443	14.4653
528.818	15.4901
532.193	15.9311
535.568	16.1328
538.943	16.2453
542.317	15.8082
545.692	15.1345
549.067	13.4107
552.442	12.5471
555.817	12.5619
559.192	13.3309
562.566	14.6065
565.941	16.1062
569.316	17.8952
572.691	19.5746
576.066	20.5854
579.44	20.0122
582.815	16.9147
586.19	13.8386
589.565	11.7035
592.94	10.3871
596.314	9.51043
599.689	9.00991
603.064	8.54168
606.439	8.33901
609.814	8.29696
613.188	8.17084
616.563	8.16688
619.938	8.26221
623.313	8.23587
626.688	8.19192
630.063	8.4528
633.437	8.95612
636.812	9.76106
640.187	10.5739
643.562	12.1423
646.937	14.6097
650.312	17.3154
653.686	20.1926
657.061	22.9825
660.436	26.3085
663.811	27.0019
667.186	23.5831
670.56	17.3004
673.935	13.2933
677.31	11.186
680.685	9.93916
684.06	9.59441
687.434	8.95497
690.809	8.60746
694.184	8.34439
697.559	8.51602
700.934	8.33241
704.308	8.44058
707.683	8.55099
711.058	9.11238
714.433	9.75168
717.808	10.6112
721.183	11.1754
724.557	11.828
727.932	12.5554
731.307	11.7915
734.682	10.2446
738.057	9.0714
741.432	8.97238
744.806	8.84161
748.181	8.98147
751.556	9.0344
754.931	8.97258
758.306	9.07022
761.68	8.96808
765.055	8.83761
768.43	8.43094
771.805	8.46018
775.18	8.42144
778.554	8.30338
781.929	8.17983
785.304	8.07174
788.679	8.38362
792.054	8.29128
795.429	8.27016
798.803	8.15521
802.178	8.36539
805.553	8.15516
808.928	8.16368
812.303	8.28523
815.678	8.46038
819.052	8.41822
822.427	8.50773
825.802	8.40121
829.177	8.44147
832.552	8.54894
835.926	8.4434
839.301	8.52137
842.676	8.57606
846.051	8.60157
849.426	8.79426
852.801	8.91335
856.175	9.1614
859.55	9.48424
862.925	9.8839
866.3	10.6635
869.675	10.7973
873.049	11.2855
876.424	11.6979
879.799	12.0873
883.174	12.404
886.549	12.4224
889.923	12.2853
893.298	12.5855
896.673	12.3912
900.048	11.6444
903.423	10.6792
906.798	9.72177
910.172	8.70739
913.547	8.12514
916.922	7.79882
920.297	7.36338
923.672	7.36595
927.046	7.47647
930.421	7.48126
933.796	7.67792
937.171	8.30245
940.546	8.81768
943.92	9.84254
947.295	10.6921
950.67	11.6139
954.045	11.7116
957.42	12.2688
960.795	12.5217
964.169	13.5656
967.544	14.1789
970.919	14.9489
974.294	14.9976
977.669	13.9118
981.043	12.7581
984.418	12.3526
987.793	12.9784
991.168	14.0394
994.543	14.8108
997.918	16.3135
1001.29	16.9171
1004.67	16.2993
1008.04	14.5612
1011.42	12.889
1014.79	11.7228
1018.17	10.855
1021.54	10.2815
1024.92	9.60619
1028.29	9.49144
1031.67	9.68497
1035.04	9.39173
1038.41	9.21001
1041.79	8.97495
1045.16	8.60431
1048.54	8.37722
1051.91	8.34321
1055.29	8.37031
1058.66	7.52982
1062.04	6.70613
1065.41	6.31807
1068.79	6.23352
1072.16	6.04775
1075.54	6.0319
1078.91	5.91008
1082.29	5.90993
1085.66	5.90786
1089.04	6.04767
1092.41	5.95138
1095.79	6.26754
1099.16	6.83448
1102.54	6.82912
1105.91	6.93077
1109.29	6.96196
1112.66	6.7795
1116.04	5.96841
1119.41	5.72526
1122.79	5.46493
1126.16	5.4054
1129.54	5.34403
1132.91	5.2009
1136.29	5.21765
1139.66	5.07069
1143.04	5.22541
1146.41	5.1101
1149.78	5.30519
1153.16	5.191
1156.53	5.07333
1159.91	4.926
1163.28	5.04591
1166.66	5.00925
1170.03	5.15456
1173.41	5.10742
1176.78	4.9794
1180.16	5.03884
1183.53	5.0712
1186.91	5.06874
1190.28	5.16948
1193.66	5.14099
1197.03	4.97053
1200.41	5.09162
1203.78	5.14234
1207.16	5.16119
1210.53	5.03291
1213.91	5.11038
1217.28	5.13943
1220.65	5.11974
1224.03	5.08956
1227.4	5.05252
1230.78	5.14645
1234.15	4.99702
1237.53	5.03707
1240.9	5.06752
1244.28	5.06278
1247.65	5.34678
1251.03	5.07953
1254.4	5.23759
1257.78	5.1569
1261.15	5.00797
1264.53	5.03641
1267.9	5.23782
1271.28	5.12837
1274.65	5.04275
1278.03	5.21743
1281.4	5.10742
1284.78	5.15141
