Measurement: Raman, 780 nm, unoriented, Raman Data RAW
Mineral: Bahianite
Rruff sample: R060433
Ideal chemistry: Al_5_Sb^5+^_3_O_14_(OH)_2_
Locality: Paramirim Region, Bahia, Brazil
Source: Michael Scott
Description: Tan colored water-worn polycrystalline pebble
Measured chemistry: lighter phase: (Al_4.89_Fe^3+^_0.10_[box]_0.01_)_Σ=5_(Sb^5+^_2.97_W_0.03_)_Σ=3_O_14_(OH)_2_ ; darker phase: (Al_4.91_Fe^3+^_0.09_)_Σ=5_Sb^5+^_3.00_O_14_(OH)_2_
Raman shift (cm-1)	intensity
134.478	41.2164
137.371	43.6674
140.263	44.2995
143.156	49.5534
146.049	57.3146
148.941	60.8933
151.834	62.0366
154.727	65.8067
157.62	72.5644
160.512	84.4497
163.405	107.206
166.298	99.5003
169.19	57.5231
172.083	42.216
174.976	40.5994
177.869	43.0601
180.761	48.3682
183.654	53.3076
186.547	56.0502
189.439	60.9819
192.332	66.5497
195.225	80.0717
198.117	100.24
201.01	100.273
203.903	67.2547
206.796	51.672
209.688	54.4046
212.581	59.7071
215.474	70.0174
218.366	79.8341
221.259	82.8933
224.152	65.291
227.044	55.0012
229.937	53.349
232.83	53.8819
235.722	61.1191
238.615	83.479
241.508	100.569
244.401	105.748
247.293	118.154
250.186	137.218
253.079	171.082
255.971	255.941
258.864	238.673
261.757	110.62
264.649	72.9949
267.542	60.7263
270.435	57.4426
273.328	58.1873
276.22	64.9926
279.113	68.8899
282.006	73.5873
284.898	79.8036
287.791	90.0245
290.684	105.134
293.576	119.017
296.469	91.9829
299.362	61.3451
302.255	53.6148
305.147	53.4979
308.04	53.4268
310.933	57.7633
313.825	60.6449
316.718	68.5995
319.611	69.7233
322.503	63.9835
325.396	53.4053
328.289	49.4223
331.182	47.2057
334.074	48.4355
336.967	51.7004
339.86	52.2971
342.752	55.2811
345.645	58.9083
348.538	64.812
351.43	74.914
354.323	72.6307
357.216	59.1706
360.108	53.7452
363.001	51.7301
365.894	52.87
368.787	56.6406
371.679	61.7731
374.572	66.8037
377.465	68.4173
380.357	71.0176
383.25	76.9698
386.143	86.0948
389.036	93.1315
391.928	98.5286
394.821	113.691
397.714	128.184
400.606	145.543
403.499	168.244
406.392	192.365
409.284	217.889
412.177	216.461
415.07	161.806
417.962	108.228
420.855	83.2751
423.748	69.8349
426.641	63.6612
429.533	60.9592
432.426	59.6624
435.319	58.4991
438.211	57.754
441.104	59.5593
443.997	59.8453
446.889	63.9139
449.782	66.7285
452.675	68.13
455.567	71.5575
458.46	76.6102
461.353	84.6312
464.246	91.2371
467.138	98.2361
470.031	112.124
472.924	137.549
475.816	177.411
478.709	177.365
481.602	116.865
484.495	90.6866
487.387	89.3748
490.28	100.233
493.173	112.346
496.065	130.664
498.958	136.172
501.851	133.228
504.743	125.085
507.636	118.411
510.529	113.07
513.422	115.527
516.314	117.859
519.207	124.467
522.1	130.98
524.992	140.642
527.885	153.946
530.778	174.831
533.67	181.591
536.563	149.127
539.456	109.287
542.348	87.3098
545.241	77.5302
548.134	72.1429
551.027	68.9537
553.919	66.0785
556.812	64.953
559.705	66.4898
562.597	65.3459
565.49	65.034
568.383	61.8829
571.275	56.887
574.168	51.7934
577.061	48.2378
579.954	45.4548
582.846	44.9472
585.739	44.211
588.632	43.9938
591.524	42.4683
594.417	39.4556
597.31	38.9824
600.202	36.9993
603.095	36.3621
605.988	35.4843
608.881	36.3752
611.773	35.7632
614.666	36.0938
617.559	34.3521
620.451	35.1383
623.344	36.5448
626.237	36.451
629.129	36.4678
632.022	36.0412
634.915	37.8234
637.808	37.7152
640.7	39.6342
643.593	38.5758
646.486	40.5624
649.378	42.4353
652.271	44.7128
655.164	45.6261
658.056	49.0433
660.949	51.8584
663.842	54.8883
666.735	56.529
669.627	59.4327
672.52	60.312
675.413	60.2918
678.305	61.9109
681.198	63.2343
684.091	61.6699
686.983	56.9041
689.876	52.447
692.769	48.5131
695.662	44.6917
698.554	42.6038
701.447	40.6605
704.34	39.2241
707.232	40.0894
710.125	38.4225
713.018	38.7786
715.91	38.9874
718.803	38.3864
721.696	39.6142
724.588	40.6938
727.481	41.3018
730.374	43.8954
733.266	45.4002
736.159	49.4776
739.052	51.9403
741.945	56.6309
744.837	60.9208
747.73	67.0036
750.623	75.2345
753.515	80.412
756.408	89.8979
759.301	101.066
762.193	113.149
765.086	123.696
767.979	128.594
770.872	124.384
773.764	116.758
776.657	106.472
779.55	100.61
782.442	98.2158
785.335	99.0995
788.228	105.616
791.12	117.343
794.013	135.384
796.906	159.27
799.799	200.923
802.691	267.39
805.584	354.701
808.477	463.371
811.369	593.699
814.262	731.623
817.155	850.084
820.048	843.409
822.94	702.113
825.833	534.291
828.726	403.134
831.618	317.037
834.511	253.52
837.404	207.496
840.296	173.474
843.189	150.711
846.082	132.831
848.975	121.647
851.867	113.867
854.76	105.724
857.653	97.1863
860.545	84.805
863.438	74.9881
866.331	65.3269
869.223	58.3854
872.116	53.5496
875.009	49.8929
877.901	46.3655
880.794	43.9947
883.687	41.5083
886.58	39.5727
889.472	38.0962
892.365	36.8775
895.258	36.1728
898.15	33.9074
901.043	33.3536
903.936	31.7719
906.828	30.8499
909.721	30.4057
912.614	30.0717
915.506	29.1093
918.399	28.518
921.292	28.431
924.185	27.132
927.077	26.7348
929.97	26.8318
932.863	26.8576
935.755	26.5381
938.648	27.4617
941.541	27.5887
944.433	28.3132
947.326	28.1804
950.219	28.5006
953.112	28.1884
956.004	28.2615
958.897	28.2181
961.79	27.5794
964.682	29.0528
967.575	28.3266
970.468	28.6928
973.361	28.0818
976.253	28.8927
979.146	29.6934
982.039	29.6224
984.931	30.3988
987.824	30.6401
990.717	33.0433
993.609	34.7703
996.502	35.2927
999.395	34.9257
1002.29	32.7432
1005.18	28.8903
1008.07	26.0738
1010.97	22.6355
1013.86	21.9241
1016.75	20.9333
1019.64	20.0068
1022.54	19.3389
1025.43	18.9285
1028.32	17.6365
1031.21	17.0283
1034.11	16.9966
1037	17.9042
1039.89	16.6757
1042.79	16.3555
1045.68	16.0696
1048.57	15.7312
1051.46	15.6197
1054.36	15.7199
1057.25	15.6387
1060.14	15.4353
1063.03	15.086
1065.93	15.8016
1068.82	15.108
1071.71	14.9691
1074.61	15.0472
1077.5	14.6097
1080.39	14.6323
1083.28	14.7227
1086.18	14.7413
1089.07	14.6546
1091.96	14.9293
1094.85	14.9543
1097.75	14.4297
1100.64	13.8088
1103.53	14.6266
1106.42	13.922
1109.32	14.3162
1112.21	14.4556
1115.1	13.8545
1117.99	14.3339
1120.89	14.8212
1123.78	14.5539
1126.67	14.5673
1129.57	14.0016
1132.46	14.5679
1135.35	14.4248
1138.24	14.4185
1141.14	14.5735
1144.03	14.5126
1146.92	13.9357
1149.82	14.0829
1152.71	14.9403
1155.6	13.6286
1158.49	14.0698
1161.39	14.6438
1164.28	14.4845
1167.17	14.6581
1170.06	14.5924
1172.96	14.6992
1175.85	13.958
1178.74	13.9768
1181.63	15.4502
1184.53	14.3787
1187.42	14.4096
1190.31	14.7952
1193.21	14.6119
1196.1	14.8531
1198.99	14.5426
1201.88	14.4541
1204.78	14.2312
1207.67	14.6284
1210.56	14.2398
1213.45	15.0682
1216.35	14.3921
1219.24	14.9833
1222.13	14.2271
1225.03	14.856
1227.92	15.0066
1230.81	14.457
1233.7	15.2218
1236.6	14.5215
1239.49	14.5119
1242.38	14.8933
1245.27	14.7747
1248.17	14.6496
1251.06	13.7563
1253.95	14.2586
1256.85	15.7701
1259.74	14.7786
1262.63	15.2726
1265.52	14.7011
1268.42	14.8847
1271.31	14.8194
1274.2	14.4383
1277.09	14.7492
1279.99	14.7126
1282.88	14.6929
