Measurement: Raman, 532 nm, unoriented, Raman Data Processed
Mineral: Bairdite
Rruff sample: R190040
Ideal chemistry: Pb^2+^_2_Cu^2+^_4_Te^6+^_2_O_10_(OH)_2_(S^6+^O_4_)H_2_O
Locality: Tombstone, Cochise County, Arizona, USA
Source: Mike Shannon
Description: Bright lime green platy crystals
Raman shift (cm-1)	intensity
88.1367	0
91.5115	117.108
94.8863	82.1869
98.2612	20.2511
101.636	12.4736
105.011	21.8422
108.386	157.333
111.76	342.428
115.135	537.85
118.51	746.32
121.885	1018.38
125.26	1394.58
128.635	1747.11
132.009	1845.18
135.384	1809.75
138.759	1799.61
142.134	1680.72
145.509	1484.49
148.883	1395.7
152.258	1397.02
155.633	1439.33
159.008	1537.22
162.383	1626.02
165.757	1605.21
169.132	1408.1
172.507	1198.01
175.882	1103.74
179.257	1079.15
182.632	1042.07
186.006	888.242
189.381	676.444
192.756	421.614
196.131	250.82
199.506	133.161
202.881	81.4326
206.255	65.3964
209.63	43.9843
213.005	1.91638
216.38	24.0735
219.755	19.377
223.129	9.72034
226.504	64.4628
229.879	93.8457
233.254	111.53
236.629	106.436
240.004	70.8518
243.378	30.5584
246.753	0.488892
250.128	10.8854
253.503	15.3381
256.878	68.9334
260.252	140.696
263.627	192.621
267.002	186.5
270.377	137.113
273.752	103.061
277.127	102.978
280.501	107.623
283.876	118.436
287.251	141.41
290.626	173.416
294.001	135.135
297.375	70.5156
300.75	27.5311
304.125	16.7966
307.5	0.047852
310.875	9.01416
314.25	17.5969
317.624	4.54126
320.999	31.6652
324.374	88.5752
327.749	159.826
331.124	227.604
334.498	327.785
337.873	472.857
341.248	626.999
344.623	686.571
347.998	607.243
351.373	476.808
354.747	388.548
358.122	328.51
361.497	328.668
364.872	391.045
368.247	493.188
371.621	591.6
374.996	681.089
378.371	765.925
381.746	874.62
385.121	968.257
388.495	986.403
391.87	837.453
395.245	575.674
398.62	357.794
401.995	227.761
405.37	154.501
408.744	101.705
412.119	48.5789
415.494	0.796021
418.869	22.0326
422.244	9.7312
425.618	74.8303
428.993	259.528
432.368	414.716
435.743	333.537
439.118	263.846
442.493	289.832
445.867	354.938
449.242	419.111
452.617	466.687
455.992	467.958
459.367	413.774
462.741	331.87
466.116	240.38
469.491	169.653
472.866	117.137
476.241	71
479.615	25.8303
482.99	6.65613
486.365	4.87976
489.74	5.0957
493.115	7.64356
496.49	6.83789
499.864	1.13123
503.239	5.39734
506.614	1.39331
509.989	49.7753
513.364	126.427
516.739	201.891
520.113	284.949
523.488	363.433
526.863	413.862
530.238	475.577
533.613	537.395
536.987	608.42
540.362	640.954
543.737	622.149
547.112	556.481
550.487	460.13
553.861	323.37
557.236	187.058
560.611	83.4756
563.986	0.933838
567.361	29.3855
570.736	11.9119
574.11	33.2415
577.485	98.7559
580.86	164.003
584.235	230.774
587.61	280.716
590.985	320.516
594.359	373.559
597.734	450.832
601.109	525.514
604.484	593.408
607.859	641.06
611.233	663.106
614.608	660.9
617.983	607.95
621.358	508.5
624.733	396.813
628.107	258.644
631.482	127.741
634.857	10.3379
638.232	40.6111
641.607	68.9502
644.982	40.9817
648.356	18.4868
651.731	105.891
655.106	177.656
658.481	290.418
661.856	424.268
665.231	594.677
668.605	820.915
671.98	1044.71
675.355	1245.43
678.73	1429.32
682.105	1650.22
685.479	1953.03
688.854	2381.91
692.229	3013.71
695.604	3795.96
698.979	4601.99
702.354	5430.34
705.728	6388.69
709.103	7642.96
712.478	9223.28
715.853	10678.6
719.227	11517.8
722.602	11826.2
725.977	11433.1
729.352	10126.8
732.727	8442.77
736.102	6674.94
739.476	4810.28
742.851	3168.72
746.226	2017.59
749.601	1274.84
752.976	794.242
756.351	488.825
759.725	301.637
763.1	176.459
766.475	95.2982
769.85	34.2228
773.225	4.51257
776.599	17.1467
779.974	19.5865
783.349	23.083
786.724	21.3171
790.099	16.3411
793.473	10.8673
796.848	4.31134
800.223	4.41498
803.598	11.7548
806.973	24.0823
810.348	39.0303
813.722	50.0602
817.097	59.2336
820.472	73.3732
823.847	83.3525
827.222	89.6956
830.597	105.567
833.971	115.772
837.346	115.994
840.721	109.285
844.096	106.895
847.471	102.643
850.846	94.441
854.22	87.804
857.595	84.3944
860.97	80.706
864.345	79.7345
867.72	75.8217
871.094	72.5528
874.469	64.6169
877.844	62.0292
881.219	58.3315
884.594	52.9855
887.968	50.753
891.343	44.6712
894.718	40.9768
898.093	34.8216
901.468	29.9976
904.842	27.7074
908.217	21.1675
911.592	17.2099
914.967	10.256
918.342	11.1154
921.717	6.57672
925.091	1.8031
928.466	2.06946
931.841	1.26709
935.216	1.24445
938.591	1.84638
941.966	1.28247
945.34	0.367371
948.715	18.1246
952.09	36.4409
955.465	78.7432
958.84	152.789
962.214	292.969
965.589	576.665
968.964	1138.51
972.339	2230.62
975.714	3996.58
979.088	3372.31
982.463	1223.48
985.838	490.068
989.213	247.292
992.588	136.609
995.963	81.4196
999.337	48.1798
1002.71	32.4517
1006.09	16.2366
1009.46	12.6183
1012.84	8.1875
1016.21	1.05029
1019.59	2.47473
1022.96	2.16382
1026.34	6.01373
1029.71	0.520447
1033.09	6.23523
1036.46	10.7436
1039.84	30.4014
1043.21	48.4043
1046.59	63.2903
1049.96	96.4404
1053.33	134.818
1056.71	186.174
1060.08	242.022
1063.46	297.37
1066.83	355.73
1070.21	399.423
1073.58	411.892
1076.96	388.243
1080.33	344.767
1083.71	311.46
1087.08	285.061
1090.46	263.248
1093.83	240.986
1097.21	215.351
1100.58	186.965
1103.96	167.821
1107.33	151.107
1110.71	154.597
1114.08	167.671
1117.46	179.093
1120.83	184.103
1124.21	167.637
1127.58	144.385
1130.95	109.246
1134.33	89.5186
1137.7	73.3461
1141.08	48.8746
1144.45	32.6258
1147.83	23.3998
1151.2	14.1199
1154.58	5.01794
1157.95	3.30676
1161.33	0.679565
1164.7	2.46097
1168.08	6.68533
1171.45	0.352692
1174.83	2.15726
1178.2	1.58337
1181.58	0.671387
1184.95	1.15079
1188.33	2.15997
1191.7	6.88507
1195.08	11.3702
1198.45	13.9404
1201.83	10.2157
1205.2	11.9662
1208.58	10.7181
1211.95	12.9317
1215.33	16.3438
1218.7	15.6487
1222.08	15.7981
1225.45	13.3866
1228.83	21.6405
1232.2	13.0916
1235.58	14.7289
1238.95	19.1742
1242.32	17.8949
1245.7	20.6675
1249.07	19.7734
1252.45	16.1392
1255.82	14.0464
1259.2	14.413
1262.57	9.8674
1265.95	7.79956
1269.32	8.93939
1272.7	7.15655
1276.07	5.11758
1279.45	5.56216
1282.82	5.02438
1286.2	3.43304
1289.57	4.84906
1292.95	0.493103
1296.32	1.64188
1299.7	0.004486
