Measurement: Raman, 780 nm, unoriented, Raman Data Processed
Mineral: Bairdite
Rruff sample: R190040
Ideal chemistry: Pb^2+^_2_Cu^2+^_4_Te^6+^_2_O_10_(OH)_2_(S^6+^O_4_)H_2_O
Locality: Tombstone, Cochise County, Arizona, USA
Source: Mike Shannon
Description: Bright lime green platy crystals
Raman shift (cm-1)	intensity
103.01	0.632141
106.385	16.7127
109.759	19.6909
113.134	18.02
116.509	14.2408
119.884	16.8357
123.259	20.6415
126.633	16.9727
130.008	16.7378
133.383	15.3255
136.758	5.42136
140.133	4.90155
143.508	3.30771
146.882	1.01743
150.257	1.53427
153.632	10.5072
157.007	16.6843
160.382	20.7433
163.756	20.1929
167.131	18.7786
170.506	20.4056
173.881	16.9904
177.256	16.335
180.631	16.6605
184.005	14.1051
187.38	13.2996
190.755	7.54999
194.13	6.68451
197.505	1.84128
200.88	2.56848
204.254	1.25278
207.629	1.70822
211.004	5.49429
214.379	1.60049
217.754	0.977753
221.128	1.78613
224.503	2.89954
227.878	9.14313
231.253	9.57593
234.628	16.3497
238.002	19.146
241.377	21.0939
244.752	23.6199
248.127	27.6893
251.502	32.3812
254.877	34.1841
258.251	41.1849
261.626	42.7386
265.001	46.5652
268.376	45.3396
271.751	44.7168
275.125	43.9712
278.5	46.8594
281.875	48.9112
285.25	52.1105
288.625	51.2443
292	50.6489
295.374	47.7059
298.749	45.7835
302.124	46.2025
305.499	45.7776
308.874	45.2454
312.248	46.7974
315.623	43.6466
318.998	41.8079
322.373	36.0373
325.748	35.2323
329.123	35.0672
332.497	31.9342
335.872	26.2429
339.247	26.4351
342.622	26.3831
345.997	27.0104
349.372	22.2806
352.746	15.8758
356.121	17.1409
359.496	9.31909
362.871	11.4012
366.246	11.8554
369.62	7.82043
372.995	2.93207
376.37	7.56628
379.745	1.34692
383.12	4.39606
386.495	2.04944
389.869	4.4519
393.244	5.3913
396.619	1.09467
399.994	0.538818
403.369	0.128113
406.743	0.6474
410.118	1.90985
413.493	1.01605
416.868	1.59375
420.243	1.91974
423.618	0.411011
426.992	1.59161
430.367	0.390442
433.742	2.81458
437.117	0.394836
440.492	2.60254
443.866	2.29639
447.241	1.15112
450.616	3.77704
453.991	1.36743
457.366	7.25903
460.74	5.24945
464.115	2.67993
467.49	3.11676
470.865	5.06506
474.24	3.38025
477.615	3.43616
480.989	1.59167
484.364	1.26508
487.739	4.24567
491.114	4.65655
494.489	1.01093
497.863	0.178955
501.238	1.15857
504.613	0.154968
507.988	3.7215
511.363	3.41553
514.737	3.5531
518.112	3.35922
521.487	6.43613
524.862	7.51028
528.237	8.16153
531.612	7.93726
534.986	9.05835
538.361	8.69797
541.736	2.83218
545.111	5.1546
548.486	4.86267
551.861	7.25839
555.235	4.84659
558.61	3.01269
561.985	3.76956
565.36	0.018433
568.735	1.07068
572.109	3.93942
575.484	0.72998
578.859	4.72656
582.234	4.09338
585.609	3.87985
588.984	3.59583
592.358	3.01941
595.733	3.45279
599.108	5.84689
602.483	4.52716
605.858	2.19418
609.232	2.47534
612.607	2.39569
615.982	2.24106
619.357	0.657288
622.732	1.10312
626.107	2.45181
629.481	1.84228
632.856	0.663086
636.231	0.691925
639.606	0.884308
642.981	1.48813
646.356	2.85278
649.73	3.01926
653.105	4.78592
656.48	6.79468
659.855	7.02325
663.23	9.19507
666.604	11.4425
669.979	17.629
673.354	16.4319
676.729	22.2849
680.104	26.0185
683.479	28.095
686.853	36.5328
690.228	37.4626
693.603	40.299
696.978	47.6037
700.352	50.936
703.727	54.831
707.102	58.5553
710.477	64.1841
713.852	65.0395
717.227	64.8942
720.601	65.5764
723.976	61.73
727.351	57.5189
730.726	50.5053
734.101	42.7869
737.476	37.5551
740.85	28.3052
744.225	23.8338
747.6	20.6123
750.975	12.0128
754.35	9.6467
757.724	8.75684
761.099	7.05597
764.474	3.85675
767.849	3.67621
771.224	0.913696
774.598	0.086823
777.973	0.312347
781.348	0.779648
784.723	0.044464
788.098	0.226593
791.473	0.242722
794.847	2.09084
798.222	0.352509
801.597	0.535339
804.972	0.589401
808.347	0.875122
811.722	1.44688
815.096	1.71345
818.471	2.79691
821.846	4.10055
825.221	2.96001
828.596	3.01366
831.971	3.31561
835.345	3.48625
838.72	2.81261
842.095	3.57929
845.47	4.25417
848.845	3.44658
852.219	3.50299
855.594	2.55035
858.969	3.91281
862.344	2.4254
865.719	2.66313
869.093	2.9964
872.468	0.999298
875.843	2.06479
879.218	2.06195
882.593	3.25176
885.967	0.205124
889.342	2.20917
892.717	3.44215
896.092	0.067871
899.467	2.00369
902.842	2.19186
906.216	0.514664
909.591	2.11433
912.966	0.229477
916.341	1.94754
919.716	1.01633
923.091	0.410461
926.465	0.078842
929.84	1.11702
933.215	3.07394
936.59	3.6819
939.965	1.16943
943.339	1.92454
946.714	3.62418
950.089	2.68832
953.464	4.47774
956.839	9.28859
960.213	8.82112
963.588	10.2136
966.963	10.6796
970.338	10.1425
973.713	6.49799
977.088	4.55035
980.462	4.55019
983.837	3.35268
987.212	1.64482
990.587	1.19159
993.962	1.43024
997.337	2.35107
1000.71	0.223145
1004.09	0.36792
1007.46	1.36261
1010.84	0.457886
1014.21	2.09956
1017.59	1.88362
1020.96	1.46431
1024.34	0.780777
1027.71	0.860947
1031.09	0.533859
1034.46	1.88164
1037.83	3.86453
1041.21	2.64792
1044.58	1.30351
1047.96	0.611664
1051.33	2.38899
1054.71	3.86034
1058.08	1.70901
1061.46	1.51103
1064.83	1.60362
1068.21	2.50554
1071.58	3.50917
1074.96	4.71867
1078.33	4.17711
1081.71	3.58284
1085.08	2.16547
1088.46	3.61363
1091.83	3.60729
1095.21	1.93651
1098.58	2.60892
1101.96	2.85806
1105.33	0.907608
1108.71	2.19502
1112.08	0.752136
1115.45	1.80774
1118.83	3.10875
1122.2	0.478333
1125.58	1.37804
1128.95	0.832718
1132.33	0.475235
1135.7	3.30592
1139.08	3.13058
1142.45	3.22621
1145.83	2.41392
1149.2	2.77373
1152.58	4.41718
1155.95	3.43658
1159.33	3.32507
1162.7	2.81262
1166.08	2.13812
1169.45	2.82053
1172.83	3.25281
1176.2	1.85678
1179.58	0.812439
1182.95	2.06332
1186.33	2.26526
1189.7	1.96039
1193.08	3.7175
1196.45	0.105164
1199.83	1.92288
1203.2	1.4137
1206.58	4.24023
1209.95	0.775543
1213.33	0.850952
1216.7	1.35669
1220.07	6.26205
1223.45	3.45914
1226.82	2.9765
1230.2	0.546478
1233.57	3.09656
1236.95	4.2829
1240.32	4.58765
1243.7	4.36093
1247.07	2.85815
1250.45	4.07861
1253.82	4.6207
1257.2	4.85333
1260.57	4.64053
1263.95	4.90277
1267.32	5.60327
1270.7	4.37524
1274.07	1.12442
1277.45	4.18045
1280.82	2.00235
