Measurement: Raman, 780 nm, unoriented, Raman Data Processed
Mineral: Bandylite
Rruff sample: R060664
Ideal chemistry: Cu^2+^B(OH)_4_Cl
Locality: Palestina, Atacama, Chile
Source: Michael Scott
Description: Green spherical aggregates
Raman shift (cm-1)	intensity
133.865	0
136.758	2.38626
139.651	1.58617
142.543	2.99026
145.436	9.28861
148.329	9.10726
151.221	3.26502
154.114	2.32693
157.007	1.16002
159.9	0.996742
162.792	1.94709
165.685	1.47429
168.578	1.69265
171.47	0.180752
174.363	0.319073
177.256	0.239349
180.149	0.15015
183.041	0.064602
185.934	0.124767
188.827	0.023693
191.719	0.598682
194.612	0.393345
197.505	0.888077
200.397	1.96089
203.29	2.43026
206.183	2.5535
209.076	3.00928
211.968	4.41505
214.861	3.97514
217.754	4.20748
220.646	3.88608
223.539	4.04182
226.432	4.58551
229.324	4.44536
232.217	3.75345
235.11	4.46072
238.002	4.44969
240.895	4.23912
243.788	4.06534
246.681	3.88543
249.573	2.93715
252.466	3.13119
255.359	2.41304
258.251	2.55918
261.144	2.86943
264.037	2.62777
266.93	2.10769
269.822	1.73369
272.715	1.63968
275.608	1.4693
278.5	0.955318
281.393	1.78116
284.286	1.51357
287.178	0.973572
290.071	0.56348
292.964	0.716133
295.856	0.689814
298.749	0.382582
301.642	0.42494
304.535	0.615063
307.427	0.152575
310.32	0.054632
313.213	0.097391
316.105	0.195684
318.998	0.09127
321.891	0.027206
324.784	0.261782
327.676	0.347696
330.569	0.754631
333.462	0.120701
336.354	0.584755
339.247	0.167908
342.14	1.51846
345.032	1.27655
347.925	1.97959
350.818	1.96086
353.711	2.36889
356.603	1.66029
359.496	1.9205
362.389	1.68012
365.281	1.4101
368.174	1.94681
371.067	1.51643
373.959	1.75986
376.852	1.57543
379.745	1.68792
382.637	1.47751
385.53	1.07814
388.423	1.40872
391.316	0.871319
394.208	0.393869
397.101	0.786873
399.994	0.289644
402.886	0.316971
405.779	0.483644
408.672	0.353575
411.565	1.04166
414.457	0.059971
417.35	0.186792
420.243	0.106316
423.135	0.351749
426.028	0.108152
428.921	0.057638
431.813	0.45273
434.706	0.5047
437.599	0.615154
440.492	1.26627
443.384	1.96067
446.277	1.5834
449.17	1.83664
452.062	1.13106
454.955	0.872536
457.848	1.26862
460.74	0.471998
463.633	0.425934
466.526	0.981466
469.419	0.760666
472.311	1.02436
475.204	0.546133
478.097	0.419626
480.989	0.940231
483.882	1.16311
486.775	1.1667
489.668	2.73577
492.56	2.33
495.453	3.36775
498.346	3.60376
501.238	4.61729
504.131	4.61344
507.024	5.71136
509.916	5.33224
512.809	5.69406
515.702	4.67902
518.595	3.84292
521.487	2.27726
524.38	2.00716
527.273	0.471968
530.165	0.81739
533.058	0.217045
535.951	0.504332
538.843	0.337051
541.736	0.472786
544.629	0.291239
547.521	0.142241
550.414	0.101425
553.307	0.294909
556.2	0.297625
559.092	0.054756
561.985	0.546442
564.878	0.378492
567.77	0.724678
570.663	0.942873
573.556	0.651716
576.448	0.653721
579.341	0.74732
582.234	1.05446
585.127	0.262501
588.019	1.09265
590.912	1.27932
593.805	1.21036
596.697	0.766783
599.59	2.19323
602.483	1.13302
605.375	0.945303
608.268	0.398432
611.161	0.479927
614.054	0.077774
616.946	0.328156
619.839	0.484491
622.732	0.956799
625.625	0.608927
628.517	0.395243
631.41	0.759535
634.303	0.646889
637.195	0.140402
640.088	0.311279
642.981	0.901863
645.873	1.0192
648.766	0.977806
651.659	0.694035
654.552	0.958277
657.444	0.853037
660.337	0.7838
663.23	0.644247
666.122	1.05445
669.015	0.374949
671.908	0.786299
674.8	0.422121
677.693	0.769983
680.586	0.559126
683.479	0.567898
686.371	0.466017
689.264	0.030304
692.157	0.308668
695.049	0.628458
697.942	0.112839
700.835	0.032021
703.727	0.505369
706.62	0.58992
709.513	0.876671
712.405	0.192442
715.298	0.991341
718.191	0.264622
721.084	0.071608
723.976	0.90147
726.869	0.274824
729.762	0.446377
732.654	0.895468
735.547	0.348627
738.44	0.097504
741.332	0.140882
744.225	0.28651
747.118	0.030113
750.011	0.037483
752.903	0.124594
755.796	0.494581
758.689	0.263983
761.581	0.320063
764.474	0.063236
767.367	0.568222
770.26	0.332243
773.152	0.149115
776.045	0.396303
778.938	0.362686
781.83	0.697044
784.723	0.524086
787.616	0.315081
790.508	0.909939
793.401	0.649319
796.294	1.16102
799.187	1.2019
802.079	1.82537
804.972	1.69377
807.865	2.51009
810.757	2.79482
813.65	3.40873
816.543	3.35677
819.435	3.35624
822.328	3.81932
825.221	3.51834
828.114	2.71595
831.006	2.72153
833.899	2.8924
836.792	2.88844
839.684	2.7784
842.577	2.4259
845.47	2.48298
848.362	2.38877
851.255	2.29616
854.148	1.45589
857.04	1.44378
859.933	0.636795
862.826	1.10176
865.719	0.734926
868.611	0.703493
871.504	0.782162
874.397	0.356201
877.289	0.766768
880.182	0.861814
883.075	0.903093
885.967	0.828627
888.86	0.811491
891.753	1.19561
894.646	1.6947
897.538	2.66057
900.431	3.25863
903.324	4.21353
906.216	5.20707
909.109	5.5092
912.002	4.08562
914.894	2.64928
917.787	1.51449
920.68	1.12484
923.573	0.263056
926.465	0.119022
929.358	0.070158
932.251	0.060751
935.143	0.033228
938.036	0.208824
940.929	0.178724
943.822	0.483025
946.714	0.462921
949.607	0.485838
952.5	0.116415
955.392	0.350836
958.285	0.309584
961.178	0.550003
964.07	1.13364
966.963	1.50572
969.856	1.98333
972.749	2.13463
975.641	1.21224
978.534	0.788576
981.427	1.08172
984.319	0.442749
987.212	0.160398
990.105	0.864231
992.997	0.517542
995.89	0.283705
998.783	0.009529
1001.68	0.030666
1004.57	0.184626
1007.46	0.151148
1010.35	0.266922
1013.25	0.25337
1016.14	0.355539
1019.03	0.389868
1021.92	0.385077
1024.82	0.503096
1027.71	0.786104
1030.6	0.890581
1033.49	0.199389
1036.39	0.396826
1039.28	0.743324
1042.17	0.690563
1045.07	1.05458
1047.96	0.721135
1050.85	0.864099
1053.74	1.27557
1056.64	0.482256
1059.53	0.429685
1062.42	0.577985
1065.32	0.462994
1068.21	0.99081
1071.1	0.446553
1073.99	0.174885
1076.89	0.780189
1079.78	0.455365
1082.67	0.368855
1085.56	0.518507
1088.46	0.207442
1091.35	0.307167
1094.24	0.070778
1097.13	0.428483
1100.03	0.236475
1102.92	0.080092
1105.81	0.139956
1108.71	0.271619
1111.6	0.376154
1114.49	0.148786
1117.38	0.284369
1120.28	0.552888
1123.17	0.00654
1126.06	0.390617
1128.95	0.700767
1131.85	0.093327
1134.74	0.202105
1137.63	0.520118
1140.53	0.238204
1143.42	0.425645
1146.31	0.868167
1149.2	0.523594
1152.1	0.39926
1154.99	0.788989
1157.88	0.22577
1160.77	0.570842
1163.67	0.283565
1166.56	0.858528
1169.45	0.531359
1172.35	0.412896
1175.24	0.597093
1178.13	0.656982
1181.02	0.44899
1183.92	0.139524
1186.81	0.301991
1189.7	0.356832
1192.59	0.760463
1195.49	0.523891
1198.38	1.11525
1201.27	0.671116
1204.16	0.596026
1207.06	0.450544
1209.95	1.05004
1212.84	0.1294
1215.73	0.519288
1218.63	0.444231
1221.52	0.706414
1224.41	0.132094
1227.31	0.581917
1230.2	0.030861
1233.09	0.53299
1235.98	0.679313
1238.88	0.526521
1241.77	0.616525
1244.66	0.596105
1247.56	0.728186
1250.45	0.227715
1253.34	0.760577
1256.23	0.118512
1259.13	1.08281
1262.02	0.653966
1264.91	0.51727
1267.8	0.636055
1270.7	0.191247
1273.59	0.101105
1276.48	0.385311
1279.38	0.940637
1282.27	0
