Measurement: Raman, 532 nm, unoriented, Raman Data Processed
Mineral: Bandylite
Rruff sample: R060664
Ideal chemistry: Cu^2+^B(OH)_4_Cl
Locality: Palestina, Atacama, Chile
Source: Michael Scott
Description: Green spherical aggregates
Raman shift (cm-1)	intensity
127.188	0
130.563	4.86182
133.938	29.9775
137.313	68.5068
140.687	88.3632
144.062	88.3067
147.437	126.404
150.812	139.577
154.187	69.8561
157.561	48.5731
160.936	53.5873
164.311	57.6807
167.686	46.3695
171.061	32.1594
174.436	19.2643
177.81	12.7383
181.185	8.02673
184.56	3.50812
187.935	3.00012
191.31	0.661499
194.685	0.354736
198.059	0.598572
201.434	3.20862
204.809	1.55078
208.184	2.3147
211.559	7.95087
214.933	12.5165
218.308	13.4262
221.683	11.2453
225.058	10.1765
228.433	8.54327
231.808	9.17377
235.182	8.66016
238.557	7.1546
241.932	6.18634
245.307	3.77679
248.682	3.11261
252.056	2.55664
255.431	4.92285
258.806	4.9563
262.181	3.30762
265.556	2.98834
268.93	4.79578
272.305	5.47101
275.68	6.14325
279.055	1.9986
282.43	1.96484
285.805	4.61896
289.179	3.40173
292.554	3.13306
295.929	5.65802
299.304	5.34644
302.679	2.77124
306.053	3.39899
309.428	3.2359
312.803	0.233337
316.178	0.730713
319.553	0.189026
322.928	0.267212
326.302	2.55273
329.677	0.125244
333.052	2.4353
336.427	3.70367
339.802	7.12982
343.176	15.1874
346.551	22.6931
349.926	28.3384
353.301	34.4512
356.676	33.8319
360.051	28.6668
363.425	25.7
366.8	19.5636
370.175	14.3919
373.55	13.6351
376.925	13.3307
380.3	15.2991
383.674	18.1019
387.049	19.7963
390.424	19.4083
393.799	19.0897
397.174	17.161
400.548	17.5958
403.923	20.2173
407.298	19.9748
410.673	19.7866
414.048	16.9329
417.423	9.27191
420.797	4.40613
424.172	0.523071
427.547	0.560974
430.922	2.62262
434.296	1.29382
437.671	2.1095
441.046	6.01227
444.421	9.57941
447.796	13.4188
451.171	14.8594
454.545	7.76196
457.92	5.02936
461.295	5.10309
464.67	4.04852
468.045	1.58569
471.42	4.00397
474.794	6.24915
478.169	10.3242
481.544	13.9826
484.919	22.0451
488.294	26.1334
491.668	36.2746
495.043	54.1675
498.418	74.0875
501.793	91.084
505.168	108.96
508.543	122.896
511.917	129.556
515.292	117.723
518.667	90.9681
522.042	69.3372
525.417	52.0128
528.791	37.0418
532.166	26.0621
535.541	16.2371
538.916	12.142
542.291	6.15826
545.665	0.681885
549.04	0.823914
552.415	1.27234
555.79	0.350342
559.165	0.378479
562.54	0.812805
565.914	3.36304
569.289	5.97754
572.664	9.16992
576.039	8.76355
579.414	10.6632
582.788	14.4092
586.163	18.2247
589.538	16.0831
592.913	14.203
596.288	11.8017
599.663	11.0936
603.037	10.21
606.412	6.8772
609.787	4.45398
613.162	3.41156
616.537	3.46002
619.912	3.05872
623.286	0.312683
626.661	0.169373
630.036	0.205078
633.411	0.52002
636.786	0.371399
640.16	2.0741
643.535	1.28369
646.91	2.2226
650.285	3.38513
653.66	2.62323
657.034	2.61383
660.409	1.45502
663.784	1.82507
667.159	3.31372
670.534	4.14154
673.909	5.33325
677.283	2.95306
680.658	0.727051
684.033	3.32208
687.408	3.953
690.783	1.90875
694.158	2.38959
697.532	1.55139
700.907	0.4422
704.282	1.68591
707.657	1.40192
711.032	2.78546
714.406	2.51416
717.781	1.57074
721.156	0.327209
724.531	1.39502
727.906	1.65045
731.28	1.13885
734.655	1.85571
738.03	4.55658
741.405	1.90057
744.78	1.65301
748.154	1.02917
751.529	3.21118
754.904	1.01074
758.279	0.653137
761.654	3.37433
765.029	0.330811
768.403	0.748474
771.778	0.899109
775.153	0.022339
778.528	1.35419
781.903	0.788757
785.278	5.24066
788.652	3.21551
792.027	6.73352
795.402	8.80872
798.777	12.0198
802.152	16.9263
805.526	22.0483
808.901	31.683
812.276	49.5951
815.651	67.4253
819.026	81.0308
822.4	77.9556
825.775	64.8798
829.15	54.9081
832.525	43.7089
835.9	37.2366
839.275	37.6636
842.649	40.8723
846.024	42.3451
849.399	29.2507
852.774	20.0125
856.149	11.5021
859.524	8.13885
862.898	6.79901
866.273	3.44891
869.648	3.88263
873.023	0.261108
876.398	0.093445
879.773	0.848572
883.147	2.62927
886.522	8.14319
889.897	12.6461
893.272	20.602
896.646	32.2141
900.021	50.6715
903.396	75.7187
906.771	109.215
910.146	133.381
913.521	127.38
916.895	89.9601
920.27	45.8173
923.645	22.7847
927.02	12.2425
930.395	7.49951
933.769	4.71539
937.144	0.702881
940.519	3.07306
943.894	1.3894
947.269	0.975159
950.644	3.54248
954.018	5.36114
957.393	7.21521
960.768	13.5418
964.143	20.2816
967.518	30.448
970.893	43.9349
974.267	52.6081
977.642	49.7288
981.017	28.8044
984.392	17.6329
987.767	13.7576
991.141	11.0789
994.516	9.18475
997.891	6.22302
1001.27	2.27264
1004.64	3.46728
1008.02	3.34699
1011.39	0.990479
1014.76	0.604187
1018.14	1.05804
1021.51	1.59399
1024.89	2.23926
1028.26	1.50012
1031.64	0.20874
1035.01	3.08276
1038.39	1.28076
1041.76	3.50153
1045.14	1.74023
1048.51	3.62585
1051.89	4.5437
1055.26	6.51947
1058.64	5.01343
1062.01	5.9538
1065.39	2.26935
1068.76	2.62634
1072.14	2.61029
1075.51	1.20563
1078.89	2.60919
1082.26	1.77875
1085.64	1.39258
1089.01	1.25928
1092.39	1.26874
1095.76	2.57678
1099.14	2.47351
1102.51	2.64716
1105.88	0.84552
1109.26	1.56274
1112.63	1.81543
1116.01	0.190918
1119.38	2.06702
1122.76	4.10938
1126.13	2.7254
1129.51	1.56976
1132.88	4.46136
1136.26	3.19659
1139.63	4.92975
1143.01	3.68805
1146.38	4.59778
1149.76	5.30829
1153.13	2.7915
1156.51	5.49335
1159.88	4.88684
1163.26	4.11926
1166.63	4.6261
1170.01	2.38062
1173.38	3.36658
1176.76	4.49957
1180.13	4.87091
1183.51	3.72003
1186.88	3.71845
1190.26	6.95239
1193.63	3.95081
1197.01	4.64563
1200.38	4.14252
1203.76	2.78107
1207.13	0.048767
1210.51	2.14893
1213.88	5.1413
1217.25	4.151
1220.63	3.95581
1224	3.07709
1227.38	3.27783
1230.75	1.31152
1234.13	0.2146
1237.5	1.09845
1240.88	2.35284
1244.25	1.47968
1247.63	5.50391
1251	2.12158
1254.38	3.0307
1257.75	4.56946
1261.13	2.24829
1264.5	3.21728
1267.88	2.35046
1271.25	2.47632
1274.63	1.0827
1278	1.159
1281.38	1.55664
1284.75	4.50555
1288.12	1.99243
1291.5	1.09418
1294.88	2.2522
1298.25	0.142212
