Measurement: Raman, 532 nm, unoriented, Raman Data Processed
Mineral: Bariandite
Rruff sample: R060602
Ideal chemistry: Al_0.6_(V^5+^,V^4+^)_8_O_20_9H_2_O
Locality: Mounana mine, Franceville, Haut-Ogoou√©, Gabon
Source: Michael Scott
Description: Dark bluish black bladed radiating aggregates
Raman shift (cm-1)	intensity
98.7433	0
102.118	1.18375
105.493	6.2988
108.868	32.1405
112.243	68.6764
115.617	109.797
118.992	156.762
122.367	223.506
125.742	311.905
129.117	426.928
132.492	578.611
135.866	760.183
139.241	925.998
142.616	987.229
145.991	942.492
149.365	861.714
152.74	746.487
156.115	588.257
159.49	429.176
162.865	315.918
166.24	235.874
169.614	180.18
172.989	140.729
176.364	110.623
179.739	95.8553
183.114	72.6467
186.488	66.8538
189.863	57.3203
193.238	42.9554
196.613	30.638
199.988	16.6906
203.363	7.13358
206.737	0.509003
210.112	2.15951
213.487	1.48016
216.862	3.85477
220.237	1.83127
223.612	4.95322
226.986	2.80801
230.361	4.38471
233.736	9.65594
237.111	15.2828
240.486	25.6466
243.86	41.6254
247.235	58.9585
250.61	82.5008
253.985	108.915
257.36	141.099
260.735	180.279
264.109	208.753
267.484	213.7
270.859	199.539
274.234	185.698
277.609	179.828
280.983	171.048
284.358	150.154
287.733	128.983
291.108	112.672
294.483	100.418
297.858	88.3946
301.232	82.4812
304.607	67.1644
307.982	56.1167
311.357	43.7542
314.732	34.9954
318.106	24.9217
321.481	14.5475
324.856	8.94171
328.231	6.75299
331.606	2.4519
334.981	0.790985
338.355	0.377319
341.73	0.022491
345.105	0.588654
348.48	0.339966
351.855	1.61346
355.229	3.83359
358.604	5.1828
361.979	7.47421
365.354	13.5759
368.729	15.9803
372.103	16.6374
375.478	17.2701
378.853	19.3986
382.228	27.6194
385.603	37.8922
388.978	46.5386
392.352	57.4593
395.727	75.4739
399.102	75.654
402.477	82.4692
405.852	80.0851
409.226	71.6956
412.601	61.6068
415.976	50.932
419.351	39.8021
422.726	28.0403
426.101	23.8469
429.475	14.9046
432.85	10.7043
436.225	3.9932
439.6	0.055817
442.975	2.75385
446.349	4.20215
449.724	0.505676
453.099	1.73129
456.474	5.10202
459.849	8.7778
463.224	13.82
466.598	18.4046
469.973	22.9944
473.348	26.2995
476.723	30.3856
480.098	35.486
483.473	42.9785
486.847	49.0422
490.222	62.7082
493.597	78.5857
496.972	100.787
500.347	118.881
503.721	141.025
507.096	161.393
510.471	173.857
513.846	182.927
517.221	187.377
520.596	185.547
523.97	184.269
527.345	173.876
530.72	158.284
534.095	139.823
537.47	126.148
540.844	107.722
544.219	94.0696
547.594	80.4854
550.969	71.8154
554.344	63.6696
557.718	53.085
561.093	46.8347
564.468	40.7732
567.843	32.6994
571.218	26.8805
574.592	21.0543
577.967	18.2901
581.342	11.3209
584.717	9.88071
588.092	7.61655
591.467	1.3428
594.841	0.055786
598.216	3.20901
601.591	2.92725
604.966	3.80325
608.341	1.72745
611.716	0.926086
615.09	1.15335
618.465	0.899963
621.84	0.590668
625.215	0.521362
628.59	2.46082
631.964	3.41049
635.339	7.07422
638.714	11.0218
642.089	11.1
645.464	13.7634
648.838	18.7209
652.213	23.3732
655.588	25.918
658.963	32.1985
662.338	34.7287
665.713	39.4062
669.087	47.2036
672.462	56.7073
675.837	63.7708
679.212	70.5091
682.587	83.2294
685.962	89.2185
689.336	92.0241
692.711	95.4271
696.086	93.6249
699.461	87.48
702.836	78.8489
706.21	68.4103
709.585	68.4348
712.96	52.3813
716.335	47.573
719.71	44.5288
723.085	41.3418
726.459	40.1195
729.834	38.7474
733.209	44.0962
736.584	43.4282
739.959	40.5981
743.333	33.94
746.708	27.8018
750.083	20.9793
753.458	17.8318
756.833	13.943
760.207	10.891
763.582	9.02945
766.957	9.16659
770.332	2.95157
773.707	0.244751
777.082	3.22092
780.456	0.606934
783.831	0.466125
787.206	0.11377
790.581	0.051544
793.956	1.83139
797.33	2.0209
800.705	0.228424
804.08	0.274445
807.455	3.05173
810.83	3.31107
814.205	3.9606
817.579	5.13354
820.954	7.43466
824.329	9.14654
827.704	10.5329
831.079	8.50372
834.453	9.71661
837.828	7.81238
841.203	7.94415
844.578	9.94037
847.953	4.96069
851.328	6.70264
854.702	4.28555
858.077	3.83893
861.452	4.07507
864.827	1.35336
868.202	1.79718
871.577	2.42902
874.951	0.749023
878.326	0.294128
881.701	0.372406
885.076	0.220398
888.451	0.420471
891.825	1.8591
895.2	0.821747
898.575	1.23755
901.95	0.519806
905.325	0.524261
908.699	0.064667
912.074	1.04742
915.449	0.142334
918.824	0.574829
922.199	1.52042
925.573	1.24875
928.948	1.16849
932.323	2.67618
935.698	2.93051
939.073	4.89502
942.448	6.49197
945.822	7.63022
949.197	10.9249
952.572	13.4552
955.947	14.2658
959.322	12.6673
962.697	11.2886
966.071	13.6797
969.446	14.1049
972.821	18.28
976.196	26.6564
979.571	40.177
982.945	55.8615
986.32	76.0454
989.695	94.9755
993.07	84.313
996.445	53.7277
999.819	37.1389
1003.19	26.2965
1006.57	21.5151
1009.94	17.1796
1013.32	12.3053
1016.69	11.3124
1020.07	11.2332
1023.44	10.3695
1026.82	13.9512
1030.19	17.4814
1033.57	17.365
1036.94	16.7992
1040.32	11.064
1043.69	2.64404
1047.07	0.397522
1050.44	1.1684
1053.82	0.428284
1057.19	0.641937
1060.57	1.30066
1063.94	0.018463
1067.32	1.36298
1070.69	1.64734
1074.07	1.99985
1077.44	2.62537
1080.82	2.3346
1084.19	3.52097
1087.57	1.40408
1090.94	1.53894
1094.31	0.857025
1097.69	2.52719
1101.06	6.75638
1104.44	4.50986
1107.81	1.66684
1111.19	1.27322
1114.56	0.29007
1117.94	1.19974
1121.31	2.16305
1124.69	0.946136
1128.06	0.020111
1131.44	0.457245
1134.81	1.6943
1138.19	1.06448
1141.56	2.36948
1144.94	2.5705
1148.31	0.376862
1151.69	0.830078
1155.06	1.03638
1158.44	0.770294
1161.81	2.952
1165.19	1.54187
1168.56	0.642181
1171.93	1.12521
1175.31	1.10211
1178.68	2.25961
1182.06	0.741852
1185.43	0.757629
1188.81	1.78503
1192.18	2.48587
1195.56	2.50549
1198.93	2.38583
1202.31	1.73468
1205.68	1.21738
1209.06	1.18033
1212.43	2.85934
1215.81	1.24332
1219.18	0.964996
1222.56	1.05817
1225.93	0.314484
1229.31	2.09695
1232.68	0.665802
1236.06	0.447418
1239.43	1.15082
1242.81	0.744415
1246.18	1.8819
1249.56	2.82138
1252.93	1.25357
1256.31	3.34085
1259.68	1.63846
1263.06	2.13403
1266.43	6.4003
1269.81	0.493958
1273.18	1.43347
1276.56	0.806122
1279.93	2.23285
1283.3	2.02643
1286.68	0.993591
1290.05	0.11676
1293.43	1.33633
1296.8	0.72464
1300.18	0.160248
