Measurement: Raman, 780 nm, unoriented, Raman Data Processed
Mineral: Bariandite
Rruff sample: R060602
Ideal chemistry: Al_0.6_(V^5+^,V^4+^)_8_O_20_9H_2_O
Locality: Mounana mine, Franceville, Haut-Ogoou√©, Gabon
Source: Michael Scott
Description: Dark bluish black bladed radiating aggregates
Raman shift (cm-1)	intensity
103.01	0
106.385	0.010498
109.759	20.0629
113.134	69.1695
116.509	137.613
119.884	237.43
123.259	373.596
126.633	546.825
130.008	778.602
133.383	1070.68
136.758	1327.76
140.133	1321.32
143.508	989.767
146.882	615.582
150.257	355.899
153.632	197.41
157.007	105.362
160.382	55.9184
163.756	22.3415
167.131	4.5029
170.506	3.97513
173.881	2.12826
177.256	4.49435
180.631	18.6127
184.005	37.1513
187.38	53.539
190.755	55.0695
194.13	41.4273
197.505	23.7171
200.88	10.383
204.254	2.65305
207.629	3.19304
211.004	5.2272
214.379	3.06856
217.754	1.33285
221.128	2.18149
224.503	6.51869
227.878	8.73892
231.253	11.7088
234.628	15.3219
238.002	16.2336
241.377	19.3789
244.752	23.3687
248.127	28.7358
251.502	33.992
254.877	43.5973
258.251	54.3914
261.626	69.8123
265.001	91.9597
268.376	115.362
271.751	148.256
275.125	190.039
278.5	222.315
281.875	223.505
285.25	200.31
288.625	174.948
292	149.465
295.374	131.358
298.749	112.948
302.124	98.599
305.499	81.992
308.874	65.4357
312.248	52.9749
315.623	41.1654
318.998	32.4043
322.373	23.4553
325.748	18.6523
329.123	14.4782
332.497	12.5989
335.872	8.82855
339.247	5.87451
342.622	4.63351
345.997	3.34892
349.372	1.24703
352.746	0.459167
356.121	0.018219
359.496	1.21403
362.871	1.88182
366.246	0.393112
369.62	0.144241
372.995	0.749939
376.37	1.70338
379.745	4.59749
383.12	15.9561
386.495	11.2155
389.869	18.7056
393.244	25.0697
396.619	31.5666
399.994	38.9278
403.369	43.2074
406.743	37.8412
410.118	30.7397
413.493	19.8859
416.868	13.6252
420.243	7.75877
423.618	3.00796
426.992	2.10252
430.367	0.490189
433.742	1.09657
437.117	1.26509
440.492	2.7184
443.866	4.3101
447.241	6.47701
450.616	8.15994
453.991	10.9987
457.366	12.3718
460.74	13.7785
464.115	15.0528
467.49	15.1202
470.865	15.1864
474.24	13.0633
477.615	11.7617
480.989	11.3236
484.364	7.23592
487.739	6.54887
491.114	4.56244
494.489	3.11815
497.863	4.04115
501.238	4.51367
504.613	3.82216
507.988	4.45921
511.363	7.02698
514.737	5.92334
518.112	11.6668
521.487	9.81093
524.862	10.1595
528.237	10.5722
531.612	9.50774
534.986	10.2305
538.361	7.68663
541.736	7.09177
545.111	4.57382
548.486	4.13734
551.861	5.39607
555.235	2.5799
558.61	1.75293
561.985	0.585953
565.36	1.79204
568.735	0.065765
572.109	0.245529
575.484	0.791824
578.859	0.796997
582.234	0.440918
585.609	0.39357
588.984	1.47595
592.358	0.260971
595.733	0.939606
599.108	1.40392
602.483	0.825287
605.858	2.44627
609.232	0.365662
612.607	2.89841
615.982	1.01988
619.357	2.36195
622.732	8.03154
626.107	5.12804
629.481	4.5979
632.856	6.00993
636.231	8.27475
639.606	7.28831
642.981	10.2099
646.356	10.331
649.73	11.9746
653.105	13.9644
656.48	17.3864
659.855	21.1087
663.23	22.9491
666.604	26.3877
669.979	30.2065
673.354	35.0818
676.729	40.124
680.104	43.4229
683.479	47.914
686.853	49.7432
690.228	48.027
693.603	46.7423
696.978	44.1691
700.352	39.5406
703.727	35.2227
707.102	30.5479
710.477	24.8596
713.852	21.4093
717.227	16.3661
720.601	13.9804
723.976	11.5476
727.351	9.38407
730.726	7.99916
734.101	5.25039
737.476	4.02621
740.85	2.89278
744.225	2.47531
747.6	1.53381
750.975	0.040665
754.35	0.081184
757.724	0.156441
761.099	0.91433
764.474	0.493378
767.849	0.565315
771.224	0.656769
774.598	0.178513
777.973	1.41138
781.348	0.148087
784.723	0.702209
788.098	1.25212
791.473	0.968872
794.847	0.589409
798.222	0.983414
801.597	1.99391
804.972	2.67705
808.347	2.64858
811.722	1.17305
815.096	1.36671
818.471	2.56104
821.846	2.08536
825.221	2.49674
828.596	2.62148
831.971	1.82986
835.345	1.56924
838.72	2.62218
842.095	1.65292
845.47	2.13324
848.845	1.12119
852.219	4.84853
855.594	1.54834
858.969	1.60878
862.344	1.52082
865.719	0.726807
869.093	9.85557
872.468	1.18082
875.843	0.206429
879.218	0.519379
882.593	0.086212
885.967	0.472481
889.342	0.046036
892.717	0.354836
896.092	0.142838
899.467	0.339119
902.842	0.891899
906.216	0.796806
909.591	1.47027
912.966	1.16081
916.341	1.82079
919.716	1.92517
923.091	2.40159
926.465	2.58435
929.84	3.87832
933.215	2.91576
936.59	28.0932
939.965	2.4797
943.339	2.59917
946.714	2.90623
950.089	3.51375
953.464	3.5545
956.839	3.77972
960.213	5.33678
963.588	7.16997
966.963	8.076
970.338	10.2107
973.713	13.9253
977.088	22.1271
980.462	35.3056
983.837	54.7406
987.212	75.2214
990.587	71.0669
993.962	44.1682
997.337	24.5591
1000.71	14.5591
1004.09	9.67325
1007.46	6.61691
1010.84	4.21089
1014.21	4.4482
1017.59	1.9639
1020.96	2.43614
1024.34	1.49242
1027.71	1.20265
1031.09	1.24123
1034.46	0.829895
1037.83	3.3371
1041.21	0.594704
1044.58	0.012383
1047.96	0.223259
1051.33	0.159203
1054.71	0.362305
1058.08	1.01868
1061.46	0.186653
1064.83	1.01715
1068.21	0.293472
1071.58	0.745628
1074.96	0.060097
1078.33	0.703087
1081.71	1.44377
1085.08	0.723076
1088.46	1.00411
1091.83	0.20015
1095.21	1.1054
1098.58	0.94677
1101.96	0.66568
1105.33	0.414055
1108.71	0.71785
1112.08	0.519066
1115.45	0.174805
1118.83	0.324707
1122.2	1.11665
1125.58	0.292896
1128.95	1.16545
1132.33	0.935532
1135.7	0.08403
1139.08	0.728245
1142.45	0.853268
1145.83	8.84687
1149.2	1.17546
1152.58	1.71788
1155.95	1.91984
1159.33	0.099659
1162.7	0.458817
1166.08	0.464386
1169.45	0.128719
1172.83	1.52733
1176.2	0.916485
1179.58	0.759415
1182.95	0.380013
1186.33	0.73595
1189.7	1.47866
1193.08	0.677864
1196.45	1.00699
1199.83	0.374702
1203.2	0.634716
1206.58	1.40844
1209.95	0.783009
1213.33	1.58924
1216.7	0.975838
1220.07	1.65699
1223.45	8.27249
1226.82	0.668701
1230.2	0.652954
1233.57	0.321648
1236.95	0.988728
1240.32	3.37479
1243.7	0.563969
1247.07	0.701103
1250.45	1.30555
1253.82	0.913326
1257.2	0.433331
1260.57	0.041008
1263.95	0.039337
1267.32	0.22604
1270.7	1.07733
1274.07	0.460968
1277.45	0.22868
1280.82	0.007412
