Measurement: Raman, 780 nm, unoriented, Raman Data RAW
Mineral: Barrerite
Rruff sample: R050135
Ideal chemistry: Na_2_(Al_2_Si_7_)O_18_6H_2_O
Locality: Kuiu Island, Alaska, USA
Source: Ben Norton
Description: Colorless laminar crystals
Measured chemistry: (Na_4.49_K_1.30_Ca_1.23_[box]_0.98_)_Σ=8_(Si_27.75_Al_8.25_)O_72_·19H_2_O
Raman shift (cm-1)	intensity
93.5674	244.164
96.9422	247.585
100.317	234.557
103.692	222.694
107.067	218.901
110.442	213.614
113.816	212.2
117.191	216.436
120.566	217.744
123.941	218.479
127.316	211.911
130.69	206.679
134.065	197.952
137.44	186.635
140.815	178.682
144.19	169.388
147.564	161.21
150.939	154.52
154.314	149.282
157.689	142.929
161.064	133.669
164.439	127.719
167.813	122.908
171.188	114.561
174.563	109.846
177.938	107.232
181.313	102.305
184.687	98.7575
188.062	94.8889
191.437	94.129
194.812	90.83
198.187	89.3706
201.561	88.7061
204.936	86.6728
208.311	87.5511
211.686	85.5729
215.061	87.1577
218.436	87.3132
221.81	88.4106
225.185	89.5045
228.56	89.158
231.935	90.649
235.31	91.9488
238.685	93.1405
242.059	95.2949
245.434	96.8547
248.809	97.8397
252.184	100.572
255.559	100.188
258.933	102.69
262.308	104.466
265.683	108.126
269.058	110.305
272.433	113.104
275.808	116.639
279.182	118.781
282.557	116.549
285.932	114.367
289.307	109.466
292.682	105.436
296.056	102.095
299.431	98.5229
302.806	97.3038
306.181	93.0309
309.556	92.5056
312.93	90.7352
316.305	89.002
319.68	87.8478
323.055	87.3774
326.43	87.4071
329.805	87.0577
333.179	85.8966
336.554	84.8959
339.929	83.0288
343.304	82.0933
346.679	83.9856
350.053	86.0201
353.428	86.7561
356.803	90.376
360.178	94.1709
363.553	98.366
366.928	107.118
370.302	114.513
373.677	124.833
377.052	137.313
380.427	151.806
383.802	170.629
387.176	194.303
390.551	221.09
393.926	257.353
397.301	293.682
400.676	337.256
404.05	373.94
407.425	393.092
410.8	381.66
414.175	344.079
417.55	293.118
420.925	245.952
424.299	210.251
427.674	180.565
431.049	160.715
434.424	146.4
437.799	138.315
441.173	133.604
444.548	131.608
447.923	133.568
451.298	140.216
454.673	144.268
458.048	148.179
461.422	143.337
464.797	127.594
468.172	113.003
471.547	103.043
474.922	101.468
478.296	104.632
481.671	113.982
485.046	127.198
488.421	146.823
491.796	169.322
495.171	192.633
498.545	182.484
501.92	141.751
505.295	103.158
508.67	76.847
512.045	64.523
515.419	55.1721
518.794	51.1995
522.169	47.7214
525.544	44.8329
528.919	42.3782
532.293	40.8825
535.668	39.4285
539.043	38.4296
542.418	37.1745
545.793	38.3109
549.168	37.1867
552.542	37.4018
555.917	35.6598
559.292	36.3533
562.667	38.1228
566.042	36.9524
569.417	36.7052
572.791	35.4574
576.166	35.6636
579.541	35.5679
582.916	37.7258
586.291	38.8893
589.665	39.3379
593.04	40.7233
596.415	42.4549
599.79	45.9604
603.165	47.6593
606.539	49.6923
609.914	52.7226
613.289	53.952
616.664	54.3147
620.039	52.7902
623.413	51.2805
626.788	48.6727
630.163	46.1506
633.538	44.4979
636.913	41.6221
640.288	40.0239
643.662	38.2012
647.037	37.3591
650.412	36.0402
653.787	34.3488
657.162	33.5137
660.537	31.636
663.911	32.0522
667.286	31.1001
670.661	30.5934
674.036	29.9778
677.411	29.8313
680.785	30.99
684.16	29.4805
687.535	28.5556
690.91	28.7982
694.285	28.9757
697.659	28.9211
701.034	29.5202
704.409	29.0917
707.784	28.9814
711.159	29.637
714.534	29.8356
717.908	29.5525
721.283	30.1127
724.658	30.2903
728.033	30.8854
731.408	29.8682
734.783	30.2086
738.157	29.511
741.532	29.4138
744.907	28.5675
748.282	28.3654
751.657	29.0005
755.031	29.5396
758.406	29.2777
761.781	30.151
765.156	29.8413
768.531	30.8447
771.905	31.6217
775.28	32.856
778.655	32.0492
782.03	32.5865
785.405	33.051
788.779	33.5256
792.154	32.8945
795.529	31.6962
798.904	32.0457
802.279	29.3968
805.654	29.3258
809.028	28.9778
812.403	27.0431
815.778	25.9043
819.153	24.8574
822.528	23.8395
825.903	23.7318
829.277	23.3637
832.652	23.2264
836.027	22.6791
839.402	21.6967
842.777	22.1338
846.151	21.9961
849.526	21.8447
852.901	22.0401
856.276	21.5277
859.651	21.6447
863.025	20.8614
866.4	20.4703
869.775	20.6326
873.15	20.101
876.525	19.2278
879.9	18.9032
883.274	19.031
886.649	18.3364
890.024	19.8635
893.399	18.4764
896.774	19.0624
900.149	17.0608
903.523	17.4519
906.898	17.2049
910.273	17.0825
913.648	17.2808
917.023	16.3417
920.397	16.6458
923.772	16.1109
927.147	15.6822
930.522	16.7771
933.897	15.5855
937.271	16.4256
940.646	15.7844
944.021	16.097
947.396	15.9758
950.771	15.7108
954.145	16.2551
957.52	15.3065
960.895	16.3267
964.27	15.6727
967.645	15.6938
971.02	16.5882
974.394	16.085
977.769	16.7454
981.144	17.237
984.519	17.7251
987.894	17.5125
991.269	19.6363
994.643	18.5243
998.018	18.7438
1001.39	19.3107
1004.77	20.7481
1008.14	21.1072
1011.52	21.3709
1014.89	21.2474
1018.27	22.3505
1021.64	21.9077
1025.02	22.7476
1028.39	22.6256
1031.77	22.7004
1035.14	23.5438
1038.52	22.5235
1041.89	23.7243
1045.27	22.6497
1048.64	22.1797
1052.02	22.0532
1055.39	21.5537
1058.77	21.0509
1062.14	21.5542
1065.52	21.1305
1068.89	21.4613
1072.26	20.9966
1075.64	21.9655
1079.01	22.8729
1082.39	24.2669
1085.76	25.7319
1089.14	27.3904
1092.51	27.3002
1095.89	30.1487
1099.26	30.8884
1102.64	31.7875
1106.01	33.0471
1109.39	33.5965
1112.76	35.3664
1116.14	35.4774
1119.51	37.6353
1122.89	37.9141
1126.26	37.8455
1129.64	37.4546
1133.01	38.8054
1136.39	37.1823
1139.76	38.8995
1143.13	38.2473
1146.51	37.0468
1149.88	37.6833
1153.26	36.9073
1156.63	35.4924
1160.01	33.9959
1163.38	33.1631
1166.76	31.7164
1170.13	27.6574
1173.51	26.4258
1176.88	24.1091
1180.26	22.0223
1183.63	20.4395
1187.01	18.6169
1190.38	17.4134
1193.76	16.6493
1197.13	16.2819
1200.51	15.6772
1203.88	14.7895
1207.26	14.0937
1210.63	13.8237
1214.01	13.5435
1217.38	12.2995
1220.76	12.3706
1224.13	12.1806
1227.51	11.8399
1230.88	11.7972
1234.26	11.4425
1237.63	11.9161
1241.01	11.7814
1244.38	11.9337
1247.76	11.0656
1251.13	11.5331
1254.5	11.4494
1257.88	11.3364
1261.25	11.9442
1264.63	11.8819
1268	11.6125
1271.38	11.2194
1274.75	11.1883
1278.13	11.2922
1281.5	11.1878
1284.88	11.2531
