Measurement: Raman, 532 nm, unoriented, Raman Data RAW
Mineral: Baryte
Rruff sample: R040036
Ideal chemistry: BaS^6+^O_4_
Locality: Cumbria County, England
Source: University of Arizona Mineral Museum
Description: Golden brown tabular crystal
Measured chemistry: Ba_1.00_S_1.00_O_4_; trace amounts of Pb
Raman shift (cm-1)	intensity
134.868	0
137.761	20.8951
140.654	77.4506
143.546	81.5109
146.439	242.454
149.332	390.655
152.225	449.083
155.117	266.577
158.01	64.4153
160.903	1.51135
163.795	29.7808
166.688	12.8303
169.581	40.2109
172.473	18.8579
175.366	99.4708
178.259	160.126
181.151	227.358
184.044	320.967
186.937	478.33
189.83	391.74
192.722	189.604
195.615	72.3217
198.508	32.3235
201.4	16.1606
204.293	23.3677
207.186	10.2985
210.078	18.3755
212.971	18.2825
215.864	8.07715
218.756	4.83557
221.649	24.369
224.542	2.18616
227.435	20.1465
230.327	30.384
233.22	19.7189
236.113	6.3208
239.005	41.8579
241.898	58.5333
244.791	8.41223
247.684	58.0491
250.576	77.651
253.469	30.7351
256.362	95.05
259.254	56.0411
262.147	41.6583
265.04	60.7797
267.932	36.4076
270.825	61.5619
273.718	24.8223
276.611	50.3706
279.503	34.6027
282.396	83.9579
285.289	26.0389
288.181	27.0821
291.074	61.2848
293.967	48.7307
296.859	56.5967
299.752	20.7982
302.645	43.0039
305.538	7.86804
308.43	7.15173
311.323	50.3567
314.216	31.9669
317.108	6.927
320.001	31.9969
322.894	41.4576
325.786	34.9843
328.679	15.0344
331.572	64.6022
334.464	20.1031
337.357	7.32068
340.25	34.0209
343.143	20.9908
346.035	36.6638
348.928	67.6216
351.821	13.3896
354.713	38.6609
357.606	24.3585
360.499	20.6039
363.392	44.6124
366.284	39.5879
369.177	15.0161
372.07	18.1201
374.962	30.0678
377.855	11.0464
380.748	15.2459
383.64	34.437
386.533	4.84338
389.426	16.11
392.318	26.6143
395.211	28.6284
398.104	30.0574
400.997	1.84424
403.889	43.2329
406.782	4.69336
409.675	21.4197
412.567	5.88525
415.46	35.4622
418.353	89.0327
421.245	127.038
424.138	139.434
427.031	245.626
429.924	334.835
432.816	601.812
435.709	919.713
438.602	1391.75
441.494	2229.55
444.387	3596.41
447.28	5204.6
450.173	7232.45
453.065	8839.99
455.958	9767.81
458.851	13045.8
461.743	14814.7
464.636	7237.34
467.529	2673.06
470.421	1271.59
473.314	715.07
476.207	427.766
479.099	298.457
481.992	189.915
484.885	103.722
487.778	147.903
490.67	91.3008
493.563	54.7341
496.456	57.1521
499.348	32.3005
502.241	72.6506
505.134	24.9404
508.026	19.7913
510.919	66.7231
513.812	0.415283
516.705	17.7026
519.597	31.3377
522.49	9.31421
525.383	31.7185
528.275	3.8081
531.168	4.56738
534.061	46.7239
536.953	41.5037
539.846	12.9563
542.739	6.24927
545.632	30.3586
548.524	19.4297
551.417	29.5815
554.31	11.7544
557.202	13.8955
560.095	13.9604
562.988	23.7891
565.88	39.0642
568.773	41.177
571.666	13.4182
574.559	19.3828
577.451	34.2852
580.344	32.8484
583.237	36.7165
586.129	62.0383
589.022	64.6084
591.915	112.175
594.807	77.6021
597.7	170.808
600.593	284.463
603.486	467.812
606.378	634.743
609.271	986.548
612.164	1623.12
615.056	2423.86
617.949	2417.61
620.842	1506.24
623.734	1333.05
626.627	1563.05
629.52	1818.11
632.413	1200.66
635.305	629.242
638.198	406.196
641.091	337.001
643.983	382.705
646.876	321.526
649.769	219.05
652.661	110.195
655.554	32.6069
658.447	64.5686
661.34	10.0486
664.232	8.90723
667.125	2.2356
670.018	20.6274
672.91	39.896
675.803	28.6516
678.696	3.9956
681.588	9.26733
684.481	73.9187
687.374	7.27686
690.266	13.4285
693.159	32.834
696.052	65.7588
698.945	22.1487
701.837	22.1592
704.73	15.044
707.623	1.72632
710.515	31.0408
713.408	66.8164
716.301	23.9998
719.193	20.5571
722.086	20.658
724.979	21.1223
727.872	16.2834
730.764	2.31812
733.657	9.55835
736.55	21.1782
739.442	42.5376
742.335	32.7776
745.228	1.64526
748.12	18.6956
751.013	27.0718
753.906	49.5715
756.799	12.7651
759.691	0.052979
762.584	32.3372
765.477	83.481
768.369	29.1677
771.262	43.0178
774.155	26.0024
777.048	30.8835
779.94	37.614
782.833	21.9202
785.726	70.97
788.618	56.908
791.511	30.0332
794.404	76.0217
797.296	35.8411
800.189	76.5718
803.082	30.2522
805.975	13.9397
808.867	58.4932
811.76	41.3132
814.653	25.9902
817.545	24.9727
820.438	16.093
823.331	18.9106
826.223	46.1321
829.116	56.8306
832.009	58.592
834.902	56.394
837.794	55.1575
840.687	40.4739
843.58	59.8396
846.472	21.3674
849.365	26.0959
852.258	5.18726
855.15	37.5601
858.043	32.3862
860.936	79.4363
863.828	7.3894
866.721	22.3755
869.614	19.1753
872.507	1.0769
875.399	14.5322
878.292	27.8594
881.185	17.4868
884.077	1.79614
886.97	7.13013
889.863	12.0886
892.755	16.8013
895.648	14.9363
898.541	61.6177
901.434	48.6609
904.326	43.3279
907.219	6.74097
910.112	15.3711
913.004	3.5896
915.897	23.6086
918.79	26.2649
921.683	56.7458
924.575	9.09741
927.468	40.3687
930.361	9.93359
933.253	52.6682
936.146	4.82446
939.039	17.9094
941.931	28.3069
944.824	89.4834
947.717	3.2168
950.61	53.0098
953.502	55.4827
956.395	106.202
959.288	110.428
962.18	262.238
965.073	412.283
967.966	572.627
970.858	1097.9
973.751	3328.21
976.644	7422.93
979.537	10640.5
982.429	17271.1
985.322	35276.9
988.215	59809.2
991.107	15138
994	3543.55
996.893	1566.39
999.785	874.54
1002.68	575.863
1005.57	370.044
1008.46	292.247
1011.36	222.722
1014.25	229.05
1017.14	146.008
1020.03	158.238
1022.93	215.649
1025.82	155.539
1028.71	120.703
1031.61	127.91
1034.5	47.1985
1037.39	7.69385
1040.28	0.232178
1043.18	7.44531
1046.07	46.096
1048.96	15.7078
1051.85	1.8457
1054.75	24.5449
1057.64	22.7595
1060.53	12.6658
1063.42	16.4707
1066.32	48.2585
1069.21	0.757568
1072.1	8.52905
1075	26.6623
1077.89	5.64746
1080.78	61.5361
1083.67	61.2026
1086.57	62.0847
1089.46	86.8828
1092.35	110.253
1095.24	192.023
1098.14	223.582
1101.03	291.124
1103.92	317.551
1106.82	216.248
1109.71	94.6011
1112.6	67.5654
1115.49	98.7295
1118.39	107.93
1121.28	211.465
1124.17	280.089
1127.06	449.344
1129.96	840.812
1132.85	1288.12
1135.74	1961.03
1138.63	2780.66
1141.53	3580.38
1144.42	3556.99
1147.31	2425.44
1150.21	1345.94
1153.1	753.365
1155.99	509.072
1158.88	369.672
1161.78	313.536
1164.67	310.587
1167.56	277.648
1170.45	139.934
1173.35	130.389
1176.24	71.7366
1179.13	55.2429
1182.03	17.865
1184.92	14.3967
1187.81	4.30859
1190.7	1.41724
1193.6	11.5024
1196.49	13.447
1199.38	16.6404
1202.27	26.4748
1205.17	0.148438
1208.06	27.0317
1210.95	71.4338
1213.85	16.0789
1216.74	27.0913
1219.63	54.3428
1222.52	28.3296
1225.42	27.6931
1228.31	74.8845
1231.2	61.0444
1234.09	53.3023
1236.99	35.7383
1239.88	88.6216
1242.77	53.377
1245.66	35.7835
1248.56	78.3054
1251.45	33.8884
1254.34	67.3569
1257.24	49.0889
1260.13	23.0037
1263.02	37.8254
1265.91	42.3037
1268.81	17.7339
1271.7	29.7214
1274.59	51.3247
1277.48	53.4067
1280.38	3.98071
1283.27	46.4087
1286.16	8.13989
