Measurement: Raman, 532 nm, unoriented, Raman Data RAW
Mineral: Barylite
Rruff sample: R060606
Ideal chemistry: BaBe_2_Si_2_O_7_
Locality: Hackmann Valley, Yukspor Mountain, Khibiny, Kola, Russia
Source: Michael Scott
Description: Radiating group of colorless flattened bladed crystals on white microcline. Polytype barylite-1O, formally known as clinobarylite.
Measured chemistry: Ba_1.00_Be_2.00_Si_2.00_O_7_ ; trace amounts of Ti; BeO estimated by difference
Raman shift (cm-1)	intensity
89.3616	0
92.7365	26.1691
96.1113	24.4706
99.4861	21.5249
102.861	21.3002
106.236	20.1005
109.611	18.6668
112.985	16.8015
116.36	16.5256
119.735	15.2658
123.11	13.8967
126.485	13.8566
129.859	13.1041
133.234	12.6253
136.609	12.3393
139.984	11.6756
143.359	11.3269
146.733	10.5489
150.108	10.1859
153.483	10.0112
156.858	9.84943
160.233	10.1912
163.608	12.2486
166.982	16.9956
170.357	22.3396
173.732	31.7129
177.107	40.0671
180.482	44.124
183.857	49.6561
187.231	62.9554
190.606	77.7359
193.981	98.8607
197.356	111.872
200.731	134.659
204.105	172.813
207.48	185.114
210.855	198.806
214.23	159.156
217.605	99.6107
220.98	80.1412
224.354	72.4661
227.729	70.5555
231.104	69.1109
234.479	68.1582
237.854	69.4837
241.228	68.7639
244.603	69.0607
247.978	69.236
251.353	72.5153
254.728	77.4394
258.103	80.6369
261.477	81.2219
264.852	85.4662
268.227	94.0016
271.602	104.765
274.977	82.2156
278.351	76.741
281.726	78.3186
285.101	80.0805
288.476	77.037
291.851	73.6746
295.226	72.7509
298.6	74.1878
301.975	78.206
305.35	76.4867
308.725	74.1937
312.099	76.3953
315.474	80.0903
318.849	84.6548
322.224	93.9695
325.599	108.323
328.974	105.765
332.348	84.6671
335.723	76.4465
339.098	74.8609
342.473	74.2541
345.848	73.6705
349.223	74.2136
352.597	77.7104
355.972	89.7288
359.347	101.959
362.722	112.555
366.097	135.938
369.471	191.162
372.846	254.309
376.221	166.013
379.596	105.256
382.971	95.2665
386.346	96.8862
389.72	111.437
393.095	117.758
396.47	88.4493
399.845	79.8172
403.22	78.2651
406.594	76.8789
409.969	77.2567
413.344	79.1559
416.719	80.0635
420.094	82.0742
423.469	90.5994
426.843	105.999
430.218	119.378
433.593	102.999
436.968	102.559
440.343	102.56
443.717	108.892
447.092	112.95
450.467	101.811
453.842	100.96
457.217	110.653
460.591	114.627
463.966	91.3332
467.341	90.6207
470.716	94.7593
474.091	98.0457
477.466	94.9648
480.84	87.1478
484.215	85.3395
487.59	83.9341
490.965	86.9278
494.34	93.5239
497.714	92.9027
501.089	95.0979
504.464	102.319
507.839	116.32
511.214	139.263
514.589	151.572
517.963	122.298
521.338	89.4994
524.713	83.8625
528.088	79.5975
531.463	78.6827
534.837	77.6268
538.212	77.4729
541.587	76.9852
544.962	76.643
548.337	80.1432
551.712	77.8371
555.086	76.8769
558.461	77.2294
561.836	77.9196
565.211	78.6072
568.586	80.5265
571.96	83.0961
575.335	85.7074
578.71	81.9185
582.085	78.6917
585.46	78.4009
588.835	77.8256
592.209	78.3187
595.584	78.4645
598.959	79.8636
602.334	81.7617
605.709	83.0085
609.083	84.9411
612.458	86.0571
615.833	85.6447
619.208	85.8901
622.583	85.5434
625.957	87.0664
629.332	87.2383
632.707	87.2441
636.082	87.2667
639.457	88.5035
642.832	88.6223
646.206	88.7751
649.581	89.1838
652.956	89.5048
656.331	89.927
659.706	90.7697
663.081	93.5269
666.455	99.1374
669.83	112.901
673.205	140.326
676.58	177.374
679.955	233.901
683.329	324.638
686.704	383.576
690.079	275.802
693.454	177.71
696.829	137.451
700.203	117.945
703.578	107.456
706.953	100.218
710.328	97.6012
713.703	94.3596
717.078	93.6726
720.452	92.6954
723.827	93.3111
727.202	94.1925
730.577	94.4216
733.952	93.2912
737.327	92.7517
740.701	93.6674
744.076	95.1275
747.451	95.7569
750.826	93.8289
754.201	90.9179
757.575	90.7996
760.95	90.8468
764.325	92.056
767.7	91.597
771.075	91.7655
774.449	91.6941
777.824	92.7046
781.199	91.9131
784.574	90.457
787.949	90.1797
791.323	91.096
794.698	92.6649
798.073	93.5997
801.448	92.0795
804.823	92.1484
808.198	92.0696
811.572	93.6436
814.947	91.7434
818.322	91.6933
821.697	91.1539
825.072	90.6934
828.447	90.4399
831.821	91.2411
835.196	90.8001
838.571	90.54
841.946	90.5542
845.321	91.4235
848.695	91.0002
852.07	91.0741
855.445	91.0117
858.82	91.1324
862.195	91.6232
865.569	90.9257
868.944	91.8238
872.319	91.4566
875.694	91.9038
879.069	93.7888
882.444	92.7898
885.818	93.8277
889.193	94.7198
892.568	96.1585
895.943	97.1178
899.318	98.1115
902.692	97.863
906.067	99.2761
909.442	102.073
912.817	105.835
916.192	111.393
919.567	119.832
922.941	131.624
926.316	146.865
929.691	167.953
933.066	173.537
936.441	151.634
939.816	145.229
943.19	167.177
946.565	209.472
949.94	270.862
953.315	360.925
956.69	368.813
960.064	244.013
963.439	172.045
966.814	143.94
970.189	128.893
973.564	120.865
976.938	115.422
980.313	106.754
983.688	103.469
987.063	101.308
990.438	101.27
993.813	99.2385
997.187	97.7045
1000.56	96.9503
1003.94	96.0196
1007.31	96.0768
1010.69	96.117
1014.06	94.9893
1017.44	93.8777
1020.81	93.036
1024.19	93.8561
1027.56	93.5757
1030.94	94.2383
1034.31	94.6304
1037.68	94.3701
1041.06	95.4006
1044.43	95.0242
1047.81	94.5865
1051.18	95.232
1054.56	95.7001
1057.93	95.863
1061.31	97.3314
1064.68	97.9882
1068.06	99.2559
1071.43	99.8521
1074.81	101.071
1078.18	101.267
1081.56	100.017
1084.93	100.346
1088.31	99.6306
1091.68	98.6032
1095.06	97.3685
1098.43	95.8698
1101.81	94.8296
1105.18	94.7586
1108.56	94.2543
1111.93	94.4442
1115.31	96.014
1118.68	96.4214
1122.06	98.2111
1125.43	97.8667
1128.81	97.1693
1132.18	96.4241
1135.56	96.1721
1138.93	96.7205
1142.3	95.6258
1145.68	95.0722
1149.05	94.4159
1152.43	94.2141
1155.8	94.1746
1159.18	93.0373
1162.55	93.4576
1165.93	94.2385
1169.3	93.765
1172.68	93.9635
1176.05	94.231
1179.43	93.9587
1182.8	94.2986
1186.18	94.7244
1189.55	94.2087
1192.93	93.9551
1196.3	94.5139
1199.68	95.2836
1203.05	94.5945
1206.43	94.9904
1209.8	96.8394
1213.18	96.2479
1216.55	96.1484
1219.92	95.2716
1223.3	95.93
1226.67	95.609
1230.05	95.9163
1233.42	96.8179
1236.8	97.0895
1240.17	97.0356
1243.55	95.9782
1246.92	97.6096
1250.3	96.8277
1253.67	98.0298
1257.05	97.35
1260.42	98.5288
1263.8	98.9163
1267.17	98.2829
1270.55	97.9904
1273.92	99.098
1277.3	98.1615
1280.67	98.7476
1284.05	99.3044
1287.42	98.9673
1290.8	99.6952
1294.17	100.246
1297.55	99.7495
1300.92	99.9616
