Measurement: Raman, 785 nm, unoriented, Raman Data RAW
Mineral: Bastnasite-(Ce)
Rruff sample: R060737
Ideal chemistry: CeCO_3_F
Locality: Zagi Mountain, near Hammedabad, Khaffor Dehri, NW Frontier Provence, Pakistan
Source: Herb Obodda
Description: Reddish-brown fragment
Measured chemistry: (Ce_0.55_Nd_0.27_La_0.18_)_Î£=1_CO_3_F_1.00_
Raman shift (cm-1)	intensity
89.708	41.106
93.083	47.237
96.458	47.085
99.832	55.665
103.207	57.901
106.582	65.588
109.957	81.676
113.332	74.893
116.707	95.248
120.081	120.205
123.456	198.572
126.831	427.932
130.206	623.729
133.581	727.235
136.956	711.095
140.33	890.821
143.705	1218.32
147.08	1522.82
150.455	1589.37
153.829	1485.26
157.204	1406.88
160.579	1462.27
163.954	1622.55
167.329	1740.96
170.704	1859.24
174.078	1915.22
177.453	1981.26
180.828	2062.42
184.203	2198.88
187.578	2363.81
190.952	2569.29
194.327	2677.94
197.702	2891.31
201.077	3066.22
204.452	3134.44
207.827	3227.74
211.201	3281.2
214.576	3283.52
217.951	3278.29
221.326	3279.4
224.701	3270.53
228.076	3221.08
231.45	3187.81
234.825	3195.95
238.2	3125.05
241.575	3132.71
244.95	3041.59
248.324	3058.84
251.699	3075.52
255.074	3232.52
258.449	3360.32
261.824	3484.43
265.198	3589.98
268.573	3733.7
271.948	3814.8
275.323	3988.51
278.698	4087.24
282.073	4222.87
285.447	4275.43
288.822	4226.93
292.197	4208.87
295.572	4136.15
298.947	4135.05
302.322	4104.45
305.696	4014.38
309.071	3920.43
312.446	3769.05
315.821	3622.8
319.196	3507.78
322.57	3348.67
325.945	3195.46
329.32	3079.91
332.695	2956.09
336.07	2793.82
339.444	2714.5
342.819	2610.53
346.194	2535.11
349.569	2476.25
352.944	2374.76
356.319	2286.43
359.693	2202.05
363.068	2175.75
366.443	2104.32
369.818	2083.21
373.193	2078.19
376.568	2052.16
379.942	1986.64
383.317	1937.62
386.692	1936.1
390.067	1863.43
393.442	1890.13
396.816	1872.47
400.191	1896.9
403.566	1888.16
406.941	1864.84
410.316	1875.86
413.69	1899.55
417.065	1939.02
420.44	1971.3
423.815	2006.48
427.19	2053.51
430.565	2116.82
433.939	2133.07
437.314	2202.33
440.689	2236.09
444.064	2325.6
447.439	2293.72
450.814	2319.87
454.188	2344.09
457.563	2308.24
460.938	2331.32
464.313	2340.18
467.688	2335.07
471.062	2267.56
474.437	2250.02
477.812	2169.97
481.187	2083.63
484.562	2003.92
487.936	1934.62
491.311	1856.42
494.686	1740.9
498.061	1652.91
501.436	1557.75
504.811	1503.88
508.185	1446.11
511.56	1380.74
514.935	1365.96
518.31	1323.47
521.685	1318.07
525.059	1300.7
528.434	1309.27
531.809	1296.51
535.184	1339.76
538.559	1388.32
541.933	1448.24
545.308	1572.15
548.683	1650.03
552.058	1712.54
555.433	1792.17
558.808	1813.44
562.182	1835.41
565.557	1784.88
568.932	1789.07
572.307	1842.65
575.682	1931.89
579.057	1989.39
582.431	2066.66
585.806	2033.59
589.181	1990.47
592.556	1933.55
595.931	1759.52
599.305	1657.57
602.68	1515.56
606.055	1412.46
609.43	1283.98
612.805	1212.23
616.18	1092.48
619.554	1020.11
622.929	919.23
626.304	851.36
629.679	784.1
633.054	734.859
636.429	679.826
639.803	654.331
643.178	628.544
646.553	576.715
649.928	556.758
653.303	548.348
656.677	529.485
660.052	512.26
663.427	486.749
666.802	473.329
670.177	464.508
673.552	470.986
676.926	461.838
680.301	423.276
683.676	437.522
687.051	457.443
690.425	420.252
693.8	431.134
697.175	432.95
700.55	434.802
703.925	437.65
707.3	422.155
710.674	428.471
714.049	433.182
717.424	403.331
720.799	414.273
724.174	427.703
727.549	436.262
730.923	456.587
734.298	461.354
737.673	484.747
741.048	463.55
744.423	491.199
747.797	501.129
751.172	496.491
754.547	506.657
757.922	508.864
761.297	515.108
764.672	538.618
768.046	532.444
771.421	549.083
774.796	553.259
778.171	579.906
781.546	619.689
784.92	608.733
788.295	627.457
791.67	667.186
795.045	685.371
798.42	708.485
801.794	682.004
805.169	763.276
808.544	792.456
811.919	811.882
815.294	821.242
818.669	870.255
822.043	906.374
825.418	920.983
828.793	993.929
832.168	1010.22
835.543	1075.32
838.917	1054.61
842.292	1068.69
845.667	1099.39
849.042	1092.59
852.417	1080.87
855.792	1140.66
859.166	1158.96
862.541	1236.91
865.916	1329.48
869.291	1381.17
872.666	1474.55
876.041	1551.5
879.415	1658.21
882.79	1743.89
886.165	1884.73
889.54	2000.12
892.915	2106.08
896.289	2222.71
899.664	2337.39
903.039	2392.69
906.414	2496.98
909.789	2550.13
913.164	2567.64
916.538	2591.58
919.913	2594.61
923.288	2618.39
926.663	2627.25
930.038	2666.12
933.412	2607.82
936.787	2617.86
940.162	2586.67
943.537	2563.22
946.912	2587.89
950.286	2630.28
953.661	2673.78
957.036	2715.38
960.411	2815.64
963.786	2893.53
967.161	2980.75
970.535	3121.25
973.91	3274.98
977.285	3416.34
980.66	3575.74
984.035	3785.87
987.409	3996.29
990.784	4203.14
994.159	4378.09
997.534	4605.26
1000.91	4842.32
1004.28	5008.25
1007.66	5173.32
1011.03	5317.63
1014.41	5396.02
1017.78	5586.44
1021.16	5767.12
1024.53	6050.6
1027.91	6392.27
1031.28	6715.49
1034.66	6949.03
1038.03	7224.51
1041.41	7455.49
1044.78	7709.92
1048.16	7956.94
1051.53	8285.98
1054.91	8720.13
1058.28	9243.65
1061.65	9866.1
1065.03	10441.3
1068.4	11121.4
1071.78	11936.6
1075.15	12733.6
1078.53	13523.2
1081.9	14364.5
1085.28	15368.6
1088.65	16234.6
1092.03	17268.4
1095.4	18627.3
1098.78	19925.4
1102.15	21509.7
1105.53	23426.6
1108.9	25999.8
1112.28	29043.6
1115.65	32834.9
1119.03	37216.6
1122.4	42652.9
1125.78	49772.2
1129.15	58738.5
1132.53	70150.7
1135.9	84037.4
1139.28	100692
1142.65	117445
1146.03	133384
1149.4	146786
1152.78	155590
1156.15	156058
1159.53	148338
1162.9	139796
1166.28	139360
1169.65	148329
1173.02	160989
1176.4	168504
1179.77	167789
1183.15	157339
1186.52	139242
1189.9	119177
1193.27	101481
1196.65	88529.2
1200.02	80009.9
1203.4	73850.7
1206.77	68576.1
1210.15	64865.8
1213.52	63634.9
1216.9	63430.6
1220.27	63919.5
1223.65	64500.8
1227.02	64635.7
1230.4	63746
1233.77	62982.8
1237.15	63643
1240.52	66325
1243.9	70276.8
1247.27	74251.4
1250.64	76192.3
1254.02	74614
1257.39	70193.9
1260.77	63738.3
1264.14	57186.5
1267.52	51264.8
1270.89	46299.1
