Measurement: Raman, 780 nm, unoriented, Raman Data RAW
Mineral: Bastnasite-(Ce)
Rruff sample: R060550
Ideal chemistry: CeCO_3_F
Locality: Zagni Mountains, Pakistan
Source: Gemological Institute of America
Description: Brown water worn pebble
Measured chemistry: (Ce_0.56_(La,Pr)_0.26_Nd_0.18_)_Î£=1_CO_3_F_1.00_
Raman shift (cm-1)	intensity
86.2034	0
89.5782	376.286
92.9531	527.03
96.3279	597.366
99.7027	789.155
103.078	961.154
106.452	943.227
109.827	935.974
113.202	975.172
116.577	950.068
119.952	978.18
123.326	1063.41
126.701	1127.74
130.076	1152.21
133.451	1231.68
136.826	1266.26
140.201	1317.3
143.575	1387.37
146.95	1420.14
150.325	1543.71
153.7	1567.87
157.075	1731.59
160.449	1786.55
163.824	1862.46
167.199	1962.9
170.574	2054.46
173.949	2095.01
177.323	2150.3
180.698	2218.49
184.073	2225.14
187.448	2296.9
190.823	2218.04
194.198	2210.13
197.572	2236.99
200.947	2283.78
204.322	2325.19
207.697	2339.58
211.072	2393.46
214.446	2453.47
217.821	2450.06
221.196	2441.52
224.571	2424.9
227.946	2307.08
231.321	2340.73
234.695	2333.41
238.07	2334.39
241.445	2409.39
244.82	2433.71
248.195	2532.99
251.57	2575.31
254.944	2672.95
258.319	2732.48
261.694	2815.69
265.069	2845.38
268.444	2886.61
271.818	2987.8
275.193	3059.57
278.568	3080.36
281.943	3086.1
285.318	3126.05
288.692	3154.32
292.067	3165.72
295.442	3228.49
298.817	3241.32
302.192	3266.38
305.567	3262.81
308.941	3274.23
312.316	3266.12
315.691	3248.19
319.066	3268.53
322.441	3288.37
325.815	3343.75
329.19	3346.54
332.565	3425.23
335.94	3557.8
339.315	3525.81
342.69	3674.07
346.064	3748.64
349.439	3844.08
352.814	3839.87
356.189	3946.81
359.564	3947.71
362.938	4074.57
366.313	4111.38
369.688	4135.93
373.063	4100.93
376.438	4056.7
379.813	4080.97
383.187	4026.75
386.562	3947
389.937	3936.8
393.312	3834.31
396.687	3737.78
400.062	3598.79
403.436	3454.78
406.811	3407.01
410.186	3234.96
413.561	3184.2
416.936	3052.82
420.31	2961.73
423.685	2949.21
427.06	2855.01
430.435	2806.48
433.81	2743.09
437.185	2694.71
440.559	2664.9
443.934	2633.3
447.309	2606.3
450.684	2577.38
454.059	2504.97
457.433	2494.01
460.808	2465.69
464.183	2396.35
467.558	2412.66
470.933	2399.65
474.308	2355.18
477.682	2393.51
481.057	2344.28
484.432	2418.62
487.807	2437.82
491.182	2463.16
494.556	2488.53
497.931	2564.46
501.306	2570.52
504.681	2569.92
508.056	2614.89
511.43	2699.81
514.805	2706.21
518.18	2775.78
521.555	2808.78
524.93	2774.78
528.305	2769.33
531.679	2763.48
535.054	2782.31
538.429	2795.23
541.804	2726.49
545.179	2739.39
548.553	2695.88
551.928	2607.82
555.303	2592.9
558.678	2440.45
562.053	2342.37
565.428	2284.41
568.802	2224.95
572.177	2101.7
575.552	2018.63
578.927	1947.59
582.302	1894.37
585.677	1825.27
589.051	1776.84
592.426	1743.94
595.801	1736.92
599.176	1709.75
602.551	1725.21
605.925	1707.4
609.3	1808.99
612.675	1839.05
616.05	1905.56
619.425	1964.41
622.799	2079.88
626.174	2107.21
629.549	2183.53
632.924	2188.61
636.299	2247.83
639.674	2269.55
643.048	2280.64
646.423	2331.38
649.798	2327.56
653.173	2407.76
656.548	2483.85
659.923	2445.79
663.297	2412.49
666.672	2315.21
670.047	2230.15
673.422	2085.53
676.797	1932.74
680.171	1811.22
683.546	1718.6
686.921	1638.5
690.296	1555.93
693.671	1469.97
697.045	1370.31
700.42	1244.99
703.795	1222.45
707.17	1135.37
710.545	1085.19
713.92	1079.74
717.294	1015.16
720.669	975.115
724.044	975.082
727.419	969.308
730.794	988.389
734.168	925.618
737.543	916.428
740.918	887.016
744.293	886.578
747.668	844.115
751.043	879.131
754.417	849.618
757.792	861.329
761.167	838.614
764.542	836.53
767.917	842.137
771.291	851.048
774.666	848.428
778.041	846.608
781.416	831.641
784.791	816.385
788.166	863.354
791.54	829.225
794.915	798.51
798.29	856.886
801.665	842.654
805.04	846.106
808.414	845.297
811.789	855.334
815.164	851.597
818.539	877.04
821.914	883.058
825.289	927.364
828.663	918.849
832.038	928.705
835.413	965.98
838.788	938.148
842.163	950.336
845.538	1010.08
848.912	1026.79
852.287	991.29
855.662	1017.74
859.037	1012.19
862.412	1015.28
865.786	1042.22
869.161	1087.92
872.536	1152.96
875.911	1165.52
879.286	1206.22
882.66	1219.21
886.035	1245.62
889.41	1290.66
892.785	1306.36
896.16	1328.53
899.534	1401.2
902.909	1416.62
906.284	1444.55
909.659	1510.86
913.034	1504.66
916.409	1546.32
919.783	1551.6
923.158	1553.02
926.533	1560.88
929.908	1593.01
933.283	1615.73
936.658	1718.05
940.032	1754.9
943.407	1818.95
946.782	1932.88
950.157	1996.78
953.532	2058.64
956.906	2183.74
960.281	2269.7
963.656	2443.91
967.031	2565.67
970.406	2677.11
973.78	2781.23
977.155	2883.91
980.53	2982.34
983.905	3006.4
987.28	3076.43
990.655	3120.74
994.029	3148.89
997.404	3219.53
1000.78	3174.58
1004.15	3170.82
1007.53	3189.48
1010.9	3196.55
1014.28	3152.01
1017.65	3129.71
1021.03	3120.01
1024.4	3155.91
1027.78	3204.35
1031.15	3241.92
1034.53	3304.8
1037.9	3408.49
1041.28	3531.43
1044.65	3662.72
1048.03	3775.92
1051.4	3923.07
1054.78	4090.66
1058.15	4289.08
1061.53	4532.88
1064.9	4752.46
1068.28	4979.04
1071.65	5157.41
1075.03	5395.15
1078.4	5514.05
1081.78	5704.57
1085.15	5922.9
1088.52	6137.99
1091.9	6477.77
1095.27	6863.66
1098.65	6730.21
1102.02	6885.69
1105.4	7203.58
1108.77	7460.67
1112.15	7724.79
1115.52	8029.66
1118.9	8187.84
1122.27	8556.97
1125.65	8918.67
1129.02	9310.34
1132.4	9820.01
1135.77	10417.8
1139.15	11019.2
1142.52	11624.6
1145.9	12477.8
1149.27	13201.3
1152.65	14024
1156.02	14852
1159.4	15754.1
1162.77	16624.3
1166.14	17634.1
1169.52	18739.5
1172.89	19988.8
1176.27	21586.7
1179.64	23509.2
1183.02	25882.8
1186.39	28468.6
1189.77	31781.7
1193.14	35772.4
1196.52	40088.1
1199.89	45777.6
1203.27	52588.9
1206.64	60285.2
1210.02	68458.6
1213.39	76124.1
1216.77	82079.4
1220.14	86540.6
1223.52	90167.8
1226.89	95358
1230.27	101040
1233.64	104926
1237.02	106515
1240.39	107457
1243.77	109381
1247.14	113128
1250.52	117327
1253.89	121504
1257.27	122396
1260.64	118353
1264.02	108930
1267.39	96754.5
1270.77	86111.1
1274.14	78465.1
1277.51	72748.4
1280.89	68411.2
1284.26	64742.8
