Measurement: Raman, 780 nm, unoriented, Raman Data RAW
Mineral: Bastnasite-(Ce)
Rruff sample: R060629
Ideal chemistry: CeCO_3_F
Locality: Pakistan
Source: Gemological Institute of America
Description: Orange gemmy fragment
Measured chemistry: (Ce_0.53_Nd_0.25_La_0.22_)_Î£=1_CO_3_F_1.00_
Raman shift (cm-1)	intensity
86.2034	0
89.5782	287.308
92.9531	595.646
96.3279	690.59
99.7027	957.182
103.078	1326.76
106.452	1343.36
109.827	1426.75
113.202	1475.68
116.577	1387.94
119.952	1423.08
123.326	1522.4
126.701	1541.38
130.076	1591.58
133.451	1667.35
136.826	1676.53
140.201	1688.66
143.575	1765.89
146.95	1770.94
150.325	1898.87
153.7	1974.27
157.075	2164.71
160.449	2250.35
163.824	2466.89
167.199	2703.19
170.574	2943.18
173.949	3083.05
177.323	3250.6
180.698	3331.45
184.073	3206.32
187.448	3114.73
190.823	2819.2
194.198	2704.13
197.572	2806.13
200.947	2843.81
204.322	2924.19
207.697	2928.55
211.072	3017.45
214.446	3169.33
217.821	2988.73
221.196	2916.34
224.571	2704.81
227.946	2565.54
231.321	2548.35
234.695	2610.17
238.07	2492.68
241.445	2569.21
244.82	2632.8
248.195	2646.81
251.57	2775.57
254.944	2877
258.319	2991.89
261.694	3150.66
265.069	3181.78
268.444	3383.58
271.818	3584.67
275.193	3829.05
278.568	3951.61
281.943	4058.88
285.318	3974.42
288.692	3938.92
292.067	3835.42
295.442	3759.17
298.817	3634.37
302.192	3539.56
305.567	3463.09
308.941	3355.76
312.316	3286.18
315.691	3126.29
319.066	3183.84
322.441	3070.85
325.815	3043.39
329.19	3113.45
332.565	3228.83
335.94	3328.73
339.315	3468.31
342.69	3497.72
346.064	3664.15
349.439	3879.68
352.814	3882.24
356.189	3994.39
359.564	4031.95
362.938	4136.37
366.313	4084.16
369.688	4003.55
373.063	3972.49
376.438	3719.44
379.813	3721.61
383.187	3553.95
386.562	3430.97
389.937	3294.48
393.312	3191.44
396.687	3004.53
400.062	2849.21
403.436	2775.86
406.811	2710.11
410.186	2538.12
413.561	2475.43
416.936	2342.37
420.31	2347.55
423.685	2259.28
427.06	2201.45
430.435	2177.63
433.81	2196.87
437.185	2108.74
440.559	2105.04
443.934	2013.44
447.309	2094.04
450.684	2015.94
454.059	1994.45
457.433	1961.45
460.808	1924.37
464.183	1951.67
467.558	1969.79
470.933	1871.75
474.308	1890.87
477.682	1931.18
481.057	1805.28
484.432	1963.01
487.807	1897.28
491.182	1869.64
494.556	1905.29
497.931	1932.99
501.306	1952.42
504.681	1955.62
508.056	1969.17
511.43	2111.03
514.805	2063.43
518.18	2120.19
521.555	2215.39
524.93	2051.49
528.305	2083.3
531.679	2103.76
535.054	2127.06
538.429	2149.29
541.804	2271.87
545.179	2227.41
548.553	2235.12
551.928	2204.74
555.303	2182.6
558.678	2083.47
562.053	1988.68
565.428	1984.74
568.802	1940.71
572.177	1863.28
575.552	1809.83
578.927	1705.23
582.302	1710.73
585.677	1643.28
589.051	1567.25
592.426	1535.96
595.801	1505.92
599.176	1444.21
602.551	1442.59
605.925	1420.74
609.3	1519.54
612.675	1516.2
616.05	1473.29
619.425	1518.48
622.799	1548.34
626.174	1479.59
629.549	1565.73
632.924	1578.15
636.299	1658.88
639.674	1737.62
643.048	1719.25
646.423	1702.46
649.798	1742.81
653.173	1757.82
656.548	1818.13
659.923	1774.96
663.297	1800.34
666.672	1762.83
670.047	1783.19
673.422	1676.16
676.797	1624.35
680.171	1476.69
683.546	1477.94
686.921	1441.78
690.296	1434.47
693.671	1385.33
697.045	1327.15
700.42	1216.96
703.795	1258.02
707.17	1163.29
710.545	1122.33
713.92	1184.45
717.294	1101.85
720.669	1031.82
724.044	1117.94
727.419	1037.26
730.794	1084.83
734.168	1028.37
737.543	1027.91
740.918	966.119
744.293	1022.56
747.668	901.909
751.043	1013.23
754.417	1021.79
757.792	973.816
761.167	978.08
764.542	1007.67
767.917	979.755
771.291	1042.91
774.666	978.598
778.041	1001.88
781.416	957.83
784.791	932.253
788.166	1031.08
791.54	992.89
794.915	898.5
798.29	994.862
801.665	903.095
805.04	1000.59
808.414	939.124
811.789	962.171
815.164	964.479
818.539	959.756
821.914	944.1
825.289	1005.37
828.663	988.312
832.038	927.89
835.413	1007.07
838.788	945.431
842.163	1012.92
845.538	1020.39
848.912	1075.59
852.287	1025.76
855.662	1034.73
859.037	987.352
862.412	1012.91
865.786	1025.45
869.161	1022.22
872.536	1068.93
875.911	1072.55
879.286	1144.07
882.66	1165.37
886.035	1108.5
889.41	1175.45
892.785	1142.82
896.16	1131.88
899.534	1175.1
902.909	1150.87
906.284	1127.58
909.659	1201.23
913.034	1177.44
916.409	1212.58
919.783	1221.82
923.158	1267.28
926.533	1211.98
929.908	1263.04
933.283	1269.67
936.658	1395.26
940.032	1381.38
943.407	1395.98
946.782	1417.94
950.157	1416.71
953.532	1528.54
956.906	1529.85
960.281	1577.98
963.656	1707.87
967.031	1688.08
970.406	1733.6
973.78	1768.22
977.155	1828.52
980.53	1807.37
983.905	1845.11
987.28	1870.16
990.655	1871.17
994.029	1823.97
997.404	1884.31
1000.78	1882.78
1004.15	1855.48
1007.53	1855.37
1010.9	1965.84
1014.28	1910.61
1017.65	1919.1
1021.03	1937.57
1024.4	1935.18
1027.78	1909.17
1031.15	2001.88
1034.53	2046.84
1037.9	2083
1041.28	2157.7
1044.65	2233.79
1048.03	2354.9
1051.4	2410.78
1054.78	2439.8
1058.15	2509.64
1061.53	2652.88
1064.9	2771.16
1068.28	2822.52
1071.65	2940.08
1075.03	2978.8
1078.4	3000.51
1081.78	3121.87
1085.15	3172.81
1088.52	3240.17
1091.9	3386.12
1095.27	3524.55
1098.65	3529.55
1102.02	3566.75
1105.4	3739.42
1108.77	3884.69
1112.15	4011.76
1115.52	4033.7
1118.9	4203.1
1122.27	4281.88
1125.65	4459.19
1129.02	4643.8
1132.4	4830.67
1135.77	5171.14
1139.15	5460.77
1142.52	5700.39
1145.9	6153.55
1149.27	6433.93
1152.65	6656.71
1156.02	6989.61
1159.4	7380.05
1162.77	7768.04
1166.14	8130.77
1169.52	8749.18
1172.89	9213.18
1176.27	9982.58
1179.64	10823.4
1183.02	11923.2
1186.39	13351.1
1189.77	15019
1193.14	17196.1
1196.52	19988.9
1199.89	23518.1
1203.27	28558.9
1206.64	35378.8
1210.02	44302.7
1213.39	55734.1
1216.77	68213.4
1220.14	80913.8
1223.52	90025.4
1226.89	92592.1
1230.27	88125.9
1233.64	79287.4
1237.02	73661.3
1240.39	75602.9
1243.77	85332.7
1247.14	98114.7
1250.52	108681
1253.89	112119
1257.27	106292
1260.64	92938.1
1264.02	76705.6
1267.39	61996.2
1270.77	51545.4
1274.14	44547.2
1277.51	40135.6
1280.89	37436.8
1284.26	36230.6
