Measurement: Raman, 785 nm, unoriented, Raman Data RAW
Mineral: Bastnasite-(La)
Rruff sample: R070142
Ideal chemistry: LaCO_3_F
Locality: Mochalin Log, Kyshtym, Chelyabinsk Oblast', Urals Region, Russia
Source: Michael Scott
Description: Vitreous yellow massive component of a nodule, associated with belovite-(Ce), R070163
Measured chemistry: (La_0.53_Ce_0.44_Nd_0.03_)_Î£=1_CO_3_F_1.00_
Raman shift (cm-1)	intensity
143.487	298.51
146.38	361.628
149.272	393.805
152.165	422.317
155.058	405.717
157.95	417.626
160.843	441.251
163.736	502.447
166.628	537.335
169.521	572.726
172.414	599.154
175.306	649.188
178.199	673.819
181.092	718.131
183.985	786.547
186.877	857.19
189.77	914.106
192.663	1006.46
195.555	1086.94
198.448	1143.46
201.341	1217.38
204.233	1260.32
207.126	1306.77
210.019	1335.98
212.912	1329.39
215.804	1320.12
218.697	1336.88
221.59	1306.19
224.482	1309.87
227.375	1251.67
230.268	1222.95
233.161	1202.28
236.053	1166.13
238.946	1141.07
241.839	1137.26
244.731	1125.18
247.624	1106.04
250.517	1092.06
253.409	1137.29
256.302	1161.24
259.195	1195.66
262.087	1237.96
264.98	1235.84
267.873	1283.28
270.766	1318.53
273.658	1357.99
276.551	1355.51
279.444	1353.95
282.336	1364.14
285.229	1353.85
288.122	1345.07
291.014	1349.87
293.907	1278.15
296.8	1259.46
299.693	1223.42
302.585	1176.81
305.478	1128.45
308.371	1081.81
311.263	1041.23
314.156	991.463
317.049	951.677
319.942	927.487
322.834	863.85
325.727	815.068
328.62	781.76
331.512	762.175
334.405	738.562
337.298	673.315
340.19	662.432
343.083	631.803
345.976	618.169
348.868	594.834
351.761	591.012
354.654	568.928
357.547	548.21
360.439	544.261
363.332	509.163
366.225	503.693
369.117	499.025
372.01	482.005
374.903	462.75
377.796	470.547
380.688	451.356
383.581	439.976
386.474	437.857
389.366	438.261
392.259	432.963
395.152	439.916
398.044	415.511
400.937	423.276
403.83	428.806
406.723	419.8
409.615	431.517
412.508	442.313
415.401	441.056
418.293	439.068
421.186	443.668
424.079	463.224
426.971	469.369
429.864	471.49
432.757	480.93
435.649	467.556
438.542	483.415
441.435	482.766
444.328	482.446
447.22	470.398
450.113	482.267
453.006	472.658
455.898	469.477
458.791	468.197
461.684	462.077
464.577	461.085
467.469	440.663
470.362	438.893
473.255	415.367
476.147	412.568
479.04	410.035
481.933	384.582
484.825	380.943
487.718	378.114
490.611	354.784
493.503	343.583
496.396	325.813
499.289	317.854
502.182	305.147
505.074	302.75
507.967	287.383
510.86	291.31
513.752	288.596
516.645	280.384
519.538	276.933
522.431	280.135
525.323	281.044
528.216	289.742
531.109	292.898
534.001	297.047
536.894	294.404
539.787	307.038
542.679	316.052
545.572	326.33
548.465	332.507
551.357	333.497
554.25	337.848
557.143	342.639
560.036	341.114
562.928	338.22
565.821	342.867
568.714	339.564
571.606	340.714
574.499	336.835
577.392	341.746
580.284	331.13
583.177	322.618
586.07	316.734
588.963	305.898
591.855	298.488
594.748	267.804
597.641	269.001
600.533	254.097
603.426	244.027
606.319	233.895
609.212	218.317
612.104	210.027
614.997	191.758
617.89	194.095
620.782	173.919
623.675	164.645
626.568	164.898
629.46	151.374
632.353	148.366
635.246	144.49
638.139	148.885
641.031	136.437
643.924	134.465
646.817	120.874
649.709	111.828
652.602	122.354
655.495	118.286
658.388	113.021
661.28	112.995
664.173	114.953
667.066	100.078
669.958	108.27
672.851	103.392
675.744	103.993
678.636	95.2989
681.529	99.3423
684.422	95.0283
687.314	94.7451
690.207	92.4179
693.1	94.9838
695.993	98.9423
698.885	92.894
701.778	82.2046
704.671	90.0326
707.563	85.8484
710.456	95.1433
713.349	94.9454
716.241	84.6429
719.134	88.1128
722.027	93.0012
724.92	96.0072
727.812	90.667
730.705	81.5318
733.598	86.2045
736.49	90.373
739.383	97.7777
742.276	85.7276
745.168	89.1685
748.061	85.6617
750.954	84.8161
753.847	92.829
756.739	90.685
759.632	93.0109
762.525	92.3849
765.417	90.1894
768.31	92.473
771.203	104.141
774.096	92.7035
776.988	93.4084
779.881	101.962
782.774	108.852
785.666	101.5
788.559	107.994
791.452	108.558
794.344	121.068
797.237	110.407
800.13	120.82
803.023	122.695
805.915	133.581
808.808	129.649
811.701	129.632
814.593	145.549
817.486	143.687
820.379	143.696
823.271	142.038
826.164	148.478
829.057	151.997
831.949	172.002
834.842	164.61
837.735	173.876
840.628	180.075
843.52	182.101
846.413	187.309
849.306	193.093
852.198	198.423
855.091	192.539
857.984	192.01
860.876	196.183
863.769	202.483
866.662	216.432
869.555	211.962
872.447	231.119
875.34	227.93
878.233	259.809
881.125	263.794
884.018	281.164
886.911	273.289
889.803	303.05
892.696	311.419
895.589	320.904
898.482	336.683
901.374	339.038
904.267	342.885
907.16	351.925
910.052	383.938
912.945	394.051
915.838	400.089
918.731	404.241
921.623	412.681
924.516	436.355
927.409	421.961
930.301	428.222
933.194	440.316
936.087	436.288
938.979	438.386
941.872	442.485
944.765	445.851
947.658	447.156
950.55	449.867
953.443	471.043
956.336	465.428
959.228	458.172
962.121	489.652
965.014	486.662
967.906	527.808
970.799	514.929
973.692	531.021
976.585	560.259
979.477	564.391
982.37	587.252
985.263	633.422
988.155	641.272
991.048	663.919
993.941	702.26
996.833	726.051
999.726	754.844
1002.62	795.768
1005.51	815.852
1008.4	840.153
1011.3	858.225
1014.19	892.841
1017.08	910.651
1019.98	936.401
1022.87	978.599
1025.76	1022.92
1028.65	1051.1
1031.55	1104.11
1034.44	1171.79
1037.33	1205.5
1040.22	1269.46
1043.12	1288.1
1046.01	1340.91
1048.9	1440.25
1051.8	1485.32
1054.69	1522.99
1057.58	1625.08
1060.47	1728.55
1063.37	1842.65
1066.26	1948.06
1069.15	2075.78
1072.04	2203.13
1074.94	2357.04
1077.83	2538.36
1080.72	2707.06
1083.61	2862.38
1086.51	3063.75
1089.4	3259.09
1092.29	3477.21
1095.18	3696.82
1098.08	4008.54
1100.97	4257.92
1103.86	4564.12
1106.76	4965.69
1109.65	5441.16
1112.54	5911.3
1115.43	6598.31
1118.33	7305.6
1121.22	8103.97
1124.11	9304.99
1127.01	10634.8
1129.9	12488.4
1132.79	14849.3
1135.68	18133.7
1138.58	22574.1
1141.47	28535.2
1144.36	36265.1
1147.25	45104.1
1150.15	53471.4
1153.04	57741.7
1155.93	56082.5
1158.83	49319.6
1161.72	41099.4
1164.61	35264.4
1167.5	33127.7
1170.39	33849.9
1173.29	36566.5
1176.18	39273.8
1179.07	40673.8
1181.97	39965.5
1184.86	37310.7
1187.75	33589.9
1190.64	29678.9
1193.54	26290.4
1196.43	23562.5
1199.32	21275.9
1202.21	19825.8
1205.11	18614.3
1208	17369
1210.89	16287.6
1213.79	15393.7
1216.68	14601.5
1219.57	13958.1
1222.46	13379.5
1225.36	12994.2
1228.25	12648.4
1231.14	12345.3
1234.04	12070.4
1236.93	12061.3
1239.82	12117
1242.71	12291
