Measurement: Raman, 780 nm, unoriented, Raman Data RAW
Mineral: Bastnasite-(Ce)
Rruff sample: R060359
Ideal chemistry: CeCO_3_F
Locality: Zagi Mountain, near Hammedabad, Khaffor Dehri, North-West Frontier Province, Pakistan
Source: Herb Obodda
Description: Yellowish-brown pyramidal crystal
Measured chemistry: (Ce_0.54_(La,Pr)_0.23_Nd_0.22_Y_0.01_)_Î£=1_CO_3_F_1.00_
Raman shift (cm-1)	intensity
86.2034	0
89.5782	176.872
92.9531	229.457
96.3279	263.472
99.7027	332.541
103.078	417.949
106.452	400.144
109.827	399.22
113.202	402.664
116.577	419.868
119.952	422.962
123.326	475.466
126.701	489.807
130.076	531.673
133.451	539.598
136.826	562.038
140.201	608.234
143.575	623.58
146.95	630.545
150.325	708.908
153.7	771.87
157.075	821.745
160.449	890.21
163.824	991.656
167.199	1069.03
170.574	1118.65
173.949	1165.5
177.323	1191.74
180.698	1206.45
184.073	1186.22
187.448	1175.79
190.823	1126.18
194.198	1112.05
197.572	1099.84
200.947	1147.89
204.322	1174.18
207.697	1214.45
211.072	1214.09
214.446	1257.91
217.821	1201.29
221.196	1229.17
224.571	1174.82
227.946	1135.85
231.321	1132.48
234.695	1139.44
238.07	1138.73
241.445	1151.57
244.82	1197.8
248.195	1181.22
251.57	1288.8
254.944	1293.85
258.319	1386.06
261.694	1446.58
265.069	1522.32
268.444	1584.4
271.818	1612.28
275.193	1676.59
278.568	1724.01
281.943	1726.03
285.318	1722.16
288.692	1772.75
292.067	1726.08
295.442	1723.48
298.817	1691.89
302.192	1686.12
305.567	1703.81
308.941	1661.31
312.316	1632.2
315.691	1596.39
319.066	1621.56
322.441	1587.77
325.815	1608.51
329.19	1654.04
332.565	1695.28
335.94	1742.44
339.315	1818.93
342.69	1867.72
346.064	1906.96
349.439	1985.43
352.814	2044.22
356.189	2087.16
359.564	2107.59
362.938	2102.93
366.313	2119.77
369.688	2110.77
373.063	2064.44
376.438	2053.23
379.813	2002.61
383.187	1962.9
386.562	1948.09
389.937	1856.6
393.312	1801.66
396.687	1749.04
400.062	1708.86
403.436	1628.7
406.811	1562.32
410.186	1475.15
413.561	1395.21
416.936	1358.08
420.31	1341.54
423.685	1292.28
427.06	1229.8
430.435	1177.61
433.81	1165.37
437.185	1143.7
440.559	1119.1
443.934	1097.21
447.309	1091.18
450.684	1122.82
454.059	1071.05
457.433	1049.14
460.808	1005.93
464.183	1036.32
467.558	1013.26
470.933	977.033
474.308	963.368
477.682	1001.86
481.057	988.969
484.432	1014.06
487.807	992.004
491.182	1006.73
494.556	1026.91
497.931	1042.83
501.306	1065.15
504.681	1069.13
508.056	1088.58
511.43	1122.82
514.805	1118.17
518.18	1162.03
521.555	1165
524.93	1153.75
528.305	1158.63
531.679	1145.97
535.054	1159.41
538.429	1171.04
541.804	1159.47
545.179	1157.24
548.553	1140.51
551.928	1101.1
555.303	1086.22
558.678	1024.66
562.053	1008.37
565.428	955.495
568.802	950.624
572.177	899.424
575.552	873.239
578.927	829.441
582.302	809.091
585.677	788.623
589.051	759.048
592.426	757.838
595.801	741.098
599.176	713.375
602.551	730.532
605.925	732.235
609.3	760.582
612.675	776.232
616.05	776.352
619.425	818.568
622.799	843.57
626.174	884.171
629.549	914.694
632.924	921.854
636.299	932.687
639.674	948.125
643.048	953.35
646.423	967.123
649.798	978.149
653.173	968.465
656.548	1017.66
659.923	1005.3
663.297	995.955
666.672	971.711
670.047	931.678
673.422	904.115
676.797	814.059
680.171	782.951
683.546	734.134
686.921	701.298
690.296	679.393
693.671	638.21
697.045	606.494
700.42	555.212
703.795	541.001
707.17	513.021
710.545	468.588
713.92	471.031
717.294	423.037
720.669	409.717
724.044	428.103
727.419	411.622
730.794	417.84
734.168	404.971
737.543	395.361
740.918	390.483
744.293	386.925
747.668	375.396
751.043	379.886
754.417	371.237
757.792	355.985
761.167	367.089
764.542	377.188
767.917	372.925
771.291	373.065
774.666	357.083
778.041	361.608
781.416	363.289
784.791	360.457
788.166	369.151
791.54	357.85
794.915	348.642
798.29	376.187
801.665	352.81
805.04	368.087
808.414	353.661
811.789	380.354
815.164	380.498
818.539	385.543
821.914	384.941
825.289	400.459
828.663	400.852
832.038	395.71
835.413	401.2
838.788	399.59
842.163	405.628
845.538	419.05
848.912	415.848
852.287	424.397
855.662	442.214
859.037	440.957
862.412	435.785
865.786	456.793
869.161	457.067
872.536	472.267
875.911	499.235
879.286	508.82
882.66	537.166
886.035	530.161
889.41	538.897
892.785	546.236
896.16	553.452
899.534	592.381
902.909	588.902
906.284	614.208
909.659	629.326
913.034	652.63
916.409	643.127
919.783	650.747
923.158	651.342
926.533	655.839
929.908	656.085
933.283	698.28
936.658	734.178
940.032	760.096
943.407	811.784
946.782	820.107
950.157	835.015
953.532	906.615
956.906	920.311
960.281	978.16
963.656	1047.7
967.031	1074.92
970.406	1084.86
973.78	1117.54
977.155	1196.95
980.53	1200.02
983.905	1221.87
987.28	1232.72
990.655	1276.39
994.029	1260.55
997.404	1295.18
1000.78	1301.19
1004.15	1292.31
1007.53	1305.29
1010.9	1286.61
1014.28	1291.85
1017.65	1288.89
1021.03	1289.96
1024.4	1302.83
1027.78	1340.79
1031.15	1363
1034.53	1409.14
1037.9	1431.68
1041.28	1473.45
1044.65	1541.47
1048.03	1598.56
1051.4	1642.24
1054.78	1676.52
1058.15	1796.36
1061.53	1873.4
1064.9	1948.39
1068.28	2033.12
1071.65	2113.32
1075.03	2204.45
1078.4	2247.81
1081.78	2362.61
1085.15	2411.26
1088.52	2509.78
1091.9	2628.6
1095.27	2827.3
1098.65	2791.32
1102.02	2827.02
1105.4	2967.93
1108.77	3049.61
1112.15	3173.28
1115.52	3272.71
1118.9	3415.22
1122.27	3494.11
1125.65	3645.32
1129.02	3821.83
1132.4	4055.32
1135.77	4289.82
1139.15	4561.24
1142.52	4785.93
1145.9	5160.42
1149.27	5487.05
1152.65	5824.81
1156.02	6184.8
1159.4	6525.3
1162.77	6951.16
1166.14	7407.24
1169.52	7879.64
1172.89	8481.08
1176.27	9264.59
1179.64	10244.9
1183.02	11346
1186.39	12902.5
1189.77	14728.5
1193.14	16865
1196.52	19543.4
1199.89	22874.3
1203.27	27116.3
1206.64	32133
1210.02	37536.2
1213.39	43270.3
1216.77	48552.8
1220.14	53096.6
1223.52	56531.5
1226.89	59306.2
1230.27	59658.3
1233.64	57853.4
1237.02	55094.7
1240.39	54345.1
1243.77	56886.7
1247.14	61334.3
1250.52	65222.9
1253.89	66960.6
1257.27	65789.6
1260.64	61663.6
1264.02	55219.4
1267.39	48068.8
1270.77	41859.4
1274.14	37339.3
1277.51	34009.6
1280.89	31631.3
1284.26	29834.6
