Measurement: Raman, 780 nm, unoriented, Raman Data RAW
Mineral: Bastnasite-(Ce)
Rruff sample: R050409
Ideal chemistry: CeCO_3_F
Locality: Machni, near Warsak Dam, Zagi Mountain, North-West Frontier Province, Pakistan
Source: G.R. Rossman
Description: Yellowish brown fragment
Measured chemistry: (Ce_0.54_(La,Pr)_0.25_Nd_0.21_)_Î£=1_CO_3_F_1.00_
Raman shift (cm-1)	intensity
181.18	316.147
184.073	324.192
186.966	430.507
189.859	383.87
192.751	358.739
195.644	272.636
198.537	323.642
201.429	383.069
204.322	300.944
207.215	276.976
210.107	320.262
213	431.083
215.893	376.096
218.786	351.611
221.678	333.426
224.571	378.685
227.464	254.409
230.356	375.638
233.249	314.409
236.142	301.971
239.035	307.731
241.927	354.311
244.82	318.879
247.713	289.887
250.605	314.195
253.498	355.74
256.391	445.791
259.283	361.346
262.176	417.688
265.069	321.296
267.962	398.029
270.854	459.553
273.747	379.838
276.64	511.88
279.532	444.449
282.425	496.925
285.318	458.167
288.21	512.318
291.103	447.256
293.996	562.167
296.889	515.449
299.781	447.856
302.674	447.488
305.567	478.607
308.459	501.874
311.352	459.085
314.245	451.3
317.137	450.076
320.03	428.554
322.923	469.634
325.815	388.875
328.708	448.384
331.601	475.628
334.494	496.852
337.386	478.007
340.279	557.516
343.172	434.779
346.064	500.196
348.957	515.679
351.85	455.723
354.743	481.493
357.635	498.878
360.528	522.749
363.421	584.665
366.313	552.803
369.206	571.591
372.099	557.683
374.991	541.273
377.884	490.311
380.777	527.323
383.67	480.343
386.562	509.026
389.455	457.788
392.348	498.164
395.24	404.989
398.133	359.332
401.026	443.057
403.918	432.996
406.811	418.626
409.704	375.887
412.597	396.32
415.489	344.403
418.382	371.447
421.275	344.724
424.167	294.398
427.06	332.823
429.953	307.255
432.846	400.263
435.738	273.119
438.631	266.716
441.524	358.99
444.416	299.796
447.309	413.588
450.202	345.654
453.094	323.997
455.987	339.838
458.88	318.34
461.772	272.342
464.665	352.767
467.558	372.221
470.451	296.601
473.343	322.027
476.236	304.112
479.129	347.333
482.021	216.07
484.914	375.3
487.807	349.932
490.7	308.675
493.592	326.001
496.485	323.082
499.378	295.945
502.27	351.636
505.163	328.734
508.056	327.441
510.948	419.281
513.841	315.175
516.734	378.885
519.626	376.452
522.519	393.53
525.412	319.6
528.305	350.466
531.197	329.298
534.09	367.159
536.983	483.668
539.875	424.271
542.768	446.406
545.661	491.283
548.553	501.271
551.446	483.444
554.339	426.436
557.232	428.4
560.124	488.895
563.017	349.25
565.91	364.199
568.802	422.725
571.695	385.159
574.588	324.228
577.481	357.125
580.373	396.797
583.266	377.688
586.159	297.967
589.051	251.972
591.944	275.044
594.837	230.696
597.729	260.477
600.622	325.322
603.515	314.122
606.408	252.16
609.3	290.354
612.193	292.852
615.086	227.224
617.978	243.573
620.871	331.298
623.764	312.278
626.656	284.206
629.549	300.239
632.442	312.192
635.335	270.826
638.227	425.332
641.12	328.858
644.013	342.779
646.905	381.393
649.798	359.385
652.691	383.946
655.583	355.297
658.476	374.121
661.369	341.954
664.262	389.186
667.154	307.767
670.047	349.824
672.94	316.583
675.832	271.346
678.725	280.944
681.618	287.06
684.51	240.959
687.403	309.683
690.296	252.943
693.189	270.594
696.081	233.545
698.974	186.032
701.867	179.914
704.759	193.457
707.652	136.046
710.545	106.981
713.438	240.122
716.33	213.31
719.223	139.504
722.116	78.9646
725.008	147.453
727.901	119.359
730.794	154.962
733.686	196.474
736.579	123.922
739.472	141.503
742.365	77.2338
745.257	146.229
748.15	67.9415
751.043	129.598
753.935	106.455
756.828	104.525
759.721	43.0521
762.613	90.6369
765.506	124.543
768.399	70.6924
771.292	141.115
774.184	109.299
777.077	107.749
779.97	87.3374
782.862	132.293
785.755	102.826
788.648	173.056
791.54	119.276
794.433	35.6065
797.326	183.206
800.218	108.81
803.111	116.424
806.004	96.4147
808.897	91.8071
811.789	106.393
814.682	96.8565
817.575	146.957
820.467	122.445
823.36	102.717
826.253	99.812
829.146	92.827
832.038	56.3305
834.931	133.168
837.824	64.6827
840.716	99.5034
843.609	132.189
846.502	142.221
849.394	149.841
852.287	115.772
855.18	132.163
858.073	121.437
860.965	120.704
863.858	97.9084
866.751	126.959
869.643	81.6538
872.536	135.327
875.429	152.915
878.322	193.56
881.214	201.866
884.107	157.53
887	154.563
889.892	245.086
892.785	165.983
895.678	156.193
898.57	151.781
901.463	133.044
904.356	200.599
907.249	150.787
910.141	193.402
913.034	190.162
915.927	199.057
918.819	264.758
921.712	254.142
924.605	169.83
927.497	185.372
930.39	213.648
933.283	249.26
936.176	329.364
939.068	305.397
941.961	274.973
944.854	300.984
947.746	352.467
950.639	250.945
953.532	303.934
956.424	252.05
959.317	275.779
962.21	327.894
965.102	381.692
967.995	349.216
970.888	379.161
973.781	378.943
976.673	439.15
979.566	442.209
982.459	410.641
985.351	470.982
988.244	456.575
991.137	394.863
994.029	374.444
996.922	452.437
999.815	481.113
1002.71	469.802
1005.6	423.453
1008.49	395.283
1011.39	471.612
1014.28	459.896
1017.17	418.329
1020.06	447.471
1022.96	479.009
1025.85	446.984
1028.74	448.383
1031.63	439.747
1034.53	455.144
1037.42	464.744
1040.31	484.166
1043.2	558.428
1046.1	558.75
1048.99	578.731
1051.88	582.514
1054.78	572.793
1057.67	661.582
1060.56	601.143
1063.45	668.405
1066.35	704.955
1069.24	731.362
1072.13	708.596
1075.03	747.782
1077.92	735.228
1080.81	832.125
1083.7	820.293
1086.6	803.653
1089.49	886.713
1092.38	921.316
1095.27	906.371
1098.17	838.616
1101.06	902.949
1103.95	935.536
1106.85	993.077
1109.74	1028.14
1112.63	1079.75
1115.52	1016.01
1118.42	1069.11
1121.31	1118.14
1124.2	1180.54
1127.09	1181.16
1129.99	1292.94
1132.88	1294.57
1135.77	1364.25
1138.66	1470.52
1141.56	1455.08
1144.45	1594.87
1147.34	1650.42
1150.23	1774.28
1153.13	1799.02
1156.02	1829.71
1158.91	1937.58
1161.81	2019.48
1164.7	2197.25
1167.59	2180.08
1170.48	2363.64
1173.38	2439.75
1176.27	2554.55
1179.16	2719.34
1182.06	2976.15
1184.95	3169.57
1187.84	3501.41
1190.73	3768.25
1193.63	4153.89
1196.52	4525.6
1199.41	4992.64
1202.3	5502.94
1205.2	6148.3
1208.09	6818.61
1210.98	7624.13
1213.88	8551.66
1216.77	9483.42
1219.66	10525.9
1222.55	11547.9
1225.45	12708.4
1228.34	13450.4
1231.23	13397.3
1234.12	12885.8
1237.02	12260.9
1239.91	12123
1242.8	12534.7
1245.69	13435
1248.59	14462.5
1251.48	15612.6
1254.37	16350.9
1257.27	16288.1
1260.16	15971.9
1263.05	14988.8
1265.94	13834.7
1268.84	12569.5
1271.73	11396.8
1274.62	10444.2
1277.51	9724.18
1280.41	9265.36
1283.3	8906.15
1286.19	8657.34
