Measurement: Raman, 780 nm, unoriented, Raman Data RAW
Mineral: Bellingerite
Rruff sample: R050607
Ideal chemistry: Cu^2+^_3_(I^5+^O_3_)_6_2H_2_O
Locality: Chuquicamata, Chile
Source: University of Arizona Mineral Museum
Description: Bluish green prismatic crystals
Raman shift (cm-1)	intensity
92.0654	156.079
95.4403	152.374
98.8151	156.15
102.19	162.018
105.565	155.839
108.939	132.404
112.314	127.821
115.689	124.005
119.064	127.247
122.439	133.94
125.814	134.663
129.188	143.842
132.563	146.022
135.938	142.845
139.313	148.1
142.688	133.238
146.062	125.661
149.437	126.462
152.812	135.453
156.187	141.008
159.562	149.216
162.936	157.842
166.311	167.227
169.686	180.406
173.061	172.354
176.436	143.877
179.811	125.844
183.185	109.516
186.56	106.515
189.935	103.296
193.31	96.4068
196.685	88.686
200.06	94.3407
203.434	93.9538
206.809	96.0023
210.184	99.1132
213.559	99.8736
216.934	103.886
220.308	105.733
223.683	104.79
227.058	99.6367
230.433	102.91
233.808	104.272
237.182	102.448
240.557	99.2472
243.932	96.3801
247.307	99.5428
250.682	98.6015
254.056	99.9484
257.431	104.934
260.806	104.767
264.181	103.105
267.556	109.894
270.931	101.628
274.305	101.663
277.68	98.4484
281.055	100.745
284.43	103.306
287.805	101.638
291.18	100.618
294.554	101.141
297.929	100.509
301.304	101.066
304.679	107.523
308.054	120.714
311.428	132.253
314.803	149.455
318.178	167.264
321.553	181.086
324.928	188.875
328.302	194.096
331.677	183.356
335.052	176.908
338.427	167.916
341.802	153.905
345.176	149.055
348.551	145.026
351.926	134.178
355.301	121.687
358.676	117.584
362.051	110.208
365.425	109.061
368.8	99.9443
372.175	96.9287
375.55	94.4871
378.925	93.9759
382.3	89.9667
385.674	94.624
389.049	96.251
392.424	89.7654
395.799	91.6843
399.174	84.6393
402.548	75.3855
405.923	68.1132
409.298	59.4444
412.673	62.6541
416.048	55.4408
419.422	57.621
422.797	59.8335
426.172	62.0774
429.547	64.4711
432.922	67.0465
436.296	70.8626
439.671	73.0138
443.046	78.3467
446.421	81.7002
449.796	83.1546
453.171	82.5586
456.545	83.8777
459.92	89.0062
463.295	86.8324
466.67	88.3009
470.045	88.4452
473.42	85.213
476.794	80.6264
480.169	71.0208
483.544	62.2651
486.919	59.2663
490.293	50.7502
493.668	50.816
497.043	45.949
500.418	40.2552
503.793	38.2552
507.168	36.8776
510.542	37.9705
513.917	35.4201
517.292	32.1729
520.667	34.5682
524.042	31.8089
527.417	32.2506
530.791	32.7178
534.166	30.979
537.541	31.3966
540.916	30.3203
544.291	30.8622
547.665	33.8825
551.04	34.646
554.415	33.9207
557.79	32.1162
561.165	31.9571
564.539	32.0704
567.914	32.459
571.289	31.7855
574.664	29.2446
578.039	31.7245
581.413	30.0543
584.788	30.4076
588.163	30.5184
591.538	31.566
594.913	31.87
598.288	33.8143
601.662	34.3746
605.037	34.3521
608.412	33.0351
611.787	33.112
615.162	35.1384
618.537	35.4296
621.911	35.2853
625.286	36.939
628.661	34.4726
632.036	37.0428
635.41	37.0015
638.785	41.1836
642.16	41.4876
645.535	41.3257
648.91	46.5455
652.285	44.3244
655.659	45.0187
659.034	46.0419
662.409	49.6362
665.784	46.6606
669.159	52.3603
672.534	52.0741
675.908	57.9936
679.283	59.1808
682.658	66.3385
686.033	78.019
689.408	87.8281
692.782	103.257
696.157	120.503
699.532	150.096
702.907	182.084
706.282	217.629
709.656	260.103
713.031	282.327
716.406	280.518
719.781	245.21
723.156	194.099
726.53	154.062
729.905	131.714
733.28	121.641
736.655	123.775
740.03	131.122
743.405	144.388
746.779	159.614
750.154	184.495
753.529	220.119
756.904	260.692
760.279	311.833
763.654	351.054
767.028	360.677
770.403	331.279
773.778	304.819
777.153	308.829
780.528	320.946
783.902	311.356
787.277	285.604
790.652	236.933
794.027	203.527
797.402	169.676
800.776	141.55
804.151	118.648
807.526	95.6042
810.901	82.995
814.276	72.0639
817.65	68.3704
821.025	60.1741
824.4	52.6708
827.775	47.7526
831.15	42.6753
834.525	37.6015
837.899	35.2094
841.274	31.984
844.649	31.6283
848.024	34.7712
851.399	32.4485
854.774	30.7742
858.148	30.1647
861.523	28.0791
864.898	30.4323
868.273	31.0618
871.648	26.8069
875.022	27.1621
878.397	27.5033
881.772	25.4002
885.147	27.0268
888.522	22.373
891.896	21.6404
895.271	23.2035
898.646	25.5944
902.021	25.0461
905.396	24.1353
908.77	23.7201
912.145	25.2018
915.52	22.3321
918.895	17.7967
922.27	20.314
925.645	22.8262
929.019	21.987
932.394	19.8081
935.769	19.5922
939.144	18.7044
942.519	21.3714
945.894	20.8402
949.268	21.0408
952.643	17.8416
956.018	19.5705
959.393	20.1891
962.768	19.1037
966.142	19.715
969.517	21.3051
972.892	19.4932
976.267	18.231
979.642	18.7123
983.016	15.7384
986.391	20.1638
989.766	20.7661
993.141	19.9611
996.516	16.8916
999.89	17.5402
1003.26	17.4445
1006.64	17.4224
1010.01	19.9972
1013.39	18.5612
1016.76	21.4055
1020.14	17.9734
1023.51	19.6407
1026.89	18.0202
1030.26	20.0321
1033.64	18.5707
1037.01	16.8641
1040.39	17.4642
1043.76	19.6967
1047.14	20.0138
1050.51	16.5602
1053.89	15.1776
1057.26	17.8269
1060.64	16.0142
1064.01	19.4854
1067.39	16.3055
1070.76	18.8715
1074.14	17.99
1077.51	17.1232
1080.89	17.212
1084.26	16.1071
1087.64	16.1695
1091.01	16.768
1094.38	16.1967
1097.76	17.9187
1101.13	15.9412
1104.51	17.0179
1107.88	15.8828
1111.26	17.4855
1114.63	15.2374
1118.01	18.5267
1121.38	17.89
1124.76	15.0262
1128.13	14.7802
1131.51	14.4357
1134.88	13.4055
1138.26	18.2596
1141.63	16.6153
1145.01	13.5903
1148.38	14.5091
1151.76	15.8082
1155.13	17.2399
1158.51	14.9732
1161.88	13.0564
1165.26	15.6565
1168.63	16.7286
1172.01	13.8057
1175.38	12.7829
1178.76	14.8351
1182.13	18.339
1185.51	16.1243
1188.88	14.3378
1192.26	15.9387
1195.63	14.1082
1199.01	15.9922
1202.38	17.7622
1205.75	15.172
1209.13	16.0436
1212.5	14.1756
1215.88	15.4796
1219.25	15.5134
1222.63	14.0632
1226	16.7977
1229.38	12.0924
1232.75	16.5145
1236.13	13.1227
1239.5	16.9898
1242.88	11.9881
1246.25	14.7627
1249.63	14.6357
1253	17.0499
1256.38	13.176
1259.75	14.4123
1263.13	17.2364
1266.5	17.0488
1269.88	15.4226
1273.25	16.4264
1276.62	15.2749
1280	17.5103
1283.38	14.554
