Measurement: Raman, 780 nm, unoriented, Raman Data RAW
Mineral: Benitoite
Rruff sample: R050332
Ideal chemistry: BaTi^4+^Si_3_O_9_
Locality: Benitoite Gem mine, Santa Rita Peak, San Benito County, California, USA
Source: California Institute of Technology
Description: Pale blue fragment
Measured chemistry: Ba_1.00_Ti_1.00_Si_3.00_O_9_
Raman shift (cm-1)	intensity
92.0413	0
95.4161	31.6081
98.7909	30.8503
102.166	32.3701
105.541	36.6022
108.915	37.9269
112.29	43.5266
115.665	48.242
119.04	56.2904
122.415	61.2466
125.79	39.6893
129.164	29.4632
132.539	28.4499
135.914	28.2815
139.289	31.9971
142.664	37.9767
146.038	43.6446
149.413	49.354
152.788	59.439
156.163	71.978
159.538	92.8984
162.912	91.0461
166.287	45.6564
169.662	35.5816
173.037	36.3523
176.412	40.3772
179.786	51.0171
183.161	77.6771
186.536	87.6629
189.911	109.238
193.286	147.028
196.661	202.471
200.035	286.291
203.41	237.965
206.785	205.114
210.16	266.152
213.535	361.406
216.91	455.789
220.284	383.472
223.659	201.879
227.034	148.469
230.409	150.816
233.784	131.722
237.158	66.2574
240.533	54.0947
243.908	55.7979
247.283	66.174
250.658	79.054
254.032	95.5731
257.407	118.892
260.782	147.804
264.157	173.858
267.532	154.025
270.907	103.052
274.281	67.99
277.656	50.8185
281.031	40.7958
284.406	34.766
287.781	30.4045
291.156	27.6002
294.53	26.3532
297.905	24.7703
301.28	23.3586
304.655	23.3269
308.029	23.3362
311.404	23.3341
314.779	22.6744
318.154	22.8374
321.529	22.8674
324.904	23.1747
328.278	26.2241
331.653	29.8171
335.028	32.1773
338.403	38.3786
341.778	51.2423
345.152	78.5891
348.527	88.349
351.902	95.3923
355.277	140.337
358.652	181.366
362.027	234.281
365.401	275.701
368.776	335.821
372.151	289.233
375.526	151.914
378.901	101.413
382.276	90.8345
385.65	97.8323
389.025	116.628
392.4	139.462
395.775	131.883
399.15	75.8822
402.524	43.3461
405.899	31.3982
409.274	26.2992
412.649	22.8316
416.024	21.4391
419.399	19.8707
422.773	18.6228
426.148	17.9296
429.523	17.809
432.898	16.6888
436.273	16.668
439.647	16.5252
443.022	17.3843
446.397	17.8527
449.772	19.2985
453.147	20.3006
456.522	23.4296
459.896	27.4843
463.271	31.6169
466.646	27.2442
470.021	22.9393
473.396	21.5466
476.77	22.0004
480.145	20.6962
483.52	21.5898
486.895	24.7863
490.27	29.4975
493.644	34.8212
497.019	41.68
500.394	47.7437
503.769	45.0626
507.144	35.4411
510.519	30.8048
513.893	31.7589
517.268	38.1978
520.643	48.7311
524.018	63.3513
527.393	85.5381
530.767	116.295
534.142	140.133
537.517	110.476
540.892	65.8809
544.267	42.811
547.641	32.1355
551.016	28.3388
554.391	26.7909
557.766	36.2581
561.141	53.9634
564.516	68.0575
567.89	105.424
571.265	184.496
574.64	264.965
578.015	105.986
581.39	40.9322
584.764	26.753
588.139	21.5826
591.514	18.5028
594.889	16.682
598.264	14.9564
601.639	14.4863
605.013	13.9554
608.388	13.5432
611.763	12.942
615.138	12.8325
618.513	12.7658
621.888	13.0172
625.262	12.6358
628.637	13.8644
632.012	14.3024
635.387	15.8183
638.761	15.926
642.136	14.2247
645.511	13.7658
648.886	12.8981
652.261	12.4026
655.636	12.388
659.01	11.7954
662.385	12.006
665.76	11.4363
669.135	10.9804
672.51	10.6434
675.885	11.204
679.259	10.8259
682.634	11.1143
686.009	11.1123
689.384	10.6336
692.759	10.6918
696.133	10.9009
699.508	10.9381
702.883	10.8771
706.258	10.3543
709.633	10.5829
713.007	10.6043
716.382	10.8039
719.757	11.047
723.132	10.6488
726.507	10.6156
729.881	10.7491
733.256	11.0406
736.631	11.5487
740.006	11.5796
743.381	11.6828
746.756	11.4624
750.13	12.0015
753.505	11.5754
756.88	11.322
760.255	11.7803
763.63	11.4295
767.005	11.6912
770.379	11.8908
773.754	11.6108
777.129	11.8818
780.504	12.1284
783.879	12.2637
787.253	12.3734
790.628	12.2587
794.003	12.4727
797.378	12.4921
800.753	12.5457
804.128	12.0117
807.502	12.2877
810.877	12.2896
814.252	12.4563
817.627	12.3943
821.002	12.8293
824.376	12.5614
827.751	12.6535
831.126	12.3778
834.501	12.5564
837.876	13.0006
841.25	13.1987
844.625	13.1031
848	13.2821
851.375	13.5376
854.75	14.2448
858.125	14.3466
861.499	13.8744
864.874	14.749
868.249	15.2701
871.624	15.2284
874.999	15.5741
878.374	16.2508
881.748	16.8521
885.123	17.8217
888.498	19.0393
891.873	19.6971
895.248	21.5112
898.622	23.789
901.997	27.4133
905.372	32.652
908.747	40.7039
912.122	49.2643
915.496	66.4846
918.871	92.6523
922.246	142.852
925.621	202.661
928.996	279.647
932.37	360.043
935.745	360.111
939.12	258.356
942.495	193.294
945.87	192.821
949.245	173.593
952.619	101.3
955.994	59.5483
959.369	41.6649
962.744	31.8505
966.119	25.4926
969.494	21.6848
972.868	18.7306
976.243	16.0587
979.618	14.9
982.993	13.4105
986.368	12.7114
989.742	11.8077
993.117	11.6918
996.492	11.4676
999.867	11.8351
1003.24	11.227
1006.62	11.29
1009.99	11.5589
1013.37	11.0215
1016.74	11.2164
1020.12	10.4525
1023.49	10.2415
1026.87	9.9477
1030.24	9.61726
1033.62	9.7063
1036.99	9.3547
1040.37	9.78402
1043.74	10.4627
1047.11	11.7078
1050.49	13.0981
1053.86	14.9732
1057.24	16.0905
1060.61	13.3481
1063.99	11.3743
1067.36	9.49151
1070.74	9.41146
1074.11	9.85763
1077.49	9.68055
1080.86	11.1888
1084.24	12.9258
1087.61	15.4042
1090.99	17.5313
1094.36	19.32
1097.74	19.2359
1101.11	18.9823
1104.49	18.7477
1107.86	17.3079
1111.24	16.1006
1114.61	14.697
1117.98	13.6404
1121.36	12.5437
1124.73	11.3533
1128.11	10.7235
1131.48	9.81901
1134.86	8.89761
1138.23	8.43752
1141.61	7.82743
1144.98	7.03338
1148.36	6.45377
1151.73	6.8025
1155.11	6.22948
1158.48	5.95439
1161.86	6.19653
1165.23	5.88297
1168.61	6.00149
1171.98	5.82354
1175.36	5.4815
1178.73	5.57207
1182.11	6.09739
1185.48	6.00692
1188.86	6.07631
1192.23	6.41132
1195.61	6.55594
1198.98	6.58867
1202.36	6.52579
1205.73	6.4548
1209.11	6.53515
1212.48	6.07049
1215.86	6.67554
1219.23	6.3959
1222.61	6.19124
1225.98	5.62575
1229.35	5.58116
1232.73	5.20121
1236.1	5.33908
1239.48	5.39859
1242.85	5.43961
1246.23	4.84791
1249.6	5.03515
1252.98	5.19825
1256.35	5.16155
1259.73	4.83669
1263.1	4.96443
1266.48	5.18207
1269.85	5.14456
1273.23	5.46592
1276.6	5.23308
1279.98	5.51941
1283.35	5.32472
1286.73	0
1290.1	0
1293.48	0
1296.85	0
1300.22	0
1303.6	0
