Measurement: Raman, 514 nm, unoriented, Raman Data RAW
Mineral: Beryl
Rruff sample: X050031
Ideal chemistry: Be_3_Al_2_Si_6_O_18_
Source: G.R. Rossman
Raman shift (cm-1)	intensity
101.1	95
106.1	129.594
111.2	194.959
116.2	328.674
121.3	556.932
126.3	912.134
131.4	1332.1
136.4	1702.73
141.5	2113.24
146.5	2682.12
151.6	3080.46
156.6	3523.53
161.7	3837.29
166.7	4253.9
171.8	4476.51
176.8	4734.31
181.9	5001.16
186.9	5221.72
192	5338.08
197	5391.89
202.1	5526.44
207.1	5647.46
212.2	5676.47
217.2	5767.77
222.3	5888.22
227.4	5906
232.4	5978.33
237.5	6211.73
242.5	6360.86
247.6	6633.56
252.6	6695.29
257.7	6225.19
262.7	6009.11
267.8	5946.92
272.8	6134.87
277.9	6130.22
282.9	6135.78
288	6232.37
293	6315.33
298.1	6405.79
303.1	6416.12
308.2	6653.66
313.2	6848.26
318.3	7751.84
323.3	9674.52
328.4	11116.5
333.4	9700.44
338.5	7482.23
343.5	6488.37
348.6	6287.44
353.6	6363.78
358.7	6410.14
363.7	6399.12
368.8	6389.2
373.8	6486.09
378.9	6689.99
383.9	7063.52
389	7716.14
394	9302.94
399.1	11805.2
404.1	12601.5
409.2	10369.4
414.2	8177.02
419.3	7295.6
424.3	7098.64
429.4	7062.89
434.4	7070.76
439.5	7250.77
444.5	7106.94
449.6	6990.17
454.6	6961.71
459.7	7169.71
464.7	7287.48
469.8	7466.56
474.8	7248.48
479.9	7120.11
485	7131.46
490	7055.35
495.1	7176.73
500.1	7272.45
505.2	7464.03
510.2	7592.12
515.3	8001.1
520.3	8424.54
525.4	8509.46
530.4	7992.93
535.5	7583.9
540.5	7233.09
545.6	7194.87
550.6	7229.57
555.7	7191.33
560.7	7335.82
565.8	7346.34
570.8	7569.31
575.9	7602.52
580.9	7768.81
586	7743.17
591	7832.54
596.1	7900.62
601.1	7922.26
606.2	8204.88
611.2	8660.71
616.3	9004.36
621.3	8621.8
626.4	8324.82
631.4	8083.42
636.5	8184.39
641.5	8091.38
646.6	8159.06
651.6	8240.41
656.7	8471.52
661.7	8755.09
666.8	9202.57
671.8	9944.52
676.9	11919.7
681.9	17360.5
687	26948.9
692	31283.9
697.1	23669.7
702.1	14966.3
707.2	11324.2
712.2	10094
717.3	9276.43
722.3	9075.43
727.4	8934.12
732.4	8825.83
737.5	8785.23
742.6	8807.98
747.6	8784.85
752.7	8734.12
757.7	8826.28
762.8	8911.17
767.8	9066.84
772.9	9117.23
777.9	9073.17
783	9165.04
788	9123.04
793.1	9185.67
798.1	9137.25
803.2	9228.2
808.2	9218.51
813.3	9330.44
818.3	9264.05
823.4	9210.27
828.4	9277.63
833.5	9273.69
838.5	9371.5
843.6	9410.61
848.6	9420.27
853.7	9493.75
858.7	9519.95
863.8	9559.66
868.8	9624.92
873.9	9572.46
878.9	9595.33
884	9641.26
889	9697.05
894.1	9779.83
899.1	10008.8
904.2	10068.9
909.2	10184.6
914.3	10431.1
919.3	10444.5
924.4	10481.2
929.4	10589.5
934.5	10518.4
939.5	10455.5
944.6	10503.9
949.6	10462
954.7	10410.3
959.7	10551.9
964.8	10729.6
969.8	10601.7
974.9	10787.9
979.9	10972.8
985	11216.3
990.1	11489.5
995.1	11847
1000.2	12367.4
1005.2	12702.6
1010.3	12968.7
1015.3	13187.5
1020.4	13188.6
1025.4	13105
1030.5	13030.6
1035.5	13135.8
1040.6	13544.2
1045.6	14085.6
1050.7	15574.5
1055.7	18204.4
1060.8	22840
1065.8	28892.2
1070.9	33015.8
1075.9	32136.5
1081	27327.1
1086	22619.7
1091.1	19832.6
1096.1	18417.3
1101.2	17167.7
1106.2	16261.2
1111.3	15852.7
1116.3	15770
1121.4	15868.2
1126.4	16074
1131.5	15860.8
1136.5	15309.2
1141.6	14760.2
1146.6	14290.5
1151.7	13966.3
1156.7	13571.2
1161.8	13392.1
1166.8	13203.2
1171.9	13090.5
1176.9	12827.9
1182	12877.7
1187	12901
1192.1	12899.9
1197.1	12867.6
1202.2	12880.2
1207.2	13053.1
1212.3	13061.6
1217.3	13038.5
1222.4	13046.4
1227.4	12966.4
1232.5	13010.7
1237.5	13150.9
1242.6	13131.5
1247.7	13219.3
1252.7	13182.2
1257.8	13170.1
1262.8	13326.8
1267.9	13248
1272.9	13307.6
1278	13605.5
1283	13562.2
1288.1	13569.8
1293.1	13687.8
1298.2	13742.6
1303.2	13840.5
1308.3	13928.2
1313.3	13833
1318.4	14015.4
1323.4	13955.1
1328.5	14138.5
1333.5	14121.9
1338.6	14191.8
1343.6	14195.6
1348.7	14351.3
1353.7	14465.8
1358.8	14535.2
1363.8	14444.6
1368.9	14533.5
1373.9	14557.5
1379	14644.4
1384	14806.7
1389.1	14818.5
1394.1	14909.1
1399.2	14982
1404.2	14949.8
1409.3	14909.2
1414.3	15050.4
1419.4	15076.8
1424.4	15133.5
1429.5	15272.2
1434.5	15278.3
1439.6	15393.6
1444.6	15483.6
1449.7	15437.8
1454.7	15553.2
1459.8	15682.5
1464.8	15741.5
1469.9	15813.3
1474.9	15778.7
1480	15797.5
1485	15957.9
1490.1	15899.2
1495.1	15992.8
1500.2	16046.9
