Measurement: Raman, 780 nm, unoriented, Raman Data RAW
Mineral: Beryllonite
Rruff sample: R100219
Ideal chemistry: NaBePO_4_
Locality: Telirio mine, Linopolis, Minas Gerais, Brazil
Source: Luiz Menezes
Description: Colorless tabular crystal fragments
Raman shift (cm-1)	intensity
152.316	277.27
155.209	284.1
158.102	324.677
160.994	370.697
163.887	326.391
166.78	361.31
169.673	405.746
172.565	290.685
175.458	256.945
178.351	253.253
181.243	263.447
184.136	265.092
187.029	275.099
189.921	276.832
192.814	283.604
195.707	276.348
198.6	266.932
201.492	270.172
204.385	275.736
207.278	285.435
210.17	296.243
213.063	305.146
215.956	311.796
218.848	325.19
221.741	349.356
224.634	376.732
227.526	414.364
230.419	446.563
233.312	423.462
236.205	392.729
239.097	379.098
241.99	354.142
244.883	346.798
247.775	346.824
250.668	346.997
253.561	343.697
256.454	352.701
259.346	360.673
262.239	375.596
265.132	383.069
268.024	397.845
270.917	414.413
273.81	437.751
276.702	472.699
279.595	494.449
282.488	487.677
285.38	476.109
288.273	460.023
291.166	470.186
294.059	475.652
296.951	475.867
299.844	480.93
302.737	496.256
305.629	491.074
308.522	456.631
311.415	446.755
314.308	446.334
317.2	455.181
320.093	463.5
322.986	474.14
325.878	486.117
328.771	503.044
331.664	521.876
334.556	552.488
337.449	592.817
340.342	637.513
343.234	696.066
346.127	784.104
349.02	935.021
351.913	1094.3
354.805	1129.43
357.698	945.828
360.591	762.905
363.483	665.615
366.376	625.054
369.269	603.53
372.161	593.915
375.054	598.651
377.947	598.365
380.839	610.834
383.732	630.857
386.625	644.549
389.518	664.736
392.41	716.607
395.303	812.424
398.196	905.924
401.088	829.27
403.981	718.108
406.874	681.593
409.767	673.346
412.659	676.473
415.552	691.811
418.445	696.289
421.337	721.437
424.23	731.116
427.123	766.224
430.015	819.33
432.908	839.106
435.801	790.217
438.693	786.655
441.586	806.473
444.479	840.927
447.372	911.822
450.264	1002.2
453.157	1115.87
456.05	1230.01
458.942	1451.69
461.835	1896.55
464.728	2256.04
467.62	2000.78
470.513	1537.81
473.406	1225.7
476.299	1079.66
479.191	1006.52
482.084	978.719
484.977	967
487.869	964.694
490.762	966.725
493.655	963.459
496.547	964.951
499.44	965.093
502.333	983.787
505.226	993.994
508.118	1010.79
511.011	1046.6
513.904	1072.62
516.796	1106.4
519.689	1163.74
522.582	1243.79
525.474	1292.36
528.367	1407.59
531.26	1339.96
534.153	1235.58
537.045	1226.61
539.938	1282.69
542.831	1454.47
545.723	1631.03
548.616	1443.59
551.509	1302.01
554.401	1298.68
557.294	1318.3
560.187	1404.82
563.08	1597.31
565.972	1880.44
568.865	1823.2
571.758	1487.18
574.65	1357.91
577.543	1339.29
580.436	1358.12
583.328	1364.59
586.221	1408.76
589.114	1463.22
592.006	1480.7
594.899	1447.74
597.792	1461.02
600.685	1465.5
603.577	1441.71
606.47	1434.74
609.363	1440.2
612.255	1444.51
615.148	1456.11
618.041	1469.19
620.933	1484.2
623.826	1507.26
626.719	1517.71
629.611	1523.5
632.504	1549.09
635.397	1567.2
638.29	1580.19
641.182	1590.05
644.075	1594.57
646.968	1618.93
649.86	1643.19
652.753	1651.08
655.646	1660.85
658.538	1674.69
661.431	1686.78
664.324	1702.39
667.217	1723.01
670.109	1733.07
673.002	1753.35
675.895	1764.71
678.787	1792.04
681.68	1796.86
684.573	1820.72
687.466	1835.5
690.358	1863.71
693.251	1865.16
696.144	1882.71
699.036	1899.4
701.929	1911.94
704.822	1936.39
707.714	1950.84
710.607	1965.07
713.5	1984.79
716.393	2012.88
719.285	2042.57
722.178	2053.54
725.071	2066.42
727.963	2073.59
730.856	2109.34
733.749	2112.93
736.641	2136.71
739.534	2168.92
742.427	2212.87
745.319	2210.44
748.212	2222.99
751.105	2216.01
753.998	2228.06
756.89	2240.01
759.783	2250.41
762.676	2280.78
765.568	2303.02
768.461	2338.24
771.354	2355.78
774.246	2357.53
777.139	2375.77
780.032	2394.9
782.925	2396.54
785.817	2426.72
788.71	2436.38
791.603	2488.36
794.495	2478.93
797.388	2494.27
800.281	2514.9
803.173	2534.32
806.066	2553.42
808.959	2570.97
811.851	2589.36
814.744	2599.33
817.637	2626.73
820.53	2660.67
823.422	2648.3
826.315	2655.91
829.208	2665.79
832.1	2690.59
834.993	2701.51
837.886	2718.7
840.779	2727.05
843.671	2762.23
846.564	2753.4
849.457	2770.16
852.349	2801.58
855.242	2806.65
858.135	2832.12
861.027	2829.48
863.92	2858.81
866.813	2886.05
869.706	2883.07
872.598	2894.97
875.491	2902.47
878.384	2908.16
881.276	2911.07
884.169	2960.53
887.062	2967.46
889.954	2957.61
892.847	2964.47
895.74	2967.76
898.632	2993.62
901.525	2995.44
904.418	3008.16
907.311	3032.87
910.203	3022.65
913.096	3031.48
915.989	3043.89
918.881	3068.92
921.774	3048.62
924.667	3060.44
927.559	3085.6
930.452	3097.95
933.345	3103.28
936.237	3133.1
939.13	3130.64
942.023	3130.25
944.916	3125.73
947.808	3139.67
950.701	3150.97
953.594	3169.63
956.486	3173.11
959.379	3192.36
962.272	3204.92
965.164	3205.57
968.057	3232.13
970.95	3231.47
973.843	3253.98
976.735	3267.42
979.628	3300.3
982.521	3374.81
985.413	3376.62
988.306	3451.33
991.199	3535.19
994.091	3714.82
996.984	3952.25
999.877	4331.8
1002.77	4861.17
1005.66	5681.79
1008.55	6854.3
1011.45	7117.98
1014.34	5789.72
1017.23	4668.22
1020.13	4076.08
1023.02	3818.09
1025.91	3678.9
1028.8	3611.72
1031.7	3554.51
1034.59	3521.23
1037.48	3561.36
1040.38	3596.21
1043.27	3697.63
1046.16	3741.96
1049.05	3744.13
1051.94	3631.98
1054.84	3528.44
1057.73	3468.9
1060.62	3460.17
1063.52	3564.31
1066.41	3633.73
1069.3	3532.48
1072.19	3411.88
1075.09	3359.41
1077.98	3291.04
1080.87	3262.61
1083.77	3243.74
1086.66	3236.75
1089.55	3240.53
1092.44	3250.74
1095.34	3227.17
1098.23	3203.41
1101.12	3214.87
1104.01	3184.51
1106.91	3195.38
1109.8	3195.7
1112.69	3147.8
1115.59	3161.33
1118.48	3158.52
1121.37	3167.16
1124.26	3152.58
1127.16	3167.61
1130.05	3155.92
1132.94	3140.93
1135.83	3160.71
1138.73	3177.14
1141.62	3179.24
1144.51	3200.53
1147.4	3199.47
1150.3	3158.55
1153.19	3135.32
1156.08	3126.05
1158.97	3111.04
1161.87	3116.93
1164.76	3087.99
1167.65	3108.61
1170.55	3084.98
1173.44	3110.07
1176.33	3070.02
1179.22	3084.8
1182.12	3055.8
1185.01	3049.44
1187.9	3038.25
1190.8	3043.52
1193.69	3029.89
1196.58	3028.98
1199.47	3010.24
1202.37	3009.91
1205.26	3019.65
1208.15	2986.31
1211.04	2974.31
1213.94	2970.18
1216.83	2955.72
1219.72	2947.96
1222.62	2946.11
1225.51	2992.78
1228.4	2919.86
1231.29	2916.14
1234.18	2904.08
1237.08	2894.53
1239.97	2890.26
1242.86	2879.14
1245.76	2879.66
1248.65	2869.4
1251.54	2867.48
1254.43	2844.16
1257.33	2838.87
1260.22	2846.86
1263.11	2859.57
1266.01	2846.59
1268.9	2831.08
1271.79	2821.18
1274.68	2814.4
1277.58	2801.69
1280.47	2791.33
1283.36	2785.11
