Measurement: Raman, 780 nm, unoriented, Raman Data RAW
Mineral: Beryl
Rruff sample: X080008
Ideal chemistry: Be_3_Al_2_Si_6_O_18_
Locality: Synthetic
Source: Gemological Institute of America
Description: Faceted emerald gemstone, 1.24 ct
Raman shift (cm-1)	intensity
93.7832	49192.9
97.158	52382.8
100.533	52290.6
103.908	50847.4
107.282	50199.1
110.657	49579.6
114.032	49258.1
117.407	48920.1
120.782	48337.9
124.157	48220.2
127.531	47599.7
130.906	47163.6
134.281	47054.5
137.656	46755.2
141.031	46593.5
144.405	46477.6
147.78	46347.8
151.155	46224.8
154.53	46074.5
157.905	46009.4
161.28	45766.5
164.654	45503.5
168.029	45389.3
171.404	45212.5
174.779	45064.9
178.154	44915.9
181.529	44834.5
184.903	44771.2
188.278	44663.6
191.653	44458.7
195.028	44496.4
198.403	44341.1
201.777	44159.9
205.152	44119.3
208.527	44139
211.902	43927.3
215.277	43659.5
218.651	43608.2
222.026	43521.6
225.401	43361.4
228.776	43349.6
232.151	43298.5
235.526	43181.4
238.9	43173.2
242.275	43044.6
245.65	42940.7
249.025	42821.7
252.4	42688.7
255.774	42499.1
259.149	42427.7
262.524	42401.9
265.899	42258.3
269.274	42124.1
272.649	42098.3
276.023	41981.8
279.398	41922.9
282.773	41893.5
286.148	41758
289.523	41714.5
292.897	41726.3
296.272	41565.6
299.647	41440.7
303.022	41250.3
306.397	41248.3
309.772	41129.6
313.146	41104.2
316.521	41038.4
319.896	40905
323.271	40847.8
326.646	40781.4
330.021	40667.1
333.395	40607.6
336.77	40415.2
340.145	40496.6
343.52	40382.3
346.895	40291.6
350.269	40245.7
353.644	40143.3
357.019	40056.9
360.394	39991.7
363.769	39887.8
367.144	39785.7
370.518	39791
373.893	39748.7
377.268	39620.7
380.643	39563.6
384.018	39513.1
387.392	39400.4
390.767	39252.2
394.142	39190
397.517	39185.9
400.892	39152.1
404.267	38966.2
407.641	38888.1
411.016	38737.8
414.391	38734.7
417.766	38688.6
421.141	38643.8
424.515	38722.5
427.89	38506.9
431.265	38369.6
434.64	38495.2
438.015	38336.3
441.39	38210.3
444.764	38159.8
448.139	38048.7
451.514	37974.5
454.889	37931.2
458.264	37831.9
461.639	37789
465.013	37836
468.388	37595.7
471.763	37482.4
475.138	37480.6
478.513	37309.2
481.887	37332.9
485.262	37224.3
488.637	37117.2
492.012	36982.6
495.387	36888.8
498.762	36822.8
502.136	36677.7
505.511	36638.6
508.886	36470.2
512.261	36298.9
515.636	36251.7
519.01	36214.9
522.385	36103.7
525.76	36061.5
529.135	35957.6
532.51	35972.3
535.885	35708.6
539.259	35692.7
542.634	35717.7
546.009	35588.3
549.384	35440.8
552.759	35387.4
556.133	35399.1
559.508	35335.2
562.883	35222.8
566.258	35092.2
569.633	35084.6
573.008	35117.8
576.382	35003
579.757	34890.8
583.132	35026.4
586.507	34879.3
589.882	34771
593.256	34721.2
596.631	34678.1
600.006	34617.1
603.381	34601.2
606.756	34489.3
610.13	34358
613.505	34258.5
616.88	34270.5
620.255	34181.7
623.63	34166.1
627.005	34002.4
630.379	33957.7
633.754	33758
637.129	33880.9
640.504	33773.6
643.879	33779.2
647.254	33688.3
650.628	33585.2
654.003	33532.9
657.378	33349.6
660.753	33338
664.128	33234.9
667.502	33180.3
670.877	33103.6
674.252	33149
677.627	32963.4
681.002	32896.2
684.376	32860.7
687.751	32781.7
691.126	32665.6
694.501	32620.1
697.876	32434.1
701.251	32485.6
704.625	32372
708	32409.1
711.375	32228.9
714.75	32136.9
718.125	32056.2
721.5	32051
724.874	31963.4
728.249	31842.2
731.624	31739.6
734.999	31762.2
738.374	31556.1
741.749	31610.2
745.123	31518.6
748.498	31361.6
751.873	31379.8
755.248	31222.1
758.623	31152.7
761.997	30978.8
765.372	30903.5
768.747	30916.2
772.122	30853.6
775.497	30726.1
778.871	30633.2
782.246	30559
785.621	30538.4
788.996	30483.5
792.371	30468.5
795.745	30432.3
799.12	30269.5
802.495	30268.4
805.87	30139.6
809.245	30094.1
812.62	30074.3
815.994	29873
819.369	29925.9
822.744	29875.4
826.119	29735.2
829.494	29718.6
832.869	29686.1
836.243	29537.6
839.618	29513.6
842.993	29588.4
846.368	29511.2
849.743	29341.4
853.117	29288.4
856.492	29191.6
859.867	29189.8
863.242	29051.9
866.617	29100.8
869.992	28983
873.366	28898.5
876.741	28835.2
880.116	28762.4
883.491	28759.9
886.866	28675
890.24	28567.9
893.615	28506.2
896.99	28370.5
900.365	28319
903.74	28396.2
907.115	28244.2
910.489	28251
913.864	28186.4
917.239	28070.5
920.614	28074.8
923.989	27919
927.364	27790.6
930.738	27842.9
934.113	27739.8
937.488	27763.7
940.863	27657.7
944.238	27592.3
947.612	27462.8
950.987	27422.5
954.362	27348.5
957.737	27284.5
961.112	27260.3
964.486	27217.8
967.861	27168.4
971.236	27087.9
974.611	26983.2
977.986	26863.1
981.361	26807.6
984.735	26886.6
988.11	26731
991.485	26732.3
994.86	26693.9
998.235	26668.1
1001.61	26562.3
1004.98	26472.4
1008.36	26479.9
1011.73	26419.6
1015.11	26292.5
1018.48	26316.4
1021.86	26256.9
1025.23	26198.6
1028.61	26092.7
1031.98	26086.4
1035.36	25988.9
1038.73	26041.7
1042.11	25876
1045.48	25908.9
1048.86	25763
1052.23	25699
1055.61	25670.2
1058.98	25686.3
1062.36	25640.4
1065.73	25494.9
1069.11	25383.4
1072.48	25383
1075.86	25347.4
1079.23	25207.5
1082.61	25207.4
1085.98	25149.1
1089.36	24965.2
1092.73	24974.5
1096.1	24958.6
1099.48	24798
1102.85	24805.6
1106.23	24665.4
1109.6	24690.9
1112.98	24597
1116.35	24401.2
1119.73	24387.8
1123.1	24338.8
1126.48	24339.1
1129.85	24379.7
1133.23	24227.6
1136.6	24225.4
1139.98	24166.8
1143.35	24200.6
1146.73	24136
1150.1	24012.6
1153.48	23896
1156.85	23972.2
1160.23	23913.1
1163.6	23845.2
1166.98	23811.5
1170.35	23834.5
1173.72	23772.5
1177.1	23750.9
1180.47	23724.5
1183.85	23637.6
1187.22	23551.5
1190.6	23491.7
1193.97	23432.1
1197.35	23402.8
1200.72	23443.7
1204.1	23403.8
1207.47	23376.9
1210.85	23253.7
1214.22	23190.3
1217.6	23109.2
1220.97	22950.4
1224.35	22896
1227.72	22983.9
1231.1	22930.5
1234.47	22833.4
1237.85	22784.7
1241.22	22684.8
1244.6	22650.8
1247.97	22661.3
1251.35	22601.3
1254.72	22551.2
1258.1	22476
1261.47	22430.9
1264.85	22404.6
1268.22	22390.9
1271.6	22387.4
1274.97	22340.8
1278.35	22253.9
1281.72	22230.6
1285.09	22266.4
