Measurement: Raman, 780 nm, unoriented, Raman Data RAW
Mineral: Beryl
Rruff sample: X080009
Ideal chemistry: Be_3_Al_2_Si_6_O_18_
Locality: Synthetic
Source: Gemological Institute of America
Description: Faceted emerald gemstone, 1.47 ct
Raman shift (cm-1)	intensity
93.7832	32797.9
97.158	36186
100.533	37955.2
103.908	38231.3
107.282	38507.1
110.657	38758.6
114.032	38975.7
117.407	39107.6
120.782	39082.5
124.157	38924.1
127.531	39005.2
130.906	38848.9
134.281	38760.3
137.656	38769.6
141.031	38885.9
144.405	38880.9
147.78	38658.9
151.155	38792.1
154.53	38909.6
157.905	39032.1
161.28	38884.4
164.654	38652.1
168.029	38605.5
171.404	38616.9
174.779	38608.6
178.154	38535.5
181.529	38377.3
184.903	38355.4
188.278	38435.1
191.653	38224.8
195.028	38216.6
198.403	38207
201.777	38036.9
205.152	38111.1
208.527	37974.9
211.902	37918.4
215.277	37873.5
218.651	37757.4
222.026	37682.9
225.401	37575.7
228.776	37595.8
232.151	37470.5
235.526	37377.5
238.9	37282.3
242.275	37318.6
245.65	37269.2
249.025	37086.2
252.4	37001.2
255.774	37132.8
259.149	36862
262.524	36943.6
265.899	36800.9
269.274	36656.8
272.649	36690.8
276.023	36618.1
279.398	36735
282.773	36615.7
286.148	36673.3
289.523	36543
292.897	36415.1
296.272	36494
299.647	36472.8
303.022	36355.8
306.397	36124
309.772	36131.9
313.146	36198.8
316.521	35970
319.896	36055.7
323.271	36039.4
326.646	35872.4
330.021	35961
333.395	35882.6
336.77	35788.9
340.145	35703.2
343.52	35753.3
346.895	35636.4
350.269	35703
353.644	35643.9
357.019	35470.5
360.394	35614
363.769	35652.3
367.144	35491.3
370.518	35356.2
373.893	35421.5
377.268	35321.8
380.643	35247.2
384.018	35201.6
387.392	35229.6
390.767	35093.4
394.142	35093.5
397.517	35017.8
400.892	34978.4
404.267	34865.9
407.641	34918.2
411.016	34704.3
414.391	34677.6
417.766	34674
421.141	34572.9
424.515	34674.1
427.89	34547.5
431.265	34455
434.64	34327.6
438.015	34583.8
441.39	34353.4
444.764	34262.1
448.139	34151.3
451.514	34188.5
454.889	33995
458.264	33887.6
461.639	33998.2
465.013	33929.6
468.388	33619
471.763	33691
475.138	33586.5
478.513	33423.1
481.887	33549
485.262	33289.7
488.637	33215.8
492.012	33098.4
495.387	32974.3
498.762	32922.1
502.136	32900.2
505.511	32682.4
508.886	32584.6
512.261	32506.4
515.636	32449.9
519.01	32255
522.385	32191.2
525.76	32217.2
529.135	32201.8
532.51	31932.2
535.885	31761
539.259	31787.5
542.634	31802.4
546.009	31623.2
549.384	31516.1
552.759	31371.9
556.133	31353.7
559.508	31339.4
562.883	31306.6
566.258	31174.6
569.633	31201.6
573.008	31173
576.382	30959.9
579.757	30842.2
583.132	30910.3
586.507	30799.9
589.882	30761.3
593.256	30599.2
596.631	30784.6
600.006	30596.3
603.381	30533
606.756	30425.9
610.13	30262.3
613.505	30190.6
616.88	30135
620.255	30224.9
623.63	30113.5
627.005	30028.7
630.379	30020.5
633.754	30016
637.129	29932.8
640.504	29983.2
643.879	29821.6
647.254	29829.3
650.628	29758.1
654.003	29704.5
657.378	29544.6
660.753	29460
664.128	29596.7
667.502	29460.5
670.877	29430.5
674.252	29375.7
677.627	29326.6
681.002	29262.5
684.376	29256.8
687.751	29137.3
691.126	28951.6
694.501	28998.2
697.876	28852.3
701.251	28884.2
704.625	28757.2
708	28776
711.375	28762
714.75	28785.9
718.125	28530.8
721.5	28605.2
724.874	28535.6
728.249	28309.5
731.624	28296.3
734.999	28280.4
738.374	28150.7
741.749	28167.6
745.123	28111.3
748.498	27974.4
751.873	28034.2
755.248	27891.4
758.623	27817.2
761.997	27746.6
765.372	27665.1
768.747	27573.5
772.122	27678.5
775.497	27489.8
778.871	27312.7
782.246	27289.1
785.621	27400.4
788.996	27305.9
792.371	27154.2
795.745	27097
799.12	27081.4
802.495	27082.5
805.87	26881.4
809.245	26825.5
812.62	26793.4
815.994	26716.2
819.369	26697
822.744	26542.3
826.119	26605
829.494	26527
832.869	26487.6
836.243	26354.1
839.618	26354.8
842.993	26362.2
846.368	26162.6
849.743	26175.9
853.117	26120
856.492	25970.2
859.867	25991.5
863.242	25886.8
866.617	25807.1
869.992	25648.5
873.366	25691.4
876.741	25632.5
880.116	25556.5
883.491	25382.2
886.866	25419.2
890.24	25330.2
893.615	25273.9
896.99	25212.4
900.365	25092.1
903.74	25043.6
907.115	25002.1
910.489	25039.7
913.864	24990
917.239	24962.1
920.614	24809.2
923.989	24744.1
927.364	24749.5
930.738	24631.3
934.113	24610.8
937.488	24625
940.863	24510.6
944.238	24439.8
947.612	24265.1
950.987	24378.6
954.362	24316.3
957.737	24291.3
961.112	24265.6
964.486	24123.7
967.861	24193.9
971.236	24108.5
974.611	24064.8
977.986	23941.4
981.361	23910.3
984.735	23866.7
988.11	23810.9
991.485	23798.2
994.86	23789.9
998.235	23696.9
1001.61	23791.9
1004.98	23680.6
1008.36	23636.1
1011.73	23544
1015.11	23565.6
1018.48	23512.8
1021.86	23532.5
1025.23	23490
1028.61	23368.5
1031.98	23408.8
1035.36	23205.7
1038.73	23391.8
1042.11	23236
1045.48	23132.2
1048.86	23163
1052.23	23187.8
1055.61	23165.2
1058.98	23077.1
1062.36	23053.8
1065.73	22966.5
1069.11	22991.9
1072.48	22911.9
1075.86	22930.4
1079.23	22837.4
1082.61	22766.8
1085.98	22637.7
1089.36	22606.8
1092.73	22448.6
1096.1	22406.8
1099.48	22289.1
1102.85	22424.5
1106.23	22278.5
1109.6	22302.7
1112.98	22264.3
1116.35	22082.1
1119.73	21999.8
1123.1	22011.5
1126.48	21952.5
1129.85	22097.7
1133.23	21921
1136.6	21945.9
1139.98	21844.9
1143.35	21827.1
1146.73	21781.2
1150.1	21770.9
1153.48	21690.8
1156.85	21659.9
1160.23	21508.9
1163.6	21517.2
1166.98	21591.6
1170.35	21516.2
1173.72	21543.3
1177.1	21591.6
1180.47	21415.5
1183.85	21386.4
1187.22	21334.9
1190.6	21205.5
1193.97	21158
1197.35	21137.4
1200.72	21166.2
1204.1	21220.2
1207.47	21077.5
1210.85	21086.7
1214.22	20983.2
1217.6	20847.3
1220.97	20849.3
1224.35	20856.3
1227.72	20776.1
1231.1	20793.2
1234.47	20684.7
1237.85	20628.1
1241.22	20655.9
1244.6	20532.1
1247.97	20593.3
1251.35	20500.4
1254.72	20582.1
1258.1	20421.1
1261.47	20421.2
1264.85	20313.6
1268.22	20322.5
1271.6	20368.8
1274.97	20337.2
1278.35	20342.7
1281.72	20298.7
1285.09	20351
