Measurement: Raman, 780 nm, unoriented, Raman Data RAW
Mineral: Beudantite
Rruff sample: R100183
Ideal chemistry: Pb^2+^Fe^3+^_3_(As^5+^O_4_)(S^6+^O_4_)(OH)_6_
Locality: Mina Ojuela (Campo Sur), Mapimi, Durango, Mexico
Source: Marcus Origlieri
Description: Greenish-yellow blocky crystals associated with mimetite
Measured chemistry: Pb_1.02_(Fe_2.76_Zn_0.04_)_Σ=2.80_(S_0.57_As_0.44_)_Σ=1.01_O_4_(AsO_3_OH)(OH)_6_
Raman shift (cm-1)	intensity
105.551	88.3379
108.926	89.0255
112.301	94.8963
115.675	99.5176
119.05	102.935
122.425	106.69
125.8	109.296
129.175	115.887
132.55	121.718
135.924	122.287
139.299	110.319
142.674	98.9353
146.049	91.055
149.424	86.4875
152.798	83.812
156.173	82.4576
159.548	84.4589
162.923	83.0734
166.298	86.3843
169.673	89.1341
173.047	92.8999
176.422	98.1659
179.797	103.695
183.172	110.864
186.547	115.065
189.921	121.016
193.296	126.868
196.671	128.019
200.046	125.667
203.421	121.248
206.796	116.698
210.17	109.963
213.545	103.446
216.92	100.441
220.295	94.9831
223.67	92.7515
227.044	90.8335
230.419	89.9754
233.794	91.1308
237.169	87.2261
240.544	89.2468
243.918	87.1062
247.293	86.1363
250.668	85.1823
254.043	84.0749
257.418	81.4648
260.793	79.1368
264.167	78.678
267.542	77.4334
270.917	78.4832
274.292	77.1783
277.667	77.9724
281.041	79.9507
284.416	80.6213
287.791	79.8652
291.166	79.6667
294.541	82.6463
297.916	81.4482
301.29	80.5348
304.665	80.6528
308.04	79.2058
311.415	79.5346
314.79	78.2917
318.164	76.6553
321.539	75.1501
324.914	73.3731
328.289	72.5553
331.664	66.537
335.038	66.5166
338.413	65.6754
341.788	65.4649
345.163	65.1289
348.538	66.6415
351.913	64.2022
355.287	66.2498
358.662	66.989
362.037	65.6965
365.412	67.3169
368.787	65.255
372.161	66.1737
375.536	65.2103
378.911	64.8126
382.286	64.9786
385.661	63.3558
389.036	67.0075
392.41	67.5924
395.785	68.6304
399.16	70.7622
402.535	73.1185
405.909	72.8862
409.284	78.5091
412.659	80.6397
416.034	84.7854
419.409	86.9302
422.784	91.0967
426.158	92.9248
429.533	93.828
432.908	90.9591
436.283	88.3366
439.658	87.9374
443.033	85.3817
446.407	85.5156
449.782	85.9932
453.157	90.3365
456.532	94.6739
459.907	99.4478
463.281	105.608
466.656	110.673
470.031	116.703
473.406	115.903
476.781	109.797
480.156	95.1846
483.53	84.0373
486.905	76.3258
490.28	68.873
493.655	66.106
497.029	64.1401
500.404	62.1787
503.779	61.0743
507.154	60.4892
510.529	58.7607
513.904	58.7126
517.278	58.4764
520.653	57.7225
524.028	57.8054
527.403	58.8304
530.778	58.5439
534.153	58.8176
537.527	58.6261
540.902	59.0842
544.277	59.8946
547.652	60.5438
551.027	62.7997
554.401	63.4746
557.776	62.2746
561.151	60.8914
564.526	59.9594
567.901	58.9354
571.275	59.7573
574.65	57.0128
578.025	55.2692
581.4	55.7789
584.775	54.8009
588.149	55.9123
591.524	53.596
594.899	53.2054
598.274	54.6709
601.649	54.0852
605.024	55.3176
608.398	55.7868
611.773	56.2954
615.148	55.6663
618.523	55.3472
621.898	54.8145
625.273	53.5021
628.647	51.0543
632.022	50.5739
635.397	51.2364
638.772	49.3779
642.146	49.4783
645.521	49.0198
648.896	50.9472
652.271	48.4663
655.646	50.8441
659.021	49.0139
662.395	48.984
665.77	49.1207
669.145	48.5223
672.52	49.2675
675.895	49.0629
679.269	47.8036
682.644	48.2679
686.019	49.6732
689.394	48.4017
692.769	48.0744
696.144	48.0201
699.518	47.1631
702.893	48.0443
706.268	47.536
709.643	46.9668
713.018	46.9475
716.393	46.8609
719.767	46.1088
723.142	48.5445
726.517	47.4258
729.892	47.1218
733.266	46.9164
736.641	47.7429
740.016	45.8178
743.391	45.6073
746.766	46.4377
750.141	45.306
753.515	45.2491
756.89	46.6858
760.265	45.4783
763.64	46.206
767.015	48.3043
770.389	46.7324
773.764	47.3327
777.139	48.4883
780.514	47.5036
783.889	50.3671
787.264	52.1114
790.638	53.2029
794.013	54.5302
797.388	57.089
800.763	58.782
804.138	59.0302
807.513	60.7121
810.887	60.3615
814.262	62.9808
817.637	63.4061
821.012	63.6209
824.386	65.3262
827.761	67.0459
831.136	69.7204
834.511	69.2118
837.886	72.9501
841.261	72.3227
844.635	74.8482
848.01	72.462
851.385	71.0553
854.76	67.0895
858.135	63.2207
861.51	62.5701
864.884	62.0451
868.259	57.4908
871.634	55.4332
875.009	54.1034
878.384	54.6506
881.758	50.3201
885.133	49.8034
888.508	47.5679
891.883	47.2063
895.258	45.4542
898.632	45.492
902.007	43.9272
905.382	40.9997
908.757	41.2677
912.132	42.8519
915.506	40.7092
918.881	40.4069
922.256	42.3988
925.631	41.9478
929.006	40.3299
932.381	39.9107
935.755	40.2413
939.13	40.4157
942.505	41.7666
945.88	39.1967
949.255	39.8346
952.63	39.7659
956.004	39.7637
959.379	38.5889
962.754	39.5273
966.129	40.4681
969.504	38.4871
972.878	38.891
976.253	38.1089
979.628	40.2601
983.003	42.2462
986.378	43.879
989.752	46.7827
993.127	48.4347
996.502	48.783
999.877	44.0441
1003.25	41.3477
1006.63	39.121
1010	38.4512
1013.38	39.2922
1016.75	36.9792
1020.13	38.2923
1023.5	38.53
1026.88	36.4737
1030.25	38.422
1033.62	37.4624
1037	37.5812
1040.38	38.0152
1043.75	39.6093
1047.12	38.5319
1050.5	39.0098
1053.87	39.4497
1057.25	40.3721
1060.62	40.439
1064	39.8809
1067.37	39.4991
1070.75	38.7775
1074.12	40.6396
1077.5	40.4065
1080.87	41.2111
1084.25	40.7966
1087.62	40.4252
1091	41.2192
1094.37	39.3435
1097.75	40.2032
1101.12	40.3206
1104.5	40.4053
1107.87	40.9994
1111.25	40.1851
1114.62	40.0062
1117.99	40.3889
1121.37	39.6992
1124.74	39.9481
1128.12	38.7077
1131.49	40.1459
1134.87	39.0003
1138.24	39.962
1141.62	40.6412
1144.99	39.1868
1148.37	40.9738
1151.74	41.7313
1155.12	39.6827
1158.49	40.1544
1161.87	42.9872
1165.24	43.0778
1168.62	40.9165
1171.99	43.0282
1175.37	41.0316
1178.74	44.0918
1182.12	43.0479
1185.49	43.6627
1188.87	44.0755
1192.24	43.957
1195.62	45.0475
1198.99	43.9052
1202.37	45.28
1205.74	45.2934
1209.12	47.5644
1212.49	45.5056
1215.87	47.1859
1219.24	49.7154
1222.62	49.2898
1225.99	49.1331
1229.36	49.8358
1232.74	49.4056
1236.11	52.5189
1239.49	49.7044
1242.86	52.403
1246.24	52.8321
1249.61	51.8594
1252.99	53.4565
1256.36	54.066
1259.74	54.4131
1263.11	57.0532
1266.49	54.2884
1269.86	55.2818
1273.24	56.0134
1276.61	56.8329
1279.99	55.3763
1283.36	58.0902
