Measurement: Raman, 785 nm, unoriented, Raman Data RAW
Mineral: Beudantite
Rruff sample: R070492
Ideal chemistry: Pb^2+^Fe^3+^_3_(As^5+^O_4_)(S^6+^O_4_)(OH)_6_
Locality: Capitana mine, Copiapó Province, Atacama Region, Chile
Source: Bob Jenkins
Description: Druse of light green rhombohedral crystals
Measured chemistry: Pb_1.04_(Fe_2.37_Cu_0.47_Al_0.13_)_Σ=2.97_(S_0.51_As_0.48_)_Σ=0.99_O_4_(AsO_3_OH)(OH)_6_
Raman shift (cm-1)	intensity
154.184	11707.9
157.076	11865.1
159.969	12184.1
162.862	12798.6
165.754	13249.6
168.647	13530.5
171.54	13806.9
174.433	14110.1
177.325	14335.7
180.218	14854.6
183.111	15148.7
186.003	15222.4
188.896	14979.2
191.789	14578.5
194.681	14183.5
197.574	13731.1
200.467	13306.2
203.359	12941.2
206.252	12672.7
209.145	12280
212.038	11872.5
214.93	11480.1
217.823	11290.1
220.716	11040.3
223.608	10979.1
226.501	10840.6
229.394	10812.2
232.286	10674.4
235.179	10614
238.072	10718.5
240.965	10699.9
243.857	10747.1
246.75	10790.6
249.643	10882
252.535	10900.8
255.428	10867.7
258.321	10986.7
261.214	11031.7
264.106	11099.2
266.999	11108.2
269.892	11238.9
272.784	11432.1
275.677	11609.8
278.57	11846.4
281.462	12095.2
284.355	12280
287.248	12527.5
290.14	12589.5
293.033	12738.2
295.926	12754.7
298.819	12600.2
301.711	12382.3
304.604	12123.9
307.497	11690.4
310.389	11456.8
313.282	11005.6
316.175	10637
319.067	10265.9
321.96	9812.16
324.853	9609.48
327.746	9264.49
330.638	9093.3
333.531	8933.39
336.424	8715.29
339.316	8664.87
342.209	8543.95
345.102	8667.68
347.995	8661.22
350.887	8671.18
353.78	8657.32
356.673	8713.29
359.565	8790.1
362.458	8689.21
365.351	8548.48
368.243	8573.29
371.136	8513.17
374.029	8386.65
376.921	8273.1
379.814	8322.4
382.707	8397.04
385.6	8424.37
388.492	8626.86
391.385	8879.54
394.278	9089.71
397.17	9426.74
400.063	9612.55
402.956	9782.72
405.849	10190.3
408.741	10342.9
411.634	10559.1
414.527	10641.8
417.419	10715.3
420.312	10841.1
423.205	10780.7
426.097	10673.9
428.99	10605.9
431.883	10494.2
434.776	10269.2
437.668	10023.1
440.561	9793.59
443.454	9533.21
446.346	9212.27
449.239	9032.49
452.132	8824.24
455.024	8667.48
457.917	8591.16
460.81	8458.51
463.702	8471.89
466.595	8478.44
469.488	8421.96
472.381	8379.65
475.273	8251.45
478.166	8096.44
481.059	7868.41
483.951	7631.65
486.844	7418.3
489.737	7190.52
492.63	7116.89
495.522	6975.15
498.415	6827.81
501.308	6779.8
504.2	6675.22
507.093	6642.45
509.986	6597.51
512.878	6583.04
515.771	6510.39
518.664	6540.42
521.557	6521.39
524.449	6521.21
527.342	6516.57
530.235	6616.55
533.127	6614.55
536.02	6624.37
538.913	6622.96
541.805	6675.89
544.698	6691.46
547.591	6699.75
550.484	6768.9
553.376	6766.31
556.269	6717.74
559.162	6692.49
562.054	6633.73
564.947	6459.37
567.84	6471.49
570.732	6408.42
573.625	6349.02
576.518	6282.79
579.41	6184.62
582.303	6120.9
585.196	6024.85
588.089	5994.23
590.981	5878.84
593.874	5867.37
596.767	5826.22
599.659	5770.38
602.552	5824.31
605.445	5772.07
608.337	5763.58
611.23	5673.18
614.123	5643.05
617.016	5695.54
619.908	5641.72
622.801	5631.68
625.694	5630.07
628.586	5494.44
631.479	5480.02
634.372	5434.6
637.264	5427.88
640.157	5397.39
643.05	5395.72
645.943	5366.5
648.835	5430.29
651.728	5375.67
654.621	5357.87
657.513	5432.98
660.406	5381.46
663.299	5369.14
666.192	5410.34
669.084	5360.29
671.977	5403.23
674.87	5389.86
677.762	5408.95
680.655	5400.13
683.548	5360.99
686.44	5412.43
689.333	5519.13
692.226	5439.63
695.119	5459.51
698.011	5472.23
700.904	5455.61
703.797	5407.63
706.689	5465
709.582	5470.02
712.475	5516.5
715.367	5581.33
718.26	5577.56
721.153	5587.69
724.045	5587.36
726.938	5647.69
729.831	5631.5
732.724	5620.85
735.616	5689.49
738.509	5682.85
741.402	5687.78
744.294	5686.29
747.187	5643.86
750.08	5666.91
752.972	5676.17
755.865	5606.87
758.758	5571.22
761.651	5571.98
764.543	5572.02
767.436	5563.4
770.329	5551.3
773.221	5577.99
776.114	5651.1
779.007	5681.84
781.899	5780.21
784.792	5835.57
787.685	6011.21
790.578	6084.26
793.47	6216.15
796.363	6384.41
799.256	6490.71
802.148	6511.03
805.041	6679.7
807.934	6734.25
810.827	6804.13
813.719	6883.31
816.612	7069.84
819.505	7273.33
822.397	7444.62
825.29	7751.24
828.183	8232.73
831.075	8672.57
833.968	9103.84
836.861	9594.47
839.754	9949.46
842.646	10137.7
845.539	10234.3
848.432	10105.1
851.324	9942.14
854.217	9738.08
857.11	9522.54
860.002	9163.73
862.895	8919.04
865.788	8699.71
868.681	8429.01
871.573	8029.99
874.466	7828.08
877.359	7531.33
880.251	7309.53
883.144	7068.97
886.037	6797.91
888.929	6588.83
891.822	6315.85
894.715	6196.96
897.607	6002.44
900.5	5914.04
903.393	5812.22
906.286	5641.32
909.178	5526.31
912.071	5492.57
914.964	5414.52
917.856	5298.35
920.749	5271.71
923.642	5179.74
926.534	5145.84
929.427	5102.02
932.32	5019.93
935.213	5006.16
938.105	4902.18
940.998	4938.53
943.891	4881.12
946.783	4924.07
949.676	4867.01
952.569	4892.93
955.462	4920.28
958.354	4885.97
961.247	4872.06
964.14	4991.01
967.032	4966.47
969.925	5057.01
972.818	5132.99
975.71	5203.95
978.603	5400.98
981.496	5450.75
984.389	5565.75
987.281	5605.92
990.174	5535.43
993.067	5389.63
995.959	5185.4
998.852	5003.1
1001.75	4829.08
1004.64	4784.27
1007.53	4699.39
1010.42	4679.48
1013.32	4597.33
1016.21	4571.71
1019.1	4660.48
1021.99	4582.2
1024.89	4610.7
1027.78	4638.61
1030.67	4614.31
1033.56	4618.29
1036.46	4617.14
1039.35	4639.09
1042.24	4636.65
1045.13	4571.91
1048.03	4598.78
1050.92	4589.05
1053.81	4569.23
1056.71	4621.99
1059.6	4491.09
1062.49	4535.53
1065.38	4543.83
1068.28	4576.71
1071.17	4655.44
1074.06	4591.57
1076.95	4549.57
1079.85	4610.36
1082.74	4568.85
1085.63	4513.32
1088.53	4596.62
1091.42	4562.19
1094.31	4525.86
1097.2	4552.06
1100.1	4495.88
1102.99	4541.16
1105.88	4510.28
1108.78	4480.88
1111.67	4510.97
1114.56	4484.76
1117.45	4491.55
1120.35	4459.99
1123.24	4437.34
1126.13	4425.96
1129.02	4422.12
1131.92	4387.81
1134.81	4397.59
1137.7	4351.34
1140.59	4375.78
1143.49	4342.21
1146.38	4370.77
1149.27	4375.78
1152.16	4371.92
1155.06	4375.18
1157.95	4373.12
1160.84	4387.87
1163.74	4324.64
1166.63	4285.29
1169.52	4288.17
1172.41	4269.54
1175.31	4198.52
1178.2	4205.06
1181.09	4197.7
1183.98	4197.5
1186.88	4132.11
1189.77	4104.97
1192.66	4128.44
1195.56	4120.13
1198.45	4141.56
1201.34	4038.77
1204.23	4073.5
1207.13	4054.27
1210.02	4125.61
1212.91	4018.61
1215.8	4057.3
1218.7	4001.52
1221.59	4015
1224.48	3992.09
1227.38	4027.02
1230.27	4031.39
1233.16	3987.72
1236.05	3957.12
1238.95	3954.95
1241.84	3984.22
1244.73	3935.07
1247.62	3942.56
1250.52	3934.21
1253.41	3921.61
1256.3	3911.06
