Measurement: Raman, 532 nm, unoriented, Raman Data RAW
Mineral: Beudantite
Rruff sample: R070492
Ideal chemistry: Pb^2+^Fe^3+^_3_(As^5+^O_4_)(S^6+^O_4_)(OH)_6_
Locality: Capitana mine, Copiapó Province, Atacama Region, Chile
Source: Bob Jenkins
Description: Druse of light green rhombohedral crystals
Measured chemistry: Pb_1.04_(Fe_2.37_Cu_0.47_Al_0.13_)_Σ=2.97_(S_0.51_As_0.48_)_Σ=0.99_O_4_(AsO_3_OH)(OH)_6_
Raman shift (cm-1)	intensity
162.208	3589.63
165.101	3705.15
167.994	3827.62
170.886	4031.89
173.779	4194.77
176.672	4514.31
179.565	4817.66
182.457	5153.68
185.35	5593.24
188.243	5918.5
191.135	6247.14
194.028	6179.9
196.921	6085.65
199.813	5966.29
202.706	5647.89
205.599	5412.73
208.492	5033.7
211.384	4744.89
214.277	4534.76
217.17	4282.15
220.062	4083.13
222.955	3961.08
225.848	3799.79
228.74	3745.59
231.633	3679.64
234.526	3655.21
237.418	3615.75
240.311	3610.89
243.204	3613.13
246.097	3586.34
248.989	3575.14
251.882	3538.31
254.775	3494.54
257.667	3569.92
260.56	3478.02
263.453	3518.13
266.346	3460.86
269.238	3479.31
272.131	3447.88
275.024	3503
277.916	3627.35
280.809	3743.83
283.702	3847.14
286.594	4052.55
289.487	4280.9
292.38	4440.57
295.272	4573.26
298.165	4525.24
301.058	4525.39
303.951	4437.92
306.843	4271.06
309.736	4101.28
312.629	3944.27
315.521	3757.24
318.414	3581.16
321.307	3424.72
324.2	3272.07
327.092	3120.49
329.985	2970.43
332.878	2847.68
335.77	2742.79
338.663	2730.78
341.556	2695
344.448	2682.39
347.341	2669.17
350.234	2679.94
353.127	2753.28
356.019	2753.54
358.912	2782.41
361.805	2789.67
364.697	2792.99
367.59	2847.66
370.483	2813.41
373.375	2768.34
376.268	2732.7
379.161	2744.43
382.053	2716.81
384.946	2633
387.839	2743.92
390.732	2821.44
393.624	2888.08
396.517	3039.39
399.41	3165.86
402.302	3359.78
405.195	3476.6
408.088	3647.47
410.981	3894.12
413.873	4100.15
416.766	4253.86
419.659	4495.86
422.551	4684.57
425.444	4865.66
428.337	5023.46
431.229	5135.04
434.122	5164.69
437.015	5127.25
439.908	4967.59
442.8	4794.48
445.693	4698.65
448.586	4517.38
451.478	4471.95
454.371	4530.8
457.264	4657.91
460.156	4860.81
463.049	5090.74
465.942	5413.65
468.834	5685.98
471.727	5870.04
474.62	5800.66
477.513	5507.19
480.405	4987.3
483.298	4492.01
486.191	4110.08
489.083	3672.83
491.976	3388.46
494.869	3141.92
497.762	3007.02
500.654	2914.87
503.547	2756.01
506.44	2667.4
509.332	2627.75
512.225	2565.44
515.118	2544.99
518.01	2534
520.903	2500.01
523.796	2512.54
526.688	2515.12
529.581	2518.11
532.474	2628.1
535.367	2639.02
538.259	2631.61
541.152	2719.43
544.045	2809.15
546.937	2856.84
549.83	2838.74
552.723	2926.25
555.615	2900.29
558.508	2921.72
561.401	2915.33
564.294	2895.28
567.186	2885.69
570.079	2804.21
572.972	2744.69
575.864	2718.55
578.757	2602.55
581.65	2591.82
584.543	2519.52
587.435	2443.97
590.328	2394.42
593.221	2343.1
596.113	2336.76
599.006	2284.88
601.899	2249.34
604.791	2267.67
607.684	2311.61
610.577	2340.26
613.47	2374.11
616.362	2386.74
619.255	2343.31
622.148	2306.38
625.04	2226.39
627.933	2168.93
630.826	2093.92
633.718	2015.16
636.611	2010.59
639.504	1998.02
642.396	1993.67
645.289	1982.22
648.182	1962.94
651.075	1974.43
653.967	2001.85
656.86	1995.07
659.753	1993.91
662.645	2001.02
665.538	2012.8
668.431	2022.42
671.323	2049.11
674.216	2015.34
677.109	2027.79
680.002	2052.51
682.894	2061.68
685.787	2025.89
688.68	2063.52
691.572	2015.61
694.465	2024.46
697.358	2010.92
700.25	2047.03
703.143	2067.5
706.036	2056.99
708.929	2066.2
711.821	2088.75
714.714	2078.16
717.607	2106.52
720.499	2162.7
723.392	2154.41
726.285	2156.74
729.178	2152.68
732.07	2165.25
734.963	2167.81
737.856	2172.63
740.748	2176.5
743.641	2182.03
746.534	2170.64
749.426	2168.5
752.319	2184.82
755.212	2205.39
758.105	2187.77
760.997	2195.84
763.89	2194.8
766.783	2235.74
769.675	2245.38
772.568	2258.61
775.461	2296.14
778.353	2359.52
781.246	2433.71
784.139	2510.19
787.032	2628.04
789.924	2716.66
792.817	2842.05
795.71	2971.62
798.602	3114.87
801.495	3212.03
804.388	3375.1
807.28	3478.8
810.173	3524.14
813.066	3640.7
815.958	3695.38
818.851	3765.76
821.744	3902.94
824.637	4080.18
827.529	4293.93
830.422	4550.89
833.315	4852.06
836.207	5233.3
839.1	5529.81
841.993	5741.8
844.885	5812.23
847.778	5819.68
850.671	5568.77
853.564	5365.01
856.456	5178.87
859.349	4981.21
862.242	4813.4
865.134	4613.31
868.027	4436.9
870.92	4228.16
873.812	4015.26
876.705	3945.68
879.598	3718.36
882.491	3498.35
885.383	3350.74
888.276	3232.76
891.169	3082.28
894.061	2962.75
896.954	2850.38
899.847	2712.53
902.74	2653.22
905.632	2577.79
908.525	2527.09
911.418	2418.86
914.31	2410.59
917.203	2367.49
920.096	2301.03
922.988	2277.06
925.881	2271.64
928.774	2214.94
931.667	2222.61
934.559	2171.09
937.452	2136.35
940.345	2131.63
943.237	2112.77
946.13	2104.58
949.023	2087.7
951.915	2076.5
954.808	2079.74
957.701	2081.36
960.593	2033.57
963.486	2100.51
966.379	2062.48
969.272	2103.04
972.164	2142.03
975.057	2164.44
977.95	2185.84
980.842	2271.22
983.735	2345.54
986.628	2513.02
989.52	2633.73
992.413	2730.25
995.306	2703.15
998.199	2507.53
1001.09	2320.42
1003.98	2152.24
1006.88	2087.63
1009.77	2024.97
1012.66	2013.08
1015.55	2012.44
1018.45	1994.19
1021.34	2013.66
1024.23	2018.58
1027.13	2045.39
1030.02	2050.86
1032.91	2076.06
1035.8	2048.85
1038.7	2061.62
1041.59	2075.54
1044.48	2079.8
1047.38	2098.48
1050.27	2165.82
1053.16	2141.32
1056.05	2163.02
1058.94	2194.07
1061.84	2223.19
1064.73	2245.45
1067.62	2271.53
1070.52	2282.15
1073.41	2250
1076.3	2298.46
1079.19	2276.94
1082.09	2286.62
1084.98	2350.65
1087.87	2335.15
1090.77	2343.39
1093.66	2367.62
1096.55	2373.05
1099.44	2333.53
1102.34	2380.04
1105.23	2406.96
1108.12	2365.16
1111.01	2345.91
1113.91	2402.47
1116.8	2331.61
1119.69	2296.64
1122.59	2257.56
1125.48	2273.91
1128.37	2217.25
1131.26	2210.57
1134.16	2200.59
1137.05	2218.71
1139.94	2240.39
1142.83	2261.93
1145.73	2239.67
1148.62	2230.22
1151.51	2270.76
1154.4	2232.41
1157.3	2214.16
1160.19	2196.96
1163.08	2224.19
1165.97	2200.14
1168.87	2178.92
1171.76	2182.22
1174.65	2179.89
1177.55	2167.12
1180.44	2155.77
1183.33	2131.2
1186.22	2075.51
1189.12	2097.3
1192.01	2066.79
1194.9	2041.13
1197.8	2031.48
1200.69	2029.73
1203.58	2030.86
1206.47	2018.4
1209.37	1980.48
1212.26	1984.5
1215.15	2013.35
1218.04	1992.56
1220.94	2009.22
1223.83	2061.12
1226.72	1993.07
1229.62	2023.42
1232.51	1989.86
1235.4	2030.6
1238.29	2020.87
1241.18	1998.61
1244.08	1996.29
1246.97	2028.05
1249.86	2041.14
1252.76	2034.99
1255.65	2015.24
1258.54	2004.04
1261.43	2023.3
1264.33	2021.55
1267.22	2071.78
1270.11	2052
1273.01	2060.28
1275.9	2089.1
1278.79	2061.39
