Measurement: Raman, 532 nm, unoriented, Raman Data RAW
Mineral: Beudantite
Rruff sample: R100183
Ideal chemistry: Pb^2+^Fe^3+^_3_(As^5+^O_4_)(S^6+^O_4_)(OH)_6_
Locality: Mina Ojuela (Campo Sur), Mapimi, Durango, Mexico
Source: Marcus Origlieri
Description: Greenish-yellow blocky crystals associated with mimetite
Measured chemistry: Pb_1.02_(Fe_2.76_Zn_0.04_)_Σ=2.80_(S_0.57_As_0.44_)_Σ=1.01_O_4_(AsO_3_OH)(OH)_6_
Raman shift (cm-1)	intensity
175.888	235.466
178.78	250.96
181.673	262.193
184.566	286.932
187.459	308.283
190.351	339.235
193.244	371.767
196.137	397.333
199.029	409.335
201.922	405.456
204.815	392.816
207.708	374.245
210.6	357.876
213.493	335.127
216.386	321.061
219.278	304.944
222.171	293.622
225.064	281.881
227.956	276.257
230.849	272.433
233.742	265.178
236.635	263.939
239.527	264.298
242.42	267.036
245.313	263.364
248.205	262.827
251.098	259.005
253.991	253.911
256.884	246.739
259.776	245.772
262.669	244.413
265.562	240.851
268.454	235.012
271.347	233.234
274.24	229.315
277.132	230.663
280.025	228.55
282.918	233.463
285.81	238.77
288.703	243.129
291.596	250.027
294.489	253.286
297.381	254.393
300.274	255.283
303.167	254.849
306.059	250.378
308.952	245.49
311.845	244.457
314.738	242.073
317.63	236.561
320.523	232.667
323.416	233.44
326.308	227.225
329.201	222.154
332.094	218.113
334.986	213.536
337.879	212.244
340.772	210.552
343.665	208.883
346.557	208.915
349.45	210.107
352.343	209.562
355.235	213.338
358.128	212.417
361.021	215.812
363.913	215.697
366.806	218.975
369.699	219.359
372.592	221.308
375.484	220.114
378.377	217.06
381.27	213.187
384.162	212.252
387.055	215.091
389.948	216.149
392.841	222.435
395.733	223.679
398.626	230.106
401.519	236.185
404.411	243.786
407.304	249.585
410.197	260.413
413.089	269.174
415.982	289.34
418.875	304.981
421.767	323.635
424.66	345.14
427.553	367.213
430.446	383.727
433.338	381.643
436.231	364.839
439.124	352.427
442.017	337.981
444.909	331.48
447.802	324.993
450.695	325.722
453.587	337.033
456.48	345.771
459.373	366.159
462.265	395.302
465.158	440.193
468.051	484.092
470.943	534.923
473.836	572.623
476.729	575.842
479.622	523.962
482.514	444.671
485.407	372.82
488.3	324.549
491.192	292.762
494.085	275.043
496.978	261.827
499.87	251.231
502.763	245.847
505.656	240.493
508.549	237.328
511.441	234.288
514.334	233.377
517.227	233.988
520.119	234.24
523.012	233.619
525.905	236.957
528.798	238.845
531.69	235.317
534.583	237.597
537.476	239.688
540.368	243.106
543.261	247.408
546.154	250.352
549.047	252.349
551.939	261.625
554.832	261.615
557.725	263.274
560.617	262.678
563.51	261.679
566.403	258.019
569.295	255.501
572.188	255.756
575.081	246.767
577.973	246.079
580.866	242.815
583.759	241.212
586.652	237.577
589.544	238.443
592.437	235.964
595.33	233.894
598.222	237.597
601.115	234.359
604.008	234.971
606.901	237.685
609.793	242.922
612.686	248.815
615.579	254.882
618.471	259.11
621.364	257.916
624.257	255.772
627.149	246.335
630.042	237.116
632.935	230.546
635.828	225.133
638.72	226.658
641.613	225.66
644.506	224.892
647.398	225.227
650.291	224.671
653.184	225.39
656.077	226.906
658.969	227.537
661.862	226.61
664.755	227.898
667.647	224.63
670.54	229.761
673.433	228.599
676.325	229.265
679.218	230.607
682.111	230.026
685.004	232.363
687.896	232.853
690.789	232.452
693.682	232.587
696.574	233.749
699.467	231.989
702.36	233.481
705.253	233.624
708.145	232.501
711.038	234.604
713.931	231.304
716.823	232.24
719.716	234.412
722.609	233.627
725.501	235.843
728.394	236.734
731.287	236.587
734.179	236.179
737.072	235.933
739.965	237.346
742.858	235.087
745.75	235.43
748.643	234.933
751.536	236.49
754.428	233.638
757.321	234.171
760.214	238.154
763.107	239.408
765.999	237.561
768.892	241.425
771.785	244.262
774.677	245.564
777.57	246.31
780.463	250.236
783.356	254.444
786.248	260.996
789.141	267.7
792.034	276.598
794.926	283.121
797.819	292.267
800.712	299.283
803.604	307.52
806.497	314.459
809.39	317.567
812.283	321.41
815.175	327.445
818.068	327.578
820.961	335.047
823.853	340.858
826.746	347.157
829.639	351.666
832.531	360.989
835.424	373.452
838.317	379.708
841.21	391.335
844.102	400.204
846.995	398.945
849.888	400.178
852.78	393.124
855.673	383.039
858.566	366.806
861.458	356.442
864.351	346.257
867.244	339.706
870.136	331.899
873.029	327.322
875.922	314.803
878.815	310.909
881.707	305.918
884.6	300.554
887.493	296.397
890.385	290.173
893.278	287.327
896.171	280.74
899.064	277.726
901.956	273.668
904.849	271.498
907.742	269.735
910.634	264.972
913.527	264.353
916.42	261.737
919.312	261.037
922.205	259.883
925.098	261.317
927.991	260.288
930.883	260.834
933.776	259.945
936.669	256.346
939.562	258.107
942.454	258.731
945.347	258.505
948.24	253.101
951.132	255.425
954.025	254.049
956.918	255.196
959.81	256.108
962.703	253.68
965.596	253.511
968.489	251.955
971.381	254.964
974.274	251.946
977.167	254.6
980.059	256.891
982.952	261.825
985.845	266.719
988.737	275.271
991.63	289.971
994.523	304.425
997.415	311.638
1000.31	304.291
1003.2	284.664
1006.09	268.712
1008.99	257.679
1011.88	255.829
1014.77	256.863
1017.66	255.75
1020.56	255.068
1023.45	256.363
1026.34	256.151
1029.23	257.907
1032.13	255.458
1035.02	260.233
1037.91	256.631
1040.81	255.625
1043.7	255.347
1046.59	261.86
1049.48	261.86
1052.38	264.727
1055.27	266.217
1058.16	268.942
1061.06	267.472
1063.95	273.435
1066.84	271.773
1069.73	273.899
1072.63	274.119
1075.52	275.531
1078.41	275.248
1081.3	277.941
1084.2	280.531
1087.09	279.806
1089.98	278.824
1092.88	281.926
1095.77	282.07
1098.66	283.571
1101.55	281.975
1104.45	282.164
1107.34	279.176
1110.23	283.228
1113.12	278.396
1116.02	276.842
1118.91	277.758
1121.8	277.459
1124.69	274.078
1127.59	275.266
1130.48	273.133
1133.37	272.927
1136.27	273.54
1139.16	272.889
1142.05	273.157
1144.94	275.438
1147.84	274.761
1150.73	275.739
1153.62	273.415
1156.51	273.462
1159.41	274.629
1162.3	275.784
1165.19	274.942
1168.09	271.83
1170.98	273.277
1173.87	272.003
1176.76	274.257
1179.66	272.522
1182.55	267.009
1185.44	272.127
1188.33	271.328
1191.23	266.631
1194.12	267.094
1197.01	266.769
1199.9	267.064
1202.8	265.558
1205.69	266.38
1208.58	262.77
1211.48	265.535
1214.37	264.821
1217.26	267.709
1220.15	266.542
1223.05	266.842
1225.94	267.593
1228.83	267.757
1231.72	266.956
1234.62	267.214
1237.51	269.645
1240.4	265.388
1243.3	267.043
1246.19	265.713
1249.08	266.958
1251.97	270.381
1254.87	267.899
1257.76	268.034
1260.65	269.742
1263.54	269.019
1266.44	265.205
1269.33	268.317
1272.22	270.613
1275.12	270.151
1278.01	270.134
1280.9	271.288
1283.79	271.3
1286.69	269.074
1289.58	270.953
1292.47	268.789
1295.36	270.427
1298.26	269.072
1301.15	273.611
