Measurement: Raman, 532 nm, unoriented, Raman Data Processed
Mineral: Biphosphammite
Rruff sample: R180019
Ideal chemistry: H_2_(N^3-^H_4_)PO_4_
Locality: Ojuela mine, Mapimí, Municipio de Mapimí, Durango, Mexico
Source: Peter Megaw
Description: Colorless tetragonal prismatic crystals
Raman shift (cm-1)	intensity
88.1367	0
91.5115	7.0675
94.8863	11.5192
98.2612	0.833862
101.636	3.55646
105.011	9.2561
108.386	51.6586
111.76	57.5576
115.135	73.6423
118.51	107.98
121.885	117.402
125.26	136.983
128.635	126.522
132.009	137.282
135.384	137.484
138.759	140.566
142.134	146.491
145.509	133.204
148.883	151.691
152.258	176.332
155.633	204.834
159.008	225.405
162.383	249.017
165.757	278.807
169.132	295.421
172.507	310.659
175.882	322.02
179.257	318.132
182.632	282.311
186.006	239.234
189.381	184.959
192.756	140.988
196.131	97.469
199.506	73.48
202.881	49.3
206.255	38.7828
209.63	21.9662
213.005	15.5935
216.38	16.8377
219.755	4.49704
223.129	2.6756
226.504	5.05002
229.879	5.41919
233.254	1.97458
236.629	2.02206
240.004	5.8606
243.378	7.34354
246.753	7.68424
250.128	9.48413
253.503	14.2849
256.878	10.6597
260.252	27.0343
263.627	31.8311
267.002	30.2262
270.377	36.0682
273.752	50.4008
277.127	51.7214
280.501	52.7658
283.876	60.1052
287.251	64.3254
290.626	63.0956
294.001	69.7313
297.375	65.267
300.75	74.6873
304.125	83.5859
307.5	87.5886
310.875	108.504
314.25	115.779
317.624	133.046
320.999	143.413
324.374	165.767
327.749	180.586
331.124	197.292
334.498	216.528
337.873	232.955
341.248	229.493
344.623	196.241
347.998	162.817
351.373	120.222
354.747	80.2141
358.122	51.9603
361.497	30.3489
364.872	6.84625
368.247	1.45261
371.621	0.823059
374.996	0.883057
378.371	1.89758
381.746	17.5778
385.121	41.0187
388.495	81.7104
391.87	124.747
395.245	179.839
398.62	212.105
401.995	178.562
405.37	108.407
408.744	48.6542
412.119	17.981
415.494	3.51623
418.869	1.7908
422.244	0.569275
425.618	1.099
428.993	2.2641
432.368	8.95554
435.743	18.5697
439.118	20.9297
442.493	35.5207
445.867	46.6228
449.242	54.4824
452.617	77.0288
455.992	86.0947
459.367	104.489
462.741	120.88
466.116	133.816
469.491	154.22
472.866	163.245
476.241	163.607
479.615	163.527
482.99	149.391
486.365	116.466
489.74	83.0844
493.115	52.4261
496.49	30.5437
499.864	10.6133
503.239	3.39615
506.614	4.19702
509.989	3.4072
513.364	2.39331
516.739	8.45608
520.113	13.1609
523.488	27.2227
526.863	40.03
530.238	56.3818
533.613	73.8476
536.987	89.5008
540.362	92.1622
543.737	92.3861
547.112	100.469
550.487	97.78
553.861	84.9339
557.236	86.3106
560.611	81.5109
563.986	77.9173
567.361	63.3773
570.736	58.6632
574.11	48.1639
577.485	43.6732
580.86	36.5705
584.235	28.2472
587.61	24.946
590.985	12.743
594.359	16.7268
597.734	11.9518
601.109	10.3877
604.484	4.16724
607.859	5.3103
611.233	2.81128
614.608	3.43765
617.983	5.82263
621.358	3.34924
624.733	1.26691
628.107	2.04266
631.482	5.03769
634.857	3.06928
638.232	2.16571
641.607	0.296906
644.982	0.263672
648.356	0.213043
651.731	1.37241
655.106	2.78232
658.481	8.29413
661.856	9.88724
665.231	8.4711
668.605	10.1523
671.98	8.24139
675.355	7.92517
678.73	7.18536
682.105	12.0855
685.479	10.9226
688.854	12.772
692.229	7.79257
695.604	8.03995
698.979	8.08023
702.354	14.654
705.728	3.86813
709.103	10.2969
712.478	1.53085
715.853	4.392
719.227	2.00458
722.602	1.62274
725.977	3.15857
729.352	6.72754
732.727	1.05966
736.102	9.81821
739.476	7.29538
742.851	8.79547
746.226	8.6441
749.601	8.47498
752.976	5.1041
756.351	8.94028
759.725	13.0907
763.1	16.7015
766.475	17.5107
769.85	13.0834
773.225	12.9264
776.599	16.0494
779.974	18.7817
783.349	22.9748
786.724	21.9304
790.099	20.8265
793.473	15.9013
796.848	16.6096
800.223	16.8563
803.598	18.1436
806.973	14.8053
810.348	10.3947
813.722	9.22531
817.097	11.3751
820.472	2.31842
823.847	0.657928
827.222	1.71536
830.597	3.68097
833.971	0.311646
837.346	4.46951
840.721	4.04575
844.096	3.37909
847.471	2.8515
850.846	1.70575
854.22	3.86972
857.595	1.43362
860.97	2.92599
864.345	10.06
867.72	11.2355
871.094	25.1198
874.469	28.6063
877.844	43.7614
881.219	56.83
884.594	78.0432
887.968	112.615
891.343	134.321
894.718	176.485
898.093	241.893
901.468	315.553
904.842	423.081
908.217	573.612
911.592	760.595
914.967	973.687
918.342	1208.41
921.717	1381.18
925.091	1404.52
928.466	1263.02
931.841	1024.55
935.216	762.365
938.591	563.9
941.966	414.264
945.34	293.067
948.715	222.774
952.09	172.563
955.465	130.203
958.84	99.4428
962.214	77.3306
965.589	61.2889
968.964	51.2352
972.339	29.8776
975.714	22.7636
979.088	16.8929
982.463	27.0443
985.838	13.2129
989.213	17.2423
992.588	8.03626
995.963	8.67145
999.337	2.89179
1002.71	3.56445
1006.09	2.61047
1009.46	1.18539
1012.84	3.54367
1016.21	1.08462
1019.59	2.22555
1022.96	0.920776
1026.34	0.028107
1029.71	2.44971
1033.09	4.22897
1036.46	0.885162
1039.84	8.56686
1043.21	2.75519
1046.59	4.0043
1049.96	3.83649
1053.33	7.92892
1056.71	7.00903
1060.08	9.91782
1063.46	10.0733
1066.83	10.9565
1070.21	13.4222
1073.58	15.5929
1076.96	13.39
1080.33	16.402
1083.71	19.6873
1087.08	19.3973
1090.46	22.9024
1093.83	21.2158
1097.21	22.0888
1100.58	27.7156
1103.96	22.6384
1107.33	24.8408
1110.71	15.0341
1114.08	16.1594
1117.46	13.5731
1120.83	22.224
1124.21	16.0977
1127.58	15.6146
1130.95	6.39331
1134.33	10.7152
1137.7	7.72986
1141.08	4.70633
1144.45	0.378174
1147.83	5.28928
1151.2	0.349884
1154.58	0.110046
1157.95	3.27432
1161.33	7.47546
1164.7	5.80563
1168.08	1.95679
1171.45	7.35629
1174.83	5.60361
1178.2	8.35669
1181.58	0.570923
1184.95	2.56458
1188.33	6.03085
1191.7	6.51254
1195.08	7.26468
1198.45	6.97494
1201.83	6.55481
1205.2	5.88809
1208.58	0.793732
1211.95	10.5732
1215.33	7.96216
1218.7	2.31531
1222.08	8.0726
1225.45	6.30765
1228.83	5.84283
1232.2	1.69995
1235.58	8.25473
1238.95	7.69721
1242.32	8.26474
1245.7	3.1189
1249.07	8.34354
1252.45	6.47321
1255.82	6.11118
1259.2	4.76968
1262.57	4.48154
1265.95	7.16812
1269.32	3.39252
1272.7	5.0874
1276.07	7.62433
1279.45	6.65793
1282.82	5.85107
1286.2	1.02344
1289.57	0.995453
1292.95	0.091492
1296.32	0.768494
1299.7	0.844757
