Measurement: Raman, 780 nm, unoriented, Raman Data Processed
Mineral: Biphosphammite
Rruff sample: R180019
Ideal chemistry: H_2_(N^3-^H_4_)PO_4_
Locality: Ojuela mine, Mapimí, Municipio de Mapimí, Durango, Mexico
Source: Peter Megaw
Description: Colorless tetragonal prismatic crystals
Raman shift (cm-1)	intensity
94.8138	0
98.1886	20.9565
101.563	0.185791
104.938	22.4346
108.313	35.2904
111.688	41.7203
115.063	47.1196
118.438	82.1769
121.812	100.823
125.187	76.6773
128.562	64.9108
131.937	28.009
135.312	2.60315
138.686	1.49316
142.061	5.81274
145.436	1.79822
148.811	16.4054
152.186	44.0374
155.56	84.9817
158.935	125.999
162.31	158.296
165.685	190.418
169.06	206.139
172.435	225.112
175.809	224.917
179.184	223.589
182.559	185.467
185.934	159.242
189.309	119.307
192.684	89.3484
196.058	67.887
199.433	46.0701
202.808	30.115
206.183	12.5397
209.558	0.44043
212.932	6.85223
216.307	6.47846
219.682	0.521729
223.057	4.57843
226.432	0.282166
229.806	4.66894
233.181	8.26428
236.556	14.4945
239.931	11.8933
243.306	15.2608
246.681	14.9293
250.055	12.9798
253.43	13.2744
256.805	9.0979
260.18	17.4474
263.555	22.3001
266.93	13.8688
270.304	14.4525
273.679	9.12317
277.054	10.2545
280.429	4.96838
283.804	15.2656
287.178	16.7071
290.553	16.5598
293.928	17.483
297.303	24.124
300.678	18.9597
304.053	24.5461
307.427	28.186
310.802	41.1775
314.177	53.536
317.552	56.5405
320.927	56.6235
324.301	67.1644
327.676	76.487
331.051	84.7942
334.426	88.4947
337.801	94.0084
341.175	84.2126
344.55	76.0782
347.925	53.1176
351.3	36.4808
354.675	18.2016
358.05	0.515686
361.424	0.103149
364.799	6.45776
368.174	1.83441
371.549	3.4176
374.924	2.67004
378.298	12.7499
381.673	13.6206
385.048	26.4684
388.423	48.261
391.798	76.2539
395.173	91.4283
398.547	99.0483
401.922	77.9815
405.297	44.2452
408.672	30.5678
412.047	23.886
415.421	24.2575
418.796	30.7061
422.171	19.3899
425.546	27.4219
428.921	28.8572
432.296	20.37
435.67	30.7188
439.045	34.7552
442.42	38.2367
445.795	37.4464
449.17	46.0507
452.545	52.3354
455.919	54.0261
459.294	58.8068
462.669	60.4215
466.044	69.8185
469.419	78.6709
472.793	82.9294
476.168	76.2737
479.543	78.6644
482.918	62.7804
486.293	50.9163
489.668	38.6195
493.042	19.6393
496.417	8.2959
499.792	6.89642
503.167	1.18506
506.542	4.40625
509.916	1.82684
513.291	0.652954
516.666	4.32263
520.041	12.887
523.416	22.0563
526.79	27.2867
530.165	34.1878
533.54	55.856
536.915	52.3748
540.29	55.0965
543.665	59.5899
547.039	54.4083
550.414	53.816
553.789	42.7126
557.164	49.4232
560.539	41.408
563.913	40.0035
567.288	32.3768
570.663	28.0348
574.038	26.6735
577.413	19.3264
580.788	19.9642
584.162	14.0683
587.537	12.8681
590.912	7.05048
594.287	12.0623
597.662	9.45935
601.037	4.7655
604.411	0.909973
607.786	2.71631
611.161	2.72754
614.536	8.62836
617.911	2.54156
621.285	1.66614
624.66	0.636536
628.035	11.5016
631.41	1.93189
634.785	5.48846
638.159	1.25433
641.534	3.9212
644.909	4.232
648.284	3.82391
651.659	0.360901
655.034	9.29907
658.408	7.71344
661.783	9.84204
665.158	9.21191
668.533	3.1275
671.908	8.86749
675.283	8.05859
678.657	8.75824
682.032	8.43982
685.407	6.77734
688.782	8.58099
692.157	6.70325
695.531	9.63849
698.906	5.02234
702.281	1.2486
705.656	6.40027
709.031	1.55103
712.405	4.90247
715.78	0.778931
719.155	3.78851
722.53	2.50287
725.905	8.55542
729.279	5.71631
732.654	7.24298
736.029	9.30786
739.404	10.405
742.779	12.8651
746.154	3.20099
749.528	6.61572
752.903	4.9173
756.278	4.8089
759.653	5.95746
763.028	12.3727
766.403	13.3456
769.777	9.0354
773.152	3.31427
776.527	5.26953
779.902	6.13061
783.277	7.45489
786.652	10.0038
790.026	10.7697
793.401	9.14209
796.776	14.6045
800.151	7.28613
803.526	11.3165
806.9	8.93536
810.275	7.4375
813.65	6.08246
817.025	9.29919
820.4	9.01221
823.774	2.51367
827.149	2.87176
830.524	3.73859
833.899	3.49811
837.274	5.52728
840.649	6.73822
844.023	2.32776
847.398	2.51099
850.773	3.6109
854.148	2.78394
857.523	7.15454
860.898	8.86127
864.272	7.95526
867.647	4.38788
871.022	12.7404
874.397	16.7587
877.771	19.234
881.146	33.3612
884.521	35.8548
887.896	44.7571
891.271	63.1002
894.646	77.4774
898.02	100.032
901.395	132.715
904.77	181.155
908.145	240.196
911.52	308.562
914.894	419.51
918.269	509.74
921.644	565.222
925.019	557.232
928.394	477.038
931.769	372.323
935.143	275.596
938.518	201.571
941.893	151.877
945.268	104.354
948.643	81.462
952.018	63.6659
955.392	43.7146
958.767	35.8061
962.142	26.007
965.517	14.6346
968.892	11.9737
972.266	9.82507
975.641	0.538391
979.016	11.7382
982.391	13.1838
985.766	10.3887
989.141	9.40875
992.515	8.13385
995.89	3.86047
999.265	3.65051
1002.64	1.30951
1006.01	1.44269
1009.39	1.26239
1012.76	6.77496
1016.14	0.938538
1019.51	0.523621
1022.89	1.76764
1026.26	5.55035
1029.64	0.774963
1033.01	6.0376
1036.39	4.7135
1039.76	0.19519
1043.14	0.929077
1046.51	0.585388
1049.89	3.66327
1053.26	4.633
1056.64	5.01349
1060.01	4.60162
1063.39	10.0484
1066.76	12.0314
1070.14	10.0045
1073.51	18.0057
1076.89	12.222
1080.26	18.186
1083.63	19.3899
1087.01	18.7979
1090.38	14.9092
1093.76	20.1124
1097.13	16.5411
1100.51	20.0198
1103.88	20.6984
1107.26	20.1659
1110.63	17.3364
1114.01	17.6979
1117.38	9.38428
1120.76	11.6507
1124.13	4.37372
1127.51	4.11127
1130.88	1.1217
1134.26	4.41479
1137.63	7.46979
1141.01	5.32996
1144.38	2.00208
1147.76	3.61414
1151.13	0.208679
1154.51	0.879883
1157.88	3.84827
1161.26	6.79242
1164.63	6.44135
1168.01	4.07477
1171.38	5.32519
1174.76	0.868225
1178.13	0.521362
1181.51	6.09247
1184.88	11.5267
1188.26	7.19556
1191.63	8.06799
1195	11.4241
1198.38	9.25604
1201.75	10.6357
1205.13	8.77899
1208.5	6.2356
1211.88	9.92047
1215.25	8.46851
1218.63	16.7504
1222	18.864
1225.38	10.9606
1228.75	7.75348
1232.13	10.3514
1235.5	12.7078
1238.88	12.9558
1242.25	9.5788
1245.63	5.45422
1249	1.76074
1252.38	4.88019
1255.75	9.24744
1259.13	11.234
1262.5	12.6722
1265.88	13.8487
1269.25	0.097351
1272.62	6.39703
1276	0.309875
1279.38	2.19989
