Measurement: Raman, 532 nm, unoriented, Raman Data Processed
Mineral: Bobfergusonite
Rruff sample: R160069
Ideal chemistry: [box]Na_2_Mn^2+^_5_Fe^3+^Al(PO_4_)_6_
Locality: Nancy Pegmatite, Chacabuco Dept, San Luis, Argentina
Source: Thomas A. Loomis
Description: Dark brown massive, associated with dark green dicksonite (R160071)
Measured chemistry: (Na_1.64_Ca_0.16_)_Σ1.82_(Mn_3.27_Fe^2+^_1.03_Mg_0.69_)_Σ4.99_Fe^3+^_1.00_(Al_0.59_Fe^3+^_0.41_)_Σ1.00_(PO_4_)_6_  ; Grey phase. Lighter grey phase is dickinsonite (R160071).
Raman shift (cm-1)	intensity
146.386	0
149.278	1.95425
152.171	0.943604
155.064	7.96402
157.956	7.92343
160.849	7.36319
163.742	11.0057
166.635	8.95664
169.527	6.61072
172.42	8.03836
175.313	5.77454
178.205	3.79276
181.098	3.61365
183.991	2.50372
186.883	1.66916
189.776	1.73599
192.669	1.84842
195.561	1.85806
198.454	0.792603
201.347	1.21219
204.24	4.23291
207.132	6.6969
210.025	10.0333
212.918	13.2464
215.81	14.9772
218.703	16.498
221.596	19.0259
224.488	21.7249
227.381	26.9134
230.274	30.6208
233.167	35.1622
236.059	37.341
238.952	39.9574
241.845	39.8599
244.737	38.5095
247.63	32.9268
250.523	30.2733
253.416	22.7983
256.308	23.1247
259.201	23.7369
262.094	23.6561
264.986	25.5827
267.879	27.9368
270.772	30.6405
273.664	32.9447
276.557	38.2418
279.45	39.1987
282.342	39.014
285.235	39.9165
288.128	40.0997
291.021	41.0882
293.913	36.8334
296.806	32.7953
299.699	29.6843
302.591	24.4108
305.484	20.1291
308.377	19.144
311.269	14.0511
314.162	10.928
317.055	6.43793
319.948	3.50519
322.84	1.99982
325.733	0.156738
328.626	0.406311
331.518	2.61377
334.411	1.71829
337.304	0.625671
340.196	2.33893
343.089	2.69394
345.982	5.1199
348.875	8.45996
351.767	13.1248
354.66	17.3896
357.553	24.1587
360.445	29.8977
363.338	34.3904
366.231	37.737
369.123	39.9027
372.016	37.2227
374.909	36.1378
377.801	33.1309
380.694	29.0511
383.587	25.7693
386.48	19.604
389.372	15.0194
392.265	9.6449
395.158	5.8183
398.05	5.22855
400.943	6.57065
403.836	10.7537
406.728	11.1289
409.621	8.77872
412.514	8.82114
415.407	7.074
418.299	6.29922
421.192	8.05539
424.085	7.01187
426.977	5.66492
429.87	3.66281
432.763	3.79501
435.656	1.13852
438.548	1.09186
441.441	0.639709
444.334	1.2049
447.226	0.752716
450.119	3.64789
453.012	6.12985
455.904	8.75287
458.797	11.413
461.69	16.4321
464.583	19.4547
467.475	26.248
470.368	30.5241
473.261	34.5784
476.153	40.6982
479.046	42.9941
481.939	44.4171
484.832	43.5673
487.724	44.7557
490.617	44.0152
493.51	41.9908
496.402	38.1134
499.295	34.9021
502.188	32.9239
505.08	28.6348
507.973	25.3633
510.866	21.4282
513.759	18.0147
516.651	13.9778
519.544	8.85617
522.437	5.37024
525.329	3.96225
528.222	0.861481
531.115	1.99939
534.007	3.19546
536.9	2.82501
539.793	0.203888
542.686	6.10742
545.578	8.53299
548.471	14.3752
551.364	16.8092
554.256	20.9871
557.149	26.4616
560.042	31.6209
562.934	34.5005
565.827	33.5464
568.72	34.8484
571.612	39.6303
574.505	47.352
577.398	58.9923
580.291	76.3618
583.183	92.3091
586.076	113.38
588.969	134.696
591.861	153.512
594.754	169.348
597.647	180.262
600.539	176.102
603.432	166.319
606.325	156.12
609.217	150.447
612.11	149.557
615.003	153.25
617.896	150.732
620.788	144.184
623.681	129.261
626.574	111.77
629.466	91.8836
632.359	76.1962
635.252	61.0236
638.144	51.8101
641.037	41.5975
643.93	36.6168
646.823	31.3735
649.715	27.6809
652.608	24.31
655.501	17.1446
658.393	12.2506
661.286	8.83227
664.179	5.87357
667.072	3.95184
669.964	2.08395
672.857	1.52353
675.75	2.28513
678.642	0.813629
681.535	2.10855
684.428	1.46246
687.32	1.25186
690.213	1.00986
693.106	0.110413
695.999	0.506134
698.891	1.59003
701.784	0.98288
704.677	0.294647
707.569	0.642242
710.462	0.241699
713.355	2.37866
716.247	1.77884
719.14	0.633575
722.033	3.23666
724.926	2.28155
727.818	3.5174
730.711	5.97882
733.604	3.26639
736.496	5.62472
739.389	3.53622
742.282	4.05261
745.174	5.13562
748.067	5.67581
750.96	6.97809
753.852	5.98636
756.745	4.60068
759.638	3.83417
762.531	5.36673
765.423	3.17862
768.316	2.68277
771.209	3.60452
774.101	3.4036
776.994	4.38165
779.887	3.09631
782.779	5.26578
785.672	3.49347
788.565	3.74393
791.458	4.10562
794.35	4.19376
797.243	3.55237
800.136	3.8338
803.028	4.37753
805.921	4.82568
808.814	5.80453
811.707	6.69006
814.599	6.21814
817.492	6.41504
820.385	7.82693
823.277	8.34097
826.17	8.56155
829.063	7.52768
831.955	6.37311
834.848	9.22098
837.741	7.97144
840.634	10.4525
843.526	10.806
846.419	10.8283
849.312	9.54404
852.204	12.166
855.097	10.0575
857.99	12.4945
860.882	9.30969
863.775	9.58774
866.668	6.42197
869.561	5.26001
872.453	6.1655
875.346	4.05865
878.239	2.43414
881.131	1.04993
884.024	0.251709
886.917	0.934814
889.809	1.83566
892.702	0.459991
895.595	0.627686
898.487	2.00412
901.38	2.13263
904.273	1.59006
907.166	1.65677
910.058	0.993317
912.951	0.442139
915.844	1.08035
918.736	4.6496
921.629	7.52948
924.522	11.7725
927.415	16.2663
930.307	21.2237
933.2	27.6295
936.093	35.6016
938.985	42.3654
941.878	53.016
944.771	60.4921
947.663	69.8035
950.556	74.1231
953.449	80.0309
956.342	88.2317
959.234	94.9967
962.127	106.803
965.02	125.346
967.912	147.787
970.805	177.833
973.698	214.371
976.591	253.495
979.483	292.342
982.376	323.877
985.269	344.262
988.161	338.46
991.054	314.313
993.947	278.681
996.839	241.826
999.732	207.955
1002.62	180.157
1005.52	155.353
1008.41	135.215
1011.3	116.141
1014.2	103.04
1017.09	85.1715
1019.98	71.0476
1022.87	60.2089
1025.77	51.4577
1028.66	43.8207
1031.55	33.8997
1034.44	29.4664
1037.34	21.7997
1040.23	16.6059
1043.12	10.9103
1046.02	7.4238
1048.91	2.17114
1051.8	0.130249
1054.69	6.1752
1057.59	5.42685
1060.48	5.3122
1063.37	3.16373
1066.26	0.27298
1069.16	8.25842
1072.05	16.873
1074.94	32.5916
1077.84	50.1542
1080.73	72.6744
1083.62	97.8106
1086.51	124.867
1089.41	154.065
1092.3	181.648
1095.19	200.885
1098.08	214.901
1100.98	219.395
1103.87	218.319
1106.76	212.167
1109.65	198.074
1112.55	187.441
1115.44	173.166
1118.33	158.371
1121.22	146.808
1124.12	135.579
1127.01	122.092
1129.9	109.316
1132.8	99.9297
1135.69	92.3469
1138.58	82.4444
1141.47	76.1231
1144.37	68.8324
1147.26	61.5707
1150.15	56.8278
1153.05	50.4558
1155.94	44.6437
1158.83	36.9599
1161.72	32.0989
1164.62	27.2909
1167.51	28.0154
1170.4	27.059
1173.29	25.6746
1176.19	25.2667
1179.08	22.9734
1181.97	19.3874
1184.87	17.8222
1187.76	15.1032
1190.65	9.51916
1193.54	8.25171
1196.44	3.49298
1199.33	0.366333
1202.22	2.03906
1205.11	1.91605
1208.01	2.68216
1210.9	3.01285
1213.79	3.05188
1216.68	0.30835
1219.58	0.544281
1222.47	1.55814
1225.36	2.13751
1228.26	2.45047
1231.15	2.97751
1234.04	4.72748
1236.93	6.20792
1239.83	7.17389
1242.72	6.72211
1245.61	9.10162
1248.5	10.9394
1251.4	13.5371
1254.29	11.5442
1257.18	10.3634
1260.08	8.82617
1262.97	6.49197
1265.86	5.93707
1268.75	6.91711
1271.65	4.04379
1274.54	4.35281
1277.43	3.453
1280.32	3.36673
1283.22	3.4631
1286.11	2.65601
1289	3.05273
1291.89	0.325714
1294.79	1.99069
1297.68	1.88287
1300.57	0.012878
