Measurement: Raman, 780 nm, unoriented, Raman Data Processed
Mineral: Bobfergusonite
Rruff sample: R160069
Ideal chemistry: [box]Na_2_Mn^2+^_5_Fe^3+^Al(PO_4_)_6_
Locality: Nancy Pegmatite, Chacabuco Dept, San Luis, Argentina
Source: Thomas A. Loomis
Description: Dark brown massive, associated with dark green dicksonite (R160071)
Measured chemistry: (Na_1.64_Ca_0.16_)_Σ1.82_(Mn_3.27_Fe^2+^_1.03_Mg_0.69_)_Σ4.99_Fe^3+^_1.00_(Al_0.59_Fe^3+^_0.41_)_Σ1.00_(PO_4_)_6_  ; Grey phase. Lighter grey phase is dickinsonite (R160071).
Raman shift (cm-1)	intensity
126.552	0
129.445	2.54425
132.338	0.113098
135.23	2.84552
138.123	8.7887
141.016	7.7904
143.908	5.94971
146.801	11.8981
149.694	12.2363
152.586	15.4224
155.479	21.047
158.372	22.4938
161.264	26.9289
164.157	27.0142
167.05	21.6736
169.943	20.8342
172.835	14.5915
175.728	11.6336
178.621	7.44635
181.513	2.88971
184.406	0.470032
187.299	1.67828
190.191	4.3714
193.084	1.2417
195.977	0.56366
198.87	6.02594
201.762	10.6005
204.655	15.0753
207.548	15.3687
210.44	19.7338
213.333	22.1323
216.226	26.5886
219.119	30.0895
222.011	32.6047
224.904	36.6557
227.797	40.8378
230.689	43.314
233.582	43.557
236.475	45.8226
239.367	46.9851
242.26	46.1171
245.153	40.5822
248.046	37.3937
250.938	30.2622
253.831	27.4602
256.724	23.5428
259.616	22.12
262.509	23.1356
265.402	19.6431
268.294	18.7926
271.187	17.3879
274.08	21.4957
276.973	24.0335
279.865	25.5896
282.758	23.6277
285.651	23.9158
288.543	24.6107
291.436	23.6957
294.329	20.5244
297.221	19.2661
300.114	18.4927
303.007	15.1354
305.899	13.6124
308.792	11.7932
311.685	8.82742
314.578	6.27716
317.47	3.68909
320.363	3.83618
323.256	3.6001
326.148	1.40131
329.041	0.907349
331.934	2.20673
334.827	0.492401
337.719	0.453888
340.612	2.91492
343.505	4.02914
346.397	7.07175
349.29	8.49271
352.183	12.4643
355.075	15.1603
357.968	19.5562
360.861	20.7782
363.753	22.3873
366.646	25.12
369.539	21.1129
372.432	20.9221
375.324	17.6634
378.217	18.7369
381.11	13.6882
384.002	9.59872
386.895	5.82461
389.788	4.01117
392.68	0.692169
395.573	0.059418
398.466	0.871796
401.359	1.48398
404.251	0.908203
407.144	2.19739
410.037	1.24823
412.929	0.815796
415.822	0.568146
418.715	2.13599
421.608	1.12073
424.5	0.782013
427.393	3.22138
430.286	3.12176
433.178	0.985962
436.071	1.42163
438.964	1.07571
441.856	3.09189
444.749	3.24445
447.642	4.68915
450.534	7.50534
453.427	11.473
456.32	12.8346
459.213	16.5488
462.105	22.4885
464.998	25.0871
467.891	31.6384
470.783	37.1091
473.676	37.0821
476.569	37.6506
479.462	37.6317
482.354	34.0258
485.247	32.6108
488.14	28.5515
491.032	28.7788
493.925	25.2744
496.818	22.0797
499.71	20.0146
502.603	18.4641
505.496	15.6207
508.389	14.6923
511.281	12.7465
514.174	8.97437
517.067	6.8515
519.959	5.60879
522.852	1.62067
525.745	0.845367
528.637	1.42416
531.53	3.21173
534.423	1.75073
537.316	0.582031
540.208	0.121368
543.101	4.21551
545.994	6.58112
548.886	8.68472
551.779	10.3216
554.672	12.8056
557.564	18.3292
560.457	20.1216
563.35	20.923
566.242	20.0951
569.135	20.6259
572.028	24.9464
574.921	29.5794
577.813	34.4347
580.706	39.6089
583.599	48.1497
586.491	54.2512
589.384	61.9037
592.277	69.1707
595.17	74.458
598.062	76.5464
600.955	75.755
603.848	72.2971
606.74	71.4266
609.633	71.3216
612.526	71.7552
615.418	68.9113
618.311	67.4893
621.204	62.4991
624.097	54.2646
626.989	47.1208
629.882	39.1582
632.775	32.7375
635.667	26.6171
638.56	23.5487
641.453	19.1915
644.346	15.8811
647.238	16.0367
650.131	12.3809
653.024	9.19774
655.916	6.47938
658.809	5.06441
661.702	5.28279
664.594	2.92499
667.487	1.26215
670.38	1.36595
673.273	0.341461
676.165	1.85873
679.058	0.914169
681.951	0.072479
684.843	0.071121
687.736	0.171799
690.629	0.061874
693.521	0.087173
696.414	0.988052
699.307	0.382584
702.199	0.876724
705.092	2.81363
707.985	0.545959
710.878	1.55122
713.77	2.77745
716.663	1.49689
719.556	1.16109
722.448	1.62061
725.341	0.114792
728.234	1.57875
731.126	2.20924
734.019	2.37825
736.912	2.61342
739.805	3.03558
742.697	2.33295
745.59	1.92972
748.483	3.37581
751.375	2.24518
754.268	2.61792
757.161	2.26157
760.053	0.740494
762.946	1.34518
765.839	2.0441
768.732	1.26685
771.624	0.571793
774.517	1.72907
777.41	2.0885
780.302	1.18793
783.195	1.42554
786.088	1.35269
788.981	2.4287
791.873	3.27353
794.766	1.57907
797.659	3.21263
800.551	2.01117
803.444	2.68481
806.337	2.18179
809.229	2.77112
812.122	0.765457
815.015	1.7083
817.908	2.60246
820.8	2.25954
823.693	3.65945
826.586	2.72784
829.478	4.2636
832.371	2.83484
835.264	3.45543
838.156	3.71365
841.049	4.90945
843.942	5.28693
846.835	4.06969
849.727	5.72955
852.62	6.1579
855.513	4.46657
858.405	3.2966
861.298	4.43452
864.191	3.67949
867.083	3.74774
869.976	3.5363
872.869	2.34647
875.761	1.57929
878.654	1.70137
881.547	0.464905
884.44	0.933701
887.332	2.8744
890.225	1.32388
893.118	0.193146
896.01	0.892288
898.903	0.702835
901.796	0.260696
904.688	1.44791
907.581	0.686722
910.474	0.914841
913.367	2.97084
916.259	3.28738
919.152	3.18797
922.045	3.17577
924.937	5.78342
927.83	7.11603
930.723	8.34866
933.615	10.8448
936.508	14.7302
939.401	17.6403
942.294	20.0924
945.186	23.6342
948.079	26.5643
950.972	30.3837
953.864	32.0784
956.757	36.3916
959.65	43.4747
962.543	49.3033
965.435	58.1887
968.328	72.3617
971.221	89.0795
974.113	104.166
977.006	121.031
979.899	138.19
982.791	145.667
985.684	145.407
988.577	137.845
991.47	124.246
994.362	109.792
997.255	94.5229
1000.15	79.2254
1003.04	69.5916
1005.93	59.9044
1008.83	50.9995
1011.72	42.5365
1014.61	36.1467
1017.5	31.634
1020.4	26.2104
1023.29	23.8655
1026.18	19.0439
1029.08	17.5853
1031.97	13.9266
1034.86	11.2899
1037.75	9.25304
1040.64	7.08771
1043.54	4.56166
1046.43	3.08652
1049.32	1.00673
1052.22	0.086868
1055.11	2.75041
1058	2.84872
1060.89	1.61899
1063.79	0.132767
1066.68	1.43887
1069.57	4.04335
1072.46	11.8411
1075.36	12.7197
1078.25	19.3942
1081.14	24.6325
1084.04	30.7612
1086.93	37.0485
1089.82	40.7576
1092.71	44.3959
1095.61	44.9474
1098.5	44.3215
1101.39	42.6729
1104.29	40.57
1107.18	40.322
1110.07	38.2905
1112.96	33.3299
1115.86	29.6331
1118.75	25.7309
1121.64	23.4805
1124.53	19.451
1127.43	17.5835
1130.32	14.6887
1133.21	13.1515
1136.1	10.3199
1139	9.92098
1141.89	6.25354
1144.78	6.60895
1147.67	4.15575
1150.57	3.89012
1153.46	2.85791
1156.35	2.28351
1159.25	3.03758
1162.14	2.23711
1165.03	2.97096
1167.92	4.71551
1170.82	3.58006
1173.71	3.78508
1176.6	5.1868
1179.49	5.0173
1182.39	3.64914
1185.28	6.60158
1188.17	3.1458
1191.07	3.25557
1193.96	3.94742
1196.85	1.78941
1199.74	0.937088
1202.64	0.385361
1205.53	0.7258
1208.42	0.850677
1211.32	0.06929
1214.21	1.23096
1217.1	0.490967
1219.99	1.722
1222.88	0.358307
1225.78	1.70226
1228.67	2.15739
1231.56	3.31741
1234.46	4.60043
1237.35	5.52954
1240.24	5.62799
1243.13	5.13917
1246.03	4.528
1248.92	3.71719
1251.81	2.92369
1254.7	3.64305
1257.6	2.14952
1260.49	3.229
1263.38	2.88936
1266.28	1.68216
1269.17	1.48785
1272.06	1.23161
1274.95	1.40111
1277.85	0.678207
1280.74	0.574448
