Measurement: Raman, 780 nm, unoriented, Raman Data Processed
Mineral: Bobjonesite
Rruff sample: R060530
Ideal chemistry: V^4+^OS^6+^O_4_3H_2_O
Locality: Petrified log in the North Mesa 5 mine, Temple Mountain, Emery County, Utah, USA
Source: Michael Scott
Description: Blue granular crystals
Raman shift (cm-1)	intensity
93.9705	0
97.3453	7.70843
100.72	2.97974
104.095	2.12701
107.47	1.88483
110.845	0.936768
114.219	3.95187
117.594	8.51892
120.969	6.26678
124.344	7.64838
127.719	2.20783
131.094	1.22382
134.468	1.1207
137.843	2.17197
141.218	2.33078
144.593	0.667664
147.968	1.04901
151.342	0.7789
154.717	0.11264
158.092	2.01956
161.467	0.750977
164.842	0.055725
168.216	2.37881
171.591	0.359924
174.966	1.77609
178.341	4.15939
181.716	3.46674
185.09	4.04874
188.465	5.75842
191.84	4.95084
195.215	6.79837
198.59	11.4626
201.965	12.1819
205.339	14.9835
208.714	12.781
212.089	12.5386
215.464	10.4796
218.839	7.22659
222.214	5.97314
225.588	4.12878
228.963	3.93167
232.338	2.77039
235.713	2.63547
239.088	2.94833
242.462	2.87271
245.837	1.95157
249.212	4.65097
252.587	4.73468
255.962	5.07776
259.336	5.03183
262.711	8.2868
266.086	12.679
269.461	16.8903
272.836	19.0389
276.211	18.705
279.585	12.3455
282.96	8.19192
286.335	7.06506
289.71	4.87457
293.085	3.94705
296.459	7.81323
299.834	7.86554
303.209	6.81036
306.584	10.5351
309.959	11.0948
313.334	13.6257
316.708	12.1786
320.083	9.67953
323.458	4.82999
326.833	2.11633
330.207	0.565765
333.582	0.019348
336.957	2.36481
340.332	1.82269
343.707	0.660095
347.082	0.328857
350.456	0.543732
353.831	0.998322
357.206	1.21991
360.581	1.17194
363.956	1.38907
367.33	0.630554
370.705	3.60111
374.08	1.44061
377.455	3.6828
380.83	1.89111
384.205	0.201996
387.579	1.20407
390.954	0.484222
394.329	0.534851
397.704	4.05084
401.079	2.8244
404.453	1.21921
407.828	0.985596
411.203	1.33328
414.578	1.75619
417.953	1.10171
421.327	1.59207
424.702	0.888489
428.077	2.04233
431.452	2.12128
434.827	3.48016
438.202	3.53265
441.576	3.55225
444.951	5.43439
448.326	8.17148
451.701	8.9122
455.076	11.8463
458.45	18.0504
461.825	17.8978
465.2	17.6277
468.575	15.4594
471.95	17.3922
475.325	12.8898
478.699	14.5558
482.074	9.83331
485.449	8.31946
488.824	9.50452
492.199	5.51758
495.573	4.22241
498.948	4.23871
502.323	4.12378
505.698	3.67963
509.073	7.48016
512.447	5.97058
515.822	4.33899
519.197	2.68005
522.572	0.703064
525.947	2.45721
529.322	2.27692
532.696	2.125
536.071	0.301697
539.446	1.06128
542.821	0.697937
546.196	2.39032
549.57	0.111084
552.945	1.51453
556.32	1.89056
559.695	0.231567
563.07	0.287048
566.444	0.842529
569.819	0.673584
573.194	0.483154
576.569	3.3963
579.944	2.32965
583.319	1.19397
586.693	1.73749
590.068	1.065
593.443	2.69592
596.818	4.53662
600.193	3.24786
603.567	2.98621
606.942	6.9314
610.317	3.51288
613.692	3.78357
617.067	4.82245
620.442	5.20728
623.816	4.01227
627.191	5.73956
630.566	3.0304
633.941	5.06482
637.316	4.2276
640.69	2.16913
644.065	2.26807
647.44	3.4303
650.815	2.87463
654.19	0.641846
657.564	2.60248
660.939	3.17542
664.314	2.7038
667.689	3.11987
671.064	2.78064
674.439	3.86957
677.813	1.75561
681.188	0.162109
684.563	2.69013
687.938	1.31213
691.313	3.47998
694.688	3.01587
698.062	0.915344
701.437	1.41846
704.812	0.649231
708.187	3.0202
711.562	2.66968
714.936	3.01068
718.311	4.56811
721.686	2.97131
725.061	3.38812
728.436	2.51636
731.81	2.66644
735.185	4.55096
738.56	4.60742
741.935	2.18487
745.31	1.37292
748.684	2.02612
752.059	2.04382
755.434	3.00983
758.809	2.26123
762.184	0.8078
765.559	0.249451
768.933	1.98651
772.308	4.14984
775.683	3.23059
779.058	0.129333
782.433	1.49731
785.808	0.259155
789.182	2.38428
792.557	2.22357
795.932	3.69946
799.307	1.67456
802.682	3.28522
806.056	5.23401
809.431	2.89087
812.806	3.18091
816.181	8.83447
819.556	5.59503
822.93	6.53564
826.305	4.63825
829.68	3.69672
833.055	5.61847
836.43	2.34106
839.804	3.01849
843.179	3.21704
846.554	8.10651
849.929	8.83276
853.304	6.83319
856.679	6.01556
860.053	5.57343
863.428	6.85089
866.803	3.64502
870.178	0.429626
873.553	0.772949
876.927	1.74774
880.302	2.09644
883.677	1.52515
887.052	4.3974
890.427	0.5177
893.802	2.30005
897.176	0.837891
900.551	0.283081
903.926	0.891785
907.301	3.427
910.676	4.98792
914.05	1.21857
917.425	7.66681
920.8	5.13409
924.175	1.9137
927.55	3.29211
930.924	0.680725
934.299	1.18713
937.674	2.61682
941.049	7.14166
944.424	0.036621
947.799	1.94421
951.173	1.09631
954.548	2.51099
957.923	2.50964
961.298	1.93897
964.673	3.32581
968.047	0.406982
971.422	3.64685
974.797	0.684204
978.172	0.312256
981.547	0.469238
984.922	3.15723
988.296	11.3084
991.671	17.6746
995.046	35.7963
998.421	65.0828
1001.8	89.0603
1005.17	38.2748
1008.54	23.7595
1011.92	23.5525
1015.29	20.8201
1018.67	28.8055
1022.04	50.682
1025.42	50.3658
1028.79	22.6775
1032.17	6.5907
1035.54	5.53833
1038.92	2.1853
1042.29	2.25256
1045.67	1.31824
1049.04	6.23083
1052.42	7.48352
1055.79	11.7869
1059.17	22.1245
1062.54	30.4814
1065.92	46.9155
1069.29	42.809
1072.67	24.4702
1076.04	13.2488
1079.42	7.30676
1082.79	5.26709
1086.17	8.33838
1089.54	5.5979
1092.92	3.55139
1096.29	0.894409
1099.66	0.132813
1103.04	0.971924
1106.41	2.61487
1109.79	1.33435
1113.16	0.731812
1116.54	0.441406
1119.91	0.089233
1123.29	0.817017
1126.66	3.12415
1130.04	0.513184
1133.41	9.34302
1136.79	4.3042
1140.16	13.787
1143.54	6.89319
1146.91	12.6902
1150.29	9.59888
1153.66	8.68957
1157.04	9.06323
1160.41	6.35095
1163.79	11.8613
1167.16	9.22632
1170.54	12.7496
1173.91	11.1959
1177.29	9.44849
1180.66	14.4594
1184.04	9.19739
1187.41	6.64648
1190.79	9.08227
1194.16	9.91516
1197.54	11.1916
1200.91	12.1953
1204.28	12.1416
1207.66	7.90027
1211.03	11.6097
1214.41	7.95776
1217.78	4.55505
1221.16	0.58374
1224.53	2.16846
1227.91	3.90283
1231.28	5.46704
1234.66	9.73999
1238.03	2.8064
1241.41	0.480835
1244.78	3.40637
1248.16	1.9751
1251.53	8.73498
1254.91	8.39319
1258.28	8.45081
1261.66	8.40051
1265.03	9.11316
1268.41	2.74731
1271.78	2.62708
1275.16	0.332397
1278.53	3.2124
1281.9	3.70935
