Measurement: Raman, 532 nm, unoriented, Raman Data Processed
Mineral: Bobjonesite
Rruff sample: R060530
Ideal chemistry: V^4+^OS^6+^O_4_3H_2_O
Locality: Petrified log in the North Mesa 5 mine, Temple Mountain, Emery County, Utah, USA
Source: Michael Scott
Description: Blue granular crystals
Raman shift (cm-1)	intensity
89.7832	0
93.158	748.828
96.5328	1904.49
99.9077	2026.7
103.282	516.553
106.657	11.0527
110.032	12.4565
113.407	85.8774
116.782	345.649
120.157	690.549
123.531	920.638
126.906	552.024
130.281	372.557
133.656	353.502
137.031	273.144
140.405	235.844
143.78	243.938
147.155	325.153
150.53	517.678
153.905	646.058
157.28	462.234
160.654	178.309
164.029	35.9878
167.404	45.4541
170.779	67.9419
174.154	46.4321
177.528	7.03955
180.903	78.5811
184.278	201.403
187.653	321.567
191.028	412.196
194.403	527.783
197.777	765.689
201.152	1114.3
204.527	1422.2
207.902	1413.06
211.277	1274.63
214.651	1105.57
218.026	703.754
221.401	387.188
224.776	289.534
228.151	302.519
231.525	282.092
234.9	202.971
238.275	193.438
241.65	255.048
245.025	273.299
248.4	168.54
251.774	102.003
255.149	182.112
258.524	352.293
261.899	545.118
265.274	840.067
268.649	1310.68
272.023	1932.59
275.398	2190.57
278.773	1575.69
282.148	910.114
285.523	552.754
288.897	401.593
292.272	391.611
295.647	498.276
299.022	694.111
302.397	940.362
305.772	1174.23
309.146	1394.58
312.521	1695.16
315.896	1970.58
319.271	1860.19
322.646	1271.88
326.02	705.75
329.395	363.257
332.77	166.857
336.145	79.6631
339.52	32.7183
342.894	6.26562
346.269	22.9014
349.644	25.7632
353.019	33.0723
356.394	30.0278
359.769	15.3359
363.143	1.02051
366.518	0.138184
369.893	5.8916
373.268	2.73291
376.643	15.585
380.017	23.8672
383.392	33.376
386.767	34.188
390.142	33.7124
393.517	25.2217
396.892	32.3555
400.266	48.5903
403.641	60.6875
407.016	57.5972
410.391	46.7852
413.766	62.5562
417.14	83.7109
420.515	112.671
423.89	128.972
427.265	118.423
430.64	105.32
434.014	128.373
437.389	170.957
440.764	252.634
444.139	361.462
447.514	490.978
450.889	638.567
454.263	828.262
457.638	1061.41
461.013	1286.04
464.388	1411.28
467.763	1326.92
471.137	1198.11
474.512	1152.33
477.887	1087.6
481.262	910.069
484.637	688.907
488.012	512.009
491.386	387.258
494.761	292.098
498.136	221.892
501.511	189.04
504.886	155.808
508.26	131.041
511.635	126.063
515.01	120.583
518.385	108.557
521.76	94.3301
525.135	83.8852
528.509	63.9434
531.884	43.3745
535.259	32.2563
538.634	20.4375
542.009	14.936
545.384	12.7944
548.758	24.6123
552.133	9.87695
555.508	16.1787
558.883	11.8398
562.258	2.35205
565.632	11.4678
569.007	12.481
572.382	15.1938
575.757	2.88428
579.132	0.183594
582.506	10.0903
585.881	36.1206
589.256	54.6152
592.631	68.4121
596.006	100.855
599.381	145.246
602.755	197.836
606.13	247.8
609.505	317.5
612.88	344.169
616.255	377.882
619.63	404.497
623.004	397.453
626.379	418.552
629.754	430.117
633.129	436.417
636.504	452.484
639.878	463.041
643.253	445.834
646.628	407.063
650.003	347.935
653.378	311.58
656.752	258.087
660.127	235.73
663.502	277.252
666.877	324.049
670.252	382.733
673.626	447.976
677.001	471.973
680.376	431.612
683.751	330.409
687.126	231.033
690.501	160.651
693.875	93.0059
697.25	55.1973
700.625	31.0122
704	14.3379
707.375	17.7544
710.75	2.97461
714.124	1.23535
717.499	4.56934
720.874	4.48291
724.249	5.67041
727.624	25.772
730.998	3.42432
734.373	2.43555
737.748	1.20166
741.123	5.13086
744.498	3.18359
747.872	28.5098
751.247	42.5547
754.622	18.5195
757.997	1.3999
761.372	0.26709
764.747	6.16846
768.121	4.80811
771.496	5.36231
774.871	3.43457
778.246	1.60205
781.621	0.165527
784.995	20.833
788.37	9.52979
791.745	6.05762
795.12	4.13623
798.495	14.9663
801.87	25.2573
805.244	47.605
808.619	75.7466
811.994	62.4116
815.369	84.1919
818.744	94.1856
822.119	123.395
825.493	127.522
828.868	146.42
832.243	196.963
835.618	231.692
838.993	290.854
842.367	354.834
845.742	404.681
849.117	407.718
852.492	399.024
855.867	358.933
859.241	321.468
862.616	267.925
865.991	198.713
869.366	152.377
872.741	137.619
876.115	109.346
879.49	95.4204
882.865	87.7236
886.24	67.7563
889.615	72.312
892.99	79.2778
896.364	69.0049
899.739	60.1977
903.114	51.3281
906.489	28.7686
909.864	37.9277
913.239	20.3628
916.613	16.2612
919.988	6.93799
923.363	14.7373
926.738	0.258789
930.113	7.55811
933.487	3.80713
936.862	26.8242
940.237	26.1982
943.612	6.21191
946.987	3.00879
950.361	0.289063
953.736	15.7529
957.111	20.5312
960.486	36.4355
963.861	69.6455
967.236	75.9072
970.61	77.7871
973.985	111.212
977.36	172.648
980.735	266.989
984.11	439.826
987.485	792.034
990.859	1775.85
994.234	3281.74
997.609	5576.35
1000.98	10245.3
1004.36	7728.16
1007.73	2024.41
1011.11	1475.75
1014.48	2308.4
1017.86	3624.83
1021.23	6457.13
1024.61	9355.23
1027.98	4541.3
1031.36	1442.68
1034.73	581.991
1038.11	265.969
1041.48	129.19
1044.86	59.3984
1048.23	55.5645
1051.61	121.159
1054.98	277.603
1058.36	612.134
1061.73	1210.62
1065.11	2053.67
1068.48	3410.04
1071.86	3754.58
1075.23	1728.13
1078.6	611.457
1081.98	220.277
1085.35	67.8311
1088.73	0.662109
1092.1	24.3428
1095.48	33.7803
1098.85	8.20801
1102.23	14.2422
1105.6	54.2344
1108.98	106.853
1112.35	139.106
1115.73	138.958
1119.1	133.721
1122.48	126.114
1125.85	76.0127
1129.23	52.8203
1132.6	51.3779
1135.98	89.3252
1139.35	147.695
1142.73	205.638
1146.1	245.777
1149.48	234.869
1152.85	213.925
1156.22	150.192
1159.6	87.5801
1162.97	48.0527
1166.35	22.0557
1169.72	1.17871
1173.1	1.94043
1176.47	7.69629
1179.85	7.46484
1183.22	12.9102
1186.6	14.6895
1189.97	10.2695
1193.35	31.0225
1196.72	28.1367
1200.1	18.3721
1203.47	4.24805
1206.85	21.8877
1210.22	8.65918
1213.6	3.51562
1216.97	11.2979
1220.35	27.584
1223.72	17.3076
1227.1	4.79492
1230.47	5.69336
1233.85	14.8945
1237.22	12.1104
1240.6	17.3154
1243.97	15.6016
1247.35	28.7617
1250.72	37.6025
1254.1	37.8389
1257.47	40.585
1260.85	21.3506
1264.22	6.54688
1267.59	7.6582
1270.97	4.12793
1274.34	20.8496
1277.72	18.5869
1281.09	8.32227
1284.47	20.8115
1287.84	10.0176
1291.22	18.0801
1294.59	24.8594
1297.97	7.7168
1301.34	1.41016
