Measurement: Raman, 532 nm, unoriented, Raman Data RAW
Mineral: Bonazziite
Rruff sample: R061028
Ideal chemistry: As_4_S_4_
Locality: Radvanice, Bohemia
Source: Michael Scott
Description: Red flattened prismatic crystals
Raman shift (cm-1)	intensity
143.7	5132.5
146.592	5311.97
149.485	5317.32
152.378	5328.15
155.27	5330.17
158.163	5434.22
161.056	5563.73
163.948	5663.52
166.841	5648.03
169.734	5619.66
172.626	5637.15
175.519	5683.63
178.412	5724.18
181.305	5751.26
184.197	5754.89
187.09	5681.65
189.983	5579.48
192.875	5506.56
195.768	5357.18
198.661	5255.29
201.554	5269.63
204.446	5276.43
207.339	5306.43
210.232	5409.91
213.124	5433.22
216.017	5497.46
218.91	5705.4
221.802	5863.39
224.695	5971.32
227.588	6016.22
230.481	6043.62
233.373	6032.94
236.266	5910.98
239.159	5783.23
242.051	5748.4
244.944	5654.02
247.837	5624.66
250.729	5600.32
253.622	5604.27
256.515	5521.12
259.407	5454.99
262.3	5447.93
265.193	5396.91
268.086	5375.1
270.978	5382
273.871	5578.92
276.764	5687.46
279.656	5956.55
282.549	6261.28
285.442	6659.9
288.334	7128.22
291.227	7675.81
294.12	8305.03
297.012	8823.52
299.905	9443.26
302.798	10023.4
305.691	10504.9
308.583	10856.8
311.476	11147.2
314.369	11459.6
317.261	11720.3
320.154	11943.4
323.047	12334.6
325.94	12665.2
328.832	12834.3
331.725	13066.4
334.618	13127.7
337.51	13011
340.403	12956.7
343.296	12763.3
346.188	12624.2
349.081	12686.1
351.974	12189
354.866	11938.8
357.759	11567.7
360.652	11312.2
363.545	10898.8
366.437	10623.7
369.33	10190.2
372.223	9931.02
375.115	9690.9
378.008	9314.61
380.901	8897.81
383.793	8483.53
386.686	8064.07
389.579	7640.11
392.472	7135.09
395.364	6670.13
398.257	6200.66
401.15	5698.8
404.042	5420.51
406.935	5112.76
409.828	4899.28
412.721	4792.17
415.613	4719.48
418.506	4673.09
421.399	4705.34
424.291	4605.23
427.184	4515.61
430.077	4534.09
432.969	4562.14
435.862	4523.65
438.755	4428.82
441.647	4490.74
444.54	4489.26
447.433	4492.17
450.326	4494.93
453.218	4474.28
456.111	4485.41
459.004	4497.14
461.896	4531.24
464.789	4508.93
467.682	4553.88
470.575	4563.43
473.467	4561.99
476.36	4584.48
479.253	4561.92
482.145	4627.6
485.038	4681.92
487.931	4631.31
490.823	4540.81
493.716	4572.09
496.609	4451.45
499.501	4419.04
502.394	4385.41
505.287	4377.67
508.18	4367.81
511.072	4328.25
513.965	4330.46
516.858	4307.98
519.75	4336.72
522.643	4343.6
525.536	4352.09
528.428	4341.09
531.321	4329.67
534.214	4339.69
537.106	4328.31
539.999	4300.17
542.892	4356.73
545.785	4349.95
548.677	4359.93
551.57	4354.25
554.463	4370.67
557.355	4344.51
560.248	4358.06
563.141	4419.25
566.034	4373.54
568.926	4417.91
571.819	4408.53
574.712	4501.95
577.604	4467.35
580.497	4500.4
583.39	4561.6
586.282	4600.11
589.175	4641.53
592.068	4564.98
594.961	4659.79
597.853	4694.07
600.746	4755.46
603.639	4811.26
606.531	4768.54
609.424	4863.93
612.317	4866.77
615.209	4915.55
618.102	4927.02
620.995	4934.87
623.888	4983.06
626.78	5000.56
629.673	4992.73
632.566	4971.41
635.458	5003.3
638.351	4946.07
641.244	4976.3
644.136	4951.98
647.029	4950
649.922	4985.41
652.814	4919.38
655.707	4948.5
658.6	4893.76
661.493	4901.55
664.385	4828.23
667.278	4835.65
670.171	4848.77
673.063	4774.65
675.956	4794.05
678.849	4745.63
681.741	4743.18
684.634	4748.36
687.527	4744.04
690.42	4764.43
693.312	4703.32
696.205	4669.72
699.098	4624.95
701.99	4623.26
704.883	4632.56
707.776	4541.89
710.668	4520.61
713.561	4547.67
716.454	4567.17
719.347	4521.54
722.239	4517.31
725.132	4479.48
728.025	4496.95
730.917	4397.42
733.81	4440.02
736.703	4435.14
739.596	4333.34
742.488	4389.14
745.381	4392.23
748.274	4379.88
751.166	4310.79
754.059	4279.15
756.952	4327.08
759.844	4288.28
762.737	4295.09
765.63	4272.37
768.522	4324.44
771.415	4332.89
774.308	4276.93
777.201	4257.3
780.093	4313.43
782.986	4335.51
785.879	4328.48
788.771	4387.25
791.664	4406.98
794.557	4393.97
797.449	4413.27
800.342	4407.89
803.235	4432.65
806.128	4380.46
809.02	4436.54
811.913	4448.02
814.806	4449.77
817.698	4479.14
820.591	4524.92
823.484	4510.4
826.376	4525.34
829.269	4526.94
832.162	4485.56
835.054	4475.68
837.947	4464.83
840.84	4510.81
843.733	4434.56
846.625	4418.69
849.518	4477.87
852.411	4391.68
855.303	4364.89
858.196	4436.08
861.089	4373.19
863.981	4346.18
866.874	4370.97
869.767	4360.75
872.66	4388.08
875.552	4406.95
878.445	4476.32
881.338	4416.31
884.23	4396.34
887.123	4436.64
890.016	4497.73
892.908	4432.13
895.801	4426.69
898.694	4415.18
901.587	4402.52
904.479	4406.66
907.372	4396.81
910.265	4415.43
913.157	4398.45
916.05	4439.2
918.943	4408.68
921.835	4436.96
924.728	4493.86
927.621	4491.38
930.514	4505.66
933.406	4476.29
936.299	4482.58
939.192	4459.19
942.084	4447.1
944.977	4453.36
947.87	4485.89
950.763	4468.19
953.655	4505.61
956.548	4497.23
959.441	4531.93
962.333	4500.85
965.226	4545.61
968.119	4479.47
971.011	4491.75
973.904	4511.22
976.797	4532.13
979.689	4550.97
982.582	4567.72
985.475	4575.6
988.368	4537.25
991.26	4512.41
994.153	4589.42
997.046	4540.22
999.938	4610.46
1002.83	4586.29
1005.72	4533.24
1008.62	4532.34
1011.51	4559.42
1014.4	4562.91
1017.29	4522.88
1020.19	4572.18
1023.08	4617.64
1025.97	4576.83
1028.87	4569.17
1031.76	4589.62
1034.65	4548.86
1037.54	4638.83
1040.44	4576.32
1043.33	4612.52
1046.22	4611.87
1049.11	4570.43
1052.01	4649.78
1054.9	4659.68
1057.79	4596.98
1060.68	4672.42
1063.58	4624.56
1066.47	4635.18
1069.36	4629.57
1072.26	4617.2
1075.15	4752.59
1078.04	4620.09
1080.93	4667.94
1083.83	4656.59
1086.72	4605.12
1089.61	4621.9
1092.51	4698.21
1095.4	4662.91
1098.29	4723.55
1101.18	4646.79
1104.08	4664.53
1106.97	4734.39
1109.86	4695.99
1112.75	4662.55
1115.65	4713.62
1118.54	4715.81
1121.43	4681.13
1124.32	4725.26
1127.22	4736.15
1130.11	4790.43
1133	4719.76
1135.89	4742.37
1138.79	4722.01
1141.68	4759.14
1144.57	4750.99
1147.47	4708.85
1150.36	4700.41
1153.25	4819.13
1156.14	4726.56
1159.04	4785.79
1161.93	4728.15
1164.82	4747.5
1167.71	4749.3
1170.61	4807.05
1173.5	4796.03
1176.39	4855.45
1179.29	4849.52
1182.18	4862.84
1185.07	4817.35
1187.96	4860.72
1190.86	4856.15
1193.75	4787.46
1196.64	4897.15
1199.54	4829.74
1202.43	4843.62
1205.32	4905.48
1208.21	4875.04
1211.11	4922.45
1214	4914.35
1216.89	4922.27
1219.78	4904.6
1222.68	4920.2
1225.57	4907.93
1228.46	4929.73
1231.35	4901.14
1234.25	4965.03
1237.14	5017.02
1240.03	4995.07
1242.92	4975.17
1245.82	4996.08
1248.71	5057.55
1251.6	5025.47
1254.5	4985.48
1257.39	5001.2
1260.28	5004.39
1263.17	5001.51
1266.07	5023.4
1268.96	5098.31
1271.85	5044.58
1274.74	5080.71
1277.64	5033.8
1280.53	5093.78
1283.42	5099.91
1286.32	5078.03
1289.21	5107.7
1292.1	5107.24
