Measurement: Raman, 780 nm, unoriented, Raman Data RAW
Mineral: Braitschite-(Ce)
Rruff sample: R060008
Ideal chemistry: Ca_6.15_Na_0.85_Ce_2_[B_6_O_7_(OH)_3_(O,OH)_3_]_4_H_2_O
Locality: Texas Gulf Sulfur Potash mine, Cisco, Utah, USA
Source: University of Arizona Mineral Museum
Description: Pink blebs embedded in anhydrite
Raman shift (cm-1)	intensity
89.1501	13636
92.5249	15843.3
95.8997	16429.1
99.2745	15865.9
102.649	15578.8
106.024	15580
109.399	15690.4
112.774	15858.7
116.149	16119.8
119.523	16110.7
122.898	16205.6
126.273	16306.9
129.648	16580.3
133.023	16483.7
136.398	16474.2
139.772	16520.5
143.147	16511.9
146.522	16582.1
149.897	16637.5
153.272	16863.2
156.646	16841.5
160.021	16619.3
163.396	16485.5
166.771	16391.7
170.146	16247.2
173.52	16030
176.895	15958.6
180.27	15826.3
183.645	15613.4
187.02	15567.3
190.395	15569.9
193.769	15535.2
197.144	15688.6
200.519	15615.1
203.894	15665.1
207.269	15625.5
210.643	15761.1
214.018	15892.9
217.393	16105.4
220.768	16201.5
224.143	16554.7
227.518	16661.2
230.892	16611.5
234.267	16586.6
237.642	16648.3
241.017	16581.3
244.392	16692.7
247.767	16674.4
251.141	16628.4
254.516	16738.2
257.891	16750.7
261.266	16863.9
264.64	16930.4
268.015	16776.3
271.39	16775.2
274.765	16616.5
278.14	16523.2
281.515	16620.3
284.889	16535
288.264	16575.2
291.639	16683.1
295.014	16541.6
298.389	16362.3
301.764	16222.3
305.138	16216
308.513	16175.4
311.888	16118
315.263	16209.9
318.638	16236.6
322.012	16395.2
325.387	16351.1
328.762	16433.2
332.137	16413.5
335.512	16531.7
338.887	16460.8
342.261	16449.3
345.636	16499.9
349.011	16667.6
352.386	16613
355.761	16653.2
359.135	16589.7
362.51	16518.7
365.885	16363.1
369.26	16092.4
372.635	15841.5
376.01	15619
379.384	15425.3
382.759	15151.1
386.134	14973.9
389.509	14739.5
392.884	14663.4
396.258	14765.7
399.633	14610.2
403.008	14605.2
406.383	14563.7
409.758	14436.6
413.132	14293.2
416.507	13923.1
419.882	13831.6
423.257	13728.1
426.632	13665.2
430.007	13620.4
433.381	13624
436.756	13628.1
440.131	13477.4
443.506	13480.5
446.881	13423.1
450.255	13216.8
453.63	13192.8
457.005	13010.1
460.38	12916.4
463.755	12840.5
467.13	12792.6
470.504	12739.7
473.879	12569.5
477.254	12458.6
480.629	12392.1
484.004	12251.7
487.378	12112.6
490.753	12069.3
494.128	11889.6
497.503	11882.8
500.878	11879.6
504.252	11845
507.627	11610.1
511.002	11622.4
514.377	11578.8
517.752	11523.9
521.127	11355.2
524.501	11365.8
527.876	11241.6
531.251	11191.4
534.626	11132.1
538.001	11106.1
541.375	11008.3
544.75	11031.8
548.125	10960.8
551.5	11082.6
554.875	11041.7
558.25	11045.3
561.624	11088.1
564.999	11015.5
568.374	11083.8
571.749	11176.2
575.124	11123.6
578.499	11136.6
581.873	11064.6
585.248	10936.9
588.623	10912.1
591.998	10864.2
595.373	10882.2
598.747	10829.8
602.122	10895
605.497	10865.6
608.872	10719.2
612.247	10654.8
615.621	10561.3
618.996	10549.2
622.371	10453
625.746	10323.3
629.121	10367.8
632.495	10156
635.87	10049.2
639.245	9994.93
642.62	9936.71
645.995	9888.76
649.37	9776.17
652.744	9712.7
656.119	9632.58
659.494	9575.55
662.869	9497.58
666.244	9561.2
669.619	9500.09
672.993	9416.02
676.368	9455.87
679.743	9444.06
683.118	9399.55
686.493	9445.8
689.867	9378.01
693.242	9427.95
696.617	9431.81
699.992	9348.68
703.367	9422.68
706.741	9424.08
710.116	9426.68
713.491	9440.68
716.866	9411.72
720.241	9351.9
723.616	9359.8
726.99	9361.45
730.365	9385.75
733.74	9415.79
737.115	9321.41
740.49	9224.76
743.865	9240.64
747.239	9145.69
750.614	9126.81
753.989	9073.77
757.364	9055.57
760.739	9073.01
764.113	9061.03
767.488	9065.23
770.863	9018.22
774.238	9014.32
777.613	9119.05
780.987	9140.43
784.362	9114.14
787.737	9137.61
791.112	9101.51
794.487	9173.64
797.862	9176.14
801.236	9252.75
804.611	9225.8
807.986	9307.8
811.361	9320.3
814.736	9279.22
818.111	9358.07
821.485	9399.14
824.86	9352.2
828.235	9458.23
831.61	9416.35
834.985	9454.04
838.359	9485.77
841.734	9479.02
845.109	9515.56
848.484	9546.89
851.859	9542.7
855.233	9455.73
858.608	9466.86
861.983	9376.48
865.358	9363.15
868.733	9449.69
872.107	9437.97
875.482	9478.58
878.857	9445.43
882.232	9446.2
885.607	9542.48
888.982	9540.6
892.356	9592.52
895.731	9666.48
899.106	9832.49
902.481	9900.26
905.856	9981.24
909.231	10073.1
912.605	10264.4
915.98	10438.1
919.355	10544
922.73	10684.5
926.105	10858.7
929.479	11060.8
932.854	11232.1
936.229	11446
939.604	11699.9
942.979	11826
946.354	12060.5
949.728	12413.4
953.103	12550
956.478	12858.7
959.853	13126.6
963.227	13436.7
966.602	13644.3
969.977	13965.4
973.352	14296.1
976.727	14574
980.102	14848.8
983.476	15188.8
986.851	15433.1
990.226	15657.2
993.601	15909.2
996.976	16099.4
1000.35	16361.5
1003.73	16517.4
1007.1	16788
1010.48	16997.6
1013.85	17202.9
1017.23	17471.7
1020.6	17843.4
1023.97	18189
1027.35	18501.5
1030.72	18887.2
1034.1	19112.8
1037.47	19648.2
1040.85	20040.4
1044.22	20345.3
1047.6	20784.1
1050.97	21028.8
1054.35	21313
1057.72	21544.5
1061.1	21759.3
1064.47	22132.6
1067.85	22271.2
1071.22	22509.8
1074.6	22706.1
1077.97	22889.5
1081.35	22994
1084.72	23140.4
1088.1	23173.9
1091.47	23295.1
1094.85	23368.2
1098.22	23561.4
1101.6	23528.6
1104.97	23758.5
1108.35	23848.6
1111.72	23974.4
1115.09	24182.7
1118.47	24358.4
1121.84	24859.7
1125.22	25476.9
1128.59	26216.5
1131.97	27149.8
1135.34	28258.5
1138.72	29426.1
1142.09	30868.9
1145.47	32137.7
1148.84	33487.5
1152.22	34730.2
1155.59	35869.9
1158.97	36862
1162.34	37519.5
1165.72	38136.9
1169.09	38346.4
1172.47	38536.6
1175.84	38673.9
1179.22	38377.8
1182.59	38133
1185.96	37919.9
1189.34	37690.6
1192.71	37345.3
1196.09	37104
1199.46	36785.1
1202.84	36368.8
1206.21	36110.7
1209.59	35784.1
1212.96	35242.5
1216.34	35180.7
1219.71	34959.6
1223.09	34707
1226.46	35057
1229.84	35268.4
1233.21	35941.5
1236.59	36800
1239.96	37800.4
1243.34	38808.8
1246.71	39606.2
1250.09	40282.1
1253.46	40587.8
1256.84	40674.2
1260.21	40592
1263.59	40377.7
1266.96	40237.3
1270.34	40469.3
1273.71	41137.4
1277.09	42396.2
1280.46	43967.2
1283.84	45682.5
1287.21	47040.4
