Measurement: Raman, 780 nm, unoriented, Raman Data RAW
Mineral: Brassite
Rruff sample: R060042
Ideal chemistry: Mg(As^5+^O_3_OH)4H_2_O
Locality: Bohemia Region, Svornost mine, Jachymov, Czech Republic
Source: University of Arizona Mineral Museum
Description: White powder associated with pharmacolite, R050537
Measured chemistry: Mg_1.00_(As_1.00_O_3_OH)Â·4H_2_O
Raman shift (cm-1)	intensity
168.216	317.233
171.109	315.872
174.001	318.426
176.894	323.155
179.787	328.622
182.679	328.944
185.572	322.952
188.465	319.553
191.358	320.243
194.25	321.441
197.143	325.209
200.036	325.326
202.928	324.12
205.821	318.502
208.714	316.302
211.607	314.554
214.499	315
217.392	315.523
220.285	315.868
223.177	317.963
226.07	320.905
228.963	322.231
231.855	325.907
234.748	328.614
237.641	332.467
240.533	337.258
243.426	339.639
246.319	339.601
249.212	338.777
252.104	338.736
254.997	336.333
257.89	341.252
260.782	344.617
263.675	350.235
266.568	353.531
269.46	359.538
272.353	366.423
275.246	368.465
278.139	372.053
281.031	375.326
283.924	381.741
286.817	385.971
289.709	392.704
292.602	399.14
295.495	401.873
298.387	397.478
301.28	393.435
304.173	384.293
307.065	374.841
309.958	366
312.851	359.925
315.744	353.904
318.636	355.393
321.529	353.219
324.422	353.206
327.314	353.622
330.207	355.017
333.1	354.334
335.993	350.445
338.885	348.908
341.778	349.781
344.671	346.82
347.563	347.119
350.456	348.427
353.349	350.039
356.241	350.105
359.134	350.649
362.027	352.122
364.92	353.821
367.812	357.872
370.705	364.339
373.598	371.734
376.49	380.412
379.383	386.365
382.276	393.583
385.168	399.62
388.061	403.572
390.954	404.764
393.846	399.112
396.739	395.765
399.632	391.797
402.525	385.702
405.417	379.516
408.31	373.438
411.203	365.7
414.095	355.744
416.988	347.34
419.881	338.991
422.774	330.679
425.666	324.499
428.559	317.037
431.452	310.683
434.344	305.685
437.237	300.923
440.13	294.985
443.022	288.697
445.915	287.738
448.808	282.465
451.7	279.885
454.593	275.559
457.486	271.517
460.379	265.793
463.271	260.31
466.164	254.62
469.057	251.445
471.949	246.844
474.842	241.99
477.735	240.284
480.627	237.639
483.52	233.675
486.413	234.39
489.305	231.671
492.198	231.639
495.091	229.967
497.984	227.889
500.876	226.648
503.769	225.378
506.662	225.152
509.554	224.584
512.447	225.561
515.34	222.859
518.232	222.84
521.125	221.528
524.018	221.81
526.911	221.918
529.803	220.367
532.696	221.509
535.589	220.672
538.481	220.624
541.374	220.014
544.267	220.919
547.159	220.649
550.052	220.886
552.945	220.557
555.838	221.733
558.73	221.256
561.623	221.128
564.516	222.919
567.408	222.561
570.301	223.679
573.194	225.425
576.087	226.184
578.979	225.988
581.872	225.301
584.765	226.197
587.657	225.43
590.55	224.943
593.443	224.41
596.335	223.707
599.228	221.862
602.121	220.537
605.014	221.241
607.906	220.702
610.799	218.556
613.692	217.954
616.584	215.53
619.477	217.135
622.37	215.564
625.262	214.206
628.155	215.655
631.048	213.179
633.941	213.513
636.833	213.943
639.726	214.007
642.619	212.939
645.511	212.927
648.404	213.137
651.297	212.454
654.189	212.668
657.082	213.476
659.975	213.805
662.867	213.801
665.76	216.257
668.653	217.82
671.546	220.888
674.438	223.291
677.331	227.04
680.224	231.212
683.116	235.952
686.009	241.612
688.902	245.374
691.794	249.099
694.687	252.589
697.58	253.175
700.473	252.583
703.365	251.056
706.258	248.049
709.151	244.797
712.043	242.883
714.936	239.398
717.829	237.146
720.721	234.129
723.614	231.836
726.507	230.201
729.399	227.387
732.292	225.121
735.185	224.149
738.078	222.322
740.97	221.465
743.863	220.459
746.756	220.959
749.648	220.809
752.541	220.871
755.434	219.676
758.327	220.098
761.219	222.589
764.112	223.946
767.005	227.69
769.897	231.766
772.79	238.671
775.683	247.169
778.575	257.933
781.468	273.103
784.361	292.461
787.254	315.791
790.146	348.166
793.039	387.368
795.932	431.14
798.824	475.098
801.717	519.124
804.61	553.874
807.502	566.558
810.395	554.722
813.288	517.904
816.181	464.79
819.073	413.285
821.966	369.912
824.859	337.769
827.751	311.715
830.644	299.207
833.537	282.234
836.429	274.531
839.322	272.796
842.215	271.803
845.107	279.535
848	287.164
850.893	297.484
853.786	314.092
856.678	332.88
859.571	350.268
862.464	358.359
865.356	350.463
868.249	333.303
871.142	312.853
874.034	296.756
876.927	282.887
879.82	270.637
882.713	259.086
885.605	245.025
888.498	234.042
891.391	221.44
894.283	212.605
897.176	204.617
900.069	199.552
902.962	194.305
905.854	189.126
908.747	185.388
911.64	182.6
914.532	179.517
917.425	174.526
920.318	173.919
923.21	172.208
926.103	168.08
928.996	166.646
931.889	165.32
934.781	162.682
937.674	162.124
940.567	160.158
943.459	160.65
946.352	158.447
949.245	156.969
952.137	155.369
955.03	156.266
957.923	153.991
960.816	154.361
963.708	153.004
966.601	151.9
969.494	151.412
972.386	150.162
975.279	149.987
978.172	148.733
981.064	146.877
983.957	147.411
986.85	147.676
989.742	145.982
992.635	145.306
995.528	145.658
998.421	144.947
1001.31	143.759
1004.21	142.465
1007.1	142.982
1009.99	142.195
1012.88	141.556
1015.78	141.901
1018.67	142.217
1021.56	141.536
1024.45	141.775
1027.35	141.593
1030.24	141.401
1033.13	140.109
1036.03	140.41
1038.92	139.41
1041.81	139.654
1044.7	139.43
1047.6	139.083
1050.49	138.649
1053.38	140.307
1056.28	137.922
1059.17	137.875
1062.06	138.151
1064.95	136.445
1067.85	136.098
1070.74	135.444
1073.63	135.857
1076.52	135.272
1079.42	135.178
1082.31	134.482
1085.2	133.678
1088.09	134.218
1090.99	133.147
1093.88	133.339
1096.77	134.362
1099.66	134.069
1102.56	133.368
1105.45	133.366
1108.34	131.344
1111.24	132.712
1114.13	131.3
1117.02	132.016
1119.91	131.082
1122.81	130.36
1125.7	130.955
1128.59	132.072
1131.48	129.952
1134.38	131.666
1137.27	130.73
1140.16	130.671
1143.06	130.88
1145.95	131.251
1148.84	130.411
1151.73	130.021
1154.63	130.305
1157.52	130.06
1160.41	129.973
1163.3	130.106
1166.2	128.351
1169.09	128.805
1171.98	130.043
1174.88	128.733
1177.77	129.057
1180.66	128.603
1183.55	127.759
1186.45	128.531
1189.34	128.978
1192.23	127.211
1195.12	127.391
1198.02	127.475
1200.91	128.062
1203.8	128.231
1206.69	127.812
1209.59	127.721
1212.48	127.508
1215.37	127.355
1218.27	128.117
1221.16	127.564
1224.05	126.891
1226.94	126.815
1229.84	129.187
1232.73	128.108
1235.62	128.013
1238.52	128.3
1241.41	127.287
1244.3	128.055
1247.19	127.401
1250.09	125.976
1252.98	126.321
1255.87	123.95
1258.76	126.194
1261.66	125.33
1264.55	124.696
1267.44	125.288
1270.33	125.767
1273.23	124.967
1276.12	124.947
