Measurement: Raman, 532 nm, unoriented, Raman Data Processed
Mineral: Britholite-(Ce)
Rruff sample: R130281
Ideal chemistry: (Ce,Ca)_5_(SiO_4_)_3_OH
Locality: Oka complex, Oka, Deux-Montagnes RCM, Laurentides, Qu√©bec, Canada
Source: Rock Currier
Description: Adamantine yellow-brown massive crystals, associated with phlogopite
Raman shift (cm-1)	intensity
143.098	0
146.473	4.27258
149.848	1.92493
153.222	9.57117
156.597	11.1288
159.972	6.92871
163.347	5.92444
166.722	8.07654
170.097	13.9143
173.471	8.47229
176.846	10.3785
180.221	6.74329
183.596	3.07519
186.971	1.74182
190.345	0.421387
193.72	1.86182
197.095	0.21521
200.47	2.26807
203.845	7.10608
207.22	7.10779
210.594	8.0022
213.969	5.43811
217.344	11.0509
220.719	11.1171
224.094	17.531
227.469	20.1797
230.843	23.6467
234.218	26.7447
237.593	24.6631
240.968	21.5594
244.343	15.221
247.717	16.928
251.092	18.3407
254.467	27.9509
257.842	35.5002
261.217	41.6661
264.591	42.8235
267.966	35.1482
271.341	31.2571
274.716	26.2284
278.091	24.1968
281.466	23.3092
284.84	23.5894
288.215	32.833
291.59	24.9835
294.965	22.6522
298.34	19.1824
301.714	23.8189
305.089	26.769
308.464	20.3733
311.839	15.8103
315.214	13.8133
318.589	9.21411
321.963	10.4315
325.338	3.41833
328.713	5.90173
332.088	8.48865
335.463	6.92603
338.837	7.46423
342.212	4.81934
345.587	2.73621
348.962	2.91089
352.337	0.619751
355.712	1.69531
359.086	2.35644
362.461	0.76709
365.836	2.1438
369.211	2.18042
372.586	2.67004
375.96	0.208984
379.335	2.56641
382.71	0.650024
386.085	2.78662
389.46	3.11157
392.834	4.93311
396.209	8.21631
399.584	7.77295
402.959	12.746
406.334	11.2855
409.709	22.73
413.083	35.6182
416.458	43.1964
419.833	62.8673
423.208	83.8717
426.583	106.826
429.957	119.492
433.332	111.325
436.707	104.808
440.082	105.601
443.457	110.954
446.832	105.658
450.206	81.5367
453.581	58.7531
456.956	42.7975
460.331	29.5273
463.706	17.2225
467.08	12.0153
470.455	10.0166
473.83	11.1092
477.205	11.5835
480.58	6.23389
483.955	1.20007
487.329	3.08826
490.704	1.59717
494.079	1.76111
497.454	1.07812
500.829	1.09924
504.204	2.41614
507.578	0.542236
510.953	2.08313
514.328	3.03687
517.703	2.50977
521.078	0.180176
524.452	3.01611
527.827	2.15698
531.202	1.76562
534.577	2.67993
537.952	3.35034
541.327	0.346191
544.701	7.6416
548.076	5.31909
551.451	8.84351
554.826	11.0596
558.201	12.2338
561.575	17.9582
564.95	28.1125
568.325	46.6794
571.7	70.7393
575.075	104.281
578.449	152.641
581.824	131.448
585.199	94.9167
588.574	93.7925
591.949	79.8024
595.323	60.4556
598.698	67.4017
602.073	86.8522
605.448	107.481
608.823	73.0668
612.198	50.2019
615.572	44.4598
618.947	21.9367
622.322	14.8525
625.697	12.9254
629.072	13.5973
632.447	21.724
635.821	23.3475
639.196	20.7096
642.571	23.6351
645.946	22.7847
649.321	26.0546
652.695	27.3221
656.07	22.1257
659.445	12.7577
662.82	5.96045
666.195	2.8269
669.569	1.76111
672.944	0.801758
676.319	2.35388
679.694	1.78552
683.069	1.2323
686.444	1.16687
689.818	0.868774
693.193	0.168335
696.568	3.32214
699.943	3.8324
703.318	4.70679
706.692	2.93518
710.067	1.69934
713.442	5.62598
716.817	4.6936
720.192	1.81189
723.567	3.86536
726.941	3.42835
730.316	3.4812
733.691	5.3772
737.066	6.73901
740.441	7.69836
743.816	4.69739
747.19	4.2948
750.565	6.52991
753.94	0.583862
757.315	0.261963
760.69	1.29248
764.064	0.54248
767.439	0.560059
770.814	4.172
774.189	3.13452
777.564	2.85608
780.938	6.53101
784.313	5.00818
787.688	4.51465
791.063	1.54089
794.438	1.01379
797.813	0.349731
801.187	2.7063
804.562	1.02759
807.937	1.36304
811.312	0.299561
814.687	4.58215
818.062	8.70593
821.436	12.2345
824.811	10.6412
828.186	13.7116
831.561	12.738
834.936	14.7954
838.31	21.1134
841.685	28.1488
845.06	24.1534
848.435	29.9367
851.81	32.3585
855.184	31.8049
858.559	35.9755
861.934	29.8519
865.309	30.8817
868.684	29.6318
872.059	27.4557
875.433	17.773
878.808	18.3446
882.183	22.9564
885.558	19.0719
888.933	16.0062
892.308	15.4116
895.682	18.1797
899.057	18.3031
902.432	9.88525
905.807	6.93665
909.182	4.25806
912.556	3.328
915.931	1.34522
919.306	1.39807
922.681	4.06421
926.056	10.1938
929.431	17.7103
932.805	25.5204
936.18	38.2576
939.555	60.6755
942.93	98.3452
946.305	170.504
949.679	327.443
953.054	620.34
956.429	1007.06
959.804	1634.08
963.179	1909.04
966.553	970.006
969.928	395.139
973.303	162.34
976.678	58.5996
980.053	10.6338
983.428	3.49463
986.802	6.39002
990.177	2.79065
993.552	0.310059
996.927	8.30115
1000.3	18.1294
1003.68	36.2377
1007.05	49.443
1010.43	69.0625
1013.8	87.6311
1017.18	106.036
1020.55	133.835
1023.92	161.507
1027.3	194.475
1030.67	219.057
1034.05	231.763
1037.42	234.811
1040.8	236.864
1044.17	246.364
1047.55	244.077
1050.92	242.994
1054.3	236.63
1057.67	222.344
1061.05	197.063
1064.42	162.36
1067.8	147.416
1071.17	126.29
1074.55	115.335
1077.92	97.1699
1081.3	69.9363
1084.67	46.6335
1088.05	34.6851
1091.42	19.9351
1094.8	5.67432
1098.17	1.06811
1101.55	6.58838
1104.92	5.58521
1108.3	1.20215
1111.67	4.13647
1115.05	15.4863
1118.42	25.0752
1121.8	32.7639
1125.17	51.4458
1128.55	63.0488
1131.92	68.9363
1135.29	78.2927
1138.67	88.6992
1142.04	97.907
1145.42	93.4839
1148.79	94.3807
1152.17	93.1526
1155.54	90.9534
1158.92	83.1475
1162.29	76.1038
1165.67	71.8093
1169.04	62.2225
1172.42	54.434
1175.79	44.7739
1179.17	40.97
1182.54	44.2668
1185.92	47.0374
1189.29	45.348
1192.67	43.491
1196.04	45.6158
1199.42	37.7743
1202.79	34.8638
1206.17	31.3025
1209.54	31.7711
1212.91	27.1378
1216.29	20.4789
1219.66	17.1375
1223.04	11.9869
1226.41	6.54102
1229.79	3.29907
1233.16	1.53259
1236.54	3.19849
1239.91	3.33533
1243.29	5.08325
1246.66	5.07752
1250.04	13.7948
1253.41	19.0248
1256.79	32.6698
1260.16	39.5288
1263.54	41.3876
1266.91	54.5377
1270.29	42.2666
1273.66	26.223
1277.04	18.8242
1280.41	18.2115
1283.79	13.1448
1287.16	13.5653
1290.54	7.76502
1293.91	7.91846
1297.29	2.4032
1300.66	0
