Measurement: Raman, 780 nm, unoriented, Raman Data RAW
Mineral: Britholite-(Ce)
Rruff sample: R130281
Ideal chemistry: (Ce,Ca)_5_(SiO_4_)_3_OH
Locality: Oka complex, Oka, Deux-Montagnes RCM, Laurentides, Qu√©bec, Canada
Source: Rock Currier
Description: Adamantine yellow-brown massive crystals, associated with phlogopite
Raman shift (cm-1)	intensity
88.0644	36.4676
91.4393	38.9055
94.8141	44.2993
98.1889	41.7028
101.564	36.3891
104.939	38.131
108.313	38.8562
111.688	39.3237
115.063	42.0312
118.438	39.6491
121.813	43.3452
125.187	43.0401
128.562	43.6936
131.937	44.333
135.312	46.4193
138.687	48.8147
142.061	44.8167
145.436	48.6476
148.811	51.3177
152.186	52.8504
155.561	53.4526
158.936	54.4756
162.31	55.8859
165.685	57.4114
169.06	58.7829
172.435	61.9536
175.81	64.2139
179.185	65.5768
182.559	68.2159
185.934	72.408
189.309	76.3401
192.684	77.9785
196.059	80.7663
199.433	84.0746
202.808	87.6991
206.183	90.7539
209.558	93.9207
212.933	95.0365
216.308	100.692
219.682	101.862
223.057	108.982
226.432	112.864
229.807	120.533
233.182	127.276
236.556	128.401
239.931	136.225
243.306	144.093
246.681	148.568
250.056	152.137
253.43	153.529
256.805	158.431
260.18	156.883
263.555	166.019
266.93	175.232
270.305	178.917
273.679	182.755
277.054	192.224
280.429	203.872
283.804	215.449
287.179	224.702
290.553	244.599
293.928	260.005
297.303	280.401
300.678	293.609
304.053	318.148
307.428	330.69
310.802	357.885
314.177	385.343
317.552	412.102
320.927	441.274
324.302	462.163
327.676	476.219
331.051	492.131
334.426	492.97
337.801	502.81
341.176	509.5
344.551	512.152
347.925	507.493
351.3	500.401
354.675	491.906
358.05	480.44
361.425	469.926
364.8	458.776
368.174	450.208
371.549	443.194
374.924	438.306
378.299	435.931
381.674	433.064
385.048	441.381
388.423	437.708
391.798	445.927
395.173	458.682
398.548	468.136
401.923	472.633
405.297	483.082
408.672	502.128
412.047	511.173
415.422	526.721
418.796	532.999
422.171	550.294
425.546	549.01
428.921	538.212
432.296	520.149
435.671	497.506
439.045	484.474
442.42	466.775
445.795	454.368
449.17	442.568
452.545	440.63
455.92	436.744
459.294	426.388
462.669	424.678
466.044	413.374
469.419	409.127
472.794	399.918
476.168	390.944
479.543	384.755
482.918	382.097
486.293	372.181
489.668	371.911
493.043	358.372
496.417	349.113
499.792	336.73
503.167	338.585
506.542	325.985
509.917	319.671
513.291	318.551
516.666	309.888
520.041	305.382
523.416	307.603
526.791	300.993
530.165	302.782
533.54	301.517
536.915	291.892
540.29	289.633
543.665	277.498
547.04	284.129
550.414	279.537
553.789	272.678
557.164	273.279
560.539	268.559
563.914	262.688
567.288	265.045
570.663	265.025
574.038	265.733
577.413	263.906
580.788	260.748
584.163	259.983
587.537	258.046
590.912	258.529
594.287	254.737
597.662	248.819
601.037	248.139
604.412	246.39
607.786	249.201
611.161	248.371
614.536	249.804
617.911	247.134
621.286	242.519
624.66	239.461
628.035	241.503
631.41	241.136
634.785	236.988
638.16	233.749
641.534	231.949
644.909	232.746
648.284	231.55
651.659	228.623
655.034	229.787
658.409	225.114
661.783	227.782
665.158	227.06
668.533	222.238
671.908	228.554
675.283	217.699
678.658	217.841
682.032	212.076
685.407	212.323
688.782	207.955
692.157	202.028
695.532	205.136
698.906	205.092
702.281	196.327
705.656	196.313
709.031	194.005
712.406	194.551
715.78	191.29
719.155	191.889
722.53	191.564
725.905	190.066
729.28	183.838
732.654	190.447
736.029	184.456
739.404	183.118
742.779	182.086
746.154	183.146
749.529	183.054
752.903	184.63
756.278	183.587
759.653	186.07
763.028	185.902
766.403	180.239
769.778	182.723
773.152	180.821
776.527	182.83
779.902	181.545
783.277	178.509
786.652	175.727
790.026	174.891
793.401	172.383
796.776	172.821
800.151	168.853
803.526	167.192
806.9	164.95
810.275	163.142
813.65	164.57
817.025	160.943
820.4	152.734
823.775	160.112
827.149	152.72
830.524	150.215
833.899	144.31
837.274	144.513
840.649	138.875
844.024	140.821
847.398	134.916
850.773	131.944
854.148	127.564
857.523	123.467
860.898	119.818
864.272	116.357
867.647	113.886
871.022	111.263
874.397	109.457
877.772	107.318
881.146	103.544
884.521	100.555
887.896	99.7637
891.271	94.8681
894.646	95.7727
898.021	91.2257
901.395	92.7643
904.77	92.6516
908.145	90.8977
911.52	87.3904
914.895	88.6235
918.269	89.0191
921.644	88.8431
925.019	93.606
928.394	89.2371
931.769	89.6723
935.144	90.4283
938.518	91.7225
941.893	88.1298
945.268	90.9142
948.643	91.0799
952.018	89.2597
955.393	93.491
958.767	89.7172
962.142	94.4677
965.517	94.1261
968.892	89.8551
972.266	88.6764
975.641	88.6402
979.016	89.9302
982.391	90.2588
985.766	89.2708
989.141	91.8023
992.515	93.1077
995.89	96.4192
999.265	97.2438
1002.64	98.3252
1006.01	103.761
1009.39	100.42
1012.76	101.276
1016.14	101.624
1019.51	107.918
1022.89	109.42
1026.26	113.37
1029.64	115.222
1033.01	118.261
1036.39	121.112
1039.76	124.597
1043.14	127.608
1046.51	135.293
1049.89	134.247
1053.26	141.458
1056.64	146.366
1060.01	149.304
1063.39	154.864
1066.76	166.128
1070.14	167.31
1073.51	181.948
1076.89	190.4
1080.26	202.177
1083.63	214.34
1087.01	229.042
1090.38	247.145
1093.76	265.774
1097.13	284.465
1100.51	298.996
1103.88	318.768
1107.26	336.061
1110.63	351.624
1114.01	377.532
1117.38	402.573
1120.76	446.877
1124.13	502.065
1127.51	578.354
1130.88	672.794
1134.26	759.613
1137.63	833.815
1141.01	839.701
1144.38	800.593
1147.76	774.903
1151.13	756.63
1154.51	748.726
1157.88	755.609
1161.26	784.268
1164.63	788.442
1168.01	823.644
1171.38	849.782
1174.76	878.492
1178.13	913.069
1181.51	929.093
1184.88	962.919
1188.26	1009.3
1191.63	1061.15
1195.01	1117.68
1198.38	1186.25
1201.75	1249
1205.13	1314.22
1208.5	1399.44
1211.88	1488.94
1215.25	1566.95
1218.63	1680.74
1222	1770.21
1225.38	1882.82
1228.75	2004.94
1232.13	2142.88
1235.5	2286.86
1238.88	2443.08
1242.25	2647.82
1245.63	2875.11
1249	3091.91
1252.38	3366.35
1255.75	3630.14
1259.13	3901.27
1262.5	4125.08
1265.88	4356.66
1269.25	4520.6
1272.62	4620.06
1276	4698.95
1279.38	4737.4
