Measurement: Raman, 532 nm, unoriented, Raman Data RAW
Mineral: Bromargyrite
Rruff sample: R070338
Ideal chemistry: AgBr
Locality: Broken Hill Mine, Broken Hill, New South Wales, Australia
Source: James Shigley
Description: Green colloidal looking aggregate of octahedra
Raman shift (cm-1)	intensity
127.967	1889.33
131.341	2643.72
134.716	3364.24
138.091	4136.37
141.466	4632.06
144.841	4857.7
148.215	4974.54
151.59	5203.75
154.965	5461.02
158.34	5520.67
161.715	5451.79
165.09	5293.16
168.464	5301.67
171.839	5262.25
175.214	5343.07
178.589	5291.9
181.964	5174.06
185.339	5176.43
188.713	5079.33
192.088	4996.24
195.463	4985.35
198.838	4962.61
202.213	4928.38
205.587	4923.43
208.962	4941.23
212.337	4910.25
215.712	4859.72
219.087	4817.69
222.462	4660.37
225.836	4451.55
229.211	4292.53
232.586	4062.62
235.961	3869.75
239.336	3648.01
242.71	3448.78
246.085	3325.96
249.46	3181.88
252.835	3052.06
256.21	2981.91
259.584	2884.01
262.959	2798.16
266.334	2753.77
269.709	2720.78
273.084	2644.45
276.459	2608.27
279.833	2591.33
283.208	2581.56
286.583	2526.99
289.958	2506.84
293.333	2487.33
296.707	2483.81
300.082	2441.16
303.457	2428.86
306.832	2464.41
310.207	2419.83
313.582	2400.34
316.956	2375.39
320.331	2392.82
323.706	2335.24
327.081	2348.25
330.456	2348.97
333.83	2346.03
337.205	2357.46
340.58	2347
343.955	2328.18
347.33	2332.02
350.705	2363.89
354.079	2335.11
357.454	2331.92
360.829	2335.55
364.204	2336.65
367.579	2291.14
370.954	2290.14
374.328	2329.01
377.703	2277.72
381.078	2287.56
384.453	2255.26
387.828	2252.87
391.202	2282.4
394.577	2246.39
397.952	2233.59
401.327	2215.67
404.702	2218.16
408.077	2207.41
411.451	2206.26
414.826	2184.77
418.201	2199.01
421.576	2179.58
424.951	2233.86
428.325	2182.93
431.7	2195.71
435.075	2185.59
438.45	2192.71
441.825	2177.65
445.2	2202.76
448.574	2176.71
451.949	2196.99
455.324	2169.08
458.699	2200.53
462.074	2191.29
465.448	2205.31
468.823	2214.77
472.198	2202.3
475.573	2193.1
478.948	2226.89
482.322	2206.85
485.697	2234.02
489.072	2237.21
492.447	2240.89
495.822	2239.33
499.197	2222.61
502.571	2235.24
505.946	2252.25
509.321	2226.09
512.696	2287
516.071	2264.82
519.446	2278.54
522.82	2272.71
526.195	2288.64
529.57	2290.19
532.945	2307.45
536.32	2295.53
539.694	2292.91
543.069	2295.14
546.444	2311.53
549.819	2326.79
553.194	2320.6
556.568	2346
559.943	2338.11
563.318	2337.99
566.693	2384.01
570.068	2399.18
573.443	2395.73
576.817	2387.66
580.192	2404.16
583.567	2415.27
586.942	2380.1
590.317	2393.09
593.692	2423.37
597.066	2420.13
600.441	2455.98
603.816	2423.74
607.191	2428.24
610.566	2441.85
613.94	2447.76
617.315	2441.42
620.69	2447.7
624.065	2428.39
627.44	2489.82
630.814	2488.2
634.189	2500.41
637.564	2486.51
640.939	2509.3
644.314	2485.05
647.689	2497.74
651.063	2511.43
654.438	2475.24
657.813	2530.35
661.188	2529.85
664.563	2504.7
667.938	2558.84
671.312	2506.54
674.687	2540.68
678.062	2503.95
681.437	2564.48
684.812	2577.55
688.186	2533.78
691.561	2565.26
694.936	2576.05
698.311	2551.83
701.686	2563.19
705.061	2565.86
708.435	2558.32
711.81	2544.84
715.185	2562.97
718.56	2595.87
721.935	2570.19
725.309	2577.3
728.684	2589.98
732.059	2583.38
735.434	2593.34
738.809	2603.71
742.183	2610.24
745.558	2621.68
748.933	2626.99
752.308	2592.45
755.683	2650.54
759.058	2645.1
762.432	2621.24
765.807	2665.62
769.182	2641.92
772.557	2649.51
775.932	2631.9
779.307	2680.46
782.681	2644.5
786.056	2642.69
789.431	2669.78
792.806	2696.74
796.181	2639.55
799.555	2640.68
802.93	2646.77
806.305	2673.32
809.68	2669.69
813.055	2622.5
816.429	2653.86
819.804	2675.56
823.179	2693.72
826.554	2664.95
829.929	2681.83
833.304	2692.76
836.678	2698.39
840.053	2709.1
843.428	2674.5
846.803	2721.51
850.178	2715.68
853.553	2726.33
856.927	2706.3
860.302	2715.39
863.677	2696.72
867.052	2760.79
870.427	2718.04
873.801	2709.68
877.176	2721.39
880.551	2751.62
883.926	2736.53
887.301	2764.65
890.676	2733.88
894.05	2775.19
897.425	2774.33
900.8	2756.87
904.175	2782.37
907.55	2763.67
910.924	2755.68
914.299	2770.54
917.674	2777.68
921.049	2776.78
924.424	2753.11
927.798	2791.24
931.173	2773.2
934.548	2780.72
937.923	2774.42
941.298	2788.12
944.673	2790.77
948.047	2844.77
951.422	2851.47
954.797	2807.01
958.172	2826.22
961.547	2815.41
964.922	2817.56
968.296	2840.26
971.671	2810.54
975.046	2837.11
978.421	2846.94
981.796	2883.09
985.17	2823.25
988.545	2855.18
991.92	2878.76
995.295	2850.11
998.67	2852.81
1002.04	2857.37
1005.42	2851.01
1008.79	2873.36
1012.17	2905.86
1015.54	2897.97
1018.92	2870.55
1022.29	2888.68
1025.67	2900.91
1029.04	2875.22
1032.42	2902.24
1035.79	2901.64
1039.17	2915
1042.54	2921.86
1045.92	2894.41
1049.29	2884
1052.67	2881.24
1056.04	2923.21
1059.42	2884.06
1062.79	2907.07
1066.17	2929.74
1069.54	2924.11
1072.92	2966.38
1076.29	2933.63
1079.66	2908.12
1083.04	2940.38
1086.41	2936.73
1089.79	2906.36
1093.16	2932.86
1096.54	2947.56
1099.91	2960.42
1103.29	2939.15
1106.66	2961.82
1110.04	2996.25
1113.41	2997.5
1116.79	2964.49
1120.16	2992.72
1123.54	2975.23
1126.91	3003.53
1130.29	2971.39
1133.66	2978.64
1137.04	2994.61
1140.41	2975.88
1143.79	3015.87
1147.16	2993.43
1150.54	3012.7
1153.91	2987.73
1157.29	3013.02
1160.66	3041.06
1164.04	2959.11
1167.41	2983.76
1170.79	2998.61
1174.16	2998.47
1177.54	3046.75
1180.91	3074.28
1184.29	3080.37
1187.66	3060.98
1191.03	3051.07
1194.41	3054.62
1197.78	3017.41
1201.16	3051.83
1204.53	3081.91
1207.91	3065.25
1211.28	3068.1
1214.66	3060.38
1218.03	3060.24
1221.41	3091.77
1224.78	3080.56
1228.16	3046.12
1231.53	3110.84
1234.91	3119.29
1238.28	3113.17
1241.66	3101.24
1245.03	3157.85
1248.41	3124.56
1251.78	3126.68
1255.16	3126.87
1258.53	3114.69
1261.91	3093.26
1265.28	3141.74
1268.65	3145.41
1272.03	3128.1
1275.4	3143.81
1278.78	3180.9
1282.15	3143.67
1285.53	3166.36
1288.9	3221.83
1292.28	3157.79
1295.65	3188.71
1299.03	3156.72
1302.4	3166.86
