Measurement: Raman, 532 nm, unoriented, Raman Data RAW
Mineral: Bromargyrite
Rruff sample: R060661
Ideal chemistry: AgBr
Locality: Schone Aussicht, near Dernbach, Nassau, Germany
Source: Michael Scott
Description: Grayish green cubo-octahedron
Raman shift (cm-1)	intensity
128.352	1738.03
131.727	1728.65
135.102	1719.2
138.477	1727.13
141.852	1710.45
145.227	1711.56
148.601	1699.32
151.976	1696.47
155.351	1689.24
158.726	1691.89
162.101	1680.69
165.476	1680.55
168.85	1682.67
172.225	1671.56
175.6	1661.81
178.975	1659.18
182.35	1665.9
185.724	1661.24
189.099	1672.44
192.474	1658.17
195.849	1665.59
199.224	1663.37
202.599	1671.91
205.973	1660.49
209.348	1664.59
212.723	1666.63
216.098	1670.55
219.473	1673.89
222.847	1677.43
226.222	1670.84
229.597	1674.74
232.972	1677.17
236.347	1680.91
239.721	1688.67
243.096	1691.26
246.471	1694.79
249.846	1694.75
253.221	1699.01
256.596	1704.5
259.97	1719.95
263.345	1710.78
266.72	1719.84
270.095	1734.95
273.47	1740.98
276.844	1745.77
280.219	1746.95
283.594	1754.08
286.969	1753.76
290.344	1763.68
293.719	1766.84
297.093	1763.68
300.468	1779.75
303.843	1774.79
307.218	1785.43
310.593	1800.74
313.967	1800.64
317.342	1804.04
320.717	1805.42
324.092	1814.25
327.467	1824.05
330.842	1817.77
334.216	1826.27
337.591	1839.87
340.966	1844.27
344.341	1855.18
347.716	1863.09
351.091	1866.84
354.465	1861.26
357.84	1870.47
361.215	1879.4
364.59	1890.64
367.964	1909.1
371.339	1903.5
374.714	1900.6
378.089	1916.82
381.464	1908.19
384.839	1927.17
388.213	1932.58
391.588	1931.87
394.963	1931.87
398.338	1962.5
401.713	1963.26
405.087	1967.18
408.462	1964.84
411.837	1975.21
415.212	1981.09
418.587	1998.6
421.962	2009.32
425.336	2001.77
428.711	2003.53
432.086	2010.45
435.461	2010.05
438.836	2021.29
442.211	2032.21
445.585	2024.13
448.96	2032.19
452.335	2043.09
455.71	2051.68
459.085	2058.58
462.459	2065.92
465.834	2080.08
469.209	2079.9
472.584	2083.67
475.959	2086.94
479.334	2087.64
482.708	2099.45
486.083	2106.66
489.458	2126.32
492.833	2119.43
496.208	2125.14
499.582	2128.38
502.957	2133.62
506.332	2144.98
509.707	2153.57
513.082	2148.96
516.457	2153.72
519.831	2161.57
523.206	2157.86
526.581	2180.22
529.956	2168.14
533.331	2182.95
536.705	2201.25
540.08	2197.26
543.455	2199.3
546.83	2216.83
550.205	2226.8
553.58	2231.21
556.954	2223.22
560.329	2230.73
563.704	2251.43
567.079	2246.31
570.454	2250.4
573.828	2265.31
577.203	2265.7
580.578	2267.06
583.953	2272.66
587.328	2296.96
590.702	2295.55
594.077	2300.46
597.452	2292.21
600.827	2304.26
604.202	2312.19
607.577	2326.32
610.951	2330.85
614.326	2333.42
617.701	2339.64
621.076	2353.05
624.451	2366.11
627.825	2374.68
631.2	2376.21
634.575	2376.65
637.95	2389.53
641.325	2391.8
644.699	2407.67
648.074	2415.27
651.449	2425.9
654.824	2426.97
658.199	2425.19
661.574	2431.01
664.948	2447.1
668.323	2444.68
671.698	2448.41
675.073	2461.33
678.448	2466.72
681.822	2477.14
685.197	2479.16
688.572	2470.91
691.947	2485.1
695.322	2494.39
698.697	2504.45
702.071	2519.02
705.446	2512.99
708.821	2524.87
712.196	2539.96
715.571	2549.57
718.946	2548.67
722.32	2550.27
725.695	2561.02
729.07	2568.76
732.445	2574.46
735.82	2573.83
739.194	2597.95
742.569	2596.39
745.944	2595.8
749.319	2602.78
752.694	2613.91
756.068	2609.13
759.443	2611.41
762.818	2617.47
766.193	2624.76
769.568	2619.05
772.943	2622.95
776.317	2621.87
779.692	2635.01
783.067	2633.6
786.442	2639.44
789.817	2642.34
793.192	2645.94
796.566	2645.96
799.941	2640.95
803.316	2655.52
806.691	2660.58
810.066	2671.48
813.44	2669.51
816.815	2675.5
820.19	2676.28
823.565	2670.15
826.94	2661.91
830.314	2674.36
833.689	2666.77
837.064	2666.01
840.439	2687.89
843.814	2678.4
847.188	2690.13
850.563	2689.14
853.938	2692.24
857.313	2693.53
860.688	2691.56
864.063	2697.66
867.437	2697.8
870.812	2711.51
874.187	2714.33
877.562	2713.7
880.937	2717.93
884.312	2728.64
887.686	2719.86
891.061	2741.28
894.436	2750.28
897.811	2727.51
901.186	2741.12
904.56	2735.61
907.935	2745.85
911.31	2745.7
914.685	2745.27
918.06	2746.98
921.434	2741.14
924.809	2753.3
928.184	2763.65
931.559	2763.87
934.934	2763.75
938.309	2756.45
941.683	2767.08
945.058	2780.57
948.433	2777.51
951.808	2783.15
955.183	2787.57
958.558	2781.7
961.932	2791.02
965.307	2805.71
968.682	2812.61
972.057	2812.56
975.432	2811.87
978.806	2816.4
982.181	2823.43
985.556	2818.9
988.931	2836.04
992.306	2826.3
995.681	2835.03
999.055	2838.81
1002.43	2849.43
1005.8	2852.67
1009.18	2855.01
1012.55	2857.74
1015.93	2869.08
1019.3	2861.03
1022.68	2872.14
1026.05	2885.26
1029.43	2874.72
1032.8	2880.41
1036.18	2896.7
1039.55	2901.62
1042.93	2904.67
1046.3	2884.07
1049.68	2910.83
1053.05	2915
1056.43	2915.4
1059.8	2901.68
1063.18	2911.38
1066.55	2927.09
1069.93	2945.5
1073.3	2932.3
1076.68	2943.98
1080.05	2937.57
1083.43	2950.34
1086.8	2958.01
1090.17	2949.39
1093.55	2963.57
1096.92	2962.71
1100.3	2986.09
1103.67	2981.56
1107.05	2986.39
1110.42	2988.57
1113.8	2999.27
1117.17	3005.46
1120.55	3023.27
1123.92	3019.83
1127.3	3024.15
1130.67	3023.76
1134.05	3030.98
1137.42	3048.92
1140.8	3065.86
1144.17	3069.88
1147.55	3075.91
1150.92	3068.47
1154.3	3102.36
1157.67	3112.1
1161.05	3110.46
1164.42	3113.26
1167.8	3132.18
1171.17	3127.93
1174.55	3141.22
1177.92	3161.64
1181.3	3167.57
1184.67	3176.6
1188.05	3174.38
1191.42	3188.4
1194.8	3198.2
1198.17	3193.47
1201.54	3194.9
1204.92	3209.39
1208.29	3227.93
1211.67	3221.12
1215.04	3232.03
1218.42	3256.07
1221.79	3253.01
1225.17	3264.48
1228.54	3265.6
1231.92	3273.86
1235.29	3280.3
1238.67	3295.09
1242.04	3307.42
1245.42	3303.27
1248.79	3330.34
1252.17	3345.55
1255.54	3348
1258.92	3360.47
1262.29	3372.22
1265.67	3361.74
1269.04	3375.87
1272.42	3398.42
1275.79	3391.78
1279.16	3415.48
1282.54	3418.86
1285.91	3410.19
1289.29	3449.78
1292.66	3450.89
1296.04	3442.33
1299.41	3461.26
