Measurement: Raman, 785 nm, unoriented, Raman Data RAW
Mineral: Bromargyrite
Rruff sample: R070338
Ideal chemistry: AgBr
Locality: Broken Hill Mine, Broken Hill, New South Wales, Australia
Source: James Shigley
Description: Green colloidal looking aggregate of octahedra
Raman shift (cm-1)	intensity
159.107	2219.12
161.999	2304.96
164.892	2363.06
167.785	2376.65
170.677	2366.39
173.57	2310.05
176.463	2307.24
179.356	2292.15
182.248	2246.86
185.141	2263.02
188.034	2266.45
190.926	2273.88
193.819	2258.54
196.712	2228.88
199.604	2192.66
202.497	2252.31
205.39	2219.44
208.282	2140.44
211.175	2109.13
214.068	2101.08
216.961	2037.96
219.853	2054.43
222.746	2001.43
225.639	1985.01
228.531	1946.16
231.424	1936.85
234.317	1869.71
237.209	1811.2
240.102	1775.05
242.995	1758.14
245.888	1707.51
248.78	1655.91
251.673	1621.05
254.566	1581.7
257.458	1555.43
260.351	1528.33
263.244	1488.91
266.137	1486.62
269.029	1456.88
271.922	1413.53
274.815	1387.88
277.707	1364.57
280.6	1338.91
283.493	1323.5
286.385	1296.84
289.278	1288.25
292.171	1285.24
295.063	1261.28
297.956	1246.5
300.849	1222.42
303.742	1217.81
306.634	1224.07
309.527	1199.46
312.42	1194.65
315.312	1207.52
318.205	1155.68
321.098	1192.28
323.99	1153.04
326.883	1178.24
329.776	1159.69
332.669	1163.16
335.561	1159.69
338.454	1153.22
341.347	1139.72
344.239	1118.19
347.132	1134.8
350.025	1141.6
352.918	1118.24
355.81	1131.85
358.703	1110.97
361.596	1104.34
364.488	1106.93
367.381	1088.03
370.274	1064.16
373.166	1071.72
376.059	1085.03
378.952	1069.62
381.844	1067.35
384.737	1066.7
387.63	1053.88
390.523	1038.39
393.415	1031.07
396.308	1023.9
399.201	1018.48
402.093	1014.68
404.986	1005.93
407.879	1004.27
410.772	1012.11
413.664	994.185
416.557	975.419
419.45	989.595
422.342	974.053
425.235	962.731
428.128	967.979
431.02	964.94
433.913	967.913
436.806	956.489
439.699	945.114
442.591	970.449
445.484	956.158
448.377	960.219
451.269	959.166
454.162	941.336
457.055	953.995
459.947	934.796
462.84	943.459
465.733	954.709
468.625	939.591
471.518	921.128
474.411	933.136
477.304	926.037
480.196	952.327
483.089	938.187
485.982	940.14
488.874	921.453
491.767	917.037
494.66	932.024
497.553	939.359
500.445	905.581
503.338	896.025
506.231	915.764
509.123	921.385
512.016	910.832
514.909	917.17
517.802	912.539
520.694	935.619
523.587	917.454
526.48	927.352
529.372	921.925
532.265	908.196
535.158	894.345
538.05	897.477
540.943	915.575
543.836	908.632
546.729	899.382
549.621	917.558
552.514	905.1
555.407	911.642
558.299	909.034
561.192	926.596
564.085	913.387
566.977	888.885
569.87	892.642
572.763	899.157
575.655	917.355
578.548	936.424
581.441	917.247
584.333	900.266
587.226	911.087
590.119	910.093
593.012	891.499
595.904	888.614
598.797	906.186
601.69	902.322
604.582	901.422
607.475	896.463
610.368	919.267
613.26	895.698
616.153	887.069
619.046	895.149
621.939	887.611
624.831	908.395
627.724	888.502
630.617	878.456
633.509	906.068
636.402	891.845
639.295	883.928
642.188	872.272
645.08	887.997
647.973	899.437
650.866	878.848
653.758	889.259
656.651	878.541
659.544	883.832
662.436	901.689
665.329	892.182
668.222	873.73
671.115	876.056
674.007	887.764
676.9	875.612
679.793	892.967
682.685	882.894
685.578	875.896
688.471	890.204
691.363	885.122
694.256	887.851
697.149	874.997
700.042	872.05
702.934	884.073
705.827	855.503
708.72	877.126
711.612	872.18
714.505	892.701
717.398	877.183
720.29	885.324
723.183	891.041
726.076	862.279
728.968	871.248
731.861	870.025
734.754	869.158
737.647	887.275
740.539	865.011
743.432	874.057
746.325	870.488
749.217	857.25
752.11	871.809
755.003	851.227
757.895	856.87
760.788	856.685
763.681	838.607
766.574	864.37
769.466	876.078
772.359	853.212
775.252	858.173
778.144	861.516
781.037	853.022
783.93	864.673
786.822	867.817
789.715	856.555
792.608	854.452
795.501	854.271
798.393	848.208
801.286	864.909
804.179	846.82
807.071	828.386
809.964	819.042
812.857	839.777
815.75	857.96
818.642	836.994
821.535	857.104
824.428	841.282
827.32	846.21
830.213	846.294
833.106	835.297
835.998	839.476
838.891	821.036
841.784	844.097
844.677	848.108
847.569	821.296
850.462	846.247
853.355	848.775
856.247	844.396
859.14	835.414
862.033	837.664
864.925	839.351
867.818	844.253
870.711	823.951
873.604	837.784
876.496	825.639
879.389	829.226
882.282	837.057
885.174	848.745
888.067	838.384
890.96	822.787
893.852	834.029
896.745	834.175
899.638	837.822
902.53	821.688
905.423	827.891
908.316	821.59
911.209	847.052
914.101	826.174
916.994	829.029
919.887	815.654
922.779	825.311
925.672	813.438
928.565	818.571
931.457	821.89
934.35	847.213
937.243	835.432
940.136	831.192
943.028	826.164
945.921	830.389
948.814	814.549
951.706	818.877
954.599	819.545
957.492	831.502
960.385	822.009
963.277	837.173
966.17	814.601
969.063	809.226
971.955	809.674
974.848	832.956
977.741	817.819
980.633	822.684
983.526	826.105
986.419	816.615
989.312	819.512
992.204	823.553
995.097	800.265
997.99	809.965
1000.88	803.631
1003.77	817.923
1006.67	799.129
1009.56	816.204
1012.45	809.839
1015.35	836.87
1018.24	810.477
1021.13	809.268
1024.02	816.109
1026.92	800.492
1029.81	824.789
1032.7	811.343
1035.6	804.854
1038.49	810.933
1041.38	821.205
1044.27	800.287
1047.17	814.786
1050.06	800.407
1052.95	808.456
1055.84	791.485
1058.74	824.77
1061.63	818.108
1064.52	810.308
1067.41	795.229
1070.31	799.944
1073.2	814.279
1076.09	796.099
1078.98	791.763
1081.88	800.081
1084.77	800.873
1087.66	810.888
1090.56	805.689
1093.45	814.627
1096.34	800.666
1099.23	803.867
1102.13	807.036
1105.02	785.464
1107.91	805.114
1110.81	802.716
1113.7	819.583
1116.59	785.994
1119.48	807.958
1122.38	798.633
1125.27	792.762
1128.16	793.357
1131.05	812.453
1133.95	791.375
1136.84	793.867
1139.73	809.88
1142.62	793.532
1145.52	797.548
1148.41	819.055
1151.3	802.044
1154.19	794.691
1157.09	778.32
1159.98	797.107
1162.87	807.96
1165.77	781.324
1168.66	787.569
1171.55	793.057
1174.44	789.792
1177.34	776.962
1180.23	799.404
1183.12	796.086
1186.02	794.858
1188.91	805.247
1191.8	794.732
1194.69	785.16
1197.59	797.394
1200.48	808.405
1203.37	799.456
1206.26	785.593
1209.16	789.075
1212.05	769.174
1214.94	784.829
1217.84	785.881
1220.73	788.449
1223.62	774.723
1226.51	796.276
1229.41	790.122
1232.3	803.38
1235.19	795.113
