Measurement: Raman, 780 nm, unoriented, Raman Data RAW
Mineral: Bromargyrite
Rruff sample: R060661
Ideal chemistry: AgBr
Locality: Schone Aussicht, near Dernbach, Nassau, Germany
Source: Michael Scott
Description: Grayish green cubo-octahedron
Raman shift (cm-1)	intensity
116.148	409.527
119.523	385.199
122.897	366.945
126.272	344.082
129.647	326.527
133.022	308.542
136.397	285.558
139.772	271.029
143.146	250.458
146.521	234.974
149.896	219.122
153.271	203.162
156.646	187.728
160.02	175.654
163.395	163.014
166.77	153.402
170.145	142.711
173.52	135.502
176.894	127.381
180.269	122.926
183.644	116.011
187.019	112.45
190.394	112.051
193.769	106.915
197.143	105.912
200.518	103.497
203.893	102.947
207.268	99.748
210.643	101.211
214.018	101.043
217.392	100.77
220.767	97.3321
224.142	95.9363
227.517	95.7507
230.892	96.9987
234.266	93.9826
237.641	96.1561
241.016	90.8804
244.391	91.7003
247.766	88.6833
251.14	86.1456
254.515	84.7287
257.89	81.32
261.265	78.6099
264.64	76.3256
268.014	73.844
271.389	70.8424
274.764	66.103
278.139	64.4364
281.514	62.3287
284.889	60.3811
288.263	58.6098
291.638	56.2319
295.013	54.0266
298.388	55.7177
301.763	53.7123
305.137	50.4375
308.512	51.6697
311.887	49.2263
315.262	47.308
318.637	49.3885
322.012	47.621
325.386	48.1902
328.761	47.4665
332.136	46.5235
335.511	44.7665
338.886	47.9149
342.26	43.3552
345.635	44.5011
349.01	45.5705
352.385	43.3266
355.76	43.9183
359.135	43.4847
362.509	44.1052
365.884	41.2992
369.259	41.1939
372.634	43.2584
376.009	40.7998
379.383	40.9744
382.758	41.2756
386.133	42.6192
389.508	42.1087
392.883	41.9805
396.257	40.0333
399.632	40.124
403.007	40.9654
406.382	39.9333
409.757	40.2802
413.132	40.3837
416.506	39.3805
419.881	38.3318
423.256	39.0246
426.631	41.2309
430.006	39.182
433.38	38.2044
436.755	37.3775
440.13	39.2539
443.505	39.7489
446.88	38.1498
450.255	39.1204
453.629	39.6111
457.004	38.6169
460.379	39.7877
463.754	39.1999
467.129	37.2906
470.503	39.0541
473.878	37.5162
477.253	38.5273
480.628	38.6217
484.003	38.0168
487.377	37.1489
490.752	37.3239
494.127	37.9729
497.502	35.5749
500.877	36.8339
504.252	37.7974
507.626	36.5778
511.001	37.2245
514.376	35.9954
517.751	36.4746
521.126	37.3024
524.5	35.8443
527.875	37.3334
531.25	37.3826
534.625	35.8286
538	35.77
541.375	35.9303
544.749	36.8267
548.124	35.146
551.499	36.0515
554.874	35.6354
558.249	35.0825
561.623	35.6922
564.998	34.6792
568.373	36.0915
571.748	35.2177
575.123	35.7672
578.497	36.4661
581.872	34.6992
585.247	35.0715
588.622	35.2326
591.997	34.7551
595.371	35.6525
598.746	34.9466
602.121	35.3004
605.496	33.1962
608.871	35.1167
612.246	35.7545
615.62	35.2629
618.995	34.3598
622.37	35.0353
625.745	34.55
629.12	33.8376
632.494	33.5524
635.869	34.3841
639.244	35.1295
642.619	35.868
645.994	33.2904
649.369	31.7915
652.743	33.3519
656.118	34.6809
659.493	35.3242
662.868	33.799
666.243	34.6004
669.617	32.6432
672.992	32.8954
676.367	33.5944
679.742	33.5031
683.117	34.7484
686.491	32.1008
689.866	32.6094
693.241	32.6046
696.616	32.4239
699.991	32.9595
703.366	33.4439
706.74	33.2406
710.115	32.7184
713.49	33.4622
716.865	33.099
720.24	33.3935
723.614	33.6289
726.989	31.3959
730.364	31.8607
733.739	31.6738
737.114	31.6037
740.489	31.912
743.863	32.5837
747.238	32.6091
750.613	33.2541
753.988	34.0554
757.363	31.251
760.737	31.8741
764.112	32.3545
767.487	31.9476
770.862	33.4526
774.237	32.6107
777.611	32.121
780.986	31.9969
784.361	32.5911
787.736	32.9463
791.111	32.177
794.486	32.1167
797.86	31.9133
801.235	32.1571
804.61	32.3501
807.985	32.4571
811.36	32.9575
814.734	32.4491
818.109	33.056
821.484	32.3661
824.859	33.2048
828.234	31.1142
831.609	31.9648
834.983	32.7428
838.358	31.5706
841.733	32.9926
845.108	32.5825
848.483	32.029
851.857	32.9991
855.232	32.5228
858.607	32.4791
861.982	32.3988
865.357	31.3376
868.731	31.2035
872.106	31.5871
875.481	31.2292
878.856	31.3934
882.231	30.6933
885.606	31.1952
888.98	31.1152
892.355	30.0183
895.73	30.4844
899.105	29.8491
902.48	31.8108
905.854	30.9593
909.229	30.3856
912.604	29.9809
915.979	29.3665
919.354	29.1263
922.729	28.4702
926.103	30.1904
929.478	29.3883
932.853	29.3928
936.228	29.6229
939.603	29.3481
942.977	28.8133
946.352	29.766
949.727	28.0211
953.102	30.7469
956.477	29.217
959.851	28.7644
963.226	28.4836
966.601	28.0026
969.976	28.6344
973.351	28.888
976.726	28.9975
980.1	28.4242
983.475	28.6642
986.85	29.0771
990.225	28.1442
993.6	28.5377
996.974	27.7522
1000.35	29.4419
1003.72	28.3697
1007.1	29.1667
1010.47	29.0025
1013.85	26.531
1017.22	28.6051
1020.6	26.829
1023.97	28.0817
1027.35	28.535
1030.72	28.1835
1034.1	26.2555
1037.47	27.991
1040.85	27.0729
1044.22	28.0316
1047.6	28.0807
1050.97	28.0141
1054.35	26.9017
1057.72	27.2437
1061.1	27.8414
1064.47	28.2503
1067.85	26.9906
1071.22	26.6937
1074.6	26.9151
1077.97	28.0634
1081.35	28.9387
1084.72	28.2587
1088.09	27.7959
1091.47	27.0944
1094.84	27.0467
1098.22	27.3618
1101.59	25.5388
1104.97	26.4674
1108.34	27.075
1111.72	27.6128
1115.09	26.5609
1118.47	26.3736
1121.84	27.1461
1125.22	27.5289
1128.59	27.0331
1131.97	26.1399
1135.34	27.3824
1138.72	26.8947
1142.09	26.7003
1145.47	27.1901
1148.84	26.5608
1152.22	26.3082
1155.59	25.7749
1158.97	27.0792
1162.34	25.2521
1165.71	27.9578
1169.09	26.7957
1172.46	27.0522
1175.84	27.2649
1179.21	25.3755
1182.59	26.5116
1185.96	25.8314
1189.34	26.1772
1192.71	27.7766
1196.09	25.8954
1199.46	27.6853
1202.84	25.8096
1206.21	26.8371
1209.59	27.746
1212.96	27.4757
1216.34	24.6527
1219.71	26.4738
1223.09	26.4353
1226.46	26.6208
1229.84	26.5013
1233.21	25.5341
1236.59	24.921
1239.96	26.2359
1243.34	25.5615
1246.71	25.1049
1250.09	25.8972
1253.46	25.4921
1256.84	25.9945
1260.21	25.2476
1263.59	26.5354
1266.96	25.7438
1270.33	25.3112
1273.71	27.2295
1277.08	25.4795
1280.46	25.5085
1283.83	25.7777
