Measurement: Raman, 780 nm, unoriented, Raman Data Processed
Mineral: Bukovskyite
Rruff sample: R050630
Ideal chemistry: Fe^3+^_2_(As^5+^O_4_)(S^6+^O_4_)(OH)7H_2_O
Locality: Kutna Hora, Bohemia, Czechoslovakia
Source: University of Arizona Mineral Museum
Description: Compact aggregate of microscopic randomly oriented colorless acicular crystals
Measured chemistry: (Fe^3+^_1.97_Al_0.03_)_Σ=2_((As_0.98_P_0.02_)_Σ=1_O_4_)(S_1.00_O_4_)((OH)_0.94_F_0.03_Cl_0.03_)_Σ=1_·7H_2_O
Raman shift (cm-1)	intensity
177.256	0
180.149	1.24724
183.041	2.22295
185.934	2.76187
188.827	3.85394
191.719	3.98413
194.612	5.36319
197.505	5.45136
200.397	4.3731
203.29	3.18282
206.183	0.995506
209.076	0.22641
211.968	0.002895
214.861	0.083382
217.754	0.202339
220.646	0.348305
223.539	0.631962
226.432	1.60967
229.324	2.80595
232.217	3.56477
235.11	4.09044
238.002	4.66436
240.895	6.19352
243.788	7.61295
246.681	8.89043
249.573	10.8384
252.466	11.3149
255.359	12.4159
258.251	13.8493
261.144	12.3898
264.037	12.3494
266.93	9.43021
269.822	6.9687
272.715	5.27796
275.608	3.75648
278.5	2.74342
281.393	2.33074
284.286	2.15837
287.178	1.99029
290.071	2.60343
292.964	1.65017
295.856	1.77926
298.749	0.783745
301.642	0.683842
304.535	0.679405
307.427	0.265732
310.32	0.689899
313.213	1.32011
316.105	0.482994
318.998	0.361996
321.891	0.641777
324.784	0.225601
327.676	0.576141
330.569	0.216835
333.462	0.478352
336.354	0.121559
339.247	0.699055
342.14	0.078514
345.032	0.010223
347.925	0.083576
350.818	0.05125
353.711	0.299641
356.603	0.126068
359.496	0.592278
362.389	1.12924
365.281	0.745686
368.174	0.728764
371.067	0.986866
373.959	1.06072
376.852	0.308426
379.745	0.930531
382.637	0.96748
385.53	0.765995
388.423	1.17054
391.316	1.67986
394.208	1.68141
397.101	0.674019
399.994	1.50459
402.886	2.11771
405.779	2.70544
408.672	2.93789
411.565	4.72239
414.457	5.51876
417.35	6.19873
420.243	6.68879
423.135	7.95972
426.028	8.6407
428.921	8.81843
431.813	8.60345
434.706	6.98651
437.599	5.81042
440.492	5.08069
443.384	4.52224
446.277	4.2197
449.17	3.79964
452.062	3.37268
454.955	3.85889
457.848	3.56418
460.74	3.46629
463.633	3.12632
466.526	3.12428
469.419	2.63305
472.311	2.54596
475.204	1.85261
478.097	0.80431
480.989	1.32024
483.882	0.426838
486.775	0.602783
489.668	1.34845
492.56	0.706863
495.453	1.22831
498.346	0.778763
501.238	0.217785
504.131	0.235188
507.024	0.547329
509.916	0.395542
512.809	0.615017
515.702	0.422367
518.595	0.25024
521.487	0.22757
524.38	0.162266
527.273	0.345882
530.165	0.028889
533.058	0.219669
535.951	1.73154
538.843	0.853088
541.736	1.89645
544.629	1.91359
547.521	2.9147
550.414	3.44323
553.307	3.03464
556.2	3.04548
559.092	2.64862
561.985	2.00841
564.878	2.04713
567.77	1.26989
570.663	1.05302
573.556	1.0803
576.448	0.516508
579.341	0.270905
582.234	0.206863
585.127	0.270178
588.019	0.295729
590.912	0.064322
593.805	0.357275
596.697	0.810274
599.59	0.7267
602.483	0.856741
605.375	0.779133
608.268	0.725847
611.161	1.19537
614.054	1.21905
616.946	1.04129
619.839	0.908888
622.732	0.631573
625.625	0.714905
628.517	0.887045
631.41	0.607189
634.303	0.560104
637.195	1.45731
640.088	1.15019
642.981	0.450489
645.873	0.461533
648.766	0.035549
651.659	0.065783
654.552	0.549141
657.444	0.458191
660.337	0.544764
663.23	0.485962
666.122	0.378479
669.015	0.690371
671.908	0.257172
674.8	1.00302
677.693	0.484198
680.586	0.68528
683.479	0.358091
686.371	0.695297
689.264	0.264746
692.157	0.493088
695.049	0.2659
697.942	0.813562
700.835	0.332119
703.727	0.540773
706.62	0.486559
709.513	0.421368
712.405	0.282864
715.298	0.428185
718.191	0.597256
721.084	0.446644
723.976	0.193752
726.869	0.099291
729.762	0.640749
732.654	0.669071
735.547	0.125517
738.44	0.159664
741.332	0.469343
744.225	0.111221
747.118	0.112288
750.011	0.054859
752.903	0.025349
755.796	0.047581
758.689	0.099016
761.581	0.182762
764.474	0.17635
767.367	0.292948
770.26	0.05386
773.152	0.461685
776.045	0.131294
778.938	0.231339
781.83	0.870201
784.723	1.32707
787.616	1.14955
790.508	1.49992
793.401	2.37189
796.294	2.8913
799.187	3.66481
802.079	4.64512
804.972	5.91086
807.865	6.45367
810.757	7.01218
813.65	8.04481
816.543	8.04198
819.435	7.52027
822.328	6.85178
825.221	6.65167
828.114	5.98349
831.006	5.81117
833.899	5.52834
836.792	5.64923
839.684	5.69592
842.577	5.32567
845.47	5.20469
848.362	5.03667
851.255	4.46481
854.148	3.36329
857.04	2.8145
859.933	2.87183
862.826	2.68954
865.719	1.68775
868.611	2.17806
871.504	2.97888
874.397	3.56353
877.289	3.92837
880.182	4.40035
883.075	4.34317
885.967	4.18371
888.86	3.94056
891.753	3.2657
894.646	2.25728
897.538	2.6465
900.431	2.598
903.324	2.96825
906.216	2.9901
909.109	3.6065
912.002	3.40332
914.894	2.39418
917.787	1.71929
920.68	1.49528
923.573	0.684315
926.465	0.313988
929.358	0.138287
932.251	0.239367
935.143	0.346983
938.036	0.336449
940.929	0.099733
943.822	0.162466
946.714	0.146347
949.607	0.407099
952.5	0.233021
955.392	0.166533
958.285	0.139332
961.178	0.368401
964.07	0.867428
966.963	1.49787
969.856	2.51205
972.749	4.2592
975.641	5.30839
978.534	6.61379
981.427	8.71327
984.319	9.79079
987.212	5.9687
990.105	3.65082
992.997	3.02356
995.89	3.25554
998.783	2.56719
1001.68	2.72842
1004.57	2.44567
1007.46	1.8503
1010.35	2.9286
1013.25	0.997486
1016.14	0.878374
1019.03	0.958399
1021.92	0.72172
1024.82	0.743509
1027.71	0.98925
1030.6	0.867388
1033.49	1.35576
1036.39	1.54455
1039.28	2.03602
1042.17	1.74005
1045.07	2.69276
1047.96	2.64569
1050.85	3.1746
1053.74	3.18827
1056.64	3.48173
1059.53	1.82692
1062.42	1.23304
1065.32	1.43443
1068.21	0.868082
1071.1	0.73793
1073.99	0.410301
1076.89	0.47772
1079.78	0.75988
1082.67	0.361273
1085.56	0.301201
1088.46	0.034599
1091.35	0.044958
1094.24	0.081257
1097.13	0.159773
1100.03	0.424471
1102.92	0.106497
1105.81	0.568539
1108.71	0.589838
1111.6	0.541241
1114.49	0.408428
1117.38	0.596272
1120.28	0.877914
1123.17	0.922989
1126.06	0.584616
1128.95	1.01359
1131.85	0.696739
1134.74	0.829781
1137.63	0.511002
1140.53	0.625401
1143.42	0.233194
1146.31	0.702047
1149.2	0.133921
1152.1	0.200441
1154.99	0.015396
1157.88	0.419043
1160.77	0.690472
1163.67	0.440847
1166.56	0.230429
1169.45	0.721943
1172.35	0.46409
1175.24	0.448492
1178.13	0.65764
1181.02	0.677422
1183.92	0.576397
1186.81	1.00038
1189.7	0.802584
1192.59	0.342087
1195.49	0.161116
1198.38	0.406126
1201.27	0.696863
1204.16	0.480265
1207.06	0.00667
1209.95	1.76941
1212.84	0.328568
1215.73	0.254934
1218.63	0.453691
1221.52	0.164898
1224.41	0.604471
1227.31	0.004087
1230.2	0.428181
1233.09	0.295416
1235.98	0.420233
1238.88	0.530462
1241.77	0.383768
1244.66	0.279327
1247.56	0.259884
1250.45	0.299282
1253.34	0.430521
1256.23	0.334467
1259.13	0.002142
1262.02	0.714956
1264.91	0.551935
1267.8	0.474417
1270.7	0.439642
1273.59	0.504805
1276.48	0.046087
1279.38	0.109983
1282.27	0
