Measurement: Raman, 532 nm, unoriented, Raman Data Processed
Mineral: Bukovskyite
Rruff sample: R050630
Ideal chemistry: Fe^3+^_2_(As^5+^O_4_)(S^6+^O_4_)(OH)7H_2_O
Locality: Kutna Hora, Bohemia, Czechoslovakia
Source: University of Arizona Mineral Museum
Description: Compact aggregate of microscopic randomly oriented colorless acicular crystals
Measured chemistry: (Fe^3+^_1.97_Al_0.03_)_Σ=2_((As_0.98_P_0.02_)_Σ=1_O_4_)(S_1.00_O_4_)((OH)_0.94_F_0.03_Cl_0.03_)_Σ=1_·7H_2_O
Raman shift (cm-1)	intensity
177.81	0
180.703	4.43121
183.596	20.843
186.488	33.8014
189.381	48.6514
192.274	57.8817
195.167	70.4086
198.059	77.6622
200.952	62.1521
203.845	38.7886
206.737	20.9168
209.63	6.9596
212.523	1.20947
215.416	2.88034
218.308	0.021423
221.201	2.70905
224.094	7.46704
226.986	17.9856
229.879	28.3507
232.772	47.763
235.664	56.4241
238.557	62.1539
241.45	81.5788
244.343	102.103
247.235	126.043
250.128	148.216
253.021	167.612
255.913	191.319
258.806	207.854
261.699	204.473
264.591	184.409
267.484	159.394
270.377	125.944
273.27	97.8133
276.162	72.2003
279.055	55.9313
281.948	42.5579
284.84	39.8028
287.733	37.0731
290.626	35.8153
293.519	33.4002
296.411	30.2764
299.304	25.4322
302.197	20.1993
305.089	13.3422
307.982	10.3111
310.875	10.7599
313.767	10.7812
316.66	9.74838
319.553	6.86038
322.445	3.45139
325.338	1.4256
328.231	0.638367
331.124	0.346008
334.016	2.33945
336.909	0.497437
339.802	1.64725
342.694	0.58728
345.587	1.75009
348.48	0.100555
351.373	1.67291
354.265	2.13785
357.158	1.00507
360.051	0.561035
362.943	3.29337
365.836	6.79999
368.729	5.72537
371.621	9.55084
374.514	12.2637
377.407	11.0935
380.3	12.7009
383.192	12.2411
386.085	13.0853
388.978	16.1485
391.87	15.9364
394.763	20.5022
397.656	27.0123
400.548	34.0878
403.441	41.2799
406.334	52.3082
409.226	67.5012
412.119	83.4214
415.012	100.251
417.905	116.199
420.797	133.622
423.69	142.254
426.583	149.818
429.475	147.945
432.368	141.103
435.261	127.518
438.154	112.538
441.046	93.3155
443.939	80.297
446.832	70.2505
449.724	62.7874
452.617	58.3897
455.51	54.3751
458.402	53.282
461.295	50.878
464.188	47.9949
467.08	42.983
469.973	40.1527
472.866	31.2673
475.759	25.6609
478.651	20.9743
481.544	19.2105
484.437	18.2964
487.329	10.9011
490.222	8.67926
493.115	6.95483
496.007	8.28153
498.9	10.6932
501.793	9.01471
504.686	8.25766
507.578	7.23779
510.471	5.86865
513.364	5.19132
516.256	0.600433
519.149	1.08554
522.042	3.18918
524.934	3.94013
527.827	1.13153
530.72	1.22199
533.613	8.48056
536.505	16.6915
539.398	27.6517
542.291	36.8437
545.183	47.2994
548.076	53.6091
550.969	61.2449
553.861	63.1504
556.754	58.0065
559.647	47.9104
562.54	37.874
565.432	32.0277
568.325	27.55
571.218	22.0101
574.11	17.8881
577.003	11.9346
579.896	7.0083
582.788	11.0099
585.681	0.720154
588.574	0.129944
591.467	1.31244
594.359	0.590942
597.252	1.78641
600.145	2.62036
603.037	4.7168
605.93	7.10873
608.823	11.1398
611.716	19.6944
614.608	16.231
617.501	16.306
620.394	14.2453
623.286	12.2583
626.179	15.8668
629.072	8.95297
631.964	8.42151
634.857	5.46295
637.75	5.97632
640.643	7.20917
643.535	7.22711
646.428	6.50821
649.321	5.12988
652.213	4.49747
655.106	3.51318
657.999	2.22623
660.891	4.03867
663.784	3.01444
666.677	5.1738
669.569	6.51868
672.462	6.92294
675.355	4.63947
678.248	5.01502
681.14	4.52472
684.033	4.93253
686.926	7.38638
689.818	6.5
692.711	5.13376
695.604	4.8223
698.496	6.09082
701.389	3.02823
704.282	4.5556
707.175	5.43869
710.067	5.62424
712.96	6.25864
715.853	3.98108
718.745	4.45035
721.638	2.6875
724.531	3.05933
727.423	1.4418
730.316	0.701324
733.209	1.97369
736.102	1.90463
738.994	0.884796
741.887	2.55792
744.78	0.834381
747.672	0.965607
750.565	0.845825
753.458	7.16809
756.351	1.10309
759.243	2.09579
762.136	0.25885
765.029	2.80212
767.921	2.39194
770.814	0.605011
773.707	0.447632
776.599	0.312653
779.492	4.45172
782.385	9.88501
785.278	14.6297
788.17	22.7419
791.063	34.4113
793.956	45.2224
796.848	63.7989
799.741	84.6993
802.634	101.487
805.526	120.245
808.419	138.515
811.312	157.914
814.205	168.32
817.097	168.912
819.99	162.054
822.883	150.011
825.775	140.384
828.668	131.601
831.561	128.11
834.453	125.585
837.346	123.974
840.239	123.207
843.132	121.817
846.024	115.307
848.917	109.76
851.81	97.2399
854.702	84.0312
857.595	71.1374
860.488	57.0248
863.38	47.8066
866.273	44.3076
869.166	44.0231
872.059	44.3795
874.951	53.0393
877.844	62.2231
880.737	70.6579
883.629	75.2538
886.522	76.184
889.415	73.1416
892.308	60.3535
895.2	51.1752
898.093	43.6486
900.986	40.6021
903.878	42.1315
906.771	48.5638
909.664	50.3326
912.556	46.0801
915.449	35.9868
918.342	23.9677
921.235	15.0319
924.127	10.6991
927.02	3.58707
929.913	1.78186
932.805	0.162262
935.698	0.598419
938.591	2.64319
941.483	2.34738
944.376	3.17419
947.269	4.61639
950.162	2.13367
953.054	1.0184
955.947	1.22891
958.84	3.18851
961.732	6.94205
964.625	12.9319
967.518	20.788
970.41	33.5733
973.303	50.1916
976.196	74.5986
979.088	96.4175
981.981	123.432
984.874	151.457
987.767	118.778
990.659	72.6493
993.552	54.9647
996.445	49.3094
999.337	46.8174
1002.23	42.602
1005.12	38.9137
1008.02	30.3148
1010.91	24.5906
1013.8	18.1044
1016.69	9.70627
1019.59	8.69876
1022.48	8.83765
1025.37	9.98651
1028.26	13.9273
1031.16	17.8809
1034.05	23.6315
1036.94	31.211
1039.84	36.8188
1042.73	44.0072
1045.62	46.7001
1048.51	55.2862
1051.41	61.9491
1054.3	61.8903
1057.19	58.5422
1060.08	46.5915
1062.98	34.402
1065.87	22.8398
1068.76	15.1587
1071.65	10.6525
1074.55	7.76389
1077.44	4.95435
1080.33	2.29718
1083.23	4.48032
1086.12	5.73209
1089.01	3.46417
1091.9	1.17426
1094.8	1.26633
1097.69	0.71756
1100.58	3.43899
1103.47	3.79514
1106.37	3.27734
1109.26	1.92642
1112.15	3.11841
1115.05	6.21249
1117.94	9.86523
1120.83	15.0053
1123.72	13.7827
1126.62	14.2567
1129.51	17.9406
1132.4	17.5898
1135.29	17.7264
1138.19	14.4975
1141.08	10.5293
1143.97	5.49191
1146.87	1.81375
1149.76	0.07132
1152.65	2.50635
1155.54	1.9158
1158.44	0.806732
1161.33	0.176086
1164.22	3.23749
1167.11	2.17127
1170.01	7.21527
1172.9	10.5296
1175.79	12.994
1178.68	16.1067
1181.58	13.5738
1184.47	13.0528
1187.36	10.8951
1190.26	12.1443
1193.15	7.75378
1196.04	7.48276
1198.93	5.01105
1201.83	5.311
1204.72	1.70371
1207.61	4.22101
1210.51	4.00446
1213.4	4.53171
1216.29	1.64569
1219.18	3.65753
1222.08	1.41901
1224.97	0.546844
1227.86	1.10751
1230.75	2.1897
1233.65	0.416626
1236.54	2.09607
1239.43	2.88168
1242.32	3.16461
1245.22	4.71564
1248.11	4.15396
1251	5.08343
1253.89	6.13376
1256.79	5.60846
1259.68	5.32181
1262.57	4.81598
1265.47	3.21487
1268.36	2.18372
1271.25	1.48596
1274.14	2.31793
1277.04	2.61429
1279.93	3.38052
1282.82	3.20105
1285.71	2.17358
1288.61	0.14389
1291.5	0.155914
1294.39	4.48379
1297.29	1.73337
1300.18	0.407074
