Measurement: Raman, 785 nm, unoriented, Raman Data RAW
Mineral: Calcioburbankite
Rruff sample: R070023
Ideal chemistry: Na_3_(Ca,Ce^3+^,Sr,La^3+^)_3_(C^4+^O_3_)_5_
Locality: Vuoriyarvi Massif, Murmansk region, Russia
Source: Michael Scott
Description: Pale orange vitreous massive embedded in white dolomite
Measured chemistry: (Na_2.89_Ca_0.11_)_Σ=3_(Ca_0.91_Sr_0.67_Ba_0.53_Ce_0.51_La_0.26_Nd_0.12_)_Σ=3_(CO_3_)_5_; CO_2_ estimated by difference
Raman shift (cm-1)	intensity
150.719	478.056
153.612	504.517
156.504	522.708
159.397	586.71
162.29	623.2
165.182	685.222
168.075	733.295
170.968	781.905
173.86	820.279
176.753	863.897
179.646	912.478
182.538	979.901
185.431	1044.28
188.324	1106.78
191.217	1157.23
194.109	1254.85
197.002	1334.15
199.895	1376.72
202.787	1403.32
205.68	1410.31
208.573	1440.36
211.466	1442.8
214.358	1463.11
217.251	1494.59
220.144	1456.04
223.036	1434.32
225.929	1416.35
228.822	1385.39
231.714	1362.25
234.607	1362.38
237.5	1337.76
240.393	1341.8
243.285	1365.77
246.178	1418.44
249.071	1450.15
251.963	1505.89
254.856	1545.77
257.749	1609.71
260.642	1672.62
263.534	1671.54
266.427	1679.28
269.32	1728.63
272.212	1741.39
275.105	1714.68
277.998	1696.57
280.89	1686.37
283.783	1630.69
286.676	1558.9
289.568	1496.34
292.461	1455.09
295.354	1360.37
298.247	1332.86
301.139	1290.15
304.032	1235.07
306.925	1217.38
309.817	1165.93
312.71	1137.35
315.603	1108.14
318.495	1121.97
321.388	1090.39
324.281	1079.24
327.174	1081.05
330.066	1026.04
332.959	1034.95
335.852	1007.65
338.744	993.176
341.637	960.693
344.53	954.988
347.423	938.133
350.315	912.093
353.208	885.097
356.101	863.79
358.993	831.418
361.886	801.247
364.779	775.026
367.671	757.411
370.564	745.05
373.457	727.971
376.349	703.352
379.242	701.328
382.135	686.12
385.028	652.482
387.92	629.152
390.813	612.814
393.706	600.635
396.598	596.271
399.491	574.015
402.384	571.33
405.276	563.232
408.169	536.153
411.062	518.77
413.955	512.164
416.847	484.985
419.74	468.441
422.633	469.412
425.525	466.722
428.418	452.176
431.311	441.154
434.204	420.016
437.096	417.678
439.989	411.863
442.882	394.321
445.774	405.674
448.667	391.802
451.56	389.19
454.452	390.572
457.345	388.295
460.238	390.947
463.13	387.7
466.023	381.268
468.916	389.305
471.809	388.978
474.701	396.051
477.594	394.22
480.487	413.972
483.379	432.946
486.272	435.186
489.165	439.094
492.058	445.137
494.95	457.238
497.843	483.986
500.736	497.219
503.628	514.464
506.521	539.645
509.414	548.065
512.307	557.576
515.199	562.987
518.092	583.233
520.985	592.215
523.877	593.598
526.77	593.187
529.663	577.34
532.555	577.94
535.448	573.586
538.341	572.472
541.234	575.133
544.126	552.996
547.019	555.051
549.912	542.038
552.804	559.833
555.697	546.167
558.59	534.894
561.482	559.395
564.375	547.428
567.268	571.157
570.16	573.145
573.053	597.698
575.946	560.915
578.839	560.763
581.731	555.758
584.624	555.47
587.517	546.278
590.409	523.051
593.302	518.194
596.195	503.723
599.087	475.748
601.98	466.003
604.873	435.998
607.766	432.971
610.658	394.149
613.551	386.52
616.444	376.694
619.336	366.139
622.229	346.016
625.122	329.854
628.014	308.539
630.907	310.522
633.8	287.815
636.693	281.71
639.585	262.116
642.478	258.83
645.371	253.63
648.263	243.547
651.156	225.805
654.049	222.33
656.942	200.342
659.834	208.881
662.727	193.134
665.62	172.789
668.512	188.194
671.405	177.42
674.298	161.975
677.19	156.282
680.083	145.815
682.976	145.321
685.869	152.082
688.761	137.308
691.654	132.557
694.547	134.112
697.439	124.862
700.332	120.508
703.225	127.412
706.117	125.445
709.01	128.595
711.903	127.385
714.795	109.981
717.688	110.984
720.581	116.765
723.474	101.505
726.366	108.1
729.259	98.2991
732.152	110.783
735.044	105.302
737.937	109.496
740.83	102.545
743.722	99.3182
746.615	93.5347
749.508	91.8396
752.401	102.76
755.293	85.6102
758.186	89.0559
761.079	89.9006
763.971	87.8919
766.864	102.919
769.757	87.0766
772.649	90.2873
775.542	89.5525
778.435	86.7864
781.328	87.5089
784.22	93.0548
787.113	82.7723
790.006	91.6529
792.898	88.2772
795.791	75.8339
798.684	85.6936
801.577	87.3105
804.469	91.9404
807.362	90.8102
810.255	93.3888
813.147	86.7748
816.04	88.2461
818.933	92.2588
821.825	80.767
824.718	91.7177
827.611	101.746
830.504	95.5104
833.396	89.2158
836.289	94.2954
839.182	100.671
842.074	98.5403
844.967	100.66
847.86	106.035
850.752	108.896
853.645	107.857
856.538	117.339
859.431	115.744
862.323	106.784
865.216	118.562
868.109	119.792
871.001	123.931
873.894	133.271
876.787	129.049
879.679	143.75
882.572	140.501
885.465	150.167
888.357	151.355
891.25	145.682
894.143	159.138
897.036	170.939
899.928	169.359
902.821	181.085
905.714	181.427
908.606	190.248
911.499	208.274
914.392	206.808
917.284	210.314
920.177	226.921
923.07	227.443
925.963	238.569
928.855	257.107
931.748	253.709
934.641	274.473
937.534	286.316
940.426	293.733
943.319	307.51
946.212	318.048
949.104	325.266
951.997	348.612
954.89	369.352
957.782	383.097
960.675	404.186
963.568	413.161
966.461	414.605
969.353	457.555
972.246	478.09
975.139	493.268
978.031	488.96
980.924	535.18
983.817	529.834
986.709	554.874
989.602	579.448
992.495	616.634
995.388	640.311
998.28	652.248
1001.17	682.409
1004.07	709.922
1006.96	736.081
1009.85	762.964
1012.74	799.588
1015.64	819.207
1018.53	863.269
1021.42	895.102
1024.31	933.525
1027.21	955.744
1030.1	1018.31
1032.99	1052.23
1035.88	1075.06
1038.78	1122.26
1041.67	1171.27
1044.56	1192.43
1047.46	1252.93
1050.35	1288.89
1053.24	1349.61
1056.13	1370.52
1059.03	1435.5
1061.92	1482.05
1064.81	1545.52
1067.7	1597.76
1070.6	1669.59
1073.49	1702.55
1076.38	1790.3
1079.28	1882.15
1082.17	1904.95
1085.06	2015.96
1087.95	2068.68
1090.85	2116.45
1093.74	2201.72
1096.63	2325.2
1099.53	2394.06
1102.42	2518.58
1105.31	2565.8
1108.2	2699.92
1111.1	2804.73
1113.99	2913.52
1116.88	3033.41
1119.77	3146.69
1122.67	3306.47
1125.56	3462.8
1128.45	3630.81
1131.34	3858.62
1134.24	4070.14
1137.13	4294.33
1140.02	4543.66
1142.91	4861.97
1145.81	5154.02
1148.7	5600.31
1151.59	6021.27
1154.49	6544.31
1157.38	7136.61
1160.27	7769.56
1163.16	8537.62
1166.06	9460.94
1168.95	10463
1171.84	11532.3
1174.73	12827.9
1177.63	14055
1180.52	15391.7
1183.41	16757
1186.31	18136.5
1189.2	19154.3
1192.09	20154.6
1194.98	20746.4
1197.88	21033.8
1200.77	21214.1
1203.66	21028.1
1206.56	21036.3
1209.45	21034.4
1212.34	21431.1
1215.23	22460.3
1218.12	24011.2
1221.02	26321.2
1223.91	29134.7
1226.8	32064.7
1229.7	35049.8
1232.59	37564.3
1235.48	39591.7
1238.37	40816.8
1241.27	40907.1
1244.16	40210.6
