Measurement: Raman, 532 nm, unoriented, Raman Data Processed
Mineral: Caledonite
Rruff sample: R060506
Ideal chemistry: Cu^2+^_2_Pb^2+^_5_(S^6+^O_4_)_3_(CO_3_)(OH)_6_
Locality: Rowley mine, Maricopa County, Arizona, USA
Source: Jim Ricker
Description: Blue prismatic crystals
Raman shift (cm-1)	intensity
91.7117	0
95.0865	75.9849
98.4613	504.762
101.836	625.506
105.211	694.836
108.586	1290.31
111.961	2245.95
115.335	3901.64
118.71	4443.63
122.085	3924.07
125.46	3683.97
128.835	2641.33
132.209	1754.33
135.584	1342.48
138.959	1228.47
142.334	1306.8
145.709	1445.23
149.084	1231.58
152.458	671.665
155.833	347.666
159.208	150.401
162.583	36.885
165.958	15.4753
169.333	24.8181
172.707	47.2188
176.082	55.1165
179.457	34.6216
182.832	20.7112
186.207	114.524
189.581	104.617
192.956	36.7688
196.331	10.3157
199.706	2.94727
203.081	27.0305
206.455	53.7786
209.83	105.014
213.205	187.501
216.58	278.268
219.955	390.779
223.329	507.627
226.704	629.375
230.079	702.878
233.454	694.191
236.829	616.655
240.204	546.925
243.578	488.027
246.953	458.984
250.328	447.902
253.703	427.643
257.078	336.673
260.452	198.885
263.827	89.2983
267.202	47.044
270.577	37.24
273.952	65.3972
277.327	118.027
280.701	156.135
284.076	134.05
287.451	78.4758
290.826	20.0349
294.201	7.97803
297.575	12.5271
300.95	58.5679
304.325	140.412
307.7	250.305
311.075	369.588
314.45	483.704
317.824	566.197
321.199	563.452
324.574	488.012
327.949	394.246
331.324	328.968
334.699	329.863
338.073	383.201
341.448	470.69
344.823	531.915
348.198	483.386
351.573	333.044
354.947	193.023
358.322	108.447
361.697	42.5591
365.072	16.2817
368.447	9.60864
371.822	14.0674
375.196	16.7412
378.571	16.3835
381.946	11.7835
385.321	6.16724
388.696	11.3369
392.07	13.7703
395.445	38.5566
398.82	83.2256
402.195	138.506
405.57	222.946
408.945	316.609
412.319	471.385
415.694	695.982
419.069	975.233
422.444	1377.91
425.818	1895.15
429.193	2413.36
432.568	2991.85
435.943	4148.11
439.318	5599.71
442.693	5744.18
446.067	5544.04
449.442	6737.79
452.817	7398.16
456.192	5660.4
459.567	4314.1
462.942	2449.58
466.316	1358.47
469.691	879.05
473.066	660.88
476.441	555.436
479.816	439.019
483.19	337.477
486.565	265.571
489.94	197.783
493.315	158.82
496.69	117.983
500.065	85.0996
503.439	56.2437
506.814	39.8252
510.189	32.3935
513.564	15.9529
516.939	3.05713
520.313	5.67236
523.688	2.28589
527.063	4.9939
530.438	5.30689
533.813	3.76245
537.188	9.87476
540.562	8.81738
543.937	6.08398
547.312	7.89307
550.687	7.54394
554.062	6.77905
557.436	13.1396
560.811	16.9756
564.186	28.7666
567.561	23.5107
570.936	28.7251
574.311	45.335
577.685	56.1887
581.06	70.1394
584.435	88.5894
587.81	134.841
591.185	220.835
594.559	343.08
597.934	523.978
601.309	778.639
604.684	1079.89
608.059	1227.47
611.433	1009.81
614.808	624.754
618.183	444.022
621.558	376.217
624.933	283.331
628.308	248.799
631.682	290.465
635.057	217.123
638.432	280.557
641.807	380.547
645.182	363.694
648.557	182.507
651.931	81.2073
655.306	41.3569
658.681	13.3591
662.056	6.17383
665.431	11.6897
668.805	13.9412
672.18	16.3525
675.555	5.86719
678.93	26.1633
682.305	44.8523
685.679	44.2485
689.054	2.31665
692.429	0.63501
695.804	19.9104
699.179	4.75806
702.553	24.593
705.928	58.9165
709.303	169.4
712.678	425.003
716.053	652.777
719.428	1102.01
722.802	1974.25
726.177	2308.98
729.552	871.721
732.927	246.654
736.302	86.0779
739.677	37.9211
743.051	5.79956
746.426	5.02173
749.801	0.958496
753.176	5.8916
756.551	6.95264
759.925	8.16284
763.3	11.4023
766.675	35.898
770.05	61.3677
773.425	89.4507
776.799	129.56
780.174	174.935
783.549	234.894
786.924	288.87
790.299	355.083
793.674	387.527
797.048	390.617
800.423	383.295
803.798	351.618
807.173	323.992
810.548	291.88
813.923	280.216
817.297	277.715
820.672	292.053
824.047	284.779
827.422	298.353
830.797	329.229
834.171	368.523
837.546	403.516
840.921	441.923
844.296	469.573
847.671	478.425
851.045	488.279
854.42	480.95
857.795	472.307
861.17	444.471
864.545	361.757
867.92	287.808
871.294	235.653
874.669	175.582
878.044	116.237
881.419	74.1035
884.794	35.491
888.168	23.8616
891.543	14.3765
894.918	17.5205
898.293	2.06397
901.668	13.0669
905.043	11.6626
908.417	7.65064
911.792	16.8462
915.167	1.16894
918.542	8.25195
921.917	34.2712
925.291	90.7371
928.666	196.447
932.041	341.829
935.416	572.126
938.791	839.256
942.165	1060.83
945.54	1213.66
948.915	1331.51
952.29	1478.66
955.665	1740.54
959.04	2262.14
962.414	3246.57
965.789	5228.35
969.164	8834.42
972.539	13913.4
975.914	21948.7
979.288	30584.2
982.663	25101.4
986.038	12254.7
989.413	5804.89
992.788	3251.17
996.163	2004.79
999.537	1402.36
1002.91	1061.98
1006.29	839.678
1009.66	674.052
1013.04	491.743
1016.41	309.701
1019.79	170.337
1023.16	67.6675
1026.54	20.0312
1029.91	28.4985
1033.29	42.23
1036.66	27.5625
1040.04	15.8423
1043.41	17.9497
1046.79	62.6089
1050.16	122.758
1053.53	206.7
1056.91	246.061
1060.28	192.048
1063.66	179.668
1067.03	148.996
1070.41	119.407
1073.78	128.694
1077.16	289.1
1080.53	438.304
1083.91	897.252
1087.28	1600.5
1090.66	415.015
1094.03	176.63
1097.41	216.355
1100.78	309.639
1104.16	351.414
1107.53	290.487
1110.91	172.347
1114.28	67.9604
1117.66	39.3765
1121.03	54.7949
1124.41	77.5654
1127.78	103.524
1131.15	138.322
1134.53	147.609
1137.9	190.778
1141.28	233.428
1144.65	298.772
1148.03	366.037
1151.4	439.604
1154.78	519.934
1158.15	552.036
1161.53	519.028
1164.9	408.89
1168.28	289.484
1171.65	194.382
1175.03	113.466
1178.4	62.5449
1181.78	29.9253
1185.15	14.1411
1188.53	3.44385
1191.9	2.77783
1195.28	9.60303
1198.65	10.7959
1202.03	15.0298
1205.4	0.622559
1208.78	3.10547
1212.15	5.92383
1215.53	13.458
1218.9	10.7163
1222.28	22.4053
1225.65	15.5435
1229.03	1.15088
1232.4	2.30762
1235.78	1.39233
1239.15	9.62891
1242.52	18.0437
1245.9	31.7803
1249.27	34.2075
1252.65	33.8555
1256.02	44.2039
1259.4	50.3518
1262.77	44.2498
1266.15	47.3457
1269.52	40.1887
1272.9	21.7615
1276.27	23.8145
1279.65	22.9873
1283.02	18.4678
1286.4	12.5769
1289.77	18.5339
1293.15	13.456
1296.52	1.6875
1299.9	2.76465
