Measurement: Raman, 780 nm, unoriented, Raman Data Processed
Mineral: Caledonite
Rruff sample: R060506
Ideal chemistry: Cu^2+^_2_Pb^2+^_5_(S^6+^O_4_)_3_(CO_3_)(OH)_6_
Locality: Rowley mine, Maricopa County, Arizona, USA
Source: Jim Ricker
Description: Blue prismatic crystals
Raman shift (cm-1)	intensity
100.72	0
104.095	7.9541
107.47	77.5102
110.845	152.093
114.219	221.946
117.594	227.244
120.969	170.299
124.344	123.641
127.719	69.0446
131.094	57.6553
134.468	50.2302
137.843	59.1476
141.218	69.3311
144.593	61.8004
147.968	37.4671
151.342	12.7082
154.717	0.574127
158.092	11.2969
161.467	7.94922
164.842	1.08499
168.216	6.25626
171.591	13.5212
174.966	21.2951
178.341	31.3191
181.716	41.3165
185.09	49.7478
188.465	55.2593
191.84	58.3934
195.215	60.8512
198.59	65.1639
201.965	68.269
205.339	74.2937
208.714	80.5358
212.089	84.1266
215.464	84.4307
218.839	80.4971
222.214	80.9858
225.588	81.8982
228.963	82.0533
232.338	81.4815
235.713	79.1085
239.088	73.8487
242.462	69.0772
245.837	65.084
249.212	57.2247
252.587	44.7008
255.962	34.1014
259.336	24.3783
262.711	18.7509
266.086	13.0936
269.461	8.93335
272.836	4.88994
276.211	3.29735
279.585	3.31944
282.96	0.480408
286.335	0.080078
289.71	1.29475
293.085	2.98144
296.459	5.56763
299.834	8.24249
303.209	13.5067
306.584	16.2914
309.959	21.0414
313.334	22.3803
316.708	23.8143
320.083	22.0294
323.458	19.5685
326.833	17.8118
330.207	17.1888
333.582	16.7733
336.957	19.1998
340.332	21.6864
343.707	17.3715
347.082	15.5279
350.456	9.73242
353.831	4.63744
357.206	1.42322
360.581	0.620956
363.956	0.395645
367.33	0.98233
370.705	1.79188
374.08	3.03506
377.455	0.090317
380.83	0.987656
384.205	0.389923
387.579	0.67099
390.954	1.82678
394.329	5.0064
397.704	8.11942
401.079	11.3796
404.453	18.6738
407.828	27.0034
411.203	38.7764
414.578	53.3556
417.953	71.1187
421.327	93.9963
424.702	119.311
428.077	135.85
431.452	148.655
434.827	174.707
438.202	228.111
441.576	267.226
444.951	245.82
448.326	256.875
451.701	300.155
455.076	273.192
458.45	199.093
461.825	126.464
465.2	77.1577
468.575	51.4752
471.95	36.6117
475.325	29.1255
478.699	22.7222
482.074	17.9028
485.449	14.5112
488.824	11.461
492.199	8.89271
495.573	6.84525
498.948	4.58442
502.323	4.28939
505.698	1.72265
509.073	1.63619
512.447	1.35616
515.822	1.08405
519.197	0.317871
522.572	0.451897
525.947	0.021271
529.322	0.958755
532.696	0.3806
536.071	0.360931
539.446	0.310028
542.821	0.129578
546.196	0.535492
549.57	0.223495
552.945	0.426514
556.32	0.750839
559.695	2.05215
563.07	1.52288
566.444	1.44458
569.819	2.49314
573.194	2.40824
576.569	3.85039
579.944	4.2294
583.319	5.12346
586.693	8.63368
590.068	9.35405
593.443	15.1776
596.818	21.4506
600.193	29.2299
603.567	40.9441
606.942	53.3368
610.317	47.8508
613.692	32.698
617.067	21.6365
620.442	17.9
623.816	15.8297
627.191	12.6765
630.566	12.4158
633.941	10.7247
637.316	9.6986
640.69	13.4056
644.065	15.1365
647.44	8.26935
650.815	4.08666
654.19	1.7015
657.564	1.23076
660.939	0.220093
664.314	0.416702
667.689	0.551765
671.064	0.460617
674.439	0.289459
677.813	0.54393
681.188	0.529358
684.563	1.14101
687.938	0.460991
691.313	0.137802
694.688	0.296722
698.062	0.447044
701.437	1.96407
704.812	3.92331
708.187	10.3915
711.562	20.437
714.936	32.3112
718.311	51.2356
721.686	64.7338
725.061	53.4518
728.436	20.7033
731.81	7.73984
735.185	2.4415
738.56	0.450089
741.935	0.749474
745.31	1.07304
748.684	0.141548
752.059	0.292923
755.434	0.706268
758.809	1.80594
762.184	1.50675
765.559	2.52161
768.933	2.57491
772.308	5.10713
775.683	4.55487
779.058	6.93774
782.433	7.66222
785.808	8.53198
789.182	9.58594
792.557	11.1495
795.932	10.9459
799.307	11.6037
802.682	11.3971
806.056	11.0647
809.431	11.0825
812.806	12.9143
816.181	12.1004
819.556	13.2766
822.93	13.9738
826.305	14.1593
829.68	14.8988
833.055	15.969
836.43	16.6992
839.804	17.7562
843.179	17.3958
846.554	18.3641
849.929	18.1114
853.304	17.5856
856.679	16.6108
860.053	16.4693
863.428	13.5513
866.803	10.5496
870.178	10.3752
873.553	7.0599
876.927	5.20596
880.302	4.25349
883.677	2.96742
887.052	1.76368
890.427	0.950974
893.802	0.870514
897.176	1.74978
900.551	0.504288
903.926	1.21478
907.301	1.51357
910.676	0.896927
914.05	0.985428
917.425	0.774292
920.8	1.57277
924.175	4.63481
927.55	9.50461
930.924	15.8639
934.299	24.5108
937.674	31.5898
941.049	40.1219
944.424	42.4026
947.799	49.4531
951.173	56.5573
954.548	70.4778
957.923	92.6459
961.298	134.44
964.673	209.988
968.047	333.579
971.422	499.397
974.797	709.409
978.172	903.597
981.547	831.484
984.922	492.295
988.296	246.27
991.671	136.405
995.046	85.7099
998.421	56.3906
1001.8	41.8693
1005.17	32.4755
1008.54	24.5385
1011.92	16.9949
1015.29	11.6399
1018.67	7.42734
1022.04	4.06533
1025.42	0.342377
1028.79	0.645515
1032.17	1.08495
1035.54	0.437347
1038.92	0.325897
1042.29	0.977196
1045.67	2.72826
1049.04	4.28635
1052.42	7.35072
1055.79	10.0658
1059.17	8.09359
1062.54	7.42561
1065.92	6.61317
1069.29	6.47398
1072.67	10.2469
1076.04	17.3538
1079.42	30.126
1082.79	47.689
1086.17	42.688
1089.54	15.1914
1092.92	7.74078
1096.29	7.90264
1099.66	9.81626
1103.04	10.4304
1106.41	8.26342
1109.79	5.34998
1113.16	2.0911
1116.54	0.297874
1119.91	0.167252
1123.29	0.605309
1126.66	1.24764
1130.04	2.47753
1133.41	1.36874
1136.79	2.92092
1140.16	6.67313
1143.54	6.66166
1146.91	9.34628
1150.29	11.7434
1153.66	15.2625
1157.04	16.8157
1160.41	17.862
1163.79	14.8386
1167.16	11.2169
1170.54	7.55434
1173.91	4.74027
1177.29	2.67844
1180.66	1.35357
1184.04	0.218445
1187.41	0.150978
1190.79	0.321983
1194.16	0.457932
1197.54	0.309303
1200.91	0.162651
1204.28	0.054596
1207.66	0.231239
1211.03	1.85939
1214.41	1.18541
1217.78	1.30897
1221.16	0.893745
1224.53	0.914513
1227.91	1.08343
1231.28	0.605141
1234.66	1.05336
1238.03	1.87353
1241.41	0.727325
1244.78	0.494675
1248.16	1.44451
1251.53	1.3181
1254.91	1.59449
1258.28	2.11985
1261.66	0.437279
1265.03	1.22907
1268.41	1.77834
1271.78	1.2474
1275.16	0.523254
1278.53	1.04189
1281.9	0.466019
