Measurement: Raman, 532 nm, unoriented, Raman Data Processed
Mineral: Carbonatecyanotrichite
Rruff sample: R060600
Ideal chemistry: Cu^2+^_4_Al_2_CO_3_(OH)_12_2H_2_O
Locality: Jomac mine, San Juan County, Utah, USA
Source: Michael Scott
Description: Blue spherical aggregates associated with gypsum and antlerite
Raman shift (cm-1)	intensity
136.348	0
139.723	0.41648
143.098	0.468792
146.473	0.518066
149.848	0.53864
153.222	0.485536
156.597	0.123532
159.972	0.098912
163.347	0.429913
166.722	0.318008
170.097	0.193165
173.471	0.153051
176.846	0.275282
180.221	0.061502
183.596	0.465707
186.971	0.601214
190.345	0.846173
193.72	0.883994
197.095	1.53382
200.47	0.965242
203.845	0.613415
207.22	1.24784
210.594	1.05569
213.969	1.87833
217.344	2.61301
220.719	3.53754
224.094	4.36816
227.469	6.0132
230.843	7.2748
234.218	7.81302
237.593	6.66629
240.968	5.1142
244.343	4.89065
247.717	4.12652
251.092	3.72117
254.467	3.52804
257.842	3.88379
261.217	4.10801
264.591	4.34247
267.966	5.34717
271.341	6.61701
274.716	6.99963
278.091	6.54565
281.466	5.43079
284.84	3.51057
288.215	1.86461
291.59	1.08981
294.965	0.920829
298.34	0.079123
301.714	0.490516
305.089	0.405595
308.464	0.14212
311.839	0.032456
315.214	0.371831
318.589	0.481815
321.963	0.240839
325.338	0.400498
328.713	0.590861
332.088	0.14245
335.463	0.737807
338.837	1.93046
342.212	0.934587
345.587	0.892394
348.962	1.2625
352.337	1.32607
355.712	0.816906
359.086	0.954185
362.461	0.846599
365.836	0.385123
369.211	0.890323
372.586	0.415136
375.96	0.242648
379.335	0.492364
382.71	0.20024
386.085	0.065068
389.46	0.094904
392.834	0.09409
396.209	0.075564
399.584	0.410676
402.959	0.091573
406.334	0.247021
409.709	0.378057
413.083	0.001921
416.458	0.581846
419.833	0.701072
423.208	1.07594
426.583	2.14119
429.957	3.11397
433.332	3.74572
436.707	4.70363
440.082	5.06954
443.457	5.29321
446.832	4.84901
450.206	4.25985
453.581	3.63007
456.956	2.58743
460.331	1.54463
463.706	1.0049
467.08	0.956359
470.455	1.22122
473.83	0.867578
477.205	1.86836
480.58	2.2959
483.955	2.57241
487.329	3.53402
490.704	3.8943
494.079	5.52519
497.454	6.28942
500.829	7.32219
504.204	9.07547
507.578	10.1071
510.953	12.1525
514.328	13.7444
517.703	15.7434
521.078	16.9203
524.452	17.7748
527.827	17.4145
531.202	15.4769
534.577	12.7261
537.952	9.97737
541.327	6.72183
544.701	4.4973
548.076	3.33116
551.451	1.63955
554.826	1.12698
558.201	0.388543
561.575	0.149242
564.95	0.087334
568.325	0.457866
571.7	0.341983
575.075	0.635172
578.449	2.15132
581.824	4.39311
585.199	6.67995
588.574	8.26865
591.949	8.18395
595.323	6.98228
598.698	4.99752
602.073	3.62829
605.448	3.77545
608.823	2.85773
612.198	3.14377
615.572	2.26477
618.947	2.76281
622.322	1.81284
625.697	1.26965
629.072	0.913116
632.447	0.425941
635.821	0.098666
639.196	0.24804
642.571	0.087803
645.946	0.372205
649.321	0.067374
652.695	0.020336
656.07	0.390115
659.445	0.098814
662.82	0.604918
666.195	0.024972
669.569	0.40811
672.944	0.550628
676.319	0.469963
679.694	0.38778
683.069	0.783356
686.444	0.612913
689.818	0.219281
693.193	0.659343
696.568	0.731803
699.943	0.564875
703.318	0.46466
706.692	0.090049
710.067	0.486075
713.442	0.140965
716.817	0.227003
720.192	0.790329
723.567	0.398177
726.941	0.538831
730.316	0.838942
733.691	0.60182
737.066	0.660077
740.441	0.309006
743.816	0.715608
747.19	0.082156
750.565	0.220094
753.94	0.202737
757.315	0.811931
760.69	0.676956
764.064	0.483342
767.439	0.785166
770.814	0.128239
774.189	0.128384
777.564	0.010732
780.938	0.140005
784.313	0.781638
787.688	0.036606
791.063	0.510085
794.438	0.39122
797.813	0.438829
801.187	0.180805
804.562	0.207736
807.937	0.5143
811.312	0.805402
814.687	0.510161
818.062	0.530649
821.436	0.645082
824.811	0.886621
828.186	1.0079
831.561	0.892954
834.936	0.793303
838.31	0.86308
841.685	0.417188
845.06	0.421635
848.435	0.296582
851.81	0.381634
855.184	0.077259
858.559	0.329386
861.934	0.11144
865.309	0.219937
868.684	0.201773
872.059	0.089817
875.433	0.249409
878.808	0.390884
882.183	0.308505
885.558	0.346871
888.933	0.022656
892.308	0.60146
895.682	0.151578
899.057	0.237375
902.432	0.648882
905.807	0.392721
909.182	0.032547
912.556	0.052903
915.931	0.090012
919.306	0.061155
922.681	0.120155
926.056	1.01009
929.431	0.537739
932.805	0.380182
936.18	0.843989
939.555	0.580855
942.93	0.510641
946.305	1.16194
949.679	1.20897
953.054	2.03131
956.429	3.25394
959.804	5.00564
963.179	8.41716
966.553	15.5247
969.928	25.3041
973.303	36.2423
976.678	43.15
980.053	27.9511
983.428	12.3624
986.802	6.15634
990.177	3.71314
993.552	2.84023
996.927	1.93341
1000.3	1.27755
1003.68	0.919542
1007.05	1.22181
1010.43	0.379701
1013.8	0.273099
1017.18	0.701545
1020.55	0.014524
1023.92	0.311245
1027.3	0.146133
1030.67	0.059624
1034.05	0.098786
1037.42	0.098695
1040.8	0.305086
1044.17	0.365553
1047.55	0.250698
1050.92	0.17994
1054.3	0.141388
1057.67	0.404874
1061.05	0.28147
1064.42	0.368815
1067.8	0.19908
1071.17	0.319457
1074.55	0.12945
1077.92	0.509732
1081.3	0.177975
1084.67	0.520372
1088.05	0.116309
1091.42	0.47495
1094.8	0.513419
1098.17	0.840367
1101.55	0.99777
1104.92	0.713052
1108.3	1.08822
1111.67	0.998421
1115.05	1.01481
1118.42	0.996638
1121.8	1.21704
1125.17	1.16552
1128.55	1.32736
1131.92	1.09134
1135.29	1.29639
1138.67	1.23449
1142.04	1.0008
1145.42	0.812046
1148.79	0.460376
1152.17	0.460654
1155.54	0.517699
1158.92	0.454194
1162.29	0.404608
1165.67	0.267726
1169.04	0.572865
1172.42	0.70445
1175.79	0.401233
1179.17	0.312718
1182.54	0.274164
1185.92	0.328562
1189.29	0.101684
1192.67	0.528716
1196.04	0.383123
1199.42	0.571711
1202.79	0.24106
1206.17	0.070307
1209.54	0.493173
1212.91	0.507333
1216.29	0.23491
1219.66	0.431157
1223.04	0.127298
1226.41	0.012897
1229.79	0.171577
1233.16	0.169361
1236.54	0.814055
1239.91	0.614561
1243.29	0.262791
1246.66	0.408351
1250.04	0.048294
1253.41	0.579099
1256.79	0.607813
1260.16	0.463259
1263.54	0.497561
1266.91	0.214116
1270.29	0.097317
1273.66	0.387848
1277.04	0.071842
1280.41	0.31355
1283.79	0.392394
1287.16	0.175175
1290.54	0.212096
1293.91	0.603741
1297.29	0.443885
1300.66	0
