Measurement: Raman, 780 nm, unoriented, Raman Data Processed
Mineral: Carbonatecyanotrichite
Rruff sample: R060600
Ideal chemistry: Cu^2+^_4_Al_2_CO_3_(OH)_12_2H_2_O
Locality: Jomac mine, San Juan County, Utah, USA
Source: Michael Scott
Description: Blue spherical aggregates associated with gypsum and antlerite
Raman shift (cm-1)	intensity
183.041	0
185.934	0.262113
188.827	0.196208
191.719	0.09585
194.612	0.051463
197.505	0.643955
200.397	0.217112
203.29	0.737172
206.183	0.859516
209.076	0.781243
211.968	0.978549
214.861	1.15363
217.754	1.16049
220.646	1.77016
223.539	1.86044
226.432	1.82477
229.324	2.02564
232.217	2.02772
235.11	1.26476
238.002	1.59048
240.895	0.967605
243.788	1.11755
246.681	1.29743
249.573	1.42751
252.466	0.572996
255.359	1.05467
258.251	1.56384
261.144	1.42954
264.037	1.57695
266.93	1.94955
269.822	1.89269
272.715	2.25024
275.608	2.23745
278.5	1.53019
281.393	1.99769
284.286	0.956274
287.178	0.800775
290.071	0.287022
292.964	0.321169
295.856	0.523836
298.749	0.165113
301.642	0.201297
304.535	0.309886
307.427	0.03723
310.32	0.175198
313.213	0.391069
316.105	0.42399
318.998	0.294305
321.891	0.47333
324.784	0.415654
327.676	0.693189
330.569	0.2269
333.462	0.269719
336.354	0.72354
339.247	0.241835
342.14	0.652975
345.032	0.616736
347.925	0.957724
350.818	0.95592
353.711	0.86857
356.603	0.435544
359.496	0.500067
362.389	0.237564
365.281	0.224637
368.174	0.659678
371.067	0.56431
373.959	0.109592
376.852	0.009731
379.745	0.203276
382.637	0.406743
385.53	0.430688
388.423	0.339233
391.316	0.072631
394.208	0.069433
397.101	0.047002
399.994	0.233603
402.886	0.377126
405.779	0.223191
408.672	0.885473
411.565	0.010732
414.457	0.535766
417.35	0.577066
420.243	0.615805
423.135	0.92219
426.028	0.982238
428.921	0.506675
431.813	1.52175
434.706	1.67656
437.599	1.46577
440.492	1.83984
443.384	1.76252
446.277	1.47784
449.17	1.80361
452.062	1.60478
454.955	1.43159
457.848	1.01999
460.74	1.1163
463.633	0.755507
466.526	0.430152
469.419	0.19652
472.311	0.111422
475.204	0.355303
478.097	0.119644
480.989	0.690168
483.882	0.157855
486.775	0.435744
489.668	0.449053
492.56	0.877248
495.453	0.606943
498.346	1.27101
501.238	0.92043
504.131	1.20751
507.024	1.52571
509.916	1.81515
512.809	1.96033
515.702	2.07158
518.595	2.6305
521.487	3.1476
524.38	2.8427
527.273	3.94351
530.165	3.05641
533.058	2.57269
535.951	2.58361
538.843	1.6922
541.736	1.13056
544.629	0.524246
547.521	0.66973
550.414	0.395293
553.307	0.729623
556.2	0.28422
559.092	0.224297
561.985	0.600894
564.878	0.316025
567.77	0.164559
570.663	0.665942
573.556	0.29951
576.448	0.682874
579.341	1.54556
582.234	2.08034
585.127	2.65706
588.019	2.54569
590.912	1.50702
593.805	1.44322
596.697	1.21712
599.59	0.957061
602.483	1.11636
605.375	0.674742
608.268	0.822073
611.161	1.01722
614.054	0.827387
616.946	0.503447
619.839	0.035996
622.732	0.50286
625.625	1.30582
628.517	0.650469
631.41	0.497915
634.303	0.193201
637.195	0.060811
640.088	0.23289
642.981	0.435149
645.873	0.254979
648.766	0.186866
651.659	0.539094
654.552	0.484591
657.444	0.096585
660.337	0.479356
663.23	0.05158
666.122	0.223113
669.015	0.517211
671.908	0.129041
674.8	0.282529
677.693	0.358456
680.586	0.634481
683.479	0.641604
686.371	0.512254
689.264	0.208589
692.157	0.924328
695.049	0.511006
697.942	0.26003
700.835	0.447774
703.727	0.324813
706.62	0.794861
709.513	0.220039
712.405	0.712216
715.298	0.356782
718.191	0.528992
721.084	0.690539
723.976	0.724058
726.869	0.55972
729.762	0.704865
732.654	0.316926
735.547	0.444407
738.44	0.406121
741.332	0.33009
744.225	0.33468
747.118	0.39249
750.011	0.457929
752.903	0.812204
755.796	0.635085
758.689	1.07799
761.581	0.312988
764.474	0.485936
767.367	0.82166
770.26	0.126575
773.152	0.155854
776.045	0.521318
778.938	0.896826
781.83	0.026269
784.723	0.727491
787.616	0.340085
790.508	0.220563
793.401	0.42958
796.294	0.031643
799.187	0.450169
802.079	0.771928
804.972	0.444483
807.865	0.387333
810.757	0.315861
813.65	0.120691
816.543	0.892313
819.435	0.405313
822.328	0.615558
825.221	0.571452
828.114	0.386105
831.006	0.409477
833.899	0.457355
836.792	0.838831
839.684	0.635288
842.577	0.312351
845.47	0.492658
848.362	0.04434
851.255	0.725792
854.148	0.248609
857.04	0.404576
859.933	0.614934
862.826	0.397748
865.719	0.146382
868.611	0.614438
871.504	1.03153
874.397	0.046033
877.289	0.547576
880.182	0.095505
883.075	0.056872
885.967	0.489435
888.86	0.348706
891.753	0.50703
894.646	0.634768
897.538	0.253763
900.431	0.25895
903.324	0.238971
906.216	0.014583
909.109	0.13913
912.002	0.118808
914.894	0.713605
917.787	0.051665
920.68	0.494143
923.573	0.100548
926.465	0.571416
929.358	0.68011
932.251	0.425182
935.143	0.267838
938.036	0.657486
940.929	0.560101
943.822	0.776043
946.714	0.743502
949.607	1.05209
952.5	0.421061
955.392	1.05879
958.285	1.63901
961.178	1.54818
964.07	2.94265
966.963	4.46459
969.856	6.39906
972.749	7.25596
975.641	7.98181
978.534	6.47192
981.427	5.52165
984.319	3.78329
987.212	3.37938
990.105	1.93707
992.997	1.56572
995.89	1.63081
998.783	0.743493
1001.68	0.966985
1004.57	0.346509
1007.46	0.406919
1010.35	0.024652
1013.25	0.650277
1016.14	0.915229
1019.03	0.824015
1021.92	0.832751
1024.82	0.077671
1027.71	0.216854
1030.6	0.916109
1033.49	0.179714
1036.39	0.634092
1039.28	0.457417
1042.17	0.252999
1045.07	0.259628
1047.96	0.304411
1050.85	0.330901
1053.74	0.551188
1056.64	0.55456
1059.53	0.766475
1062.42	0.502819
1065.32	0.485137
1068.21	0.185253
1071.1	0.253078
1073.99	0.194399
1076.89	0.445008
1079.78	0.276217
1082.67	0.759071
1085.56	0.518194
1088.46	0.788723
1091.35	0.567405
1094.24	0.710349
1097.13	0.419492
1100.03	0.287208
1102.92	0.514243
1105.81	0.537095
1108.71	0.328429
1111.6	0.694472
1114.49	0.870345
1117.38	0.472827
1120.28	0.474871
1123.17	0.597949
1126.06	0.562807
1128.95	0.873924
1131.85	0.196699
1134.74	0.095986
1137.63	0.494329
1140.53	0.050943
1143.42	0.547628
1146.31	0.116754
1149.2	0.570533
1152.1	0.599788
1154.99	0.555088
1157.88	0.377412
1160.77	0.185457
1163.67	0.502975
1166.56	0.308871
1169.45	0.03032
1172.35	0.594045
1175.24	0.417693
1178.13	0.577648
1181.02	0.503758
1183.92	0.991278
1186.81	0.616393
1189.7	0.796214
1192.59	0.124151
1195.49	0.195648
1198.38	0.237979
1201.27	0.475321
1204.16	0.93607
1207.06	0.020502
1209.95	0.20799
1212.84	0.362351
1215.73	0.358521
1218.63	0.734505
1221.52	0.559501
1224.41	0.510089
1227.31	0.272437
1230.2	0.511528
1233.09	0.062071
1235.98	0.523569
1238.88	0.494156
1241.77	0.450529
1244.66	0.768837
1247.56	0.397833
1250.45	0.692715
1253.34	0.764649
1256.23	0.038958
1259.13	0.055272
1262.02	0.486148
1264.91	0.397756
1267.8	0.307122
1270.7	0.540417
1273.59	0.108239
1276.48	0.316826
1279.38	0.386655
1282.27	0
