Measurement: Raman, 532 nm, unoriented, Raman Data RAW
Mineral: Cascandite
Rruff sample: R061048
Ideal chemistry: CaSc^3+^Si_3_O_8_(OH)
Locality: Seula Quarry, Baveno, Verbano-Cusio-Ossola, Piedmont, Italy
Source: Michael Scott
Description: Orange plates
Raman shift (cm-1)	intensity
141.021	42015.8
143.914	43843.7
146.807	45933.9
149.7	48606.8
152.592	51677.2
155.485	53474.4
158.378	54315.5
161.27	54870.4
164.163	55961.8
167.056	57043.3
169.948	58566.3
172.841	59896.6
175.734	61058.6
178.626	62264.3
181.519	63254.3
184.412	64611.2
187.305	65842.9
190.197	66929.3
193.09	67488.9
195.983	68060
198.875	67975.7
201.768	67743.9
204.661	67191.9
207.554	66701.8
210.446	65873.9
213.339	64773.1
216.232	64046.1
219.124	63300.5
222.017	62385.5
224.91	61702
227.802	61182.4
230.695	60795.1
233.588	60555.4
236.481	60378.8
239.373	60291.5
242.266	60324.8
245.159	60287.9
248.051	60252.9
250.944	60314.4
253.837	60497.6
256.729	60926.8
259.622	61492
262.515	62071.2
265.408	62735.1
268.3	63829.5
271.193	64887
274.086	65778.9
276.978	66345.9
279.871	67271.5
282.764	67647.3
285.656	67627.3
288.549	67412.2
291.442	66960.8
294.335	66206.8
297.227	65323.8
300.12	64433.3
303.013	63604.4
305.905	62899.5
308.798	62285.5
311.691	61753.1
314.584	61449
317.476	60975.7
320.369	61017.9
323.262	61105.1
326.154	61288.7
329.047	61500.5
331.94	62115.6
334.832	62679.6
337.725	63878.4
340.618	65010
343.51	66502.3
346.403	67957.3
349.296	69989.8
352.189	71863.1
355.081	74273.6
357.974	76239.8
360.867	78261.6
363.759	80197.9
366.652	81741.6
369.545	83114.1
372.438	83998.6
375.33	84305.7
378.223	84325
381.116	84162.7
384.008	83874.4
386.901	83333.1
389.794	82714.6
392.686	82500.2
395.579	82492.9
398.472	82477.6
401.365	82467.4
404.257	82782.8
407.15	83067.4
410.043	83143.7
412.935	83127.5
415.828	82760.4
418.721	82164.8
421.613	81113.1
424.506	80485.2
427.399	79628.9
430.291	79375.7
433.184	78897.4
436.077	78958.7
438.97	79549.2
441.862	80383
444.755	81297.8
447.648	82379.2
450.54	83093.2
453.433	83684.7
456.326	84062.5
459.219	83947.6
462.111	83961.6
465.004	84055.8
467.897	84899.5
470.789	85986.8
473.682	87537.2
476.575	90043.9
479.467	92319.5
482.36	94730.2
485.253	96758.1
488.146	98769.9
491.038	99930.1
493.931	100915
496.824	101720
499.716	101966
502.609	102714
505.502	103431
508.394	103872
511.287	104160
514.18	104387
517.072	103741
519.965	103258
522.858	102423
525.751	101684
528.643	101057
531.536	100587
534.429	100498
537.321	100195
540.214	100073
543.107	99818.8
546	99867.7
548.892	99766.2
551.785	99833.6
554.678	99801
557.57	100130
560.463	100456
563.356	100524
566.248	100669
569.141	100629
572.034	100652
574.927	100412
577.819	100031
580.712	99754
583.605	100298
586.497	101087
589.39	101738
592.283	103009
595.175	104709
598.068	106462
600.961	108501
603.854	110659
606.746	112294
609.639	114362
612.532	115572
615.424	116680
618.317	117499
621.21	118083
624.102	117988
626.995	117765
629.888	116848
632.78	116071
635.673	114562
638.566	113131
641.459	112111
644.351	110388
647.244	109425
650.137	108136
653.029	107122
655.922	106367
658.815	105759
661.707	105199
664.6	104916
667.493	104478
670.386	104199
673.278	104091
676.171	103888
679.064	103310
681.956	102571
684.849	101592
687.742	100435
690.635	98676.9
693.527	97398.3
696.42	95653.1
699.313	94039.6
702.205	92063.3
705.098	90536.8
707.991	88714.3
710.883	87037.1
713.776	85279.2
716.669	83987.8
719.562	82236.5
722.454	80857.5
725.347	79507.4
728.24	77933.2
731.132	76858.5
734.025	75522.4
736.918	74453.1
739.81	73506.3
742.703	72923.1
745.596	72058.8
748.489	71687.2
751.381	71094.2
754.274	71104.5
757.167	70744.4
760.059	70574
762.952	70418.9
765.845	70570.1
768.737	70226
771.63	70136.6
774.523	69924.1
777.415	69724.8
780.308	69562.8
783.201	69164.5
786.094	69050.3
788.986	68595.1
791.879	68292.1
794.772	67785.8
797.664	67065.7
800.557	66633.5
803.45	65917.5
806.342	65251.1
809.235	64219.4
812.128	62997.8
815.021	62040.1
817.913	61051.4
820.806	59778.3
823.699	58524.7
826.591	57234.7
829.484	56022.9
832.377	54907.9
835.269	53834.9
838.162	52892.9
841.055	51801.2
843.948	50819.5
846.84	50051.4
849.733	49341
852.626	48477
855.519	47945.1
858.411	47299.9
861.304	46919.3
864.197	46332.8
867.089	45890.8
869.982	45075.4
872.875	44393.4
875.767	43637.2
878.66	42708.9
881.553	41597.4
884.446	40402.9
887.338	39269.7
890.231	37896.9
893.124	36691.1
896.016	35552.3
898.909	34172.2
901.802	33121.1
904.694	31879.3
907.587	30804.1
910.48	29871.9
913.372	28928.1
916.265	27945.8
919.158	27046.1
922.051	26277.4
924.943	25602.7
927.836	24797.3
930.729	24334
933.621	23674.2
936.514	23062.7
939.407	22559
942.299	22097.2
945.192	21634.3
948.085	21234.2
950.978	20834.9
953.87	20487.7
956.763	20005.3
959.656	19691
962.548	19338.7
965.441	18973.5
968.334	18711.9
971.226	18302.3
974.119	18199.7
977.012	17847.1
979.905	17577.2
982.797	17344.2
985.69	17113.8
988.583	16905.2
991.475	16662.3
994.368	16417.1
997.261	16255.3
1000.15	15977.8
1003.05	15830.3
1005.94	15775.7
1008.83	15607.9
1011.72	15301.9
1014.62	15204.1
1017.51	15051.8
1020.4	14981.5
1023.29	14787.6
1026.19	14583.9
1029.08	14471.3
1031.97	14317.3
1034.87	14239
1037.76	14093.7
1040.65	13995.4
1043.54	13944.3
1046.44	13800.4
1049.33	13606.8
1052.22	13501.2
1055.12	13363
1058.01	13261.8
1060.9	13140.7
1063.79	13021.9
1066.69	12858.2
1069.58	12724.2
1072.47	12667.6
1075.36	12543.1
1078.26	12356.6
1081.15	12292.6
1084.04	12271.6
1086.93	12076
1089.83	11954.9
1092.72	11871.4
1095.61	11722.5
1098.51	11656.7
1101.4	11525
1104.29	11371.7
1107.18	11283.4
1110.08	11159.4
1112.97	11007
1115.86	10943.8
1118.75	10890.4
1121.65	10744.2
1124.54	10651.8
1127.43	10543
1130.33	10366.5
1133.22	10290.4
1136.11	10108.9
1139	10048.7
1141.9	9936.45
1144.79	9817.59
1147.68	9679.49
1150.57	9600.01
1153.47	9448.44
1156.36	9342.49
1159.25	9222.38
1162.14	9134.12
1165.04	9043.13
1167.93	8910.62
1170.82	8821.32
1173.72	8623.78
1176.61	8513.06
1179.5	8564.36
1182.39	8422.48
1185.29	8313.12
1188.18	8255.86
1191.07	8228.91
1193.96	8164.62
1196.86	8010.37
1199.75	7961.27
1202.64	7864.91
1205.54	7830.54
1208.43	7756.23
1211.32	7656.18
1214.21	7620.29
1217.11	7640.24
1220	7643.39
1222.89	7515.55
1225.78	7523.65
1228.68	7456.53
1231.57	7393.56
1234.46	7422.34
1237.36	7363.69
1240.25	7334.6
1243.14	7324.56
1246.03	7229
1248.93	7230.39
1251.82	7210.74
1254.71	7185.61
1257.6	7167.37
1260.5	7176.92
1263.39	7165.23
1266.28	7127.01
1269.17	7126.05
1272.07	7104.32
1274.96	7088.8
1277.85	7154.4
1280.74	7106.38
1283.64	7118.55
1286.53	7135.82
1289.42	7068.08
1292.32	7045.83
1295.21	7061.88
