Measurement: Raman, 785 nm, unoriented, Raman Data RAW
Mineral: Cascandite
Rruff sample: R061048
Ideal chemistry: CaSc^3+^Si_3_O_8_(OH)
Locality: Seula Quarry, Baveno, Verbano-Cusio-Ossola, Piedmont, Italy
Source: Michael Scott
Description: Orange plates
Raman shift (cm-1)	intensity
122.756	1332.82
125.648	1964.27
128.541	2877.9
131.434	3828.26
134.327	4668.57
137.219	5247.62
140.112	6312.47
143.005	8269.27
145.897	10625.9
148.79	12597.9
151.683	13879.7
154.576	14453.8
157.468	14914.9
160.361	15715.4
163.254	16906.2
166.146	18246.4
169.039	19277.9
171.932	19967
174.824	20454.1
177.717	21063.6
180.61	21768.4
183.502	22352.4
186.395	23070.2
189.288	23484
192.181	24034.4
195.073	24327.2
197.966	24687.3
200.859	24769
203.751	24939.4
206.644	24813.9
209.537	24668.2
212.429	24622.1
215.322	24385.1
218.215	24197.8
221.108	24224.8
224	24176.9
226.893	24037
229.786	24038
232.678	23976.7
235.571	24037.4
238.464	24254.2
241.357	24575
244.249	24799.4
247.142	25166.8
250.035	25524.4
252.927	26087.2
255.82	26672.4
258.713	27398.7
261.605	28102.5
264.498	28973.2
267.391	29859.4
270.284	30867
273.176	31871.8
276.069	32651.5
278.962	33582.8
281.854	34330.2
284.747	34967.6
287.64	35345.3
290.532	35585.2
293.425	35756.5
296.318	35725.4
299.211	35724.3
302.103	35712.5
304.996	35628
307.889	35658.2
310.781	35666
313.674	35524.2
316.567	35380.8
319.459	35486.6
322.352	35552.5
325.245	35705.5
328.137	35995.3
331.03	36466
333.923	36658.1
336.816	36937.9
339.708	37308.3
342.601	37507.3
345.494	38125.4
348.386	38502.6
351.279	38768.2
354.172	39356.2
357.065	39735.2
359.957	40110.9
362.85	40520.8
365.743	40815.9
368.635	41167.1
371.528	41623.5
374.421	41765.3
377.313	41875.1
380.206	41704.8
383.099	41297.5
385.991	40626.6
388.884	39942.3
391.777	39051.7
394.67	38192.2
397.562	36990.3
400.455	35971.8
403.348	34872.7
406.24	33727.6
409.133	32746.4
412.026	31874.4
414.918	31121.7
417.811	30635.2
420.704	29951.5
423.597	29473.6
426.489	29037.9
429.382	28754.2
432.275	28576
435.167	28299.9
438.06	28292.7
440.953	28202.6
443.846	28216.3
446.738	28076.8
449.631	28133.8
452.524	28177.1
455.416	28160.2
458.309	28110.1
461.202	27965.9
464.094	27852.2
466.987	27675.5
469.88	27524.8
472.772	27332.6
475.665	27009.6
478.558	26616.4
481.451	26359.8
484.343	26027.8
487.236	25716.1
490.129	25356.8
493.021	25066.1
495.914	24664.6
498.807	24356.9
501.7	23942.3
504.592	23810.5
507.485	23501.6
510.378	23309.7
513.27	23095.5
516.163	23013.4
519.056	22814.9
521.948	22708.1
524.841	22732.3
527.734	22856.5
530.626	22946.9
533.519	23056.8
536.412	23161.6
539.305	23584.1
542.197	23772.2
545.09	24138.7
547.983	24546.4
550.875	25039.8
553.768	25474.7
556.661	26080.9
559.553	26702.6
562.446	27267.3
565.339	27774.2
568.232	28378.1
571.124	28827
574.017	29325.1
576.91	29820.3
579.802	30185.5
582.695	30498.2
585.588	30587.8
588.481	30782.7
591.373	30769
594.266	30656.6
597.159	30567.9
600.051	30307.2
602.944	29848.3
605.837	29601.7
608.729	29000.5
611.622	28395.5
614.515	27749.9
617.408	27116.8
620.3	26488.5
623.193	25692.5
626.086	25029.7
628.978	24467.2
631.871	23625.9
634.764	23008.4
637.656	22321.2
640.549	21790
643.442	21213.4
646.335	20755.4
649.227	20241.9
652.12	19894.4
655.013	19475.5
657.905	19054.7
660.798	18728.7
663.691	18367.8
666.583	18073.5
669.476	17931.9
672.369	17691.2
675.261	17303.5
678.154	17037.2
681.047	16658.1
683.94	16403.3
686.832	15990.4
689.725	15706.9
692.618	15326.5
695.51	14942.6
698.403	14596.5
701.296	14310
704.188	14028.5
707.081	13774.5
709.974	13626.2
712.867	13321.2
715.759	13132.8
718.652	12989.1
721.545	12818.6
724.437	12566.3
727.33	12393.4
730.223	12243.5
733.115	12072.4
736.008	11821.6
738.901	11675.8
741.794	11615.1
744.686	11375.5
747.579	11277.7
750.472	11011.9
753.364	10816
756.257	10677.3
759.15	10418.7
762.043	10287
764.935	10140.5
767.828	10023.8
770.721	9801.26
773.613	9729.99
776.506	9578.23
779.399	9431.97
782.291	9322.37
785.184	9212.59
788.077	9206.95
790.97	9073.27
793.862	9010.39
796.755	8923.44
799.648	8791.95
802.54	8744.83
805.433	8749.47
808.326	8668.16
811.218	8539.21
814.111	8459.24
817.004	8416.92
819.896	8283.56
822.789	8292.61
825.682	8214.12
828.575	8125.54
831.467	7965.68
834.36	7998.38
837.253	7836.35
840.145	7704.94
843.038	7669.86
845.931	7650.07
848.823	7529.32
851.716	7433.59
854.609	7379.71
857.502	7260.34
860.394	7165.09
863.287	7104.59
866.18	7129.76
869.072	6985.45
871.965	6930.63
874.858	6794.19
877.75	6705.22
880.643	6599.48
883.536	6454
886.429	6365.21
889.321	6178.97
892.214	6073.11
895.107	5944.61
898	5820.88
900.892	5754.01
903.785	5661.48
906.678	5588.4
909.57	5490.92
912.463	5356.77
915.356	5286.29
918.248	5225.01
921.141	5183.99
924.034	5126.08
926.927	5086.38
929.819	5046.61
932.712	5027.36
935.605	4980.45
938.497	4971.77
941.39	4950.15
944.283	5023.33
947.175	4995.51
950.068	4975.79
952.961	4931.04
955.854	4975.35
958.746	5013.15
961.639	5013.64
964.532	5081.39
967.424	5069.55
970.317	5079.45
973.21	5075.89
976.102	5182.41
978.995	5196.22
981.888	5250.39
984.78	5298.35
987.673	5391.78
990.566	5373.13
993.459	5515.03
996.351	5523.44
999.244	5641.08
1002.14	5682.61
1005.03	5819.94
1007.92	5876.56
1010.82	5963.93
1013.71	6085.44
1016.6	6177.87
1019.49	6249.22
1022.39	6390.67
1025.28	6498.68
1028.17	6657.25
1031.06	6705.68
1033.96	6888.61
1036.85	7070.58
1039.74	7147.77
1042.63	7360.19
1045.53	7475.38
1048.42	7706.08
1051.31	7888.21
1054.2	8066.74
1057.1	8325.18
1059.99	8544.03
1062.88	8787.02
1065.78	9004.08
1068.67	9275.12
1071.56	9491.73
1074.45	9829.84
1077.35	10100.9
1080.24	10454.8
1083.13	10752.5
1086.03	11083.5
1088.92	11538.5
1091.81	11988.5
1094.7	12395.4
1097.6	12873.5
1100.49	13321.8
1103.38	13857.7
1106.27	14459.4
1109.17	15091.6
1112.06	15654.4
1114.95	16251.3
1117.85	17007.2
1120.74	17763.5
1123.63	18532
1126.52	19284
1129.42	20170
1132.31	20890.2
1135.2	21977.5
1138.09	22930.1
1140.99	23824.1
1143.88	24846.5
1146.77	25840.4
1149.66	27161.7
1152.56	28217.2
1155.45	29566.3
1158.34	30860.1
1161.23	32255.4
1164.13	33796.2
1167.02	35386.4
1169.91	37074.2
1172.81	38909.5
