Measurement: Raman, 785 nm, unoriented, Raman Data RAW
Mineral: Cerite-(Ce)
Rruff sample: R060708
Ideal chemistry: (Ce,La,Ca)_9_(Mg,Fe^3+^)(SiO_4_)_3_(SiO_3_OH)_4_(OH)_3_
Locality: Bastnas, Riddarhyttan, Sweden
Source: Bob Jenkins
Description: Pink thin but massive crystalline coating
Measured chemistry: (Ce_4.01_Nd_1.78_La_1.76_Ca_0.73_Pr_0.48_Y_0.14_Sm^+2^_0.10_Eu^+2^_0.09_)_Σ=9.09_(Mg_0.78_Fe_0.23_)_Σ=1.01_(Si_1.07_O_4_)_6.000_(SiO_3_OH)(OH_1.66_F_1.31_Cl_0.03_)_Σ=3.00_; OH by stoichiometry
Raman shift (cm-1)	intensity
123.939	409.935
126.831	669.705
129.724	894.685
132.617	993.494
135.509	959.273
138.402	1054.01
141.295	1417.76
144.188	1929.18
147.08	2294.08
149.973	2574.66
152.866	2527.63
155.758	2526.46
158.651	2622.32
161.544	2836.9
164.436	3105.88
167.329	3334.82
170.222	3490.07
173.115	3590.24
176.007	3636.5
178.9	3790.95
181.793	3864.75
184.685	4043.05
187.578	4132.25
190.471	4292.76
193.363	4376.4
196.256	4526.04
199.149	4645.07
202.042	4730.2
204.934	4805.1
207.827	4825.94
210.72	4858.06
213.612	4893.87
216.505	4927.87
219.398	4954.71
222.29	5006.55
225.183	4943.04
228.076	4927.04
230.969	4994.61
233.861	5052.71
236.754	5115.69
239.647	5175.19
242.539	5250.45
245.432	5361.1
248.325	5471.6
251.217	5680
254.11	5790.33
257.003	5986.09
259.896	6227.11
262.788	6552.63
265.681	6721.7
268.574	6978.53
271.466	7180.85
274.359	7464.66
277.252	7739.77
280.144	8065.13
283.037	8410.37
285.93	8635.12
288.823	8770.29
291.715	8944.51
294.608	9088.92
297.501	9153.8
300.393	9280.1
303.286	9487.93
306.179	9535.31
309.071	9508.89
311.964	9583.38
314.857	9553.95
317.75	9717.84
320.642	9624.63
323.535	9753.5
326.428	9900.66
329.32	10039.7
332.213	10198.8
335.106	10152.7
337.998	10146.5
340.891	10129.8
343.784	10060.7
346.677	10156.4
349.569	10142
352.462	10120.6
355.355	10046.4
358.247	9946.89
361.14	9815.31
364.033	9683.67
366.925	9640.82
369.818	9660.95
372.711	9625.91
375.603	9583.9
378.496	9462.86
381.389	9458.08
384.282	9296.2
387.174	9307.02
390.067	9271.03
392.96	9311.41
395.852	9412.98
398.745	9393.27
401.638	9381.88
404.53	9441.29
407.423	9423.36
410.316	9430.92
413.209	9424.41
416.101	9504.92
418.994	9529.2
421.887	9473.15
424.779	9507.76
427.672	9407
430.565	9291.39
433.457	9181.58
436.35	9083.43
439.243	9058.15
442.136	9039.67
445.028	8929.2
447.921	8882.17
450.814	8739.63
453.706	8655.2
456.599	8552.69
459.492	8521.14
462.384	8441.25
465.277	8473.33
468.17	8336.22
471.063	8319.47
473.955	8199.82
476.848	8167.33
479.741	8164.75
482.633	8095.63
485.526	8184.7
488.419	8117.58
491.311	8150.18
494.204	8108.88
497.097	8132.62
499.99	8151.58
502.882	8056.74
505.775	8078.94
508.668	8018.09
511.56	7995.14
514.453	8012.85
517.346	7948.5
520.239	7906.95
523.131	7787.06
526.024	7786.19
528.917	7733.23
531.809	7641.46
534.702	7517.47
537.595	7479.18
540.487	7415.66
543.38	7325.9
546.273	7226.85
549.166	7138.81
552.058	7163.7
554.951	7084.81
557.844	7010.89
560.736	7007.48
563.629	6919.09
566.522	6872.72
569.414	6762.04
572.307	6797.17
575.2	6777.76
578.093	6738.11
580.985	6690.01
583.878	6675.42
586.771	6651.18
589.663	6599.08
592.556	6523.33
595.449	6504.91
598.341	6452.22
601.234	6435.38
604.127	6462.85
607.019	6265.32
609.912	6319.69
612.805	6235.32
615.698	6141.36
618.59	6132.62
621.483	6034.52
624.376	5955.35
627.268	5953.68
630.161	5837.99
633.054	5708.73
635.946	5649.84
638.839	5543.77
641.732	5493.69
644.625	5370.4
647.517	5293.92
650.41	5156.21
653.303	5051.25
656.195	4975.5
659.088	4853.14
661.981	4750.2
664.873	4564.79
667.766	4501.17
670.659	4372.42
673.552	4262.33
676.444	4179.02
679.337	4077.98
682.23	3953.67
685.122	3826.51
688.015	3747.55
690.908	3697.17
693.8	3578.93
696.693	3514.43
699.586	3433.09
702.479	3343.17
705.371	3287.15
708.264	3269.76
711.157	3214.21
714.049	3168.75
716.942	3076.81
719.835	3027.34
722.727	2961.37
725.62	2915.54
728.513	2876.65
731.406	2826.47
734.298	2779.02
737.191	2737.86
740.084	2711.77
742.976	2699.97
745.869	2532.25
748.762	2582.57
751.654	2579.28
754.547	2573.73
757.44	2466.65
760.333	2432.36
763.225	2418.3
766.118	2400.03
769.011	2315.94
771.903	2274.63
774.796	2240.37
777.689	2230.44
780.581	2192.04
783.474	2180.69
786.367	2142.84
789.26	2129.12
792.152	2059.95
795.045	2044.98
797.938	1996.48
800.83	1909.81
803.723	1901.1
806.616	1840.08
809.508	1862.22
812.401	1817.54
815.294	1809.18
818.187	1766.15
821.079	1760.21
823.972	1746.74
826.865	1747.73
829.757	1752.67
832.65	1728.14
835.543	1733.21
838.435	1715.87
841.328	1732.73
844.221	1750.75
847.114	1753.28
850.006	1791.27
852.899	1816.47
855.792	1890.19
858.684	1933.95
861.577	1909.69
864.47	1896.9
867.362	1853.13
870.255	1802.85
873.148	1775.86
876.041	1729.47
878.933	1710.3
881.826	1713.01
884.719	1731.79
887.611	1726.73
890.504	1747.18
893.397	1759.72
896.289	1793.6
899.182	1763.3
902.075	1832.98
904.968	1830.41
907.86	1851.32
910.753	1866.44
913.646	1891.8
916.538	1885.04
919.431	1932.26
922.324	1970.09
925.216	2013.14
928.109	2039.54
931.002	2086.46
933.894	2112.29
936.787	2177.43
939.68	2213.99
942.573	2251.12
945.465	2339.67
948.358	2341.8
951.251	2431.98
954.143	2476.33
957.036	2550.68
959.929	2616.38
962.821	2661.31
965.714	2731.89
968.607	2779.67
971.5	2874.31
974.392	2954.2
977.285	3056.62
980.178	3149.48
983.07	3222.1
985.963	3317.22
988.856	3453.45
991.748	3491.86
994.641	3585.87
997.534	3761.68
1000.43	3946.65
1003.32	4088.46
1006.21	4176.8
1009.11	4440.22
1012	4515.73
1014.89	4701.7
1017.78	4964.81
1020.68	5104.92
1023.57	5377.48
1026.46	5590.91
1029.35	5874.62
1032.25	6140.59
1035.14	6357.76
1038.03	6736.97
1040.92	7054.85
1043.82	7410.41
1046.71	7759.8
1049.6	8209.99
1052.49	8565.89
1055.39	9055.73
1058.28	9504.01
1061.17	9943.54
1064.07	10507
1066.96	11066.4
1069.85	11716.1
1072.74	12307
1075.64	13074.8
1078.53	13788
1081.42	14546.5
1084.32	15416.9
1087.21	16319.2
1090.1	17322.4
1092.99	18325.2
1095.89	19508.5
1098.78	20666.7
1101.67	21839
1104.56	23341.5
1107.46	24688.2
1110.35	26260.2
1113.24	28008.8
1116.13	29965.2
1119.03	32060.3
1121.92	34130.9
1124.81	36616
1127.7	39046.4
1130.6	41829.3
1133.49	44523.4
1136.38	47660.7
1139.28	50870.4
1142.17	54311.8
1145.06	57738.2
1147.95	61498.9
1150.85	65015.9
1153.74	68612.9
1156.63	72048.2
1159.53	75379.2
1162.42	78643.8
1165.31	81397.2
1168.2	84179.5
1171.1	86732.1
1173.99	89123.7
1176.88	91018.7
1179.77	92536.5
1182.67	93657.8
1185.56	94826.9
1188.45	95637.7
1191.35	96925.4
1194.24	97259.9
1197.13	98092.2
1200.02	98454.6
1202.92	98491.3
1205.81	98342.5
1208.7	97554.2
1211.59	96855.4
1214.49	95920
1217.38	94608.5
1220.27	92964
1223.16	90942.4
1226.06	88587.8
1228.95	86126
1231.84	84148.5
1234.73	81966.2
1237.63	79956.5
1240.52	78503.5
1243.41	76554.8
1246.31	74962.5
1249.2	73841.4
1252.09	72688.5
1254.98	71948.3
1257.88	71571.8
1260.77	71359.8
