Measurement: Raman, 780 nm, unoriented, Raman Data RAW
Mineral: Chayesite
Rruff sample: R080059
Ideal chemistry: KMg_4_Fe^3+^[Si_12_O_30_]
Locality: Pauliberg by Landsee, Burgenland, Austria
Source: Michael Scott
Description: Deep blue interior of hexagonal tablets that are reddish brown on the outside
Measured chemistry: (K_0.70_Na_0.30_)_Σ=1_(Mg_2.10_Fe^2+^_1.86_Mn_0.04_)_Σ=4_(Fe^3+^_0.89_Al_0.11_)_Σ=1_Si_12.00_O_30_ ;  lighter core :  Fe^2+^ and Fe^3+^ split by charge balance
Raman shift (cm-1)	intensity
92.1907	0
95.5656	5090.44
98.9404	4641.21
102.315	4256.92
105.69	4102.66
109.065	4036.71
112.44	4002.74
115.814	3980.61
119.189	3981.12
122.564	3976.23
125.939	3977.57
129.314	3981.8
132.689	3974.75
136.063	3976.92
139.438	3971.97
142.813	3966.81
146.188	3969.53
149.563	3964.16
152.937	3966.05
156.312	3965.32
159.687	3959.59
163.062	3954.81
166.437	3950.87
169.811	3948.75
173.186	3944.77
176.561	3938.68
179.936	3934.87
183.311	3925.83
186.686	3926.95
190.06	3923.65
193.435	3917.18
196.81	3910.82
200.185	3919.78
203.56	3906.07
206.935	3910.63
210.309	3905.95
213.684	3911.89
217.059	3904.16
220.434	3900.1
223.809	3898.46
227.183	3899.23
230.558	3892.77
233.933	3879.74
237.308	3879.87
240.683	3879.77
244.058	3871.09
247.432	3869.69
250.807	3872.45
254.182	3869.47
257.557	3860.83
260.932	3860.93
264.306	3852.86
267.681	3853.48
271.056	3853.57
274.431	3840.71
277.806	3835
281.18	3828.86
284.555	3829.16
287.93	3825.19
291.305	3823.25
294.68	3816.04
298.055	3815.55
301.429	3809.49
304.804	3816.59
308.179	3804.11
311.554	3812.61
314.929	3810.25
318.303	3816.38
321.678	3814.62
325.053	3815.04
328.428	3813.29
331.803	3812.01
335.178	3814.35
338.552	3808.04
341.927	3809.32
345.302	3807.03
348.677	3803.15
352.052	3801.74
355.426	3796.89
358.801	3801.33
362.176	3794.99
365.551	3789.61
368.926	3791.72
372.3	3793.79
375.675	3789.83
379.05	3780.41
382.425	3783.48
385.8	3775.82
389.175	3779.49
392.549	3783.93
395.924	3789.04
399.299	3792.09
402.674	3791.8
406.049	3794.65
409.423	3797.25
412.798	3801.68
416.173	3798.96
419.548	3810.7
422.923	3815.66
426.298	3814.07
429.672	3811.99
433.047	3807.71
436.422	3815.72
439.797	3807.96
443.172	3811.86
446.546	3810.93
449.921	3810.65
453.296	3811.21
456.671	3816.97
460.046	3821.76
463.421	3831.82
466.795	3820.85
470.17	3836.74
473.545	3830.98
476.92	3818.86
480.295	3822.79
483.669	3828.18
487.044	3829.01
490.419	3824.34
493.794	3832.19
497.169	3831.6
500.543	3823.97
503.918	3827.41
507.293	3831.72
510.668	3830.56
514.043	3836.62
517.418	3838.88
520.792	3826.46
524.167	3837.87
527.542	3831.86
530.917	3825.05
534.292	3822.12
537.667	3818.31
541.041	3821.76
544.416	3820.23
547.791	3818.72
551.166	3823.97
554.541	3823.88
557.915	3827.93
561.29	3829.84
564.665	3827.11
568.04	3829.66
571.415	3835.08
574.789	3836.88
578.164	3832.18
581.539	3835.23
584.914	3839.64
588.289	3853.84
591.664	3853.7
595.038	3850.28
598.413	3853.1
601.788	3853.83
605.163	3853.26
608.538	3854.18
611.913	3852.17
615.287	3859.83
618.662	3862.09
622.037	3863.54
625.412	3870.16
628.787	3868.3
632.161	3868.26
635.536	3871.75
638.911	3870.07
642.286	3870.47
645.661	3871.4
649.035	3874.55
652.41	3870.67
655.785	3869.14
659.16	3879.17
662.535	3884.5
665.909	3883.51
669.284	3893.89
672.659	3885.02
676.034	3883.91
679.409	3888.98
682.784	3889.22
686.158	3901.79
689.533	3903.08
692.908	3907
696.283	3906.79
699.658	3915.94
703.033	3912.78
706.407	3921.59
709.782	3926.16
713.157	3935.47
716.532	3938.26
719.907	3940.49
723.281	3943.2
726.656	3942.44
730.031	3944.12
733.406	3950.39
736.781	3960.25
740.155	3962.44
743.53	3962.55
746.905	3968.97
750.28	3976.7
753.655	3984.15
757.03	3981.57
760.404	3986.18
763.779	4000.07
767.154	4003.84
770.529	4019.57
773.904	4017.72
777.279	4021.33
780.653	4024.02
784.028	4035
787.403	4041.46
790.778	4046.89
794.153	4054.52
797.527	4071.65
800.902	4076.04
804.277	4073.54
807.652	4097.69
811.027	4096.21
814.402	4101.05
817.776	4117.38
821.151	4118.66
824.526	4126.83
827.901	4135.9
831.276	4144.79
834.65	4147.9
838.025	4151.67
841.4	4153.64
844.775	4153.32
848.15	4159.34
851.524	4165.08
854.899	4179.91
858.274	4173.72
861.649	4180.31
865.024	4195.58
868.399	4194.41
871.773	4200.83
875.148	4198.61
878.523	4208.24
881.898	4210.34
885.273	4217.67
888.647	4227.11
892.022	4246.64
895.397	4243.12
898.772	4241.62
902.147	4244.79
905.521	4252.84
908.896	4254.03
912.271	4268.41
915.646	4276.3
919.021	4279.74
922.396	4286.47
925.77	4295.28
929.145	4309.06
932.52	4310.47
935.895	4307.51
939.27	4312.04
942.644	4331.59
946.019	4327.72
949.394	4337.34
952.769	4337.34
956.144	4349.12
959.519	4358.9
962.893	4358.18
966.268	4359.79
969.643	4362.2
973.018	4365.06
976.393	4376.86
979.768	4380.16
983.142	4383.3
986.517	4397.4
989.892	4412.72
993.267	4416.92
996.641	4439.59
1000.02	4444.02
1003.39	4443.18
1006.77	4453.94
1010.14	4458.17
1013.52	4468.24
1016.89	4475.81
1020.26	4491.28
1023.64	4496.36
1027.02	4508.27
1030.39	4514.3
1033.77	4523.98
1037.14	4538.51
1040.51	4535.41
1043.89	4553.73
1047.26	4550.75
1050.64	4574.52
1054.01	4572.11
1057.39	4585.11
1060.76	4591.75
1064.14	4599.68
1067.51	4610.18
1070.89	4614.71
1074.26	4624.77
1077.64	4637.63
1081.01	4641.81
1084.39	4654.02
1087.76	4653.19
1091.14	4660.37
1094.51	4661.04
1097.89	4669.29
1101.26	4675.86
1104.64	4679.17
1108.01	4691.29
1111.38	4701.73
1114.76	4705.74
1118.13	4713.74
1121.51	4731.89
1124.88	4745.02
1128.26	4747.38
1131.63	4762.6
1135.01	4781.75
1138.38	4786.32
1141.76	4799.27
1145.13	4807.02
1148.51	4825
1151.88	4841.08
1155.26	4857.05
1158.63	4863.49
1162.01	4876.51
1165.38	4883.33
1168.76	4892.28
1172.13	4909.34
1175.51	4926.01
1178.88	4933.36
1182.26	4942.29
1185.63	4955.73
1189.01	4962.81
1192.38	4972.49
1195.76	4975.92
1199.13	4988.07
1202.51	5005.4
1205.88	5009.73
1209.26	5017.35
1212.63	5023.44
1216.01	5038.1
1219.38	5040.66
1222.75	5056.36
1226.13	5056.54
1229.5	5073.64
1232.88	5088.95
1236.25	5106.38
1239.63	5120.7
1243	5119.26
1246.38	5152.38
1249.75	5154.57
1253.13	5172.17
1256.5	5177.02
1259.88	5183.42
1263.25	5191.09
1266.63	5205.02
1270	5210.42
1273.38	5221.34
1276.75	5228.45
1280.13	5236.25
1283.5	5256.36
