Measurement: Raman, 780 nm, unoriented, Raman Data Processed
Mineral: Chlorophoenicite
Rruff sample: R140135
Ideal chemistry: (Mn^2+^,Mg,Zn^2+^)_3_Zn^2+^_2_As^5+^O_4_(OH,O)_6_
Locality: Franklin, Franklin Mining District, Sussex County, New Jersey, USA
Source: Rock Currier
Description: Colorless acicular crystals on pyrochroite
Raman shift (cm-1)	intensity
146.401	0
149.293	0.085022
152.186	1.44785
155.079	2.03442
157.971	0.70134
160.864	2.74263
163.757	2.63011
166.649	2.15689
169.542	2.50334
172.435	0.16745
175.328	1.10069
178.22	0.227783
181.113	0.402252
184.006	0.219482
186.898	0.134735
189.791	0.895233
192.684	0.787186
195.577	1.92226
198.469	1.69998
201.362	2.0305
204.255	3.64117
207.147	4.28018
210.04	3.83243
212.933	3.26015
215.825	6.25331
218.718	6.04628
221.611	8.79683
224.504	9.08002
227.396	7.9343
230.289	6.12007
233.182	4.49928
236.074	4.13428
238.967	3.91768
241.86	2.82585
244.752	3.67017
247.645	1.82761
250.538	2.08386
253.43	2.84581
256.323	2.54312
259.216	1.39413
262.109	2.12509
265.001	2.72403
267.894	1.86223
270.787	0.242096
273.679	0.971313
276.572	1.68092
279.465	1.26408
282.358	0.359879
285.25	1.36583
288.143	1.09607
291.036	2.16821
293.928	0.852158
296.821	1.42393
299.714	0.740295
302.606	0.305756
305.499	0.057068
308.392	0.216019
311.284	0.170486
314.177	0.241028
317.07	0.137177
319.963	1.38016
322.855	0.778473
325.748	0.189957
328.641	0.858002
331.533	1.35753
334.426	2.57001
337.319	3.0853
340.212	4.5638
343.104	4.47089
345.997	4.577
348.89	5.43019
351.782	4.31279
354.675	4.05305
357.568	4.66624
360.46	4.52789
363.353	3.38892
366.246	4.16234
369.139	4.31755
372.031	3.9008
374.924	3.29709
377.817	3.76335
380.709	3.90886
383.602	3.82445
386.495	5.70752
389.387	4.61597
392.28	5.05653
395.173	4.59288
398.065	3.27109
400.958	3.18451
403.851	1.7142
406.744	2.35985
409.636	0.700363
412.529	1.0227
415.422	0.922333
418.314	1.07982
421.207	1.94161
424.1	2.78648
426.993	0.712845
429.885	1.58292
432.778	0.736481
435.671	0.794312
438.563	1.3839
441.456	0.276917
444.349	0.08783
447.241	0.121552
450.134	0.084427
453.027	0.554413
455.92	0.396545
458.812	0.968445
461.705	0.890411
464.598	0.569153
467.49	0.771179
470.383	0.68219
473.276	0.697845
476.168	1.21777
479.061	0.824402
481.954	2.05174
484.846	1.81818
487.739	3.32587
490.632	4.50674
493.525	3.19957
496.417	5.94307
499.31	6.35332
502.203	6.92671
505.095	7.61696
507.988	7.49023
510.881	6.37468
513.774	5.08047
516.666	4.00249
519.559	2.4342
522.452	2.2655
525.344	2.6723
528.237	1.86261
531.13	1.34691
534.022	1.37735
536.915	1.46085
539.808	0.71376
542.701	1.87997
545.593	0.048523
548.486	1.06128
551.379	0.064026
554.271	0.736221
557.164	0.181107
560.057	0.223938
562.949	0.03833
565.842	0.189926
568.735	1.06636
571.628	0.740067
574.52	0.544861
577.413	1.56877
580.306	0.517242
583.198	2.10489
586.091	0.911209
588.984	1.19276
591.876	0.167725
594.769	1.11391
597.662	0.733521
600.555	3.71693
603.447	1.34683
606.34	1.29835
609.233	0.611496
612.125	0.656342
615.018	0.467285
617.911	2.7585
620.803	0.946228
623.696	0.356812
626.589	0.730881
629.482	0.973373
632.374	1.46382
635.267	2.37819
638.16	1.35395
641.052	0.684715
643.945	1.51623
646.838	0.839394
649.731	0.5625
652.623	0.274353
655.516	0.510712
658.409	0.55864
661.301	0.234695
664.194	0.154358
667.087	1.11203
669.979	0.166199
672.872	0.626465
675.765	0.766266
678.658	0.601295
681.55	0.170448
684.443	0.38752
687.336	0.838371
690.228	0.329262
693.121	0.853325
696.014	0.443146
698.906	0.475777
701.799	0.072258
704.692	0.60704
707.585	1.21295
710.477	1.02997
713.37	0.916718
716.263	0.639839
719.155	0.757027
722.048	0.210823
724.941	0.33873
727.833	0.673172
730.726	0.019539
733.619	1.16456
736.511	0.121765
739.404	0.258217
742.297	1.14608
745.19	0.549347
748.082	0.845795
750.975	0.356255
753.868	0.254021
756.76	0.635933
759.653	1.08224
762.546	1.46993
765.438	0.025574
768.331	0.056396
771.224	0.898514
774.117	1.98577
777.009	2.258
779.902	2.39986
782.795	3.40568
785.687	4.88911
788.58	6.08515
791.473	7.87708
794.365	10.3338
797.258	13.6301
800.151	15.2093
803.044	17.738
805.936	17.9168
808.829	14.9369
811.722	12.4333
814.614	10.0538
817.507	6.64475
820.4	4.28172
823.293	4.35697
826.185	3.49516
829.078	2.23705
831.971	1.98592
834.863	1.01584
837.756	1.70905
840.649	0.766457
843.541	1.82659
846.434	1.64237
849.327	1.33431
852.22	1.31218
855.112	1.83373
858.005	1.51955
860.898	1.25355
863.79	1.46018
866.683	2.68316
869.576	2.42341
872.468	2.72714
875.361	3.1052
878.254	4.08256
881.146	4.26637
884.039	5.90061
886.932	6.24015
889.825	7.18282
892.717	7.56922
895.61	5.91099
898.503	5.24646
901.395	3.71767
904.288	3.32855
907.181	1.31128
910.073	1.4686
912.966	0.319962
915.859	0.441681
918.752	0.092819
921.644	0.358917
924.537	0.059563
927.43	0.468506
930.322	0.561546
933.215	0.948692
936.108	0.414742
939	0.170952
941.893	0.473595
944.786	0.002457
947.679	1.01131
950.571	0.251808
953.464	0.01284
956.357	0.701202
959.249	0.371758
962.142	0.035789
965.035	0.201981
967.928	1.17556
970.82	1.32232
973.713	1.05716
976.606	1.76415
979.498	1.09607
982.391	1.23851
985.284	1.30679
988.176	1.19319
991.069	1.54215
993.962	2.02016
996.855	0.923897
999.747	0.619469
1002.64	1.3621
1005.53	0.835503
1008.42	1.99921
1011.32	0.976257
1014.21	1.41757
1017.1	1.75437
1020	1.13213
1022.89	0.550217
1025.78	1.16627
1028.67	0.923569
1031.57	0.315712
1034.46	1.51963
1037.35	0.500313
1040.24	1.25269
1043.14	0.363129
1046.03	1.14867
1048.92	1.19016
1051.82	1.47755
1054.71	1.01675
1057.6	0.450836
1060.49	1.18619
1063.39	0.807549
1066.28	0.911278
1069.17	1.35909
1072.07	0.521744
1074.96	1.07867
1077.85	0.899689
1080.74	1.31431
1083.63	1.40313
1086.53	1.13275
1089.42	1.23118
1092.31	0.427025
1095.21	0.678673
1098.1	0.769875
1100.99	0.774734
1103.88	1.33907
1106.78	0.12001
1109.67	0.939629
1112.56	0.88884
1115.45	0.596786
1118.35	0.189369
1121.24	0.041985
1124.13	0.268257
1127.03	0.214531
1129.92	0.463272
1132.81	1.06491
1135.7	1.44378
1138.6	0.543823
1141.49	0.681122
1144.38	1.50941
1147.28	4.6641
1150.17	0.830818
1153.06	1.23389
1155.95	1.58553
1158.85	1.93093
1161.74	1.3885
1164.63	1.91674
1167.52	1.57215
1170.42	1.95602
1173.31	1.24249
1176.2	0.982826
1179.1	0.83017
1181.99	1.10965
1184.88	0.818947
1187.77	1.50008
1190.66	1.24654
1193.56	0.995018
1196.45	0.114563
1199.34	0.772331
1202.24	0.09951
1205.13	1.42083
1208.02	1.35803
1210.91	0.758286
1213.81	0.570709
1216.7	1.17888
1219.59	0.813957
1222.48	0.619324
1225.38	0.442955
1228.27	0.144661
1231.16	0.329262
1234.06	0.061028
1236.95	1.06741
1239.84	0.434074
1242.73	0.813232
1245.63	0.513847
1248.52	1.15604
1251.41	0.026108
1254.31	0.572823
1257.2	0.32946
1260.09	0.640587
1262.98	0.02449
1265.88	0.542282
1268.77	0.598701
1271.66	1.62402
1274.55	0.887115
1277.45	0.842888
1280.34	1.31868
