Measurement: Raman, 780 nm, unoriented, Raman Data Processed
Mineral: Chlormayenite
Rruff sample: R140780
Ideal chemistry: Ca_12_Al_14_O_32_[[box]_4_Cl_2_]
Locality: Caspar quarry, Bellerberg volcano, Ettringen, Mayen, Eifel, Rhineland-Palatinate, Germany
Source: Ch. and H. Sch√§fer
Description: Colorless beige massive. Associated with green ternesite, black-brown jasmundite, small black grains of srebodolskite, ettringite and portlandite.
Raman shift (cm-1)	intensity
116.992	0
120.366	0.230225
123.741	6.23309
127.116	2.31
130.491	4.41394
133.865	0.246399
137.24	1.38037
140.615	5.85529
143.99	0.295105
147.365	3.96393
150.74	1.20429
154.114	1.33826
157.489	1.34766
160.864	0.341003
164.239	6.54321
167.614	4.78742
170.988	8.7478
174.363	22.4949
177.738	12.8659
181.113	7.82758
184.488	4.81891
187.863	4.02429
191.237	3.49585
194.612	4.30633
197.987	10.6682
201.362	6.61175
204.737	3.89838
208.112	0.830994
211.486	3.59454
214.861	4.01691
218.236	0.554016
221.611	5.12329
224.986	4.16089
228.36	1.07819
231.735	4.59949
235.11	5.26111
238.485	2.38098
241.86	6.69031
245.234	11.783
248.609	15.0532
251.984	12.5045
255.359	5.55536
258.734	7.03229
262.109	5.16217
265.483	6.16748
268.858	4.13495
272.233	1.41571
275.608	0.151917
278.983	0.472717
282.358	0.107605
285.732	2.27563
289.107	7.96191
292.482	3.94568
295.857	9.39349
299.232	14.4605
302.606	19.9836
305.981	17.0551
309.356	8.68781
312.731	9.97076
316.106	2.67548
319.481	6.82959
322.855	7.11792
326.23	7.54907
329.605	4.8092
332.98	7.02417
336.355	4.48718
339.729	3.3844
343.104	0.65686
346.479	4.18896
349.854	0.671509
353.229	1.65222
356.603	0.318604
359.978	3.71021
363.353	4.71228
366.728	4.58252
370.103	5.27966
373.478	2.52283
376.852	0.942383
380.227	2.38464
383.602	0.702393
386.977	0.324585
390.352	2.25915
393.726	7.45398
397.101	10.6106
400.476	16.265
403.851	19.5721
407.226	21.3767
410.601	25.9673
413.975	19.3525
417.35	17.2903
420.725	16.8834
424.1	20.136
427.475	24.2025
430.849	23.7749
434.224	24.8075
437.599	21.4143
440.974	17.9193
444.349	12.3911
447.724	12.6664
451.098	12.4132
454.473	7.98193
457.848	6.28442
461.223	4.98181
464.598	1.55981
467.972	2.99487
471.347	1.93115
474.722	0.086304
478.097	3.16602
481.472	0.938599
484.846	0.923706
488.221	0.510254
491.596	2.44312
494.971	1.5686
498.346	1.75732
501.721	5.40601
505.095	5.26318
508.47	12.9719
511.845	15.9492
515.22	15.6152
518.595	19.8434
521.97	11.0676
525.344	13.6451
528.719	11.704
532.094	12.4169
535.469	10.0577
538.844	9.1654
542.218	11.9108
545.593	9.30994
548.968	10.8798
552.343	8.7356
555.718	6.15381
559.092	5.11304
562.467	6.83679
565.842	6.63672
569.217	3.91797
572.592	5.03613
575.967	3.42236
579.341	2.01807
582.716	8.34802
586.091	1.41638
589.466	3.2439
592.841	0.841187
596.216	0.989014
599.59	3.28589
602.965	4.86523
606.34	5.35156
609.715	7.25464
613.09	7.39954
616.464	5.5354
619.839	6.51233
623.214	4.68799
626.589	9.98498
629.964	8.51611
633.338	12.5763
636.713	10.7104
640.088	5.39587
643.463	0.971313
646.838	1.19043
650.213	0.01416
653.587	3.44104
656.962	6.17908
660.337	4.26562
663.712	5.98547
667.087	3.46484
670.462	2.30896
673.836	1.38049
677.211	5.64185
680.586	4.80627
683.961	3.5835
687.336	3.63318
690.71	7.03845
694.085	7.35828
697.46	2.52039
700.835	1.43811
704.21	0.771362
707.585	1.02246
710.959	2.89294
714.334	0.925171
717.709	0.722046
721.084	0.135132
724.459	1.98853
727.833	4.60559
731.208	7.09241
734.583	8.02087
737.958	6.07764
741.333	10.0474
744.707	7.7218
748.082	4.51086
751.457	0.723267
754.832	0.27771
758.207	1.34839
761.582	1.53272
764.956	2.65478
768.331	1.20691
771.706	0.683838
775.081	0.286987
778.456	3.55969
781.83	2.97241
785.205	9.30029
788.58	12.0806
791.955	7.52905
795.33	12.5159
798.705	18.4191
802.079	24.648
805.454	40.2706
808.829	84.0512
812.204	142.117
815.579	96.8374
818.953	43.6427
822.328	23.5107
825.703	21.7528
829.078	21.4807
832.453	31.9548
835.827	44.1805
839.202	54.1002
842.577	39.0924
845.952	27.8193
849.327	20.0514
852.702	20.5074
856.076	25.2208
859.451	29.6532
862.826	10.4873
866.201	4.46899
869.576	5.70813
872.951	6.81543
876.325	2.86585
879.7	3.36377
883.075	6.11169
886.45	9.47778
889.825	4.77258
893.199	1.93787
896.574	4.44641
899.949	2.87927
903.324	5.7124
906.699	6.97546
910.073	2.54431
913.448	0.203491
916.823	3.03101
920.198	4.70373
923.573	17.135
926.948	16.7135
930.322	9.63001
933.697	6.18152
937.072	5.77246
940.447	2.53162
943.822	0.694702
947.197	0.799805
950.571	0.877686
953.946	1.24145
957.321	2.37109
960.696	2.63745
964.071	1.06482
967.445	7.07007
970.82	4.23291
974.195	4.92432
977.57	8.43896
980.945	12.4342
984.319	6.07288
987.694	13.6473
991.069	8.01465
994.444	6.52612
997.819	9.23608
1001.19	2.29431
1004.57	1.85852
1007.94	0.567017
1011.32	6.97607
1014.69	9.58801
1018.07	6.24878
1021.44	0.980835
1024.82	5.96912
1028.19	3.46326
1031.57	9.26306
1034.94	9.90698
1038.32	5.7915
1041.69	9.35901
1045.07	1.58752
1048.44	2.19507
1051.82	8.8844
1055.19	7.60571
1058.57	13.797
1061.94	10.8657
1065.32	10.6614
1068.69	8.54944
1072.07	8.56799
1075.44	15.3586
1078.81	11.0433
1082.19	12.6822
1085.56	9.84985
1088.94	12.5341
1092.31	7.51453
1095.69	7.89331
1099.06	4.63171
1102.44	3.59167
1105.81	7.87402
1109.19	9.32129
1112.56	0.120605
1115.94	5.61707
1119.31	6.24194
1122.69	0.459351
1126.06	1.38953
1129.44	6.37793
1132.81	8.71411
1136.19	13.0488
1139.56	10.9028
1142.94	6.82153
1146.31	13.3315
1149.69	13.0391
1153.06	17.5796
1156.43	19.4546
1159.81	19.5459
1163.18	14.6274
1166.56	15.22
1169.93	13.8313
1173.31	9.74756
1176.68	11.625
1180.06	11.3767
1183.43	1.60278
1186.81	6.81787
1190.18	3.4834
1193.56	0.777588
1196.93	0.769531
1200.31	4.76514
1203.68	1.72974
1207.06	1.48828
1210.43	3.91138
1213.81	4.39697
1217.18	1.47217
1220.56	1.27393
1223.93	7.60449
1227.31	2.41772
1230.68	7.71558
1234.06	10.7019
1237.43	6.01856
1240.81	8.85132
1244.18	15.031
1247.56	9.27246
1250.93	9.57935
1254.31	16.5039
1257.68	19.2725
1261.05	20.8965
1264.43	15.9126
1267.8	16.165
1271.18	17.5962
1274.55	10.0452
1277.93	2.6228
1281.3	0.038818
