Measurement: Raman, 532 nm, unoriented, Raman Data Processed
Mineral: Chlormayenite
Rruff sample: R140780
Ideal chemistry: Ca_12_Al_14_O_32_[[box]_4_Cl_2_]
Locality: Caspar quarry, Bellerberg volcano, Ettringen, Mayen, Eifel, Rhineland-Palatinate, Germany
Source: Ch. and H. Sch√§fer
Description: Colorless beige massive. Associated with green ternesite, black-brown jasmundite, small black grains of srebodolskite, ettringite and portlandite.
Raman shift (cm-1)	intensity
152.258	0
155.151	3.81284
158.044	2.63985
160.936	7.86845
163.829	23.9765
166.722	26.7588
169.614	30.7735
172.507	46.3717
175.4	65.9762
178.293	85.4917
181.185	103.769
184.078	32.5192
186.971	12.6889
189.863	12.0198
192.756	9.87797
195.649	5.03
198.542	2.3959
201.434	4.48619
204.327	3.18044
207.22	0.542953
210.112	2.03764
213.005	1.45018
215.898	1.40688
218.79	1.46399
221.683	3.57733
224.576	6.02266
227.469	4.81703
230.361	5.8634
233.254	10.7627
236.147	16.104
239.039	25.0547
241.932	29.7497
244.825	38.4406
247.717	57.9866
250.61	64.4383
253.503	44.9609
256.396	41.2143
259.288	46.3669
262.181	48.9905
265.074	57.0748
267.966	61.9707
270.859	34.761
273.752	13.792
276.644	6.24333
279.537	4.53427
282.43	2.92564
285.322	12.1429
288.215	13.3991
291.108	19.0986
294.001	25.2169
296.893	38.3237
299.786	58.9974
302.679	78.4158
305.571	73.2579
308.464	44.6912
311.357	26.2712
314.25	16.0755
317.142	8.86868
320.035	6.35222
322.928	5.41772
325.82	3.61557
328.713	4.05872
331.606	2.00879
334.498	2.7435
337.391	1.00281
340.284	1.43756
343.176	0.108994
346.069	0.52655
348.962	0.458847
351.855	0.295624
354.747	0.61232
357.64	1.16568
360.533	0.505005
363.425	0.051056
366.318	1.03848
369.211	0.565369
372.103	0.771027
374.996	0.920807
377.889	2.31549
380.782	6.9212
383.674	14.6818
386.567	25.9904
389.46	41.5648
392.352	63.9173
395.245	90.2475
398.138	116.208
401.031	109.234
403.923	96.5702
406.816	83.9868
409.709	68.8211
412.601	47.1272
415.494	31.3336
418.387	21.1964
421.279	16.0503
424.172	13.1737
427.065	7.98674
429.957	7.92017
432.85	4.50795
435.743	3.6115
438.636	3.02622
441.528	2.33824
444.421	2.46774
447.314	2.59215
450.206	1.8351
453.099	1.69652
455.992	2.53604
458.885	1.3335
461.777	0.399902
464.67	0.635651
467.563	1.2032
470.455	0.503799
473.348	0.152054
476.241	2.59587
479.133	1.17178
482.026	2.44778
484.919	2.75247
487.812	3.46191
490.704	2.56111
493.597	4.21045
496.49	3.41458
499.382	4.92186
502.275	5.25169
505.168	7.81459
508.06	13.1134
510.953	17.9888
513.846	22.2425
516.739	28.3832
519.631	35.5457
522.524	39.8007
525.417	37.1187
528.309	27.7874
531.202	20.7752
534.095	19.1267
536.987	16.4294
539.88	15.0138
542.773	14.1453
545.665	14.6369
548.558	17.3166
551.451	22.0203
554.344	22.9016
557.236	21.1088
560.129	16.8492
563.022	15.0992
565.914	14.9085
568.807	13.5395
571.7	8.61684
574.592	5.47623
577.485	3.12405
580.378	1.97209
583.271	2.70389
586.163	0.751511
589.056	0.343506
591.949	1.18826
594.841	0.106445
597.734	1.15625
600.627	0.392227
603.519	1.55309
606.412	0.3853
609.305	0.590775
612.198	1.34703
615.09	0.676346
617.983	3.07593
620.876	2.41482
623.768	3.89865
626.661	5.21181
629.554	7.00488
632.447	9.42882
635.339	10.7506
638.232	14.6234
641.125	17.8373
644.017	21.4852
646.91	27.2375
649.803	29.8297
652.695	34.9393
655.588	37.1246
658.481	37.0125
661.374	38.4571
664.266	34.1751
667.159	33.5568
670.052	30.1447
672.944	26.2112
675.837	24.5367
678.73	21.2065
681.622	18.625
684.515	17.2345
687.408	14.5326
690.301	11.5093
693.193	9.32846
696.086	8.33165
698.979	7.53067
701.871	7.5036
704.764	5.50485
707.657	3.61252
710.549	3.37686
713.442	3.76608
716.335	1.14554
719.227	2.72031
722.12	0.572479
725.013	1.35324
727.906	1.51581
730.798	2.08914
733.691	0.831879
736.584	0.537476
739.476	0.711243
742.369	0.265076
745.262	1.44498
748.154	0.736481
751.047	1.09601
753.94	0.752075
756.833	0.599487
759.725	0.880646
762.618	0.019409
765.511	0.175476
768.403	0.162476
771.296	0.115906
774.189	1.18372
777.082	2.05627
779.974	1.62601
782.867	2.1218
785.76	2.13107
788.652	4.91418
791.545	10.4164
794.438	21.6946
797.33	44.7511
800.223	97.3041
803.116	178.439
806.009	305.076
808.901	499.91
811.794	688.016
814.687	516.062
817.579	264.265
820.472	154.063
823.365	119.42
826.257	139.91
829.15	194.46
832.043	290.389
834.936	405.073
837.828	456.878
840.721	289.795
843.614	161.824
846.506	109.782
849.399	79.5748
852.292	78.4021
855.184	98.6205
858.077	115.83
860.97	64.347
863.863	23.3741
866.755	10.9173
869.648	10.4482
872.541	13.1026
875.433	13.3741
878.326	18.9981
881.219	30.7483
884.111	43.433
887.004	38.4172
889.897	18.0572
892.79	9.55847
895.682	7.89264
898.575	5.95157
901.468	1.76819
904.36	1.46356
907.253	0.111237
910.146	3.11029
913.038	11.7253
915.931	26.8456
918.824	51.9701
921.717	92.003
924.609	99.9207
927.502	48.946
930.395	19.2804
933.287	3.65485
936.18	1.48605
939.073	1.62647
941.966	1.66128
944.858	0.711548
947.751	1.01343
950.644	0.4758
953.536	1.74262
956.429	3.47409
959.322	6.78851
962.214	9.3501
965.107	10.4854
968	16.6438
970.893	23.0999
973.785	33.6972
976.678	43.141
979.571	38.7372
982.463	33.9832
985.356	29.816
988.249	28.1377
991.141	21.1793
994.034	14.8459
996.927	11.5142
999.819	9.67044
1002.71	6.04166
1005.61	4.30292
1008.5	3.12195
1011.39	1.76685
1014.28	2.72119
1017.18	1.40482
1020.07	2.16293
1022.96	2.24371
1025.85	2.34204
1028.75	2.83487
1031.64	3.37369
1034.53	3.25711
1037.42	3.00034
1040.32	2.11911
1043.21	2.78537
1046.1	4.81207
1048.99	3.53909
1051.89	3.6506
1054.78	2.9364
1057.67	2.06686
1060.57	1.89487
1063.46	3.32986
1066.35	1.9314
1069.24	3.19464
1072.14	2.5303
1075.03	2.33798
1077.92	2.12735
1080.82	1.07358
1083.71	1.03931
1086.6	1.78259
1089.49	0.918182
1092.39	0.484619
1095.28	1.12411
1098.17	0.415955
1101.06	0.38092
1103.96	0.150238
1106.85	0.155426
1109.74	0.945923
1112.63	0.605927
1115.53	0.531036
1118.42	0.690918
1121.31	0.912537
1124.21	0.410461
1127.1	1.57343
1129.99	0.46167
1132.88	1.54715
1135.78	0.584076
1138.67	0.504303
1141.56	1.90677
1144.45	1.41837
1147.35	0.112976
1150.24	0.711365
1153.13	1.68918
1156.03	0.700043
1158.92	0.374756
1161.81	1.25452
1164.7	0.549103
1167.6	0.409912
1170.49	0.783752
1173.38	0.275116
1176.27	0.946442
1179.17	0.173981
1182.06	1.27072
1184.95	0.757813
1187.85	1.73807
1190.74	1.41888
1193.63	0.917999
1196.52	2.85821
1199.42	1.5816
1202.31	0.932983
1205.2	1.4375
1208.09	1.51379
1210.99	1.08817
1213.88	1.70444
1216.77	1.01941
1219.66	2.39679
1222.56	2.25128
1225.45	1.07581
1228.34	1.32852
1231.24	0.980408
1234.13	1.62451
1237.02	1.54761
1239.91	0.52771
1242.81	0.563812
1245.7	1.18423
1248.59	0.341827
1251.48	1.65869
1254.38	2.02084
1257.27	0.155701
1260.16	2.82968
1263.06	1.14746
1265.95	1.58624
1268.84	2.45691
1271.73	1.57718
1274.63	2.01218
1277.52	0.872192
1280.41	1.90695
1283.3	1.30652
1286.2	0.02533
1289.09	2.6167
1291.98	1.01523
1294.88	0.645569
1297.77	0.763275
1300.66	0
