Measurement: Raman, 532 nm, unoriented, Raman Data Processed
Mineral: Chlorophoenicite
Rruff sample: R140135
Ideal chemistry: (Mn^2+^,Mg,Zn^2+^)_3_Zn^2+^_2_As^5+^O_4_(OH,O)_6_
Locality: Franklin, Franklin Mining District, Sussex County, New Jersey, USA
Source: Rock Currier
Description: Colorless acicular crystals on pyrochroite
Raman shift (cm-1)	intensity
150.812	0
153.705	1.64113
156.597	1.10892
159.49	3.09337
162.383	0.63298
165.275	1.34758
168.168	3.14955
171.061	2.299
173.953	0.919876
176.846	0.233459
179.739	1.65938
182.632	2.83139
185.524	0.198029
188.417	1.43337
191.31	1.3549
194.202	1.01262
197.095	2.32822
199.988	3.12511
202.881	3.22444
205.773	3.05278
208.666	3.43613
211.559	4.55623
214.451	5.45087
217.344	4.86377
220.237	5.60455
223.129	6.17361
226.022	5.84473
228.915	4.42407
231.808	3.37271
234.7	3.21033
237.593	2.37811
240.486	2.11667
243.378	1.06244
246.271	1.10162
249.164	0.99353
252.056	0.458527
254.949	1.10803
257.842	1.54855
260.735	2.41913
263.627	2.09354
266.52	1.32495
269.413	1.90131
272.305	3.11914
275.198	1.37793
278.091	3.85355
280.983	1.68564
283.876	2.03427
286.769	3.53781
289.661	2.09082
292.554	0.311737
295.447	1.93713
298.34	2.12451
301.232	1.49243
304.125	0.644501
307.018	3.34878
309.91	2.77594
312.803	0.297607
315.696	1.2999
318.589	0.443542
321.481	0.276123
324.374	1.74283
327.267	0.148529
330.159	2.22144
333.052	2.4635
335.945	4.68707
338.837	4.47363
341.73	4.80771
344.623	5.06247
347.515	5.65881
350.408	5.51163
353.301	6.52414
356.194	6.85288
359.086	4.25571
361.979	4.90002
364.872	7.27936
367.764	5.66476
370.657	5.81082
373.55	4.42154
376.442	6.41589
379.335	4.75861
382.228	5.93262
385.121	4.88376
388.013	8.58429
390.906	5.6008
393.799	10.3036
396.691	6.26166
399.584	5.4881
402.477	5.38721
405.37	4.06247
408.262	3.93185
411.155	4.98068
414.048	3.26273
416.94	1.58475
419.833	3.24228
422.726	2.41113
425.618	1.22607
428.511	4.25635
431.404	2.29309
434.296	1.13834
437.189	0.226807
440.082	0.603241
442.975	0.544189
445.867	0.279877
448.76	1.24451
451.653	1.49515
454.545	0.604462
457.438	3.1644
460.331	0.969208
463.224	2.23535
466.116	0.803528
469.009	0.207581
471.902	1.99719
474.794	1.47226
477.687	3.9212
480.58	3.51297
483.473	4.81043
486.365	5.91751
489.258	6.50913
492.151	8.7594
495.043	10.5331
497.936	10.885
500.829	15.473
503.721	17.2938
506.614	15.0968
509.507	15.7065
512.399	13.1679
515.292	12.0376
518.185	11.025
521.078	8.13037
523.97	7.38669
526.863	3.87717
529.756	4.35294
532.648	4.36231
535.541	2.02396
538.434	3.33545
541.327	1.88568
544.219	1.67096
547.112	0.581207
550.005	1.37741
552.897	1.2023
555.79	0.638824
558.683	1.81189
561.575	0.150299
564.468	0.20697
567.361	1.08099
570.254	0.906189
573.146	1.1239
576.039	0.695465
578.932	1.75168
581.824	1.37842
584.717	2.1766
587.61	3.56934
590.502	1.34583
593.395	0.781555
596.288	0.646149
599.181	1.11688
602.073	0.911072
604.966	1.75006
607.859	1.46573
610.751	1.92291
613.644	2.66684
616.537	1.9866
619.429	1.47403
622.322	0.755646
625.215	1.40314
628.107	2.55228
631	0.829041
633.893	2.90167
636.786	0.392426
639.678	1.37735
642.571	0.276428
645.464	0.37381
648.356	1.80115
651.249	1.51486
654.142	8.03851
657.034	2.60736
659.927	0.162445
662.82	1.1926
665.713	0.6586
668.605	2.37881
671.498	1.70487
674.391	2.108
677.283	3.95807
680.176	0.983826
683.069	3.36282
685.962	2.09241
688.854	2.70288
691.747	1.09369
694.64	0.663177
697.532	2.28262
700.425	2.13928
703.318	1.80951
706.21	0.822662
709.103	0.840393
711.996	1.12241
714.889	13.1417
717.781	2.13654
720.674	1.76135
723.567	0.561981
726.459	1.93506
729.352	0.967834
732.245	0.740509
735.137	1.80246
738.03	2.6814
740.923	0.138855
743.816	0.452118
746.708	1.63532
749.601	1.32111
752.494	1.00125
755.386	0.092041
758.279	1.07068
761.172	0.993164
764.064	0.648254
766.957	0.478271
769.85	1.1012
772.742	3.73639
775.635	5.32068
778.528	6.33594
781.421	7.4335
784.313	9.47739
787.206	12.1546
790.099	14.0564
792.991	17.7426
795.884	22.9228
798.777	26.8046
801.669	31.235
804.562	33.1094
807.455	29.9219
810.348	25.0881
813.24	19.6121
816.133	15.2691
819.026	13.3482
821.918	8.71893
824.811	7.58758
827.704	5.36392
830.597	4.53815
833.489	8.92255
836.382	3.2504
839.275	2.75693
842.167	2.72189
845.06	1.89978
847.953	3.28293
850.846	2.50763
853.738	1.61792
856.631	2.67154
859.524	2.52942
862.416	2.58108
865.309	1.64371
868.202	6.07672
871.094	6.64749
873.987	4.09885
876.88	2.52835
879.773	5.22549
882.665	5.79318
885.558	6.35312
888.451	7.74716
891.343	9.1835
894.236	9.38599
897.129	8.14194
900.021	6.99191
902.914	4.82391
905.807	3.21408
908.699	0.871735
911.592	1.15564
914.485	1.75259
917.378	1.35529
920.27	0.341156
923.163	0.527374
926.056	2.15122
928.948	0.195984
931.841	0.130676
934.734	1.23282
937.626	1.78775
940.519	1.01294
943.412	2.27182
946.305	1.06216
949.197	0.427795
952.09	0.983978
954.983	0.868439
957.875	0.933868
960.768	0.822083
963.661	2.22992
966.553	1.35111
969.446	0.942993
972.339	0.158875
975.232	1.67923
978.124	2.86395
981.017	3.61771
983.91	4.40219
986.802	4.62741
989.695	5.45407
992.588	2.10028
995.481	0.861267
998.373	2.02606
1001.27	1.77335
1004.16	1.37399
1007.05	1.2121
1009.94	0.962311
1012.84	2.10944
1015.73	2.6347
1018.62	3.32129
1021.51	1.01129
1024.41	2.35474
1027.3	2.38928
1030.19	1.45557
1033.09	3.57242
1035.98	0.786774
1038.87	0.233063
1041.76	1.68558
1044.66	2.9754
1047.55	3.2702
1050.44	3.29834
1053.33	4.25537
1056.23	3.11069
1059.12	3.07111
1062.01	5.27475
1064.9	1.4176
1067.8	2.39615
1070.69	2.6246
1073.58	2.3407
1076.48	3.00116
1079.37	1.00201
1082.26	3.259
1085.15	2.76102
1088.05	2.07236
1090.94	7.17581
1093.83	1.25543
1096.72	1.20279
1099.62	1.12439
1102.51	0.457092
1105.4	0.897308
1108.3	1.10199
1111.19	3.59555
1114.08	0.570465
1116.97	0.5802
1119.87	0.005829
1122.76	1.84805
1125.65	0.065735
1128.55	1.13785
1131.44	0.053101
1134.33	0.207397
1137.22	1.8981
1140.12	1.81079
1143.01	1.3122
1145.9	0.509888
1148.79	1.98254
1151.69	2.72565
1154.58	1.46454
1157.47	2.0795
1160.36	2.34335
1163.26	2.22003
1166.15	1.53119
1169.04	3.10944
1171.93	1.68216
1174.83	3.35608
1177.72	0.728943
1180.61	1.89157
1183.51	1.13742
1186.4	3.6673
1189.29	3.0625
1192.18	4.30371
1195.08	1.89685
1197.97	2.72955
1200.86	2.42606
1203.76	2.67407
1206.65	2.31262
1209.54	2.41669
1212.43	1.97894
1215.33	1.34067
1218.22	2.93088
1221.11	1.70184
1224	2.81256
1226.9	1.39426
1229.79	0.006989
1232.68	4.11191
1235.58	2.29831
1238.47	1.89172
1241.36	0.956299
1244.25	1.82855
1247.14	2.85764
1250.04	2.98166
1252.93	1.68204
1255.82	3.43161
1258.72	0.396301
1261.61	1.7446
1264.5	1.5694
1267.39	2.85358
1270.29	2.01074
1273.18	1.25534
1276.07	0.613373
1278.96	0.411133
1281.86	1.79471
1284.75	2.00397
1287.64	2.36856
1290.54	2.23627
1293.43	2.50659
1296.32	0.065216
1299.21	0.225464
