Measurement: Raman, 780 nm, unoriented, Raman Data Processed
Mineral: Chrysocolla
Rruff sample: R060547
Ideal chemistry: (Cu^2+^_2-x_Al_x_)H_2-x_Si_2_O_5_(OH)_4_nH_2_O
Locality: unknown
Source: Gemological Institute of America
Description: Blue cryptocrystalline mass
Measured chemistry: (Cu_1.60_Al_0.20_[box]_0.10_Ca_0.06_Mg_0.04_)_Σ=2_H_2.00_Si_2.00_O_5_(OH)_4_·1.17H_2_O ; H not measured but estimated by charge balance.
Raman shift (cm-1)	intensity
110.642	0
114.017	0.868881
117.392	1.30562
120.767	0.29715
124.141	3.13405
127.516	3.2007
130.891	4.47339
134.266	2.17944
137.641	4.21405
141.016	4.89072
144.39	2.43626
147.765	2.36482
151.14	1.00506
154.515	1.58431
157.89	0.315414
161.264	0.526588
164.639	0.476105
168.014	0.758911
171.389	1.17303
174.764	1.65102
178.138	3.89436
181.513	3.1534
184.888	3.61418
188.263	5.33891
191.638	5.64855
195.013	6.45473
198.387	6.29836
201.762	6.32944
205.137	6.6122
208.512	5.69273
211.887	5.81916
215.262	5.99364
218.636	4.64774
222.011	3.9751
225.386	4.50487
228.761	3.65449
232.136	3.73402
235.511	4.08125
238.885	4.52605
242.26	4.80081
245.635	4.38242
249.01	3.97731
252.385	3.26307
255.759	2.89359
259.134	2.75297
262.509	2.84086
265.884	1.34626
269.259	1.4747
272.633	0.483063
276.008	0.282433
279.383	0.481369
282.758	0.106934
286.133	0.505928
289.507	0.272705
292.882	0.204132
296.257	0.800575
299.632	0.531441
303.007	0.2062
306.382	0.109627
309.756	0.274727
313.131	0.743431
316.506	0.604027
319.881	1.76428
323.256	0.794571
326.63	1.38295
330.005	1.6857
333.38	1.96886
336.755	2.13379
340.13	1.89471
343.505	1.57454
346.879	1.61184
350.254	0.084465
353.629	0.454361
357.004	0.077141
360.379	0.873322
363.753	0.389595
367.128	0.16732
370.503	0.16481
373.878	0.077713
377.253	0.157722
380.628	0.38295
384.002	0.160461
387.377	0.995331
390.752	0.501053
394.127	0.896919
397.502	1.31017
400.877	1.1429
404.251	2.05762
407.626	1.47913
411.001	1.78014
414.376	1.72699
417.751	1.28966
421.125	1.61715
424.5	1.1009
427.875	1.39835
431.25	0.945168
434.625	1.14202
438	0.36895
441.374	0.717041
444.749	0.714561
448.124	0.041351
451.499	0.172981
454.874	0.82402
458.248	0.657478
461.623	0.171753
464.998	0.62265
468.373	1.10963
471.748	1.44226
475.123	0.565277
478.497	0.792603
481.872	1.30251
485.247	1.71453
488.622	1.2826
491.997	2.4053
495.371	1.0964
498.746	0.611565
502.121	0.965744
505.496	0.907082
508.871	1.05126
512.245	1.01477
515.62	0.632294
518.995	1.03012
522.37	0.716492
525.745	0.144073
529.12	0.137428
532.494	0.05368
535.869	0.125553
539.244	0.264702
542.619	0.079685
545.994	0.244606
549.368	0.299782
552.743	0.031082
556.118	0.734089
559.493	0.150185
562.868	0.226982
566.242	0.076187
569.617	0.538559
572.992	0.670479
576.367	0.956921
579.742	0.467758
583.117	0.005413
586.491	0.264492
589.866	0.210724
593.241	0.388
596.616	0.349792
599.991	0.558613
603.365	0.392841
606.74	0.120586
610.115	0.640804
613.49	0.20332
616.865	0.409756
620.24	0.047321
623.614	0.276203
626.989	0.092556
630.364	0.666668
633.739	0.410995
637.114	0.658092
640.489	0.234005
643.863	1.49225
647.238	1.573
650.613	1.53785
653.988	2.27731
657.363	2.50856
660.737	3.28658
664.112	3.72537
667.487	3.81259
670.862	5.45739
674.237	5.53968
677.611	5.61709
680.986	4.36568
684.361	3.08803
687.736	2.32878
691.111	1.33702
694.486	0.992226
697.86	0.836868
701.235	0.120754
704.61	0.397087
707.985	0.597298
711.36	0.026318
714.735	0.293583
718.109	0.327663
721.484	0.335552
724.859	0.386292
728.234	0.093712
731.609	0.466446
734.983	0.177387
738.358	0.012428
741.733	0.135494
745.108	0.614929
748.483	0.005833
751.857	0.547268
755.232	0.496838
758.607	0.510319
761.982	0.128819
765.357	0.649517
768.732	0.168629
772.106	0.389503
775.481	0.984119
778.856	0.432796
782.231	0.484222
785.606	0.542763
788.981	0.698387
792.355	0.718044
795.73	0.797543
799.105	1.05249
802.48	1.05548
805.855	1.44424
809.229	1.39293
812.604	1.47053
815.979	1.20866
819.354	1.57855
822.729	1.36217
826.104	1.63934
829.478	1.33375
832.853	1.2001
836.228	1.44719
839.603	1.80092
842.977	2.21511
846.352	1.20607
849.727	2.4584
853.102	2.48613
856.477	2.06542
859.852	1.86063
863.226	1.36351
866.601	0.981163
869.976	1.29989
873.351	0.942562
876.726	1.4192
880.101	0.931011
883.475	0.800991
886.85	0.796425
890.225	0.61742
893.6	0.317135
896.975	0.388039
900.349	0.474262
903.724	0.162697
907.099	0.594284
910.474	0.014927
913.849	0.272552
917.223	0.167969
920.598	0.051746
923.973	0.118034
927.348	0.18697
930.723	0.119907
934.098	0.150238
937.472	0.180092
940.847	0.213139
944.222	0.387547
947.597	0.250336
950.972	0.196831
954.346	0.468781
957.721	0.567745
961.096	0.927528
964.471	0.32375
967.846	0.076839
971.221	0.416164
974.595	0.303108
977.97	0.200871
981.345	0.285839
984.72	0.565006
988.095	0.673912
991.47	0.131306
994.844	0.326206
998.219	0.547379
1001.59	0.25502
1004.97	1.87404
1008.34	0.996471
1011.72	0.129324
1015.09	0.216057
1018.47	1.14973
1021.84	0.43969
1025.22	0.652267
1028.59	0.848465
1031.97	0.904728
1035.34	1.39343
1038.72	1.29228
1042.09	1.38537
1045.47	1.12943
1048.84	0.721241
1052.22	1.36642
1055.59	0.994331
1058.97	1.09391
1062.34	0.971386
1065.71	0.596237
1069.09	0.684292
1072.46	0.653469
1075.84	0.615822
1079.21	0.254456
1082.59	0.306458
1085.96	0.407738
1089.34	0.408344
1092.71	0.110004
1096.09	0.101871
1099.46	0.258781
1102.84	0.391399
1106.21	0.203522
1109.59	0.17984
1112.96	0.283142
1116.34	0.366063
1119.71	0.197723
1123.09	0.052864
1126.46	0.948227
1129.84	1.62537
1133.21	0.604996
1136.59	3.36348
1139.96	0.828724
1143.34	0.621384
1146.71	0.048042
1150.09	0.296806
1153.46	0.1497
1156.84	0.491077
1160.21	0.225086
1163.59	0.153584
1166.96	0.572952
1170.34	0.367996
1173.71	0.5616
1177.08	0.410545
1180.46	0.716103
1183.83	0.720463
1187.21	0.654434
1190.58	0.287956
1193.96	0.565033
1197.33	0.760479
1200.71	0.351513
1204.08	0.560299
1207.46	0.350807
1210.83	0.925491
1214.21	0.639164
1217.58	0.435207
1220.96	0.139511
1224.33	0.084061
1227.71	0.430504
1231.08	0.784679
1234.46	0.367306
1237.83	0.330914
1241.21	0.31876
1244.58	0.366455
1247.96	0.571873
1251.33	0.630272
1254.7	0.536774
1258.08	0.759399
1261.45	0.47015
1264.83	0.870308
1268.2	0.575307
1271.58	0.510017
1274.95	0.719513
1278.33	0.103424
1281.7	0.120514
