Measurement: Raman, 532 nm, unoriented, Raman Data Processed
Mineral: Chrysocolla
Rruff sample: R060547
Ideal chemistry: (Cu^2+^_2-x_Al_x_)H_2-x_Si_2_O_5_(OH)_4_nH_2_O
Locality: unknown
Source: Gemological Institute of America
Description: Blue cryptocrystalline mass
Measured chemistry: (Cu_1.60_Al_0.20_[box]_0.10_Ca_0.06_Mg_0.04_)_Σ=2_H_2.00_Si_2.00_O_5_(OH)_4_·1.17H_2_O ; H not measured but estimated by charge balance.
Raman shift (cm-1)	intensity
102.031	0
105.406	0.750854
108.781	28.3239
112.155	41.3901
115.53	65.3513
118.905	78.4544
122.28	76.8379
125.654	81.7306
129.029	71.3641
132.404	71.5619
135.779	60.7883
139.154	62.5271
142.529	58.4181
145.903	48.022
149.278	45.4838
152.653	39.7832
156.028	36.7039
159.403	31.092
162.778	33.3672
166.152	30.5923
169.527	33.371
172.902	31.1592
176.277	31.8639
179.652	34.5283
183.026	41.6824
186.401	43.342
189.776	48.4176
193.151	48.236
196.526	48.4086
199.9	49.0121
203.275	40.2202
206.65	32.6141
210.025	26.2976
213.4	21.2731
216.775	17.9114
220.149	9.54968
223.524	2.03223
226.899	2.31274
230.274	3.70349
233.649	4.76514
237.024	0.268799
240.398	5.24634
243.773	10.9186
247.148	7.49377
250.523	4.46216
253.898	3.79224
257.272	8.26062
260.647	3.7793
264.022	3.37439
267.397	3.58655
270.772	6.07873
274.147	5.8446
277.521	7.99463
280.896	3.85913
284.271	1.52978
287.646	3.10046
291.021	1.68066
294.395	1.57263
297.77	0.129028
301.145	3.09375
304.52	1.05029
307.895	5.36389
311.269	8.75024
314.644	12.949
318.019	16.7518
321.394	22.3191
324.769	30.8217
328.144	35.4209
331.518	37.7079
334.893	43.7721
338.268	49.5763
341.643	41.7184
345.018	28.3579
348.392	19.4764
351.767	12.2833
355.142	6.75842
358.517	3.86829
361.892	1.69849
365.267	2.32141
368.641	4.39856
372.016	3.33765
375.391	3.67432
378.766	11.8049
382.141	15.3896
385.515	22.4696
388.89	28.7059
392.265	30.3662
395.64	41.5747
399.015	57.3937
402.389	62.0096
405.764	62.669
409.139	60.782
412.514	57.0914
415.889	55.3558
419.264	55.2926
422.638	48.6381
426.013	39.3568
429.388	28.3566
432.763	21.3939
436.138	15.5776
439.512	15.6641
442.887	12.6404
446.262	11.0795
449.637	5.32532
453.012	6.40625
456.387	9.00757
459.761	8.28467
463.136	10.247
466.511	10.4239
469.886	13.5099
473.261	13.8411
476.635	13.3496
480.01	18.0212
483.385	31.707
486.76	35.9883
490.135	33.7423
493.51	29.3214
496.884	27.105
500.259	26.7551
503.634	20.4607
507.009	20.6207
510.384	21.7352
513.759	22.934
517.133	13.4012
520.508	13.4016
523.883	6.64282
527.258	5.68347
530.633	3.67639
534.007	1.71289
537.382	3.03796
540.757	3.84558
544.132	0.674805
547.507	6.26819
550.881	3.05103
554.256	4.68115
557.631	1.02039
561.006	7.56531
564.381	9.60889
567.756	7.14026
571.13	3.19543
574.505	5.32178
577.88	7.71643
581.255	8.56348
584.63	6.77515
588.004	8.38672
591.379	8.8081
594.754	4.01941
598.129	1.89172
601.504	0.020386
604.879	1.05347
608.253	3.54053
611.628	1.97046
615.003	3.0387
618.378	0.065063
621.753	0.447754
625.127	3.96545
628.502	6.14648
631.877	9.88489
635.252	10.8236
638.627	7.20422
642.001	9.85388
645.376	14.4797
648.751	21.2365
652.126	28.5806
655.501	31.2853
658.875	41.0505
662.25	54.5527
665.625	68.3428
669	89.043
672.375	111.35
675.75	124.632
679.125	131.429
682.499	114.212
685.874	80.0759
689.249	51.9285
692.624	30.5593
695.999	16.0137
699.373	11.8967
702.748	6.18066
706.123	6.30786
709.498	4.28455
712.873	3.71826
716.247	1.49219
719.622	0.613647
722.997	1.79956
726.372	3.21619
729.747	3.15124
733.121	0.597656
736.496	1.3446
739.871	1.73938
743.246	2.47839
746.621	5.58728
749.996	7.29993
753.37	3.95068
756.745	1.57458
760.12	4.40308
763.495	0.896118
766.87	3.82825
770.245	5.38525
773.619	4.80481
776.994	5.43262
780.369	3.47095
783.744	6.27808
787.119	7.83728
790.493	4.13599
793.868	5.66186
797.243	3.48694
800.618	5.25806
803.993	6.89856
807.367	10.8782
810.742	6.45483
814.117	5.45007
817.492	7.95019
820.867	10.6599
824.242	2.67932
827.616	1.1261
830.991	0.152832
834.366	3.97302
837.741	8.12463
841.116	19.2134
844.49	32.9065
847.865	38.8296
851.24	19.1658
854.615	9.68042
857.99	8.43494
861.365	6.13159
864.739	5.44629
868.114	1.65991
871.489	4.9596
874.864	3.95068
878.239	0.196655
881.614	0.986694
884.988	0.056152
888.363	6.02979
891.738	7.67297
895.113	4.23389
898.487	4.24207
901.862	4.23206
905.237	1.74646
908.612	2.91736
911.987	3.4939
915.362	4.0033
918.736	1.5697
922.111	5.14722
925.486	4.22266
928.861	4.05286
932.236	4.40759
935.611	2.31641
938.985	3.23377
942.36	6.79089
945.735	6.48804
949.11	5.4978
952.485	9.88599
955.859	0.158813
959.234	1.75769
962.609	1.66064
965.984	2.53125
969.359	5.17847
972.734	3.80273
976.108	5.88745
979.483	2.64673
982.858	5.36926
986.233	4.35559
989.608	6.66821
992.982	1.47449
996.357	2.7467
999.732	5.26807
1003.11	5.1825
1006.48	0.401978
1009.86	2.91894
1013.23	9.07629
1016.61	4.80457
1019.98	3.32288
1023.36	1.81592
1026.73	6.05554
1030.11	5.81128
1033.48	7.05493
1036.86	12.4222
1040.23	15.1307
1043.61	13.1726
1046.98	12.4358
1050.35	13.7921
1053.73	14.1826
1057.1	9.48108
1060.48	5.52918
1063.85	4.49097
1067.23	5.48425
1070.6	3.15918
1073.98	2.59888
1077.35	1.43665
1080.73	0.096558
1084.1	0.49231
1087.48	1.94421
1090.85	1.31091
1094.23	1.51733
1097.6	0.213501
1100.98	0.766479
1104.35	0.690186
1107.73	3.61255
1111.1	6.95117
1114.48	6.78076
1117.85	12.3296
1121.22	16.5941
1124.6	14.2036
1127.97	6.24951
1131.35	3.1062
1134.72	4.39136
1138.1	0.656494
1141.47	3.64002
1144.85	0.059448
1148.22	0.178345
1151.6	4.9292
1154.97	7.62244
1158.35	3.97656
1161.72	3.44214
1165.1	0.938599
1168.47	3.31189
1171.85	0.634521
1175.22	5.92651
1178.6	6.80066
1181.97	8.53735
1185.35	6.47449
1188.72	7.25854
1192.1	6.94031
1195.47	9.09631
1198.85	3.65979
1202.22	1.47363
1205.6	3.19495
1208.97	5.26587
1212.35	3.05139
1215.72	4.2312
1219.1	7.10706
1222.47	3.80444
1225.85	0.385498
1229.22	0.975586
1232.59	1.16931
1235.97	2.83923
1239.34	3.0509
1242.72	3.28162
1246.09	6.46082
1249.47	8.45068
1252.84	11.0544
1256.22	5.53821
1259.59	3.12305
1262.97	1.16333
1266.34	2.11755
1269.72	0.308472
1273.09	3.1438
1276.47	0.782593
1279.84	2.40283
1283.22	2.31738
1286.59	3.73535
1289.97	1.802
1293.34	2.04846
1296.72	0.060791
1300.09	1.44202
