Measurement: Raman, 532 nm, unoriented, Raman Data RAW
Mineral: Claringbullite
Rruff sample: R090014
Ideal chemistry: Cu^2+^_4_FCl(OH)_6_
Locality: Mina Ojuela, Mapim√≠, Durango, Mexico
Source: Marcus Origlieri
Description: Electric blue platy crystals in massive cuprite
Raman shift (cm-1)	intensity
90.9261	0
94.3009	6.17297
97.6757	5.57338
101.05	6.15665
104.425	7.58699
107.8	10.1788
111.175	17.1253
114.55	31.6912
117.925	46.465
121.299	56.2205
124.674	74.0474
128.049	91.8244
131.424	102.889
134.799	107.274
138.173	119.558
141.548	129.089
144.923	133.086
148.298	131.316
151.673	127.667
155.048	126.218
158.422	121.454
161.797	120.612
165.172	123.427
168.547	126.325
171.922	128.411
175.297	131.782
178.671	133.937
182.046	131.408
185.421	124.095
188.796	115.811
192.171	107.258
195.545	100.302
198.92	95.2102
202.295	89.5013
205.67	87.4622
209.045	83.522
212.419	81.1113
215.794	80.484
219.169	78.0105
222.544	76.3354
225.919	73.2265
229.293	71.9486
232.668	69.5587
236.043	68.8264
239.418	69.0801
242.793	68.7944
246.168	68.1955
249.542	69.0333
252.917	68.8429
256.292	69.6531
259.667	69.0922
263.042	68.5793
266.416	69.4687
269.791	69.1349
273.166	68.0548
276.541	67.0316
279.916	66.5487
283.291	67.025
286.665	67.2529
290.04	66.5972
293.415	66.2242
296.79	65.546
300.165	64.6478
303.539	64.3355
306.914	62.2951
310.289	61.1421
313.664	60.3231
317.039	59.7141
320.414	59.6631
323.788	59.0717
327.163	59.4407
330.538	60.6257
333.913	61.7602
337.288	62.1576
340.662	64.0256
344.037	63.7008
347.412	64.054
350.787	64.2099
354.162	62.3204
357.536	60.9294
360.911	60.1874
364.286	58.9958
367.661	58.032
371.036	57.6839
374.411	57.2392
377.785	57.5944
381.16	57.1962
384.535	56.8381
387.91	56.2976
391.285	55.2523
394.659	53.9409
398.034	52.8642
401.409	52.7366
404.784	51.456
408.159	51.3021
411.534	51.0099
414.908	51.4858
418.283	53.0698
421.658	55.9065
425.033	60.0047
428.408	65.2325
431.783	69.2689
435.157	74.8268
438.532	79.2964
441.907	82.0423
445.282	82.3924
448.657	80.7451
452.031	75.2191
455.406	70.5079
458.781	67.0083
462.156	64.2555
465.531	63.8677
468.906	62.8541
472.28	62.9945
475.655	63.6546
479.03	63.2722
482.405	65.1477
485.779	65.6009
489.154	67.3046
492.529	68.5737
495.904	69.8573
499.279	71.9461
502.654	77.1868
506.028	83.9179
509.403	93.1982
512.778	105.558
516.153	118.645
519.528	129.656
522.903	138.063
526.277	138.874
529.652	130.785
533.027	118.242
536.402	105.126
539.777	96.3194
543.151	88.378
546.526	82.8042
549.901	77.3185
553.276	74.3355
556.651	67.8108
560.025	62.5814
563.4	57.2156
566.775	51.7421
570.15	47.0733
573.525	42.586
576.9	39.8001
580.274	36.9586
583.649	34.8935
587.024	32.9959
590.399	32.08
593.774	31.3386
597.148	30.3517
600.523	29.348
603.898	28.3985
607.273	27.5008
610.648	26.8112
614.023	26.2744
617.397	25.8144
620.772	25.1873
624.147	24.8315
627.522	23.9307
630.897	23.9054
634.271	23.7093
637.646	22.9102
641.021	22.5685
644.396	22.7342
647.771	22.5076
651.145	22.3861
654.52	21.9242
657.895	21.7828
661.27	22.0388
664.645	21.7635
668.02	21.0278
671.394	20.7004
674.769	20.8281
678.144	21.0437
681.519	20.1956
684.894	19.9608
688.269	20.039
691.643	19.6003
695.018	19.4147
698.393	19.3568
701.768	18.7546
705.143	20.3049
708.517	19.3812
711.892	19.06
715.267	19.0465
718.642	19.6827
722.017	18.5836
725.391	18.1654
728.766	18.4597
732.141	18.0443
735.516	18.3778
738.891	18.4338
742.266	18.6574
745.64	18.7451
749.015	18.2337
752.39	18.4022
755.765	18.4779
759.14	18.2186
762.514	18.2738
765.889	18.2683
769.264	18.636
772.639	18.3233
776.014	19.2917
779.389	18.6237
782.763	18.6316
786.138	18.9041
789.513	18.9663
792.888	19.0904
796.263	18.7059
799.637	19.4092
803.012	20.2474
806.387	19.8676
809.762	19.8116
813.137	20.1535
816.511	20.5016
819.886	20.7374
823.261	20.2377
826.636	19.9993
830.011	20.4867
833.386	19.952
836.76	19.8592
840.135	19.3472
843.51	19.7802
846.885	19.752
850.26	19.2732
853.635	19.4007
857.009	19.323
860.384	18.9978
863.759	18.7514
867.134	19.1611
870.509	18.2424
873.883	18.7445
877.258	18.6556
880.633	17.64
884.008	18.2373
887.383	18.1465
890.757	18.3487
894.132	18.2972
897.507	17.8596
900.882	18.7601
904.257	19.0514
907.631	19.3296
911.006	19.7899
914.381	20.2825
917.756	19.7616
921.131	18.9197
924.506	19.3626
927.88	18.4632
931.255	18.3653
934.63	18.7758
938.005	19.1059
941.38	18.6821
944.755	19.0772
948.129	18.9959
951.504	19.682
954.879	19.7871
958.254	20.1237
961.629	20.8668
965.003	21.21
968.378	22.3211
971.753	23.1334
975.128	24.2399
978.503	24.7718
981.877	23.2875
985.252	22.3555
988.627	22.131
992.002	22.0421
995.377	21.3334
998.751	21.6176
1002.13	21.2092
1005.5	21.2266
1008.88	20.8175
1012.25	20.4999
1015.63	19.804
1019	20.1739
1022.38	19.7708
1025.75	19.586
1029.12	18.8691
1032.5	19.2616
1035.88	19.5126
1039.25	19.0997
1042.62	19.6158
1046	20.7169
1049.37	21.5763
1052.75	21.3438
1056.12	20.8613
1059.5	19.1251
1062.87	17.3997
1066.25	16.7929
1069.62	16.6052
1073	16.1069
1076.37	16.17
1079.75	15.7106
1083.12	16.0134
1086.5	15.831
1089.87	15.4834
1093.25	15.3153
1096.62	15.5253
1100	14.3348
1103.37	14.336
1106.75	14.2554
1110.12	13.3886
1113.49	13.1763
1116.87	12.4348
1120.24	11.9315
1123.62	11.5328
1126.99	11.1712
1130.37	10.9886
1133.74	10.824
1137.12	10.5342
1140.49	10.0243
1143.87	9.78148
1147.24	9.25703
1150.62	9.20823
1153.99	9.12706
1157.37	8.33428
1160.74	8.37365
1164.12	7.55671
1167.49	8.05576
1170.87	7.78483
1174.24	7.16404
1177.62	7.49118
1180.99	7.12333
1184.37	6.83143
1187.74	6.98696
1191.12	6.3737
1194.49	6.65637
1197.87	6.94935
1201.24	6.25381
1204.62	6.2079
1207.99	6.52154
1211.37	6.21986
1214.74	6.37923
1218.12	5.99746
1221.49	6.05758
1224.86	6.17124
1228.24	5.89479
1231.61	6.11541
1234.99	5.44025
1238.36	6.08102
1241.74	5.68135
1245.11	5.69562
1248.49	5.5872
1251.86	5.38765
1255.24	5.84783
1258.61	6.26349
1261.99	5.99733
1265.36	5.41521
1268.74	5.69085
1272.11	5.75087
1275.49	5.55858
1278.86	5.2864
1282.24	5.32293
1285.61	5.07848
1288.99	5.40417
1292.36	5.5259
1295.73	5.33458
1299.11	5.12192
1302.48	5.28041
