Measurement: Raman, 785 nm, unoriented, Raman Data RAW
Mineral: Clausthalite
Rruff sample: R070169
Ideal chemistry: Pb^2+^Se^2-^
Locality: Colquechaca, Chayanta Province, Potos√≠ Department, Bolivia
Source: Michael Scott
Description: Silver gray with a hint of blue, foliated massive
Raman shift (cm-1)	intensity
128.059	2742.88
130.952	3717.63
133.845	5211.94
136.738	6474.3
139.63	6133.53
142.523	4407.31
145.416	4208.34
148.308	5278.25
151.201	6440.61
154.094	6686.92
156.986	4409.76
159.879	3854.18
162.772	3830.66
165.665	3554.12
168.557	3076.14
171.45	2645.63
174.343	2468.76
177.235	2264.19
180.128	2087.42
183.021	1915.67
185.913	1797.65
188.806	1904.17
191.699	1722.34
194.591	1641.94
197.484	1725.16
200.377	1600.02
203.27	1790.22
206.162	1974.13
209.055	2263.96
211.948	2527.45
214.84	2992.89
217.733	3677.29
220.626	4373.4
223.518	4352
226.411	3374.69
229.304	2580.95
232.196	2147.95
235.089	2011.77
237.982	1906.06
240.875	1870.17
243.767	1827.7
246.66	1717.37
249.553	1523.57
252.445	1337.11
255.338	1161.16
258.231	952.55
261.123	854.622
264.016	815.091
266.909	761.617
269.802	762.551
272.694	763.605
275.587	739.619
278.48	724.445
281.372	736.657
284.265	681.914
287.158	678.583
290.05	662.994
292.943	657.966
295.836	644.173
298.729	658.075
301.621	655.773
304.514	685.292
307.407	679.907
310.299	700.864
313.192	681.097
316.085	700.184
318.978	673.413
321.87	678.423
324.763	672.978
327.656	648.029
330.548	634.217
333.441	634.269
336.334	643.581
339.226	633.373
342.119	626.288
345.012	661.209
347.904	645.598
350.797	653.067
353.69	619.719
356.583	628.462
359.475	620.584
362.368	629.226
365.261	626.267
368.153	630.135
371.046	606.414
373.939	602.483
376.832	607.776
379.724	604.556
382.617	608.24
385.51	605.971
388.402	577.456
391.295	583.986
394.188	615.607
397.08	591.578
399.973	594.529
402.866	572.553
405.759	569.095
408.651	590.113
411.544	573.139
414.437	585.164
417.329	582.96
420.222	589.443
423.115	577.551
426.007	594.986
428.9	582.039
431.793	565.24
434.685	571.848
437.578	580.69
440.471	595.019
443.364	566.59
446.256	584.341
449.149	596.027
452.042	602.515
454.934	613.904
457.827	613.379
460.72	624.583
463.613	629.729
466.505	639.699
469.398	639.474
472.291	665.703
475.183	655.746
478.076	664.176
480.969	659.857
483.861	661.179
486.754	674.849
489.647	652.544
492.539	640.659
495.432	632.431
498.325	594.18
501.218	574.017
504.11	583.525
507.003	564.695
509.896	550.409
512.788	535.893
515.681	532.712
518.574	548.414
521.466	551.284
524.359	550.205
527.252	518.168
530.145	536.302
533.037	524.576
535.93	533.307
538.823	530.799
541.715	536.438
544.608	528.765
547.501	540.359
550.394	525.658
553.286	534.954
556.179	506.229
559.072	540.38
561.964	530.946
564.857	535.045
567.75	542.467
570.642	526.688
573.535	531.025
576.428	544.897
579.321	511.819
582.213	549.594
585.106	542.623
587.999	531.51
590.891	533.744
593.784	552.679
596.677	549.982
599.569	539.438
602.462	545.591
605.355	539.872
608.247	535.435
611.14	523.084
614.033	532.769
616.926	531.129
619.818	523.291
622.711	530.54
625.604	540.314
628.496	532.943
631.389	518.509
634.282	550.083
637.174	531.222
640.067	525.956
642.96	527.162
645.853	539.045
648.745	555.31
651.638	531.394
654.531	534.317
657.423	530.41
660.316	519.638
663.209	559.538
666.101	533.043
668.994	542.385
671.887	528.562
674.779	543.326
677.672	554.106
680.565	557.517
683.458	558.122
686.35	509.639
689.243	553.83
692.136	528.769
695.028	555.11
697.921	569.36
700.814	576.503
703.707	549.223
706.599	555.881
709.492	578.757
712.385	551.003
715.277	567.035
718.17	567.496
721.063	551.196
723.955	556.943
726.848	563.42
729.741	558.494
732.634	568.538
735.526	552.782
738.419	562.308
741.312	541.7
744.204	542.152
747.097	527.255
749.99	528.607
752.882	560.546
755.775	538.807
758.668	554.466
761.561	557.719
764.453	555.332
767.346	559.432
770.239	550.082
773.131	560.231
776.024	539.722
778.917	563.618
781.809	550.035
784.702	539.432
787.595	532.765
790.487	561.325
793.38	543.876
796.273	540.698
799.166	525.357
802.058	532.652
804.951	548.245
807.844	541.505
810.736	542.531
813.629	531.441
816.522	541.162
819.415	526.209
822.307	552.687
825.2	542.758
828.093	544.163
830.985	540.088
833.878	533.351
836.771	562.663
839.663	529.414
842.556	549.409
845.449	537.838
848.342	550.633
851.234	565.96
854.127	533.72
857.02	544.447
859.912	556.898
862.805	567.324
865.698	560.747
868.591	586.543
871.483	558.307
874.376	555.337
877.269	565.786
880.161	557.738
883.054	555.603
885.947	566.277
888.839	558.039
891.732	540.035
894.625	574.46
897.518	544.847
900.41	560.802
903.303	564.657
906.196	550.947
909.088	543.771
911.981	552.994
914.874	594.553
917.766	556.758
920.659	565.954
923.552	569.858
926.444	573.509
929.337	563.551
932.23	573.862
935.122	554.899
938.015	568.105
940.908	575.819
943.801	565.24
946.693	558.3
949.586	552.066
952.479	559.379
955.371	572.485
958.264	549.285
961.157	547.065
964.049	560.608
966.942	571.625
969.835	586.631
972.728	580.527
975.62	580.307
978.513	577.737
981.406	579.27
984.298	585.797
987.191	556.404
990.084	567.969
992.976	561.701
995.869	585.15
998.762	572.071
1001.65	550.776
1004.55	560.5
1007.44	587.909
1010.33	565.934
1013.23	575.461
1016.12	570.177
1019.01	579.945
1021.9	548.711
1024.8	575.681
1027.69	564.917
1030.58	569.106
1033.47	550.029
1036.37	573.626
1039.26	566.009
1042.15	562.316
1045.05	571.49
1047.94	599.193
1050.83	581.986
1053.72	558.186
1056.62	603.542
1059.51	612.115
1062.4	587.238
1065.29	563.345
1068.19	556.503
1071.08	570.697
1073.97	578.199
1076.87	599.574
1079.76	573.468
1082.65	575.596
1085.54	596.009
1088.44	598.331
1091.33	562.255
1094.22	602.625
1097.11	592.2
1100.01	567.778
1102.9	585.363
1105.79	576.624
1108.68	602.678
1111.58	580.128
1114.47	593.795
1117.36	594.73
1120.26	598.076
1123.15	624.638
1126.04	578.471
1128.93	581.336
1131.83	612.768
1134.72	593.145
1137.61	591.436
1140.5	594.576
1143.4	597.058
1146.29	587.081
1149.18	614.132
1152.08	572.714
1154.97	593.923
1157.86	561.181
1160.75	584.341
1163.65	571.047
1166.54	557.822
1169.43	607.743
1172.32	585.021
1175.22	596.779
1178.11	623.267
1181	593.601
1183.89	579.897
1186.79	595.386
1189.68	577.658
1192.57	571.454
1195.46	609.853
1198.36	598.001
1201.25	586.601
1204.14	631.041
1207.04	607.103
1209.93	594.94
1212.82	589.811
1215.71	595.405
1218.61	609.938
1221.5	615.824
1224.39	587.865
