Measurement: Raman, 532 nm, unoriented, Raman Data RAW
Mineral: Clausthalite
Rruff sample: R070169
Ideal chemistry: Pb^2+^Se^2-^
Locality: Colquechaca, Chayanta Province, Potos√≠ Department, Bolivia
Source: Michael Scott
Description: Silver gray with a hint of blue, foliated massive
Raman shift (cm-1)	intensity
142.468	859.907
145.36	1022.32
148.253	1055.98
151.146	1098.84
154.038	1088.59
156.931	1016.09
159.824	1008.78
162.717	1068.53
165.609	1064.45
168.502	1117.34
171.395	1144.11
174.287	1075.93
177.18	1069.42
180.073	1111.15
182.965	1109.32
185.858	1163.08
188.751	1186.1
191.644	1162.13
194.536	1196.52
197.429	1265.43
200.322	1278.82
203.214	1367.98
206.107	1508.73
209	1693.74
211.893	1917.39
214.785	2200.86
217.678	2654.71
220.571	3003.53
223.463	2939.62
226.356	2424.71
229.249	2177.82
232.141	2075.53
235.034	2016.8
237.927	2061.95
240.82	2121.28
243.712	2158.06
246.605	2154.7
249.498	2045.58
252.39	1841.2
255.283	1659.07
258.176	1520.24
261.068	1399.01
263.961	1373.01
266.854	1326.62
269.746	1315.17
272.639	1310.02
275.532	1301.33
278.425	1300.75
281.317	1289.07
284.21	1339.73
287.103	1292.83
289.995	1311.82
292.888	1325.68
295.781	1332.98
298.673	1346.35
301.566	1344.28
304.459	1339.23
307.351	1352.52
310.244	1372.69
313.137	1374.93
316.03	1397.29
318.922	1406.94
321.815	1388.51
324.708	1392.47
327.6	1415.03
330.493	1431.17
333.386	1434.89
336.279	1451.39
339.171	1420.37
342.064	1473.86
344.957	1422.91
347.849	1464.86
350.742	1467.63
353.635	1471.41
356.527	1452.07
359.42	1462.07
362.313	1512.45
365.205	1519.02
368.098	1499.58
370.991	1515.86
373.884	1523.1
376.776	1528.72
379.669	1514.47
382.562	1528.67
385.454	1539.38
388.347	1533.88
391.24	1539.07
394.132	1564.25
397.025	1546.37
399.918	1548.3
402.81	1574.15
405.703	1572.2
408.596	1585.94
411.489	1580.8
414.381	1589.35
417.274	1631.74
420.167	1622.76
423.059	1629.07
425.952	1662.98
428.845	1618.21
431.738	1656.56
434.63	1605.84
437.523	1655.86
440.416	1658.72
443.308	1664.79
446.201	1676.51
449.094	1689.21
451.986	1721.68
454.879	1708.94
457.772	1696.85
460.664	1761.54
463.557	1760.07
466.45	1767.73
469.343	1757.03
472.235	1805.82
475.128	1773.84
478.021	1791.64
480.913	1813.17
483.806	1837.6
486.699	1841.37
489.591	1857.07
492.484	1906.93
495.377	1850.62
498.269	1873.87
501.162	1899.58
504.055	1832.13
506.948	1880.95
509.84	1845.39
512.733	1835.42
515.626	1859.5
518.518	1858.9
521.411	1821.09
524.304	1828.41
527.197	1902.99
530.089	1907.45
532.982	1867.57
535.875	1932.35
538.767	1924.07
541.66	1978.98
544.553	1889.25
547.445	1919.34
550.338	1903.9
553.231	1985.12
556.124	1962.38
559.016	1949.77
561.909	1965.51
564.802	1996.53
567.694	1993.63
570.587	1984.68
573.48	2000.21
576.372	2026.84
579.265	2030.3
582.158	2046.69
585.051	2082.59
587.943	2066.05
590.836	2081.14
593.729	2058.96
596.621	2100.87
599.514	2070.28
602.407	2101.39
605.299	2105.54
608.192	2105.26
611.085	2104.36
613.977	2131.83
616.87	2106.13
619.763	2161.75
622.655	2168.26
625.548	2149.29
628.441	2177.04
631.334	2189.06
634.226	2162.83
637.119	2211.45
640.012	2185.03
642.904	2203.78
645.797	2208.99
648.69	2251.16
651.582	2224.89
654.475	2221.77
657.368	2262.44
660.261	2275.63
663.153	2268.42
666.046	2260.64
668.939	2287.93
671.831	2270.72
674.724	2272.58
677.617	2250.11
680.51	2294.41
683.402	2265.72
686.295	2282.23
689.188	2291
692.08	2294
694.973	2271.22
697.866	2322.91
700.758	2333.51
703.651	2334.05
706.544	2344.95
709.437	2341.51
712.329	2335.2
715.222	2335.98
718.115	2369.88
721.007	2344.52
723.9	2352.41
726.793	2391.04
729.685	2357.4
732.578	2394.1
735.471	2368.1
738.363	2361.65
741.256	2385.88
744.149	2370.91
747.042	2412.24
749.934	2357.01
752.827	2386.35
755.72	2408.01
758.612	2407.05
761.505	2396.97
764.398	2395.86
767.29	2372.46
770.183	2414.39
773.076	2382.18
775.968	2423.84
778.861	2378.43
781.754	2430.49
784.647	2407.62
787.539	2395.8
790.432	2461.09
793.325	2434.25
796.217	2413.93
799.11	2427.72
802.003	2434.93
804.895	2424.97
807.788	2469.47
810.681	2482.92
813.573	2460.77
816.466	2479.66
819.359	2482.9
822.252	2452.9
825.144	2495.52
828.037	2458.74
830.93	2481.19
833.822	2483.39
836.715	2492.12
839.608	2488.54
842.5	2477.47
845.393	2496.5
848.286	2509.48
851.179	2509.67
854.071	2485.49
856.964	2535.78
859.857	2499.91
862.749	2513.76
865.642	2499.64
868.535	2566.28
871.428	2534.75
874.32	2573.78
877.213	2544.72
880.106	2512.18
882.998	2546.54
885.891	2568.15
888.784	2555.31
891.676	2572.67
894.569	2567.33
897.462	2579.34
900.355	2577.28
903.247	2542.55
906.14	2568.93
909.033	2609.48
911.925	2601.2
914.818	2591.94
917.711	2557.15
920.603	2633.85
923.496	2599.43
926.389	2578.72
929.281	2631.66
932.174	2604.06
935.067	2626.38
937.96	2567.24
940.852	2605.47
943.745	2606.46
946.638	2612.52
949.53	2632.45
952.423	2596.92
955.316	2631.66
958.208	2659.96
961.101	2658.27
963.994	2652.65
966.886	2662.97
969.779	2660.46
972.672	2666.22
975.565	2638.14
978.457	2642.11
981.35	2653.42
984.243	2687.01
987.135	2681.2
990.028	2638.2
992.921	2691.85
995.813	2686.53
998.706	2697.41
1001.6	2747.18
1004.49	2699.29
1007.38	2714.37
1010.28	2684.02
1013.17	2687.17
1016.06	2703.21
1018.96	2703.43
1021.85	2720.56
1024.74	2739.43
1027.63	2753.37
1030.53	2706.67
1033.42	2721.16
1036.31	2737.73
1039.2	2712.11
1042.1	2699.76
1044.99	2767.98
1047.88	2727.53
1050.78	2741.87
1053.67	2732.89
1056.56	2758.17
1059.45	2726.83
1062.35	2763.24
1065.24	2738.74
1068.13	2752.55
1071.02	2775.32
1073.92	2748.02
1076.81	2796.55
1079.7	2786.46
1082.59	2786.54
1085.49	2798.21
1088.38	2759.92
1091.27	2732.64
1094.16	2781.54
1097.06	2723.96
1099.95	2782.75
1102.84	2812.94
1105.74	2742.16
1108.63	2771.13
1111.52	2814.71
1114.41	2819.05
1117.31	2787.18
1120.2	2770.03
1123.09	2790.27
1125.98	2829.87
1128.88	2797.78
1131.77	2795.73
1134.66	2847.47
1137.56	2776.63
1140.45	2807.68
1143.34	2833.47
1146.23	2832.53
1149.13	2819.51
1152.02	2878.24
1154.91	2826.59
1157.81	2802.04
1160.7	2814.13
1163.59	2820.6
1166.48	2834.06
1169.38	2852.2
1172.27	2848.22
1175.16	2820.49
1178.05	2842.53
1180.95	2859.36
1183.84	2866.89
1186.73	2859.33
1189.62	2870.29
1192.52	2881.54
1195.41	2849.85
1198.3	2874.57
1201.19	2874.41
1204.09	2859.05
1206.98	2875.26
1209.87	2889.56
1212.77	2931.95
1215.66	2860.23
1218.55	2906.12
1221.44	2884.37
1224.34	2850.99
1227.23	2928.5
1230.12	2871.86
1233.02	2914.2
1235.91	2904.72
1238.8	2912.53
1241.69	2923.28
1244.59	2915.23
1247.48	2917.64
1250.37	2911.42
1253.26	2927.96
1256.16	2929.79
1259.05	2895.95
1261.94	2933.86
1264.83	2940.06
1267.73	2927.81
1270.62	2979.69
1273.51	2954.26
1276.4	2980.05
1279.3	2917.85
