Measurement: Raman, 532 nm, unoriented, Raman Data RAW
Mineral: Clinohedrite
Rruff sample: R050416
Ideal chemistry: CaZn^2+^SiO_4_H_2_O
Locality: Franklin, Sussex County, New Jersey, USA
Source: Marcus Origlieri
Description: Colorless prismatic single crystals
Measured chemistry: (Ca_0.99_Mn_0.01_)_Σ=1_Zn_1.00_Si_1.00_O_4_·H_2_O
Raman shift (cm-1)	intensity
91.8714	0
95.2462	969.199
98.621	1725.97
101.996	3184.11
105.371	5872.98
108.746	9334.05
112.12	12353.1
115.495	15634.1
118.87	20505.2
122.245	25419.2
125.62	27734.6
128.994	29124.3
132.369	32035
135.744	33956
139.119	34750.5
142.494	34586.6
145.869	34511.4
149.243	34644.1
152.618	34726.8
155.993	35266.5
159.368	35280.2
162.743	35319.3
166.117	35644.7
169.492	35786.7
172.867	36125.2
176.242	36432.3
179.617	36913.9
182.992	36922.7
186.366	37290.9
189.741	37708.2
193.116	38094.3
196.491	38225.4
199.865	38739.8
203.24	38977.4
206.615	39437.1
209.99	39747.9
213.365	40319.3
216.74	40880
220.114	41555.1
223.489	41473.7
226.864	41773.9
230.239	42327.2
233.614	42694.1
236.988	43195.5
240.363	43736.9
243.738	44424.7
247.113	44981.4
250.488	45136.9
253.863	45618.8
257.237	45583.7
260.612	46057.1
263.987	46329.8
267.362	46722.3
270.737	47078.3
274.111	47486.2
277.486	47940.4
280.861	48447.4
284.236	48766.5
287.611	49014.2
290.986	49448.2
294.36	49745.1
297.735	50006.9
301.11	50647.3
304.485	51006.5
307.86	51522.6
311.235	51657.2
314.609	52004.4
317.984	52329
321.359	52914.7
324.734	53115.9
328.109	53621.2
331.483	53933.1
334.858	54225.9
338.233	54839.2
341.608	54909.6
344.983	55268.2
348.358	55725.1
351.732	56156.2
355.107	56356.9
358.482	56902.4
361.857	57098
365.232	57617.9
368.606	57952.2
371.981	57912.2
375.356	58652.8
378.731	58920.5
382.106	59695.4
385.481	60015.3
388.855	60625.3
392.23	60905.3
395.605	61180.4
398.98	61424.5
402.355	61790.5
405.729	61711.3
409.104	62042
412.479	62188.7
415.854	62655.9
419.229	62950.2
422.603	63273.3
425.978	63790.6
429.353	63838.2
432.728	64140.9
436.103	64560.4
439.478	64890.2
442.852	64982.2
446.227	65386.8
449.602	65804.3
452.977	66124.5
456.352	66670.1
459.726	66777.3
463.101	66707.7
466.476	67352.5
469.851	67652.2
473.226	67972.9
476.601	68161.4
479.975	68704.4
483.35	68841.6
486.725	69111.4
490.1	69419.5
493.475	69728.1
496.849	70285.7
500.224	70610.5
503.599	70772.8
506.974	70960.2
510.349	71201.2
513.723	71544.7
517.098	72281.1
520.473	72445.3
523.848	72598.1
527.223	72906.1
530.598	73344.1
533.972	73656.6
537.347	73894.4
540.722	74255.8
544.097	74725.5
547.472	75122.3
550.846	75294.4
554.221	75797.8
557.596	76111.5
560.971	76365.4
564.346	76404.5
567.721	76553.2
571.095	76790.9
574.47	77272.4
577.845	77504.8
581.22	78000.6
584.595	78282.2
587.97	78612.6
591.344	78503.5
594.719	79120.6
598.094	79264.2
601.469	79657.5
604.844	79744.9
608.218	79981.4
611.593	80212.9
614.968	80487.9
618.343	80822.2
621.718	80969.6
625.092	81005.9
628.467	81323.1
631.842	81668.2
635.217	81817.7
638.592	81982.5
641.967	82254.7
645.341	82084
648.716	82629.4
652.091	82540.9
655.466	83147.3
658.841	83571
662.216	84364.1
665.59	84414.4
668.965	84224.9
672.34	84634.9
675.715	85053.2
679.09	85143.1
682.464	85625
685.839	85731.9
689.214	85612.5
692.589	86026.3
695.964	86150.4
699.338	86736.2
702.713	87182.9
706.088	87196.5
709.463	87441.5
712.838	87693.1
716.212	87661.5
719.587	88079.4
722.962	88186.5
726.337	88601.5
729.712	89018.3
733.087	88955
736.461	89137.2
739.836	89412.8
743.211	89853.8
746.586	90056
749.961	90197.1
753.336	90453.7
756.71	90476.1
760.085	90931.8
763.46	91234.5
766.835	91404.8
770.21	91646.4
773.584	91935.2
776.959	91818
780.334	92221.1
783.709	92788.2
787.084	92950.9
790.458	93289.8
793.833	93621.9
797.208	93549.2
800.583	93853.5
803.958	93985.6
807.333	94567
810.707	94751.5
814.082	94693.2
817.457	94871.5
820.832	95258.4
824.207	95586.4
827.582	95627.2
830.956	95815.7
834.331	96203.6
837.706	96725.4
841.081	96849.2
844.456	97093.7
847.83	97441.4
851.205	98136.9
854.58	98464.1
857.955	98587.2
861.33	98452.4
864.705	98770.9
868.079	99382
871.454	99366.1
874.829	99484.3
878.204	99259.1
881.579	99338.1
884.953	99376.7
888.328	99725.3
891.703	99943.9
895.078	99853.8
898.453	99961.1
901.827	100136
905.202	100343
908.577	100288
911.952	100675
915.327	100713
918.702	101111
922.076	101246
925.451	101549
928.826	101570
932.201	101456
935.576	101420
938.95	101208
942.325	100777
945.7	100462
949.075	101548
952.45	101945
955.824	102472
959.199	102497
962.574	102586
965.949	102692
969.324	103018
972.699	103157
976.073	103282
979.448	103535
982.823	103508
986.198	103586
989.573	103877
992.947	103568
996.322	103707
999.697	103858
1003.07	103741
1006.45	103852
1009.82	104245
1013.2	104594
1016.57	104224
1019.95	104368
1023.32	104404
1026.7	104424
1030.07	105135
1033.44	104658
1036.82	104941
1040.19	104924
1043.57	104855
1046.94	104980
1050.32	104956
1053.69	105100
1057.07	105450
1060.44	105396
1063.82	105622
1067.19	105153
1070.57	105078
1073.94	105773
1077.32	105902
1080.69	106007
1084.07	106105
1087.44	106338
1090.82	106201
1094.19	106321
1097.57	106439
1100.94	106917
1104.32	106901
1107.69	106845
1111.07	106835
1114.44	107070
1117.82	107282
1121.19	107103
1124.57	107295
1127.94	107435
1131.32	107896
1134.69	108030
1138.07	107934
1141.44	108184
1144.81	108223
1148.19	107998
1151.56	108371
1154.94	107782
1158.31	108013
1161.69	108324
1165.06	108419
1168.44	108939
1171.81	108848
1175.19	108931
1178.56	109205
1181.94	108888
1185.31	108976
1188.69	109360
1192.06	109415
1195.44	109376
1198.81	109320
1202.19	109413
1205.56	109648
1208.94	109781
1212.31	109657
1215.68	109982
1219.06	109664
1222.43	109781
1225.81	109854
1229.18	109976
1232.56	109938
1235.93	110023
1239.31	110202
1242.68	109821
1246.06	110037
1249.43	110329
1252.81	110674
1256.18	110343
1259.56	110522
1262.93	110245
1266.31	110184
1269.68	110381
1273.06	110413
1276.43	110541
1279.81	110141
1283.18	110718
1286.56	110725
1289.93	110835
1293.31	110834
1296.68	110950
1300.06	110602
1303.43	110432
