Measurement: Raman, 785 nm, unoriented, Raman Data RAW
Mineral: Clintonite
Rruff sample: R070196
Ideal chemistry: CaAlMg_2_(SiAl_3_)O_10_(OH)_2_
Locality: Crestmore, Riverside County, California, USA
Source: California Institute of Technology
Description: Transparent green micaceous single crystal
Measured chemistry: (Ca_0.97_[box]_0.03_)_Σ=1_(Al_0.90_Fe^3+^_0.10_)_Σ=1_Mg_2.00_(Si_1.18_Al_2.82_)_Σ=3_O_10_((OH)_1.88_O_0.12_)_Σ=2_; OH estimated by charge balance
Raman shift (cm-1)	intensity
171.932	33946.6
174.824	34186.4
177.717	34310.7
180.61	34535.5
183.502	34750.9
186.395	35122.7
189.288	35282.8
192.181	35381.9
195.073	35684.1
197.966	35887
200.859	36127.6
203.751	36190.4
206.644	36036.3
209.537	35993.4
212.429	36113.5
215.322	36256.1
218.215	36433
221.108	36711.9
224	37143.4
226.893	37110.3
229.786	37048.1
232.678	37198.5
235.571	37093.7
238.464	36908
241.357	36707.3
244.249	36540.8
247.142	36456.1
250.035	36350.5
252.927	36235.1
255.82	36177.1
258.713	36503.4
261.605	36497.2
264.498	36654.2
267.391	36480.6
270.284	36682.8
273.176	36614.2
276.069	36634.7
278.962	36564.4
281.854	36555.2
284.747	36741.3
287.64	36755.7
290.532	36697.1
293.425	36723.9
296.318	36833.1
299.211	36799.2
302.103	36754
304.996	36909.1
307.889	36951.9
310.781	37167.8
313.674	36868.1
316.567	36962.6
319.459	37006.6
322.352	36906.3
325.245	37118.4
328.137	37178.6
331.03	37419.7
333.923	37732.1
336.816	37552.4
339.708	37617.5
342.601	37782
345.494	37831.9
348.386	37843.6
351.279	37743.5
354.172	37683
357.065	37443.2
359.957	37349.4
362.85	36939.2
365.743	36896.4
368.635	36763.6
371.528	36912.9
374.421	36963
377.313	36890.5
380.206	36976.7
383.099	37081.9
385.991	37020.8
388.884	37221.3
391.777	37567
394.67	37996.7
397.562	38248.7
400.455	38098.8
403.348	38021.1
406.24	37567.2
409.133	37217.3
412.026	36839.2
414.918	36606.1
417.811	36476.5
420.704	36318.3
423.597	36079.7
426.489	35934.7
429.382	35593.3
432.275	35673.7
435.167	35607.2
438.06	35552.4
440.953	35479.3
443.846	35341.6
446.738	35360.3
449.631	35181.2
452.524	35246.7
455.416	35040.8
458.309	34924.8
461.202	34849.6
464.094	34855.2
466.987	34778.5
469.88	34633
472.772	34473.7
475.665	34351.1
478.558	34255.4
481.451	34194.6
484.343	34135.5
487.236	34296.6
490.129	34230.4
493.021	34367.6
495.914	34111.8
498.807	34002.6
501.7	34072.4
504.592	33824.1
507.485	33910.1
510.378	33719.6
513.27	33624.6
516.163	33641.4
519.056	33353.2
521.948	33218.5
524.841	33162.5
527.734	33063.5
530.626	33220.9
533.519	33155.3
536.412	33175.8
539.305	32859.2
542.197	32905.6
545.09	32680.5
547.983	32545.8
550.875	32429.1
553.768	32397.4
556.661	32305.8
559.553	32056.3
562.446	31935.8
565.339	31918.5
568.232	31571.2
571.124	31501.4
574.017	31482.5
576.91	31240.2
579.802	31260.1
582.695	31217.2
585.588	31280.4
588.481	31083.9
591.373	31250.2
594.266	30850.5
597.159	30729.9
600.051	30711.7
602.944	30800.1
605.837	30741.8
608.729	30543.2
611.622	30463.5
614.515	30495.8
617.408	30193.2
620.3	30242.8
623.193	30248.3
626.086	30417.3
628.978	30408.8
631.871	30282.3
634.764	30447.1
637.656	30583.7
640.549	31008.5
643.442	31353.1
646.335	32006.5
649.227	32713.4
652.12	33131.6
655.013	33152.8
657.905	32513.6
660.798	31280.6
663.691	30589.2
666.583	29852.5
669.476	29575.5
672.369	29271.3
675.261	29299.8
678.154	28908.3
681.047	28819.4
683.94	28858.1
686.832	28579.4
689.725	28595.5
692.618	28334.7
695.51	28251.4
698.403	28258.7
701.296	28173.6
704.188	27798.4
707.081	27668.7
709.974	27692.8
712.867	27341.7
715.759	27390.7
718.652	27344.5
721.545	27246.3
724.437	27171.8
727.33	27016
730.223	26890.2
733.115	26749.5
736.008	26692.4
738.901	26725.3
741.794	26608
744.686	26456.3
747.579	26312.1
750.472	26254.5
753.364	26102.8
756.257	25813.1
759.15	25888.9
762.043	25934.4
764.935	25698.6
767.828	25791.9
770.721	25723.7
773.613	25719.2
776.506	25582
779.399	25492.2
782.291	25318.2
785.184	25353.3
788.077	25351.3
790.97	25369.3
793.862	25209.4
796.755	25073.7
799.648	24946.5
802.54	24841.7
805.433	24646.6
808.326	24720.8
811.218	24506.1
814.111	24494.2
817.004	24419.9
819.896	24454.3
822.789	24336.5
825.682	24279.4
828.575	24244.7
831.467	24046.1
834.36	24000.5
837.253	23789.8
840.145	23743.7
843.038	23616.4
845.931	23660.5
848.823	23355
851.716	23302.1
854.609	23132.8
857.502	23142.8
860.394	22978.7
863.287	23023.7
866.18	22760.3
869.072	22872.9
871.965	22743.6
874.858	22649.8
877.75	22798
880.643	22823.6
883.536	22955.6
886.429	23143
889.321	23345.5
892.214	23407.8
895.107	23430.6
898	23046
900.892	22771.4
903.785	22418.4
906.678	22347.1
909.57	22080.2
912.463	21832.2
915.356	21807.5
918.248	21704.7
921.141	21568.2
924.034	21403.6
926.927	21481
929.819	21325.7
932.712	21231.8
935.605	21050.9
938.497	20938.3
941.39	20831.9
944.283	20802.6
947.175	20564.4
950.068	20726.8
952.961	20465
955.854	20532.5
958.746	20335.5
961.639	20222.7
964.532	20127.7
967.424	20165.6
970.317	20047.5
973.21	20058
976.102	19899.6
978.995	19871.7
981.888	19782.2
984.78	19710.6
987.673	19543.5
990.566	19494.9
993.459	19175.8
996.351	19205.3
999.244	19149.9
1002.14	19052.7
1005.03	19106.9
1007.92	18840.9
1010.82	18885
1013.71	18761.5
1016.6	18670.3
1019.49	18601.7
1022.39	18516.4
1025.28	18449.8
1028.17	18397.5
1031.06	18214
1033.96	18136.1
1036.85	18129.1
1039.74	18075.2
1042.63	17963.2
1045.53	17933.8
1048.42	17845.9
1051.31	17731.5
1054.2	17815.3
1057.1	17647.1
1059.99	17681.7
1062.88	17547.2
1065.78	17490.7
1068.67	17478.9
1071.56	17381.5
1074.45	17272
1077.35	17172.2
1080.24	17144.2
1083.13	17072.6
1086.03	16943.5
1088.92	17004.8
1091.81	16857.4
1094.7	16877.5
1097.6	16770.3
1100.49	16838.2
1103.38	16855.9
1106.27	16515.8
1109.17	16612.4
1112.06	16393.3
1114.95	16413
1117.85	16325.3
1120.74	16167.2
1123.63	16157.5
1126.52	16047.9
1129.42	16052.9
1132.31	16035.8
1135.2	15890.3
1138.09	15830.7
1140.99	15750.6
1143.88	15736.4
1146.77	15672.9
1149.66	15745
1152.56	15611.3
1155.45	15504.1
1158.34	15453.6
1161.23	15450.5
1164.13	15240
1167.02	15231.9
1169.91	15183
1172.81	15104.4
1175.7	15053.6
1178.59	15075.6
1181.48	14993
1184.38	14926.4
1187.27	14826
1190.16	14796.1
1193.06	14763.2
1195.95	14701.3
1198.84	14760.7
1201.73	14537.4
1204.63	14610.9
1207.52	14412.1
1210.41	14380.7
1213.3	14321.2
1216.2	14333.3
1219.09	14293.3
1221.98	14175.1
1224.88	14134.9
1227.77	14088.6
1230.66	14050
1233.55	13958.2
1236.44	13927
