Measurement: Raman, 532 nm, unoriented, Raman Data Processed
Mineral: Clinoatacamite
Rruff sample: R141083
Ideal chemistry: Cu^2+^_2_Cl(OH)_3_
Locality: Lily mine, Ica Region, Peru
Source: Marcus Origlieri
Description: Dark green crystals
Raman shift (cm-1)	intensity
102.031	0
105.406	16.8982
108.781	252.062
112.155	525.98
115.53	1317.39
118.905	2772.15
122.28	1557.86
125.654	788.642
129.029	651.441
132.404	749.636
135.779	1015.79
139.154	1759.11
142.529	2632.88
145.903	1121.66
149.278	581.83
152.653	287.377
156.028	155.33
159.403	98.3226
162.778	102.921
166.152	125.803
169.527	81.6296
172.902	32.7047
176.277	45.4943
179.652	15.5156
183.026	26.3093
186.401	70.8531
189.776	112.434
193.151	141.681
196.526	179.273
199.9	197.961
203.275	197.477
206.65	168.623
210.025	138.65
213.4	118.101
216.775	86.4122
220.149	54.0785
223.524	33.5946
226.899	24.0319
230.274	25.5077
233.649	10.9929
237.024	6.20715
240.398	25.3896
243.773	48.377
247.148	71.2406
250.523	95.2183
253.898	123.1
257.272	144.399
260.647	144.949
264.022	123.877
267.397	96.3809
270.772	63.7512
274.147	44.7961
277.521	31.3936
280.896	19.014
284.271	10.9131
287.646	4.2356
291.021	3.24268
294.395	3.8429
297.77	2.18994
301.145	4.08844
304.52	0.3797
307.895	1.21027
311.269	1.13776
314.644	1.48498
318.019	2.57397
321.394	7.02765
324.769	12.6434
328.144	27.2712
331.518	40.3892
334.893	52.692
338.268	68.2244
341.643	75.2956
345.018	78.6137
348.392	83.8995
351.767	96.4874
355.142	118.668
358.517	140.352
361.892	165.8
365.267	167.406
368.641	159.746
372.016	125.291
375.391	76.3572
378.766	26.4976
382.141	0.921936
385.515	6.45587
388.89	4.86981
392.265	6.32239
395.64	30.9152
399.015	74.6753
402.389	128.685
405.764	201.396
409.139	277.251
412.514	369.61
415.889	489.852
419.264	582.692
422.638	587.514
426.013	498.598
429.388	411.873
432.763	362.137
436.138	346.498
439.512	349.116
442.887	339.772
446.262	297.303
449.637	208.182
453.012	119.567
456.387	55.471
459.761	16.7734
463.136	3.15008
466.511	10.5173
469.886	7.55542
473.261	6.32715
476.635	30.8629
480.01	73.403
483.385	136.084
486.76	221.757
490.135	333.937
493.51	480.635
496.884	642.779
500.259	803.464
503.634	959.61
507.009	1162.05
510.384	1390.28
513.759	1469.03
517.133	1224.59
520.508	825.949
523.883	501.514
527.258	293.69
530.633	166.572
534.007	94.4077
537.382	47.8312
540.757	22.6886
544.132	11.4857
547.507	11.0399
550.881	17.8727
554.256	33.6675
557.631	57.1251
561.006	94.5349
564.381	138.429
567.756	187.035
571.13	231.534
574.505	258.858
577.88	262.385
581.255	229.863
584.63	178.168
588.004	119.491
591.379	76.4804
594.754	45.6556
598.129	25.7143
601.504	11.2974
604.879	3.0286
608.253	0.349121
611.628	2.87085
615.003	1.63003
618.378	3.10721
621.753	3.65897
625.127	0.203888
628.502	0.419067
631.877	2.20581
635.252	4.83398
638.627	7.85962
642.001	10.997
645.376	14.7779
648.751	16.3171
652.126	19.5391
655.501	19.0108
658.875	21.7063
662.25	21.0049
665.625	24.0192
669	23.6629
672.375	19.6891
675.75	19.242
679.125	16.111
682.499	13.9345
685.874	7.8833
689.249	9.2446
692.624	7.19147
695.999	5.38498
699.373	5.01245
702.748	3.91348
706.123	3.44281
709.498	3.70908
712.873	1.32221
716.247	0.248901
719.622	1.50073
722.997	0.126678
726.372	0.70108
729.747	0.509186
733.121	0.547058
736.496	0.986877
739.871	2.79584
743.246	0.584961
746.621	2.53095
749.996	4.78983
753.37	7.50906
756.745	12.7906
760.12	19.8914
763.495	29.2246
766.87	43.6997
770.245	61.5106
773.619	90.0975
776.994	126.32
780.369	181.063
783.744	258.031
787.119	357.135
790.493	475.58
793.868	602.637
797.243	706.869
800.618	729.142
803.993	640.013
807.367	489.548
810.742	337.965
814.117	234.802
817.492	167.638
820.867	131.6
824.242	104.83
827.616	90.0105
830.991	71.1254
834.366	46.6474
837.741	22.6613
841.116	11.07
844.49	0.678741
847.865	2.34128
851.24	4.00864
854.615	1.44754
857.99	10.3186
861.365	26.4628
864.739	44.7341
868.114	64.0503
871.489	71.5434
874.864	76.7261
878.239	108.105
881.614	173.912
884.988	274.509
888.363	410.087
891.738	544.184
895.113	552.726
898.487	381.435
901.862	204.509
905.237	106.621
908.612	57.8137
911.987	38.8474
915.362	41.153
918.736	66.1629
922.111	106.624
925.486	162.268
928.861	201.217
932.236	165.257
935.611	91.4348
938.985	40.6375
942.36	11.9361
945.735	1.94144
949.11	3.99805
952.485	4.43133
955.859	0.33902
959.234	6.06189
962.609	20.5728
965.984	38.0088
969.359	64.083
972.734	78.7129
976.108	67.9217
979.483	57.1043
982.858	50.4715
986.233	36.2111
989.608	29.1629
992.982	27.5398
996.357	31.477
999.732	34.8863
1003.11	36.188
1006.48	33.1489
1009.86	30.6252
1013.23	28.9754
1016.61	29.7789
1019.98	29.1874
1023.36	28.3635
1026.73	29.0927
1030.11	26.1177
1033.48	25.0071
1036.86	24.4254
1040.23	22.6615
1043.61	19.5155
1046.98	16.3513
1050.35	11.5464
1053.73	9.59816
1057.1	6.53175
1060.48	3.46988
1063.85	1.7832
1067.23	0.140625
1070.6	0.438736
1073.98	1.56981
1077.35	1.5376
1080.73	1.4734
1084.1	0.808243
1087.48	0.023895
1090.85	0.062286
1094.23	1.26723
1097.6	1.52394
1100.98	3.18036
1104.35	4.42896
1107.73	4.69373
1111.1	7.10385
1114.48	8.69933
1117.85	7.36133
1121.22	9.12161
1124.6	9.94814
1127.97	8.26109
1131.35	9.87764
1134.72	8.31911
1138.1	7.65355
1141.47	6.48925
1144.85	5.08727
1148.22	4.38527
1151.6	4.30755
1154.97	3.76572
1158.35	3.34666
1161.72	2.69888
1165.1	0.793579
1168.47	2.24351
1171.85	0.550461
1175.22	0.699471
1178.6	1.26982
1181.97	0.451591
1185.35	0.628853
1188.72	0.681015
1192.1	0.66893
1195.47	1.03339
1198.85	0.263947
1202.22	0.489655
1205.6	1.95781
1208.97	0.248734
1212.35	0.217987
1215.72	1.1188
1219.1	0.551422
1222.47	0.710625
1225.85	0.661232
1229.22	1.27647
1232.59	1.21767
1235.97	1.47716
1239.34	2.47275
1242.72	0.506195
1246.09	2.46954
1249.47	3.21213
1252.84	1.61235
1256.22	4.45454
1259.59	1.89459
1262.97	1.54462
1266.34	2.52873
1269.72	1.11643
1273.09	0.596001
1276.47	0.695854
1279.84	0.875549
1283.22	0.639427
1286.59	1.18469
1289.97	1.42001
1293.34	0.057129
1296.72	0.022636
1300.09	0.000542
