Measurement: Raman, 780 nm, unoriented, Raman Data Processed
Mineral: Clinoatacamite
Rruff sample: R141083
Ideal chemistry: Cu^2+^_2_Cl(OH)_3_
Locality: Lily mine, Ica Region, Peru
Source: Marcus Origlieri
Description: Dark green crystals
Raman shift (cm-1)	intensity
113.053	0
116.428	15.5331
119.802	17.2309
123.177	12.8131
126.552	0.689667
129.927	8.33057
133.302	9.29468
136.677	24.959
140.051	50.8467
143.426	43.2343
146.801	23.4752
150.176	10.5145
153.551	4.48158
156.925	3.71341
160.3	1.39787
163.675	1.44974
167.05	0.921219
170.425	2.67525
173.799	0.414948
177.174	5.38443
180.549	7.44803
183.924	11.8778
187.299	15.4602
190.674	16.5865
194.048	17.9279
197.423	19.6449
200.798	20.3599
204.173	22.5023
207.548	23.4309
210.923	22.7108
214.297	22.2422
217.672	22.5254
221.047	22.3914
224.422	20.8506
227.797	19.6454
231.171	19.0429
234.546	20.8909
237.921	23.0726
241.296	22.1515
244.671	19.5693
248.046	16.648
251.42	14.0381
254.795	13.4831
258.17	11.2241
261.545	10.8133
264.92	8.26338
268.294	6.10568
271.669	4.67432
275.044	3.20095
278.419	2.63829
281.794	2.59969
285.168	1.36128
288.543	1.19473
291.918	1.84132
295.293	0.525887
298.668	2.42632
302.043	2.33878
305.417	0.189453
308.792	0.81385
312.167	0.008759
315.542	0.414017
318.917	0.613441
322.291	0.183144
325.666	0.384483
329.041	0.330322
332.416	0.159401
335.791	0.621597
339.166	0.60112
342.54	1.29306
345.915	0.563164
349.29	1.07497
352.665	0.821594
356.04	1.04044
359.414	1.10815
362.789	0.385826
366.164	1.51873
369.539	1.49817
372.914	0.720596
376.288	0.159107
379.663	1.53437
383.038	3.88189
386.413	0.235802
389.788	0.347149
393.163	0.697697
396.537	0.563328
399.912	0.943836
403.287	1.15792
406.662	3.22287
410.037	2.61196
413.411	2.47672
416.786	3.35226
420.161	4.40419
423.536	4.09958
426.911	4.60654
430.286	3.01804
433.66	4.59802
437.035	4.48417
440.41	4.61332
443.785	4.32728
447.16	4.11688
450.534	4.29638
453.909	2.96547
457.284	2.04861
460.659	2.7617
464.034	2.13461
467.409	1.65116
470.783	0.769806
474.158	0.23914
477.533	0.133545
480.908	0.872665
484.283	2.44323
487.658	2.35395
491.032	3.29277
494.407	4.79408
497.782	5.92366
501.157	7.39771
504.532	7.35167
507.906	10.011
511.281	10.0829
514.656	9.3163
518.031	6.67142
521.406	4.83606
524.78	3.49157
528.155	1.74217
531.53	0.638626
534.905	0.680984
538.28	0.361187
541.654	0.167976
545.029	0.545517
548.404	0.473057
551.779	1.15894
555.154	1.38895
558.529	2.86647
561.903	1.18693
565.278	1.25196
568.653	0.771877
572.028	1.46522
575.403	1.42343
578.778	0.384949
582.152	0.574539
585.527	0.67152
588.902	0.771149
592.277	0.739532
595.652	1.07987
599.027	0.661407
602.401	0.972221
605.776	0.215523
609.151	0.221783
612.526	0.137253
615.901	0.722801
619.275	0.025993
622.65	0.319267
626.025	0.415028
629.4	0.912834
632.775	0.419479
636.149	1.29054
639.524	1.35745
642.899	2.3104
646.274	1.12414
649.649	1.83126
653.024	1.52907
656.398	2.29301
659.773	1.77959
663.148	1.91526
666.523	1.29943
669.898	1.45227
673.273	1.005
676.647	0.993114
680.022	1.35962
683.397	0.175922
686.772	0.980343
690.146	0.674278
693.521	0.374557
696.896	0.519943
700.271	0.646996
703.646	1.08218
707.021	0.754543
710.395	0.066715
713.77	0.401016
717.145	0.848354
720.52	0.643299
723.895	0.368217
727.269	0.402439
730.644	0.312664
734.019	0.33382
737.394	0.336639
740.769	0.224751
744.144	0.367298
747.518	0.314987
750.893	0.137833
754.268	0.103287
757.643	0.202995
761.018	0.336029
764.393	1.02548
767.767	0.466278
771.142	0.249287
774.517	1.46989
777.892	1.41022
781.267	2.19683
784.641	2.0268
788.016	2.33971
791.391	3.25168
794.766	3.65598
798.141	3.35341
801.515	4.63882
804.89	4.02698
808.265	2.85241
811.64	3.14189
815.015	3.42855
818.39	2.9
821.764	2.37752
825.139	2.37813
828.514	3.44051
831.889	4.3792
835.264	2.92071
838.639	3.37016
842.013	3.36556
845.388	3.17512
848.763	3.62765
852.138	4.27108
855.513	4.37005
858.887	4.43705
862.262	4.94104
865.637	4.08209
869.012	4.13263
872.387	3.58727
875.761	3.79097
879.136	4.2964
882.511	4.56216
885.886	4.06754
889.261	4.00342
892.636	4.16908
896.01	2.9339
899.385	2.45773
902.76	1.95666
906.135	0.830345
909.51	0.436089
912.885	0.403687
916.259	0.095463
919.634	1.19118
923.009	0.200562
926.384	0.047459
929.759	0.266403
933.133	0.978012
936.508	0.971302
939.883	0.214577
943.258	0.448334
946.633	0.554733
950.007	0.139805
953.382	0.657177
956.757	0.226616
960.132	0.95665
963.507	0.925816
966.881	0.674759
970.256	1.17267
973.631	0.696732
977.006	1.17009
980.381	0.968979
983.756	0.868591
987.13	1.57157
990.505	1.40707
993.88	0.452038
997.255	1.49353
1000.63	1.17424
1004	1.0096
1007.38	2.02229
1010.75	1.81356
1014.13	0.422691
1017.5	0.959408
1020.88	0.917313
1024.25	1.78385
1027.63	2.16906
1031	1.92176
1034.38	1.72484
1037.75	1.47244
1041.13	2.17658
1044.5	1.49495
1047.88	3.20941
1051.25	2.26797
1054.63	2.02928
1058	1.81049
1061.38	1.92814
1064.75	0.996883
1068.13	0.474707
1071.5	1.03852
1074.88	0.456335
1078.25	1.19431
1081.62	0.600374
1085	0.207779
1088.38	0.749891
1091.75	0.550474
1095.12	0.785452
1098.5	0.05554
1101.87	0.408665
1105.25	0.100819
1108.62	0.112654
1112	0.630583
1115.37	0.033527
1118.75	0.470268
1122.12	0.676233
1125.5	0.233236
1128.87	0.295225
1132.25	0.011772
1135.62	0.562811
1139	0.015879
1142.37	0.509476
1145.75	1.84529
1149.12	0.460407
1152.5	0.492262
1155.87	0.671412
1159.25	0.190989
1162.62	0.273285
1166	0.847563
1169.37	0.226648
1172.74	0.855164
1176.12	0.637075
1179.49	1.49744
1182.87	0.737303
1186.24	0.399002
1189.62	1.07142
1192.99	1.06132
1196.37	0.459145
1199.74	0.996912
1203.12	0.646236
1206.49	0.695494
1209.87	1.11205
1213.24	1.18
1216.62	0.553947
1219.99	1.06121
1223.37	1.12781
1226.74	1.27735
1230.12	1.27495
1233.49	0.934858
1236.87	0.758688
1240.24	0.863592
1243.62	0.208254
1246.99	0.747768
1250.37	0.357725
1253.74	0.606968
1257.12	1.14902
1260.49	1.12899
1263.87	1.42542
1267.24	1.03826
1270.62	0.742884
1273.99	0.839806
1277.37	0.054132
1280.74	0.509033
