Measurement: Raman, 514 nm, unoriented, Raman Data RAW
Mineral: Clinohumite
Rruff sample: X050039
Ideal chemistry: Mg_9_(SiO_4_)_4_F_2_
Source: Caltech
Raman shift (cm-1)	intensity
100.609	88
111.441	188.67
122.273	351.285
133.106	533.857
143.938	724.622
154.77	900.933
165.602	973.223
176.435	1019.94
187.267	1196.32
198.099	1247.6
208.932	1270.47
219.764	1240.73
230.596	1281.69
241.429	1336.07
252.261	1389.78
263.093	1369.96
273.926	1400.31
284.758	1436.9
295.59	1418.06
306.423	1496.34
317.255	1675.86
328.087	1608.22
338.92	1506.14
349.752	1529.33
360.584	1387.78
371.416	1342.46
382.249	1191.04
393.081	1212.87
403.913	1166.12
414.746	1188.9
425.578	1440.28
436.41	1414.65
447.243	1427.39
458.075	1359.98
468.907	1410.9
479.74	1518.88
490.572	1672.68
501.404	1699.61
512.236	1579.45
523.069	1779.44
533.901	2203.58
544.734	2137.9
555.566	1611.03
566.398	1532.07
577.23	1571.4
588.063	1635.37
598.895	2009.5
609.727	2429.07
620.56	1615.09
631.392	1357.84
642.224	1186.45
653.057	1192.28
663.889	1223.34
674.721	1268.34
685.553	1323.09
696.386	1442.54
707.218	1607.79
718.051	1945.78
728.883	2651.96
739.715	3816.89
750.547	5724.83
761.38	5247.56
772.212	3440.38
783.044	3950.7
793.877	2979.31
804.709	2650
815.541	3489.15
826.374	9393.8
837.206	10397.3
848.038	9333.85
858.87	8623.78
869.703	5217.68
880.535	2905.92
891.367	2291.49
902.2	2252.32
913.032	2558.43
923.864	2199.73
934.697	2117.66
945.529	2033
956.361	2551.81
967.194	3787.76
978.026	2722.8
988.858	2190.19
999.691	2123.31
1010.52	2079.07
1021.36	2079.58
1032.19	1952.25
1043.02	1878.83
1053.85	1796.32
1064.68	1773.13
1075.52	1769.77
1086.35	1780.72
1097.18	1769.7
1108.01	1740.44
1118.85	1783.73
1129.68	1796.06
1140.51	1788.49
1151.34	1802.88
1162.18	1825.67
1173.01	1841.66
1183.84	1878.57
1194.67	1894.65
1205.5	2005.72
1216.34	2055.91
1227.17	2130.23
1238	2150.53
1248.83	2264.86
1259.67	2236.04
1270.5	2243.09
1281.33	2291.24
1292.16	2270.22
1303	2228.06
1313.83	2198.79
1324.66	2135.46
1335.49	2173.41
1346.32	2189.31
1357.16	2265
1367.99	2222.98
1378.82	2247.13
1389.65	2268.37
1400.49	2227.88
1411.32	2301.65
1422.15	2309.02
1432.98	2382.81
1443.82	2457.46
1454.65	2453.06
1465.48	2588.15
1476.31	2687.88
1487.14	2825.97
1497.98	2975.45
1508.81	3005.64
1519.64	2846.78
1530.47	2770.77
1541.31	2727.41
1552.14	2695.46
1562.97	2835.83
1573.8	2728.1
1584.64	2799.41
1595.47	2896.46
1606.3	2922.22
1617.13	2922.63
1627.96	3011.61
1638.8	2929.43
1649.63	3038.57
1660.46	3072.75
1671.29	3059.25
1682.13	3084.88
1692.96	3186.28
1703.79	3185.71
1714.62	3290.78
1725.46	3329.12
1736.29	3355.2
1747.12	3408.89
1757.95	3431.45
1768.78	3496.97
1779.62	3496.54
1790.45	3533.73
1801.28	3481.75
1812.11	3563.03
1822.95	3566.4
1833.78	3628.96
1844.61	3681.38
1855.44	3591.86
1866.28	3791.93
1877.11	3803.03
1887.94	3807.25
1898.77	3885.22
1909.61	3922.29
1920.44	3947.35
1931.27	4043.08
1942.1	4058.8
1952.93	4123.92
1963.77	4156.34
1974.6	4257.83
1985.43	4314.96
1996.26	4368.75
2007.1	4337.63
2017.93	4392.49
2028.76	4475.89
2039.59	4490.81
2050.43	4533.53
2061.26	4521.71
2072.09	4627.38
2082.92	4602.24
2093.75	4676.27
2104.59	4746.1
2115.42	4840.97
2126.25	4849.55
2137.08	4898.35
2147.92	4939.54
2158.75	5057.96
2169.58	5054.19
2180.41	5075.96
2191.25	5178.59
2202.08	5290.38
2212.91	5353.81
2223.74	5361.13
2234.57	5444.12
2245.41	5464.33
2256.24	5586.92
2267.07	5606.21
2277.9	5669.85
2288.74	5710.01
2299.57	5761.55
2310.4	5837.95
2321.23	5873.72
2332.07	5992.24
2342.9	6017.45
2353.73	6023.99
2364.56	6158.71
2375.39	6149.1
2386.23	6110.62
2397.06	6382.34
2407.89	6397.08
2418.72	6530.29
2429.56	6562.42
2440.39	6688.65
2451.22	6675.29
2462.05	6801.45
2472.89	6832.12
2483.72	6961.81
2494.55	6959.98
2505.38	7039.04
2516.21	7101.52
2527.05	7138.39
2537.88	7260.53
2548.71	7314.77
2559.54	7350.94
2570.38	7462.97
2581.21	7562.74
2592.04	7670.68
2602.87	7645.5
2613.71	7756.19
2624.54	7880.29
2635.37	7899.34
2646.2	8007.9
2657.03	8128.69
2667.87	8146.87
2678.7	8301.75
2689.53	8347.45
2700.36	8373.34
2711.2	8428.98
2722.03	8586.87
2732.86	8668.12
2743.69	8822.84
2754.53	8879.8
2765.36	8917.66
2776.19	9054.8
2787.02	9076.08
2797.85	9157.74
2808.69	9287.46
2819.52	9307.31
2830.35	9487.97
2841.18	9542.55
2852.02	9739.52
2862.85	9765.42
2873.68	9907.01
2884.51	10000.4
2895.35	10155.1
2906.18	10235.1
2917.01	10237.3
2927.84	10339.6
2938.67	10548.2
2949.51	10550.3
2960.34	10694.3
2971.17	10736.3
2982	10859
2992.84	10887
3003.67	11088.4
3014.5	11223.1
3025.33	11299.4
3036.17	11362
3047	11363.9
3057.83	11470
3068.66	11626.6
3079.49	11786.5
3090.33	11841.1
3101.16	11838.6
3111.99	12079.3
3122.82	12111.1
3133.66	12261.9
3144.49	12417.2
3155.32	12449.4
3166.15	12552.8
3176.99	12621
3187.82	12689.9
3198.65	12939.8
3209.48	12953.6
3220.31	13110.6
3231.15	13097.3
3241.98	13200.7
3252.81	13516.7
3263.64	13498.3
3274.48	13510.8
3285.31	13597.3
3296.14	13816.6
3306.97	13970.1
3317.81	14015.8
3328.64	14082.8
3339.47	14288.9
3350.3	14392
3361.14	14460.8
3371.97	14819.4
3382.8	15167.7
3393.63	15567.2
3404.46	15779.1
3415.3	15688.7
3426.13	15334.5
3436.96	15171.5
3447.79	15156.2
3458.63	15246.1
3469.46	15324.8
3480.29	15421.6
3491.12	15408.9
3501.96	15485
3512.79	15641.4
3523.62	15770.3
3534.45	15856.4
3545.28	16174.4
3556.12	18006.4
3566.95	19772.8
3577.78	18947.7
3588.61	16488.7
3599.45	16353.5
3610.28	16343.4
3621.11	16294.8
3631.94	16574.4
3642.78	16460.8
3653.61	16693.1
3664.44	16425.2
3675.27	16703.8
3686.1	16778.7
3696.94	16919.3
3707.77	16934.6
3718.6	17019.7
3729.43	17036.1
3740.27	16992.5
3751.1	17081.1
3761.93	17244.6
3772.76	17218.9
3783.6	17156.7
3794.43	17258.1
3805.26	17400.9
3816.09	17271.6
3826.92	17480.5
3837.76	17473.6
3848.59	17521.6
3859.42	17579.7
3870.25	17523.4
3881.09	17517.5
3891.92	17676.8
3902.75	17650.3
3913.58	17739.9
3924.42	17715.3
3935.25	17764.1
3946.08	17724.2
3956.91	17890.6
3967.74	17708.4
3978.58	17955.4
3989.41	17845.6
4000.24	17821
