Measurement: Raman, 780 nm, unoriented, Raman Data Processed
Mineral: Clinoferrosilite
Rruff sample: R141085
Ideal chemistry: Fe^2+^SiO_3_
Locality: Caspar quarry, Bellerberg volcano, Ettringen, Mayen, Eifel, Rhineland-Palatinate, Germany
Source: Ch. and H. Sch√§fer
Description: Brown prismatic crystals, associated with pyroxferroite, R141080
Raman shift (cm-1)	intensity
154.114	0
157.007	0.585083
159.9	1.25983
162.792	6.53973
165.685	5.3667
168.578	2.90979
171.471	4.17224
174.363	5.04205
177.256	3.28955
180.149	2.27881
183.041	1.70422
185.934	1.89264
188.827	1.37067
191.72	0.176697
194.612	3.53638
197.505	6.7262
200.398	18.8392
203.29	28.9523
206.183	45.0181
209.076	78.0559
211.969	141.782
214.861	255.472
217.754	348.404
220.647	280.397
223.539	150.225
226.432	77.9394
229.325	49.0604
232.217	37.3483
235.11	34.2672
238.003	25.2097
240.895	15.576
243.788	9.59857
246.681	7.64404
249.574	8.50909
252.466	11.0426
255.359	16.3242
258.252	27.5595
261.144	43.419
264.037	62.1965
266.93	86.6102
269.822	120.981
272.715	168.004
275.608	236.958
278.5	312.254
281.393	355.743
284.286	336.731
287.179	284.566
290.071	227.618
292.964	175.805
295.857	129.083
298.75	94.7516
301.642	67.6763
304.535	47.0266
307.428	32.305
310.32	18.9999
313.213	10.6005
316.106	7.75189
318.998	2.28943
321.891	0.68988
324.784	1.1488
327.676	0.082703
330.569	0.003082
333.462	0.526764
336.355	1.71042
339.247	1.854
342.14	1.13657
345.033	1.55747
347.925	3.02673
350.818	5.38992
353.711	6.59958
356.603	6.50128
359.496	12.0798
362.389	13.8141
365.282	17.0203
368.174	24.0519
371.067	27.3667
373.96	36.9637
376.852	40.7169
379.745	48.3854
382.638	58.4572
385.531	73.6358
388.423	88.9102
391.316	99.1428
394.209	106.357
397.101	106.685
399.994	100.343
402.887	85.7717
405.779	70.2556
408.672	53.806
411.565	42.1851
414.457	29.1629
417.35	22.6602
420.243	15.9526
423.136	13.89
426.028	9.73337
428.921	6.60754
431.814	3.89618
434.706	2.43811
437.599	0.957794
440.492	1.18893
443.385	1.2825
446.277	1.42859
449.17	0.198029
452.063	3.96509
454.955	0.338776
457.848	2.91812
460.741	3.40286
463.633	4.34073
466.526	9.1272
469.419	9.17627
472.312	11.6288
475.204	14.2158
478.097	16.2683
480.99	16.1031
483.882	16.767
486.775	15.3092
489.668	16.3802
492.56	14.8472
495.453	12.6549
498.346	9.52872
501.238	8.77869
504.131	6.7012
507.024	7.34247
509.917	4.61166
512.809	4.75638
515.702	2.51453
518.595	1.3747
521.487	0.283112
524.38	0.557251
527.273	0.477844
530.165	0.776093
533.058	0.398041
535.951	0.973267
538.844	2.23703
541.736	4.34268
544.629	4.50919
547.522	3.34149
550.414	2.55261
553.307	3.08292
556.2	2.91833
559.092	5.59869
561.985	3.82086
564.878	4.0462
567.771	6.04361
570.663	7.43622
573.556	8.60916
576.449	11.7816
579.341	15.9213
582.234	19.6609
585.127	23.6811
588.019	30.1898
590.912	33.0239
593.805	33.5808
596.698	36.1674
599.59	35.6869
602.483	30.8561
605.376	26.1493
608.268	21.002
611.161	15.0006
614.054	11.4777
616.947	8.10617
619.839	8.16782
622.732	5.2615
625.625	4.3848
628.517	4.68155
631.41	4.50021
634.303	5.28137
637.195	8.71433
640.088	7.98404
642.981	10.1644
645.874	11.0098
648.766	11.9799
651.659	13.8986
654.552	16.7378
657.444	16.9074
660.337	14.385
663.23	12.415
666.122	11.1988
669.015	10.1494
671.908	4.79553
674.801	5.36917
677.693	4.89639
680.586	2.96435
683.479	0.687561
686.371	0.451447
689.264	0.824493
692.157	2.06302
695.049	0.257507
697.942	0.195587
700.835	0.4263
703.727	0.914795
706.62	0.17865
709.513	0.374481
712.406	1.16388
715.298	0.382477
718.191	0.483459
721.084	1.1037
723.976	0.911621
726.869	0.694733
729.762	1.14087
732.654	0.230316
735.547	2.46277
738.44	2.89273
741.333	4.034
744.225	0.892181
747.118	2.32227
750.011	1.16699
752.903	2.1676
755.796	1.69775
758.689	1.54355
761.582	2.7691
764.474	2.57388
767.367	1.37286
770.26	0.751404
773.152	0.939972
776.045	1.58401
778.938	1.86185
781.83	1.54672
784.723	0.88916
787.616	3.5231
790.509	1.78149
793.401	2.44806
796.294	4.23694
799.187	2.46097
802.079	2.02695
804.972	4.02612
807.865	4.44711
810.757	3.47223
813.65	3.21085
816.543	6.39294
819.436	5.35144
822.328	4.05142
825.221	7.5882
828.114	4.14587
831.006	5.06274
833.899	4.69833
836.792	6.48245
839.684	7.4404
842.577	7.71805
845.47	6.82474
848.362	8.68982
851.255	8.34982
854.148	8.60684
857.041	6.78342
859.933	8.46021
862.826	7.982
865.719	7.61807
868.611	7.40677
871.504	8.06686
874.397	7.18256
877.29	6.12891
880.182	5.65762
883.075	6.14484
885.968	3.76437
888.86	2.57587
891.753	3.21698
894.646	2.58224
897.538	0.085419
900.431	1.88312
903.324	2.09699
906.217	0.028778
909.109	0.259247
912.002	0.242432
914.895	0.871735
917.787	0.000732
920.68	0.942566
923.573	0.288208
926.466	0.093628
929.358	0.89444
932.251	1.04306
935.144	0.308105
938.036	0.236938
940.929	0.354004
943.822	0.03067
946.714	0.732025
949.607	0.371857
952.5	2.41937
955.393	2.08237
958.285	2.39297
961.178	2.91962
964.071	2.95325
966.963	4.45728
969.856	4.32315
972.749	4.63501
975.641	6.73438
978.534	7.8931
981.427	9.96265
984.319	10.546
987.212	11.3553
990.105	10.2303
992.998	9.47171
995.89	11.5535
998.783	7.92493
1001.68	9.46573
1004.57	4.48557
1007.46	5.48657
1010.35	4.86139
1013.25	3.50726
1016.14	3.83212
1019.03	4.56058
1021.92	4.68481
1024.82	2.33737
1027.71	4.93591
1030.6	3.74152
1033.49	4.59912
1036.39	4.25476
1039.28	2.16089
1042.17	3.03125
1045.07	3.47028
1047.96	4.2688
1050.85	1.67075
1053.74	3.7428
1056.64	2.27487
1059.53	2.76993
1062.42	2.21484
1065.32	1.70682
1068.21	1.72812
1071.1	1.52142
1073.99	1.27536
1076.89	2.58182
1079.78	2.59238
1082.67	0.549164
1085.56	1.90225
1088.46	0.606232
1091.35	1.22455
1094.24	1.4509
1097.13	0.241028
1100.03	0.758911
1102.92	0.319305
1105.81	2.00153
1108.71	1.05075
1111.6	2.57642
1114.49	1.68033
1117.38	0.08609
1120.28	0.216339
1123.17	0.442413
1126.06	1.2727
1128.95	0.088776
1131.85	0.892792
1134.74	1.4057
1137.63	1.89346
1140.53	1.69617
1143.42	2.05502
1146.31	2.06363
1149.2	1.21048
1152.1	0.262543
1154.99	2.7518
1157.88	2.02801
1160.77	1.12289
1163.67	3.55322
1166.56	1.65982
1169.45	2.21832
1172.35	2.30219
1175.24	3.39194
1178.13	2.55246
1181.02	2.44464
1183.92	3.50796
1186.81	3.78033
1189.7	3.65973
1192.59	3.53436
1195.49	2.18704
1198.38	3.00223
1201.27	1.15167
1204.16	2.7757
1207.06	2.61056
1209.95	2.39313
1212.84	2.53033
1215.73	2.76166
1218.63	0.517426
1221.52	1.66116
1224.41	0.513062
1227.31	1.5462
1230.2	1.41434
1233.09	1.36145
1235.98	0.230774
1238.88	2.18481
1241.77	1.89572
1244.66	0.424011
1247.56	2.84055
1250.45	0.435944
1253.34	1.29581
1256.23	2.14667
1259.13	3.69009
1262.02	2.87555
1264.91	4.8197
1267.8	0.986603
1270.7	2.59878
1273.59	0.943085
1276.48	0.898743
1279.38	0.211304
1282.27	0
