Measurement: Raman, 532 nm, unoriented, Raman Data Processed
Mineral: Clinoferrosilite
Rruff sample: R141085
Ideal chemistry: Fe^2+^SiO_3_
Locality: Caspar quarry, Bellerberg volcano, Ettringen, Mayen, Eifel, Rhineland-Palatinate, Germany
Source: Ch. and H. Sch√§fer
Description: Brown prismatic crystals, associated with pyroxferroite, R141080
Raman shift (cm-1)	intensity
149.848	0
152.74	3.28885
155.633	11.327
158.526	2.32727
161.418	2.54956
164.311	6.53131
167.204	0.469635
170.097	2.21313
172.989	3.43359
175.882	0.341095
178.775	4.60983
181.667	2.67514
184.56	4.47293
187.453	4.58545
190.345	1.67999
193.238	1.03827
196.131	4.57397
199.024	1.85562
201.916	4.0675
204.809	6.73379
207.702	8.67127
210.594	11.9993
213.487	19.2976
216.38	25.8156
219.273	38.5724
222.165	49.8129
225.058	30.1438
227.951	12.7577
230.843	5.61063
233.736	6.72815
236.629	8.82681
239.521	11.9181
242.414	8.30527
245.307	0.75351
248.2	1.3652
251.092	0.570099
253.985	1.22958
256.878	1.52389
259.77	0.218842
262.663	2.74811
265.556	8.45389
268.448	8.34262
271.341	16.0647
274.234	24.0554
277.127	30.3312
280.019	46.8167
282.912	60.074
285.805	67.4966
288.697	68.456
291.59	54.5829
294.483	44.3664
297.375	36.5624
300.268	25.424
303.161	17.5145
306.053	14.6384
308.946	6.97073
311.839	6.13058
314.732	2.34024
317.624	1.19498
320.517	4.13724
323.41	1.82477
326.302	3.8046
329.195	3.98242
332.088	0.317169
334.981	1.52768
337.873	2.46442
340.766	2.11264
343.659	0.701385
346.551	0.7883
349.444	1.65927
352.337	1.94339
355.229	2.48645
358.122	1.02432
361.015	1.93619
363.908	1.17505
366.8	3.32983
369.693	3.57797
372.586	5.67337
375.478	2.90564
378.371	6.29691
381.264	8.09494
384.156	9.67581
387.049	14.2501
389.942	18.7358
392.834	27.6151
395.727	31.353
398.62	38.988
401.513	43.2738
404.405	44.9239
407.298	33.2868
410.191	26.5623
413.083	18.2459
415.976	14.8816
418.869	9.05279
421.762	5.47055
424.654	3.25104
427.547	1.90277
430.44	2.32568
433.332	0.720062
436.225	0.230011
439.118	1.83316
442.01	1.42572
444.903	0.828552
447.796	1.69785
450.688	1.03735
453.581	2.29233
456.474	1.86716
459.367	2.49213
462.259	4.81961
465.152	3.77765
468.045	6.24741
470.937	5.62662
473.83	8.04742
476.723	8.48666
479.615	10.5969
482.508	9.36737
485.401	9.56992
488.294	10.4733
491.186	11.0632
494.079	10.0469
496.972	11.0128
499.864	14.6948
502.757	7.19223
505.65	7.57004
508.543	7.21536
511.435	7.58701
514.328	5.03012
517.221	4.72153
520.113	1.9256
523.006	1.0968
525.899	0.984802
528.791	1.11997
531.684	0.112396
534.577	0.744812
537.47	0.331146
540.362	1.49878
543.255	2.53503
546.148	2.94699
549.04	3.8421
551.933	2.93585
554.826	4.76404
557.718	4.93143
560.611	4.24207
563.504	0.74823
566.396	2.35046
569.289	2.1174
572.182	1.09525
575.075	4.53351
577.967	4.74249
580.86	3.21109
583.753	5.272
586.645	7.2756
589.538	8.8978
592.431	10.0738
595.323	12.9477
598.216	15.7487
601.109	16.8049
604.002	14.6993
606.894	13.4817
609.787	12.9684
612.68	8.08926
615.572	5.11423
618.465	3.69098
621.358	2.23199
624.25	0.779053
627.143	1.13666
630.036	0.670898
632.929	1.66296
635.821	1.15573
638.714	3.30463
641.607	2.8894
644.5	4.85382
647.392	7.85132
650.285	10.312
653.178	10.5731
656.07	11.3572
658.963	13.1959
661.856	11.9225
664.748	9.96738
667.641	9.73441
670.534	6.29208
673.427	6.14691
676.319	4.17047
679.212	2.25534
682.105	2.13406
684.997	2.08093
687.89	1.54657
690.783	2.19724
693.675	1.39508
696.568	1.50577
699.461	0.574615
702.354	0.101685
705.246	0.936768
708.139	1.05322
711.032	0.680817
713.924	0.495087
716.817	1.69546
719.71	0.136749
722.602	1.41348
725.495	0.064697
728.388	0.347809
731.28	1.54739
734.173	1.17334
737.066	3.284
739.959	1.87402
742.851	0.941925
745.744	2.90338
748.637	1.14426
751.529	2.67172
754.422	3.34482
757.315	4.18704
760.207	2.83557
763.1	3.15027
765.993	0.939972
768.886	3.19315
771.778	4.50644
774.671	4.67197
777.564	7.14929
780.456	6.51379
783.349	6.9407
786.242	3.70776
789.135	6.58167
792.027	7.30856
794.92	8.13553
797.813	9.81897
800.705	6.31979
803.598	8.34143
806.491	9.92761
809.383	8.70129
812.276	9.6286
815.169	9.62158
818.062	13.5582
820.954	13.1609
823.847	13.209
826.74	12.6785
829.632	13.1105
832.525	13.6083
835.418	13.5132
838.31	14.126
841.203	15.6099
844.096	14.5048
846.989	14.1915
849.881	16.5528
852.774	17.2779
855.667	13.827
858.559	16.033
861.452	13.6597
864.345	15.4034
867.237	13.9726
870.13	14.4468
873.023	10.7486
875.915	8.867
878.808	10.8309
881.701	8.34546
884.594	7.47128
887.486	5.97513
890.379	4.63187
893.272	4.13144
896.164	5.22174
899.057	3.36517
901.95	1.64945
904.842	0.842682
907.735	0.77243
910.628	0.58194
913.521	0.266968
916.413	0.787994
919.306	0.986542
922.199	0.247314
925.091	0.120483
927.984	0.725952
930.877	4.73511
933.769	1.10803
936.662	0.431061
939.555	0.105164
942.448	0.093994
945.34	2.66663
948.233	1.13541
951.126	1.39227
954.018	3.48236
956.911	1.2359
959.804	4.77078
962.697	5.33798
965.589	3.7782
968.482	4.47418
971.375	2.96976
974.267	5.13089
977.16	6.50497
980.053	7.42154
982.945	7.01343
985.838	8.70746
988.731	10.2697
991.624	8.8266
994.516	7.74377
997.409	8.56451
1000.3	6.23334
1003.19	5.76556
1006.09	4.44452
1008.98	5.18042
1011.87	5.0434
1014.76	2.59656
1017.66	2.35498
1020.55	4.09503
1023.44	2.33935
1026.34	2.73431
1029.23	3.53003
1032.12	3.1286
1035.01	4.69812
1037.91	4.49493
1040.8	4.00671
1043.69	5.46954
1046.59	5.07867
1049.48	5.02014
1052.37	3.78217
1055.26	5.63788
1058.16	4.44824
1061.05	4.44958
1063.94	4.51233
1066.83	0.882385
1069.73	3.04944
1072.62	1.25439
1075.51	2.00494
1078.4	3.50769
1081.3	0.381348
1084.19	0.217529
1087.08	3.37555
1089.97	0.143494
1092.87	2.18921
1095.76	1.03839
1098.65	2.00348
1101.55	1.74811
1104.44	1.56378
1107.33	0.347412
1110.22	2.38873
1113.12	2.64014
1116.01	0.122559
1118.9	2.51117
1121.8	2.34375
1124.69	0.327759
1127.58	2.36951
1130.47	2.25562
1133.37	0.770264
1136.26	3.88153
1139.15	2.8396
1142.04	1.4386
1144.94	1.0788
1147.83	0.090454
1150.72	0.973328
1153.62	0.808899
1156.51	2.85333
1159.4	1.12439
1162.29	2.0921
1165.19	2.72546
1168.08	1.63831
1170.97	0.702393
1173.86	0.047058
1176.76	1.4411
1179.65	4.05676
1182.54	3.09436
1185.43	3.19336
1188.33	3.38861
1191.22	5.41534
1194.11	5.26923
1197.01	4.64331
1199.9	2.94507
1202.79	3.97748
1205.68	2.74542
1208.58	2.30158
1211.47	3.18628
1214.36	4.46692
1217.25	2.85754
1220.15	3.06372
1223.04	4.65332
1225.93	2.44727
1228.83	1.34668
1231.72	1.19873
1234.61	0.569336
1237.5	0.6427
1240.4	0.059631
1243.29	2.01562
1246.18	2.00385
1249.07	4.09515
1251.97	4.39954
1254.86	4.4801
1257.75	4.86316
1260.64	3.96313
1263.54	3.53626
1266.43	3.45923
1269.32	3.24902
1272.21	2.0152
1275.11	3.98438
1278	1.09119
1280.89	1.81348
1283.79	2.41254
1286.68	3.17444
1289.57	3.83423
1292.46	1.2558
1295.36	1.29034
1298.25	1.8479
