Measurement: Raman, 514 nm, unoriented, Raman Data RAW
Mineral: Coesite
Rruff sample: X050094
Ideal chemistry: SiO_2_
Locality: Kimberly, South Africa
Source: G.R. Rossman
Raman shift (cm-1)	intensity
51.95	1510
56.99	2024.8
62.02	2567.31
67.06	3218.42
72.09	4106.63
77.13	5072.73
82.16	5371.48
87.2	5431.69
92.23	5452.98
97.27	5603.05
102.31	5843.61
107.34	6399.35
112.38	8049.24
117.41	10369.7
122.45	10960
127.48	9274.25
132.52	7576.45
137.55	6725.76
142.59	6726.61
147.62	7236.91
152.66	7715.46
157.69	7301.56
162.73	7076.93
167.76	8349.36
172.8	11929.6
177.83	14432.5
182.87	13398
187.9	9954.89
192.94	8462.62
197.98	8881.96
203.01	9511.69
208.05	9695.44
213.08	9140.64
218.12	8362.88
223.15	7801.57
228.19	7637.46
233.22	7339.99
238.26	7248.88
243.29	7247.7
248.33	7332.78
253.36	7269.31
258.4	7727.98
263.43	9782.96
268.47	13288.6
273.5	13976.5
278.54	11086
283.57	8307.97
288.61	7588.92
293.65	7375.15
298.68	7351.23
303.72	7405.77
308.75	7474.87
313.79	7593.57
318.82	7855.78
323.86	8124.58
328.89	8378.2
333.93	7983.9
338.96	7565.2
344	7573.67
349.03	7909.26
354.07	8512.63
359.1	8556.8
364.14	8008.55
369.17	7754.11
374.21	7719.08
379.24	7778.12
384.28	7889.4
389.32	7837.98
394.35	7912.63
399.39	7992.98
404.42	8039.59
409.46	7990.43
414.49	8028.76
419.53	8737.32
424.56	10039.9
429.6	10548.9
434.63	9431.54
439.67	8646.01
444.7	8583.24
449.74	8998.69
454.77	10038.5
459.81	13011.2
464.84	16827.5
469.88	15120.4
474.91	11579.5
479.95	9933.19
484.99	9386.04
490.02	9206.7
495.06	9316.86
500.09	9711.87
505.13	10537.4
510.16	13742.9
515.2	24953.7
520.23	37085.8
525.27	35426.2
530.3	22112.2
535.34	12930.2
540.37	10514.1
545.41	9918.36
550.44	9485.86
555.48	9333.62
560.51	9069.66
565.55	9052.64
570.58	8994.84
575.62	8987.99
580.66	8842.16
585.69	9006.04
590.73	8925.7
595.76	8974.3
600.8	8960.81
605.83	9006.73
610.87	8981.94
615.9	8978.16
620.94	9023.97
625.97	9051.04
631.01	9029.03
636.04	9225.77
641.08	9072.33
646.11	9180.2
651.15	9251.06
656.18	9249.49
661.22	9437.29
666.25	9372.5
671.29	9311.19
676.33	9232.76
681.36	9309.58
686.4	9313.27
691.43	9434.52
696.47	9351.31
701.5	9442.02
706.54	9455.45
711.57	9327.49
716.61	9510.02
721.64	9553
726.68	9540.32
731.71	9551.77
736.75	9502.97
741.78	9568.58
746.82	9576.71
751.85	9559.69
756.89	9722.85
761.93	9759.07
766.96	9748.86
772	9810.29
777.03	9959.03
782.07	10260.6
787.1	10518.6
792.14	10568.5
797.17	10368.2
802.21	10111.5
807.24	10315.5
812.28	10099
817.31	10250.3
822.35	10183.7
827.38	10203.4
832.42	10530.6
837.45	10423
842.49	10573
847.52	10280.9
852.56	10141.4
857.6	10221.4
862.63	10119.5
867.67	10088.8
872.7	10177.3
877.74	10291.1
882.77	10305
887.81	10302
892.84	10359.9
897.88	10317.5
902.91	10451.7
907.95	10450.3
912.98	10524.8
918.02	10416
923.05	10576.9
928.09	10555.1
933.12	10525.3
938.16	10689.2
943.19	10765.4
948.23	10771.8
953.27	10749.5
958.3	10816.2
963.34	10779.3
968.37	10809.8
973.41	10901.8
978.44	10913.7
983.48	10873.6
988.51	10951.6
993.55	10857.5
998.58	11019.5
1003.62	11115
1008.65	10991.2
1013.69	11060.4
1018.72	10995.1
1023.76	11092.1
1028.79	11251.5
1033.83	11552.5
1038.87	11785.3
1043.9	11717.8
1048.94	11485.1
1053.97	11410
1059.01	11477.7
1064.04	11399
1069.08	11661.5
1074.11	11691.2
1079.15	11705.4
1084.18	11732.1
1089.22	11607.6
1094.25	11539.1
1099.29	11536.4
1104.32	11663
1109.36	11661.6
1114.39	11715.9
1119.43	11687.9
1124.46	11677.9
1129.5	11720.6
1134.54	11934.8
1139.57	12060.2
1144.61	12226.1
1149.64	12273.1
1154.68	12472.5
1159.71	12475.5
1164.75	12694.7
1169.78	12687
1174.82	12336.9
1179.85	12149.1
1184.89	12139.6
1189.92	12237
1194.96	12184.3
1199.99	12117.5
1205.03	12207.2
1210.06	12332.2
1215.1	12250.7
1220.13	12412.8
1225.17	12424.7
1230.2	12357.7
1235.24	12419.2
1240.28	12446.3
1245.31	12589.1
1250.35	12548.9
1255.38	12541.6
1260.42	12581.3
1265.45	12636.9
1270.49	12588.1
1275.52	12821.1
1280.56	12811.4
1285.59	12685.4
1290.63	12844.6
1295.66	12958.8
1300.7	12728.5
1305.73	12947.3
1310.77	12898.5
1315.8	13070
1320.84	13073.6
1325.88	13055.2
1330.91	13084
1335.95	13069.8
1340.98	13229
1346.02	13260.9
1351.05	13277.7
1356.09	13207.8
1361.12	13244.7
1366.16	13266.8
1371.19	13558.9
1376.23	13458.8
1381.26	13539.6
1386.3	13532.8
1391.33	13553.1
1396.37	13579.3
1401.4	13655.1
1406.44	13748.4
1411.47	13684.9
1416.51	13836.4
1421.55	13885.7
1426.58	13836.5
1431.62	13827.1
1436.65	13996.7
1441.69	14026.2
1446.72	14033
1451.76	14048.5
1456.79	14128.5
1461.83	14150.6
1466.86	14180.8
1471.9	14185.8
1476.93	14213.5
1481.97	14157.5
1487	14386.4
1492.04	14408
1497.07	14440.5
1502.11	14452
1507.14	14526.4
1512.18	14511.3
1517.22	14655.2
1522.25	14571.7
1527.29	14706.9
1532.32	14834
1537.36	14810.2
1542.39	14851.8
1547.43	14932.5
1552.46	14918.2
1557.5	14984.8
1562.53	14936.8
1567.57	15058.9
1572.6	15078.1
1577.64	15056.4
1582.67	15213
1587.71	15236.1
1592.74	15211.1
1597.78	15372
