Measurement: Raman, 532 nm, unoriented, Raman Data RAW
Mineral: Copper
Rruff sample: R070329
Ideal chemistry: Cu
Locality: Bad Ems, Lahn Valley, Rhineland-Palatinate, Germany
Source: James Shigley
Description: Reddish metallic wires
Raman shift (cm-1)	intensity
157.858	1804.53
161.233	1899.02
164.607	1876.41
167.982	1967.24
171.357	2020.1
174.732	2024.59
178.107	2072.41
181.482	2041.6
184.856	2098.51
188.231	2144.97
191.606	2117.3
194.981	2177.78
198.356	2194.01
201.731	2208.63
205.105	2221.03
208.48	2254.8
211.855	2285.35
215.23	2349.13
218.605	2314.1
221.979	2307.4
225.354	2271.37
228.729	2322.66
232.104	2323.71
235.479	2302.85
238.853	2333.1
242.228	2345.1
245.603	2381.53
248.978	2390.47
252.353	2371.24
255.727	2384.08
259.102	2417.39
262.477	2399.67
265.852	2425.89
269.227	2413.65
272.602	2420.34
275.976	2460.92
279.351	2472.89
282.726	2491.51
286.101	2505.24
289.476	2498.03
292.851	2516.3
296.225	2514.45
299.6	2537.71
302.975	2512.61
306.35	2538.78
309.725	2581.74
313.099	2581.35
316.474	2612.56
319.849	2571.1
323.224	2637.37
326.599	2636.06
329.974	2662.2
333.348	2621.43
336.723	2642.3
340.098	2649.88
343.473	2640.6
346.848	2675.26
350.223	2689.2
353.597	2680.32
356.972	2725.1
360.347	2705.61
363.722	2736.07
367.097	2743.71
370.471	2747.75
373.846	2743.01
377.221	2736.21
380.596	2803.04
383.971	2807.76
387.346	2847.07
390.72	2791.43
394.095	2833.68
397.47	2847.74
400.845	2877.49
404.219	2888.62
407.594	2920.74
410.969	2900.17
414.344	2896.82
417.719	2931.87
421.094	2913.13
424.469	2972.03
427.843	2956.2
431.218	2929.82
434.593	3002.53
437.968	2992.64
441.343	2957.59
444.717	3031.09
448.092	3013.4
451.467	3027.59
454.842	3039.14
458.217	3053.1
461.591	3098.27
464.966	3100.58
468.341	3061.37
471.716	3084.17
475.091	3114.59
478.466	3101.39
481.84	3125.66
485.215	3184.41
488.59	3162.1
491.965	3236.91
495.34	3182.35
498.714	3198.38
502.089	3217
505.464	3232.2
508.839	3261.86
512.214	3280.47
515.589	3271.02
518.963	3281.51
522.338	3341.49
525.713	3321.28
529.088	3316.09
532.463	3350.32
535.837	3375.11
539.212	3343.84
542.587	3353.52
545.962	3414.61
549.337	3442.43
552.712	3416.13
556.086	3406.43
559.461	3426
562.836	3449.68
566.211	3452.88
569.586	3473.87
572.96	3472.69
576.335	3486.85
579.71	3550.53
583.085	3513.24
586.46	3529.12
589.835	3542.59
593.209	3548.61
596.584	3545.11
599.959	3600.7
603.334	3582.76
606.709	3628.35
610.083	3633.16
613.458	3642.01
616.833	3695.79
620.208	3693.15
623.583	3756.54
626.958	3714.3
630.332	3723.65
633.707	3738.34
637.082	3751.49
640.457	3772.24
643.832	3721.05
647.207	3757.16
650.581	3762.51
653.956	3783.39
657.331	3761.53
660.706	3789.52
664.081	3804.68
667.455	3820.52
670.83	3755.94
674.205	3790.57
677.58	3809.97
680.955	3848.1
684.33	3813.03
687.704	3822.16
691.079	3845.4
694.454	3851.85
697.829	3883.62
701.204	3861.28
704.578	3838.59
707.953	3958.59
711.328	3878.52
714.703	3937.45
718.078	3882.05
721.452	3905.31
724.827	3922.67
728.202	3948.01
731.577	3959.31
734.952	3978.31
738.327	3921.17
741.701	3981.57
745.076	3976.93
748.451	3986.11
751.826	3970.56
755.201	4036.89
758.576	4024.29
761.95	4067.65
765.325	4040.72
768.7	4062.55
772.075	4071.93
775.45	4099.24
778.824	4056.26
782.199	4097.16
785.574	4104.65
788.949	4115.07
792.324	4083.55
795.698	4131.5
799.073	4167.75
802.448	4192.3
805.823	4168.25
809.198	4150.83
812.573	4075.75
815.947	4203.48
819.322	4219.37
822.697	4178.63
826.072	4191.1
829.447	4252.94
832.822	4250.94
836.196	4253.28
839.571	4263.69
842.946	4271.8
846.321	4256.52
849.696	4311.68
853.07	4317.77
856.445	4267.93
859.82	4326.84
863.195	4351.88
866.57	4389.55
869.944	4384.91
873.319	4397.59
876.694	4448.78
880.069	4439.69
883.444	4414.95
886.819	4396.93
890.193	4407.1
893.568	4400.94
896.943	4463.55
900.318	4455.8
903.693	4445.93
907.067	4470.92
910.442	4519.09
913.817	4544.46
917.192	4499.73
920.567	4522.42
923.942	4607.14
927.316	4596.32
930.691	4610.85
934.066	4595.77
937.441	4610.52
940.816	4611.86
944.191	4648.51
947.565	4675.17
950.94	4698.77
954.315	4706.86
957.69	4699.81
961.065	4704.84
964.439	4716.53
967.814	4792.35
971.189	4786.64
974.564	4724.03
977.939	4759.99
981.313	4754.32
984.688	4760.94
988.063	4799.64
991.438	4790.7
994.813	4787.59
998.188	4870.91
1001.56	4835.82
1004.94	4873.95
1008.31	4894.91
1011.69	4892.96
1015.06	4913.32
1018.44	4913.5
1021.81	4921.04
1025.19	4939.19
1028.56	4973.71
1031.94	4946.88
1035.31	5028.17
1038.68	5021.26
1042.06	4991.72
1045.43	5023.73
1048.81	4959.28
1052.18	4997.02
1055.56	5063.35
1058.93	5059.16
1062.31	5131.67
1065.68	5105.68
1069.06	5124.09
1072.43	5147.87
1075.81	5120.61
1079.18	5149.53
1082.56	5151.45
1085.93	5164.88
1089.31	5189.9
1092.68	5201.4
1096.06	5216.15
1099.43	5236.71
1102.81	5244
1106.18	5250.63
1109.56	5260.83
1112.93	5305.75
1116.31	5278.36
1119.68	5330.67
1123.06	5337.68
1126.43	5377.2
1129.81	5360.69
1133.18	5342.47
1136.56	5337.09
1139.93	5351.44
1143.31	5377.8
1146.68	5426.59
1150.05	5461.54
1153.43	5408.56
1156.8	5423.21
1160.18	5472.69
1163.55	5490.49
1166.93	5502.42
1170.3	5558.12
1173.68	5491.34
1177.05	5497.32
1180.43	5538.23
1183.8	5594.63
1187.18	5588.54
1190.55	5585.06
1193.93	5648.92
1197.3	5663.56
1200.68	5610.4
1204.05	5643.4
1207.43	5653.12
1210.8	5678.4
1214.18	5702.6
1217.55	5732.51
1220.93	5721.27
1224.3	5757.1
1227.67	5723.17
1231.05	5768.97
1234.42	5760.85
1237.8	5794.16
1241.17	5791.42
1244.55	5831.55
1247.92	5839.01
1251.3	5848.67
1254.67	5954.73
1258.05	5881.49
1261.42	5926.41
1264.8	5890.43
1268.17	5950.11
1271.55	5934.17
1274.92	5992.71
1278.3	5959.97
1281.67	6022.12
1285.05	6015.63
1288.42	6001.71
1291.8	6069.9
1295.17	6083.69
1298.55	6072.39
1301.92	6106.62
1305.3	6047.04
1308.67	6070.66
1312.05	6071.55
