Measurement: Raman, 785 nm, unoriented, Raman Data RAW
Mineral: Copper
Rruff sample: R070329
Ideal chemistry: Cu
Locality: Bad Ems, Lahn Valley, Rhineland-Palatinate, Germany
Source: James Shigley
Description: Reddish metallic wires
Raman shift (cm-1)	intensity
157.66	11739.4
160.553	12273
163.446	12630.1
166.338	13395.6
169.231	13562.4
172.124	13705.3
175.017	13678.3
177.909	13810.3
180.802	13859.3
183.695	14137.5
186.587	14403.8
189.48	14602.4
192.373	14575.6
195.265	14829.5
198.158	14918.5
201.051	15038.3
203.944	15156.6
206.836	15048.8
209.729	15176.4
212.622	15183.8
215.514	15255.9
218.407	15423.5
221.3	15561.8
224.192	15566.7
227.085	15565.3
229.978	15604.8
232.87	15662.6
235.763	15710
238.656	15840.1
241.549	15901.4
244.441	15936.1
247.334	16025.7
250.227	16203.4
253.119	16201.8
256.012	16315.1
258.905	16413.9
261.798	16477.3
264.69	16657
267.583	16674
270.476	16828
273.368	16799.7
276.261	16987.6
279.154	17023.8
282.046	17123
284.939	17296.4
287.832	17322
290.724	17302
293.617	17374
296.51	17275.9
299.403	17381.3
302.295	17574.4
305.188	17604.2
308.081	17648
310.973	17633.6
313.866	17563
316.759	17588.6
319.651	17593.9
322.544	17620.8
325.437	17677.9
328.33	17708
331.222	17910.9
334.115	17886.8
337.008	17862.4
339.9	17951.9
342.793	18052.7
345.686	17985.3
348.579	18158.5
351.471	18120.2
354.364	18319.4
357.257	18483.2
360.149	18383.8
363.042	18435.4
365.935	18497.4
368.827	18636.8
371.72	18636.2
374.613	18849.8
377.505	18882
380.398	18884.7
383.291	19014.3
386.184	18990
389.076	19104.5
391.969	19195.1
394.862	19254.9
397.754	19375.4
400.647	19428.9
403.54	19510
406.433	19507.3
409.325	19610.8
412.218	19623.9
415.111	19781.3
418.003	19883.4
420.896	19949.8
423.789	19976.4
426.681	19991.7
429.574	20087.7
432.467	20149.8
435.36	20190.5
438.252	20250.2
441.145	20363.5
444.038	20366.8
446.93	20632.9
449.823	20628.7
452.716	20525.4
455.608	20752.4
458.501	20714.6
461.394	20796
464.286	20897.3
467.179	20943.9
470.072	21065.8
472.965	21072.3
475.857	21221.7
478.75	21171.9
481.643	21221.8
484.535	21469.8
487.428	21350
490.321	21601.1
493.214	21674.6
496.106	21831.6
498.999	21787
501.892	21878.7
504.784	21952.8
507.677	22169.7
510.57	22278.2
513.462	22400.3
516.355	22362.6
519.248	22411.8
522.14	22446.5
525.033	22569.8
527.926	22632.8
530.819	22765.3
533.711	22814
536.604	22938.9
539.497	22942.8
542.389	22911.7
545.282	22879.7
548.175	23019.1
551.067	23014.1
553.96	23129.8
556.853	23132.1
559.745	23218.3
562.638	23302.6
565.531	23441.4
568.424	23418.3
571.316	23443.9
574.209	23535.2
577.102	23607.1
579.994	23713.9
582.887	23740.2
585.78	23823.1
588.673	23869.4
591.565	23913.3
594.458	23958.4
597.351	23954.8
600.243	24000.3
603.136	24123.1
606.029	24173.6
608.921	24242.9
611.814	24344.3
614.707	24355.4
617.6	24467.5
620.492	24328.9
623.385	24604.2
626.278	24514
629.17	24598
632.063	24495.5
634.956	24556.3
637.848	24513.6
640.741	24629.3
643.634	24621.8
646.527	24490.7
649.419	24529.5
652.312	24622.3
655.205	24646.3
658.097	24601
660.99	24616.3
663.883	24600.2
666.775	24647.5
669.668	24660.6
672.561	24738.3
675.454	24837.7
678.346	24918.4
681.239	24882.3
684.132	25025.1
687.024	24963.9
689.917	24973.8
692.81	25056.4
695.702	25103.9
698.595	25166
701.488	25193.1
704.381	25204.3
707.273	25275.8
710.166	25340
713.059	25313.5
715.951	25322.2
718.844	25305.6
721.737	25401.4
724.63	25416.4
727.522	25403.8
730.415	25314.7
733.308	25444.9
736.2	25336.7
739.093	25429.5
741.986	25453.9
744.878	25568.4
747.771	25534.6
750.664	25524.6
753.557	25573.3
756.449	25593.2
759.342	25538.3
762.235	25571.4
765.127	25580.1
768.02	25505.6
770.913	25673.6
773.805	25690.2
776.698	25679.5
779.591	25683.8
782.484	25648.8
785.376	25717.7
788.269	25805.8
791.162	25905
794.054	25801.9
796.947	25855.6
799.84	25890.5
802.732	25886.7
805.625	25906.2
808.518	25996.2
811.41	26046.9
814.303	25986.5
817.196	26059.4
820.089	26047.3
822.981	26050.5
825.874	26162.7
828.767	26085
831.659	26182.1
834.552	26213.9
837.445	26151.8
840.337	26315.6
843.23	26227.1
846.123	26341.2
849.016	26278.4
851.908	26394.3
854.801	26529.1
857.694	26450.4
860.586	26585.5
863.479	26657
866.372	26622.5
869.264	26705.7
872.157	26665.3
875.05	26695.2
877.943	26847.6
880.835	26784
883.728	26897.5
886.621	26809.2
889.513	26922.7
892.406	26937.7
895.299	27039.3
898.192	27101.1
901.084	27065.6
903.977	27052.2
906.87	27154
909.762	27193.2
912.655	27302
915.548	27190.4
918.44	27305.6
921.333	27449.9
924.226	27371.5
927.119	27404.6
930.011	27728.5
932.904	27544.4
935.797	27518.1
938.689	27644.1
941.582	27599.9
944.475	27759.8
947.367	27763.1
950.26	27788.7
953.153	27977.2
956.045	27733
958.938	27909
961.831	27907.8
964.724	27923.8
967.616	27835.3
970.509	27867.9
973.402	27968.2
976.294	28143.9
979.187	28018
982.08	28104.2
984.972	28203.3
987.865	28215.8
990.758	28158.3
993.651	28188.5
996.543	28295.6
999.436	28411.3
1002.33	28483.1
1005.22	28311.3
1008.11	28303.1
1011.01	28448.9
1013.9	28479.3
1016.79	28395.3
1019.68	28471.2
1022.58	28428.5
1025.47	28572.9
1028.36	28611.5
1031.26	28505.9
1034.15	28606.4
1037.04	28594.9
1039.93	28728.1
1042.83	28667.1
1045.72	28737.4
1048.61	28755.7
1051.51	28735.4
1054.4	28793.2
1057.29	28787.8
1060.18	28879.9
1063.08	28858.7
1065.97	28853.7
1068.86	28900.5
1071.75	29070.2
1074.65	28880.7
1077.54	28995.2
1080.43	29012.1
1083.32	29075.8
1086.22	29046.3
1089.11	29072.3
1092	29346.2
1094.89	29104.7
1097.79	29196.1
1100.68	29132.6
1103.57	29182.8
1106.47	29256.4
1109.36	29236.2
1112.25	29241.9
1115.14	29281.5
1118.04	29209.2
1120.93	29361
1123.82	29341.2
1126.71	29353.4
1129.61	29314.3
1132.5	29456.2
1135.39	29347
1138.29	29418.6
1141.18	29434.7
1144.07	29426.4
1146.96	29516.7
1149.86	29420.2
1152.75	29516.6
1155.64	29347.8
1158.53	29515.7
1161.43	29556.9
1164.32	29434.2
1167.21	29604.3
1170.11	29566
1173	29480
1175.89	29605.8
1178.78	29554.3
1181.68	29481.7
1184.57	29500.7
1187.46	29522.3
1190.35	29589.5
1193.25	29551.7
1196.14	29608.1
1199.03	29603.4
1201.92	29519.3
1204.82	29699.3
1207.71	29631.7
1210.6	29603.1
1213.5	29669.8
1216.39	29626.8
1219.28	29730.4
1222.17	29539.4
1225.07	29707.4
1227.96	29607.7
1230.85	29577.4
1233.74	29604.8
1236.64	29655.5
1239.53	29640.2
1242.42	29550.5
