Measurement: Raman, 780 nm, unoriented, Raman Data RAW
Mineral: Correianevesite
Rruff sample: R130692
Ideal chemistry: Fe^2+^Mn^2+^_2_(PO_4_)_2_3H_2_O
Locality: Hagendorf South Pegmatite, Hagendorf, Waidhaus, Vohenstrauß, Oberpfälzer Wald, Upper Palatinate, Bavaria, Germany
Source: Rob Lavinsky
Description: Brown crystals, associated with colorless or pale-grey vivianite and dark-green rockbridgeite
Measured chemistry: (Mn^2+^_1.90_Fe^2+^_1.01_Zn_0.03_Ca_0.01_)_Σ=2.95_(PO_4_)_2_·3.05H_2_O
Raman shift (cm-1)	intensity
90.2353	183.847
93.6102	185.004
96.985	183.616
100.36	184.337
103.735	178.234
107.109	184.196
110.484	183.527
113.859	186.227
117.234	185.131
120.609	171.348
123.984	168.543
127.358	171.939
130.733	184.929
134.108	186.939
137.483	164.927
140.858	150.069
144.232	148.63
147.607	149.213
150.982	150.719
154.357	155.347
157.732	163.516
161.107	178.66
164.481	184.198
167.856	171.227
171.231	157.761
174.606	153.507
177.981	151.756
181.355	147.411
184.73	134.958
188.105	116.592
191.48	103.29
194.855	97.1523
198.229	94.023
201.604	91.9694
204.979	91.8267
208.354	96.0602
211.729	101.986
215.103	110.618
218.478	120.405
221.853	134.107
225.228	147.101
228.603	156.103
231.978	159.904
235.352	156.941
238.727	149.385
242.102	141.97
245.477	131.785
248.852	125.042
252.226	121.057
255.601	122.433
258.976	124.592
262.351	126.066
265.726	123.461
269.101	115.023
272.475	105.342
275.85	98.2683
279.225	94.8016
282.6	91.4717
285.975	88.7928
289.349	87.0694
292.724	85.8323
296.099	84.5619
299.474	83.4973
302.849	82.1539
306.224	79.9687
309.598	77.2636
312.973	74.0052
316.348	69.9145
319.723	65.6565
323.098	64.9461
326.472	62.0421
329.847	59.9621
333.222	57.6659
336.597	55.3977
339.972	53.9375
343.346	53.5513
346.721	54.3188
350.096	55.0608
353.471	56.639
356.846	59.0266
360.221	61.4363
363.595	64.3462
366.97	67.0298
370.345	69.0639
373.72	68.7892
377.095	67.9659
380.469	66.0519
383.844	66.441
387.219	66.9354
390.594	67.939
393.969	70.2126
397.344	73.2637
400.718	74.9502
404.093	78.6126
407.468	85.3855
410.843	89.7099
414.217	91.3112
417.592	88.9145
420.967	83.7219
424.342	75.5536
427.717	68.4923
431.092	66.4367
434.466	65.5366
437.841	67.8223
441.216	72.6032
444.591	78.593
447.966	87.2739
451.341	93.5997
454.715	96.9397
458.09	96.358
461.465	92.2782
464.84	83.7438
468.215	77.1832
471.589	73.0129
474.964	68.8648
478.339	67.02
481.714	63.8567
485.089	60.6579
488.463	57.6282
491.838	56.2682
495.213	54.6168
498.588	53.3528
501.963	53.3172
505.337	53.0364
508.712	53.097
512.087	53.2984
515.462	53.8781
518.837	55.3062
522.212	57.4902
525.586	59.5254
528.961	62.1451
532.336	64.6164
535.711	68.6268
539.086	73.549
542.46	79.8475
545.835	88.8075
549.21	96.6453
552.585	104.086
555.96	112.359
559.335	120.784
562.709	128.875
566.084	127.113
569.459	120.994
572.834	114.01
576.209	109.095
579.583	108.953
582.958	114.025
586.333	120.312
589.708	114.415
593.083	95.8775
596.457	79.0366
599.832	66.3209
603.207	57.0389
606.582	51.624
609.957	47.1204
613.332	43.3529
616.706	40.0647
620.081	37.7053
623.456	35.5357
626.831	33.9345
630.206	32.6753
633.58	32.1409
636.955	31.8048
640.33	31.6228
643.705	30.9506
647.08	30.6164
650.455	31.1924
653.829	31.5485
657.204	31.2886
660.579	30.9772
663.954	30.8796
667.329	30.6333
670.703	30.4117
674.078	30.6156
677.453	29.8308
680.828	29.7186
684.203	29.2755
687.577	28.7516
690.952	28.649
694.327	29.2587
697.702	28.8204
701.077	28.725
704.452	28.7058
707.826	28.6044
711.201	29.0612
714.576	28.6138
717.951	30.2241
721.326	30.2485
724.7	30.5831
728.075	30.3677
731.45	31.1698
734.825	32.7075
738.2	33.1114
741.574	34.1529
744.949	35.2758
748.324	36.0815
751.699	36.0693
755.074	35.9393
758.449	35.8989
761.823	35.4808
765.198	34.9175
768.573	33.7739
771.948	32.87
775.323	30.8688
778.697	30.8421
782.072	30.5631
785.447	29.6714
788.822	29.4273
792.197	29.0608
795.572	28.7423
798.946	28.6024
802.321	28.2097
805.696	28.1644
809.071	28.2417
812.446	28.2995
815.82	28.0709
819.195	29.3067
822.57	28.6374
825.945	28.6535
829.32	28.5404
832.694	28.4957
836.069	28.2169
839.444	28.7901
842.819	28.3419
846.194	28.3685
849.569	28.5049
852.943	28.9217
856.318	28.7249
859.693	29.212
863.068	28.6587
866.443	29.1246
869.817	29.5911
873.192	29.5946
876.567	29.6936
879.942	29.7053
883.317	29.4609
886.692	30.4322
890.066	31.4026
893.441	31.4391
896.816	32.3107
900.191	32.7264
903.566	34.3355
906.94	35.2984
910.315	36.9857
913.69	37.9747
917.065	40.5017
920.44	43.751
923.814	47.6641
927.189	52.9473
930.564	59.1155
933.939	67.3573
937.314	78.5299
940.689	95.2281
944.063	117.572
947.438	151.908
950.813	200.108
954.188	266.92
957.563	352.142
960.937	442.906
964.312	522.135
967.687	545.448
971.062	460.939
974.437	315.558
977.812	210.894
981.186	158.867
984.561	130.998
987.936	118.202
991.311	110.156
994.686	106.261
998.06	104.013
1001.43	104.182
1004.81	101.058
1008.18	95.203
1011.56	86.9829
1014.93	77.852
1018.31	69.468
1021.68	61.0762
1025.06	56.313
1028.43	53.4242
1031.81	54.2193
1035.18	56.5562
1038.56	60.0097
1041.93	65.7018
1045.31	71.2234
1048.68	67.5232
1052.06	59.9761
1055.43	57.3565
1058.81	59.6519
1062.18	61.0759
1065.56	56.2874
1068.93	47.1517
1072.31	41.0948
1075.68	38.616
1079.06	37.9509
1082.43	38.8995
1085.81	41.2088
1089.18	42.851
1092.56	41.5248
1095.93	38.481
1099.31	36.7059
1102.68	35.3238
1106.05	32.3849
1109.43	29.4939
1112.8	26.859
1116.18	25.597
1119.55	23.6985
1122.93	23.167
1126.3	21.9974
1129.68	21.4187
1133.05	21.1345
1136.43	20.5628
1139.8	20.1179
1143.18	19.5856
1146.55	19.9535
1149.93	19.7023
1153.3	18.6317
1156.68	18.7315
1160.05	18.9843
1163.43	19.2589
1166.8	18.8293
1170.18	18.974
1173.55	19.0343
1176.93	19.0094
1180.3	19.3217
1183.67	18.9225
1187.05	18.5053
1190.42	18.541
1193.8	18.9361
1197.17	18.5998
1200.55	18.8297
1203.92	18.447
1207.3	18.1846
1210.67	17.9846
1214.05	17.6277
1217.42	17.7613
1220.8	17.5643
1224.17	17.1015
1227.55	17.2819
1230.92	16.6338
1234.3	16.4875
1237.67	16.2505
1241.05	16.5589
1244.42	16.4409
1247.8	15.8854
1251.17	16.0525
1254.55	16.0805
1257.92	16.0001
1261.3	16.0597
1264.67	16.1263
1268.05	15.776
1271.42	15.8921
1274.8	16.0896
1278.17	15.6427
1281.55	16.3861
