Measurement: Raman, 532 nm, unoriented, Raman Data RAW
Mineral: Correianevesite
Rruff sample: R130692
Ideal chemistry: Fe^2+^Mn^2+^_2_(PO_4_)_2_3H_2_O
Locality: Hagendorf South Pegmatite, Hagendorf, Waidhaus, Vohenstrauß, Oberpfälzer Wald, Upper Palatinate, Bavaria, Germany
Source: Rob Lavinsky
Description: Brown crystals, associated with colorless or pale-grey vivianite and dark-green rockbridgeite
Measured chemistry: (Mn^2+^_1.90_Fe^2+^_1.01_Zn_0.03_Ca_0.01_)_Σ=2.95_(PO_4_)_2_·3.05H_2_O
Raman shift (cm-1)	intensity
187.231	57.0221
190.124	69.1419
193.017	71.7786
195.909	70.5602
198.802	69.75
201.695	74.674
204.588	79.1382
207.48	83.4108
210.373	84.7813
213.266	84.7214
216.158	86.4111
219.051	92.4267
221.944	99.289
224.836	103.361
227.729	107.267
230.622	108.6
233.514	110.421
236.407	109.629
239.3	108.446
242.193	108.49
245.085	106.009
247.978	104.853
250.871	100.741
253.763	101.667
256.656	99.7023
259.549	101.234
262.442	100.59
265.334	99.4039
268.227	98.1155
271.12	94.3502
274.012	90.2203
276.905	88.2542
279.798	86.5803
282.69	86.4606
285.583	84.267
288.476	84.0559
291.368	83.2084
294.261	82.5911
297.154	80.1964
300.047	79.7701
302.939	80.3683
305.832	80.5016
308.725	79.1894
311.617	79.1275
314.51	78.7398
317.403	77.1109
320.296	77.6696
323.188	77.8793
326.081	76.5285
328.974	77.2871
331.866	76.8587
334.759	76.9968
337.652	77.3394
340.544	79.2699
343.437	82.951
346.33	86.4596
349.223	91.5514
352.115	96.5123
355.008	102.604
357.901	107.756
360.793	109.603
363.686	112.375
366.579	111.162
369.471	111.287
372.364	107.684
375.257	102.404
378.149	99.0455
381.042	93.6349
383.935	89.9132
386.828	86.5228
389.72	84.1322
392.613	83.0138
395.506	81.2373
398.398	82.006
401.291	79.4363
404.184	79.5001
407.077	82.2238
409.969	83.3089
412.862	85.0357
415.755	85.0797
418.647	84.4852
421.54	80.7388
424.433	76.0258
427.325	72.8723
430.218	68.4811
433.111	66.4618
436.003	65.9852
438.896	64.6941
441.789	66.4176
444.682	66.215
447.574	69.2612
450.467	70.8827
453.36	72.083
456.252	73.3449
459.145	74.716
462.038	74.5854
464.93	73.4085
467.823	72.4138
470.716	72.07
473.609	72.7163
476.501	72.6041
479.394	72.8868
482.287	72.7426
485.179	71.3851
488.072	70.5154
490.965	69.0253
493.858	66.9109
496.75	65.7651
499.643	64.5688
502.536	64.2496
505.428	64.2974
508.321	63.4389
511.214	64.382
514.106	65.444
516.999	67.0211
519.892	69.3787
522.784	71.3912
525.677	73.1823
528.57	76.0359
531.463	75.687
534.355	77.5375
537.248	78.8812
540.141	79.6613
543.033	79.4138
545.926	81.0391
548.819	82.7899
551.712	83.4805
554.604	84.9525
557.497	87.7191
560.39	91.5794
563.282	94.9805
566.175	94.9096
569.068	93.1873
571.96	91.2738
574.853	89.7865
577.746	87.4565
580.639	88.4393
583.531	90.1476
586.424	94.0539
589.317	93.095
592.209	89.4712
595.102	85.0674
597.995	79.9755
600.888	76.6229
603.78	74.9541
606.673	72.2932
609.566	69.1736
612.458	67.3924
615.351	64.9538
618.244	62.7799
621.136	60.663
624.029	59.2052
626.922	56.6124
629.814	55.3968
632.707	54.7893
635.6	55.8048
638.493	54.8136
641.385	53.1836
644.278	54.4849
647.171	53.8186
650.063	53.7482
652.956	55.027
655.849	55.8043
658.741	55.0222
661.634	55.1347
664.527	54.5322
667.42	54.2361
670.312	54.3289
673.205	54.2312
676.098	52.6669
678.99	52.9695
681.883	53.3214
684.776	53.2799
687.668	51.0805
690.561	51.5277
693.454	51.1587
696.347	51.5209
699.239	50.5493
702.132	50.2407
705.025	50.2342
707.917	50.3584
710.81	50.7489
713.703	50.4845
716.596	50.1313
719.488	50.3016
722.381	50.301
725.274	50.7964
728.166	51.7092
731.059	52.0427
733.952	52.1095
736.844	53.1036
739.737	53.4482
742.63	53.8272
745.523	54.0555
748.415	54.3975
751.308	55.8276
754.201	55.4043
757.093	55.0563
759.986	55.8911
762.879	55.7272
765.771	55.3355
768.664	54.629
771.557	53.8259
774.449	53.7776
777.342	52.6355
780.235	52.0178
783.128	52.0487
786.02	51.7679
788.913	50.5833
791.806	51.7137
794.698	51.4745
797.591	50.8513
800.484	51.6569
803.376	51.3235
806.269	51.5415
809.162	51.6827
812.055	51.2055
814.947	51.9355
817.84	52.3262
820.733	51.9718
823.625	52.3969
826.518	52.3028
829.411	52.679
832.303	52.4007
835.196	52.885
838.089	52.529
840.982	52.8975
843.874	52.5735
846.767	52.9545
849.66	52.9094
852.552	53.4641
855.445	53.7689
858.338	53.5798
861.231	52.5938
864.123	52.4838
867.016	53.7661
869.909	52.4408
872.801	53.1219
875.694	53.2546
878.587	52.2793
881.479	53.0496
884.372	53.3773
887.265	52.6178
890.158	52.525
893.05	53.3186
895.943	53.9093
898.836	54.1262
901.728	53.9145
904.621	55.66
907.514	56.024
910.406	56.7005
913.299	58.1453
916.192	58.3907
919.085	61.4135
921.977	63.5027
924.87	65.7434
927.763	69.8131
930.655	73.5053
933.548	78.3993
936.441	84.8963
939.333	91.3659
942.226	104.968
945.119	118.95
948.011	140.472
950.904	168.465
953.797	206.183
956.69	256.364
959.582	316.553
962.475	376.817
965.368	425.311
968.26	441.085
971.153	395.855
974.046	300.427
976.938	220.137
979.831	171.199
982.724	146.018
985.617	131.382
988.509	123.16
991.402	118.127
994.295	116.036
997.187	114.507
1000.08	115.513
1002.97	115.534
1005.87	115.943
1008.76	113.823
1011.65	106.957
1014.54	101.523
1017.44	96.9742
1020.33	91.546
1023.22	86.9985
1026.11	84.8543
1029.01	83.6024
1031.9	82.0543
1034.79	83.701
1037.68	83.559
1040.58	86.1669
1043.47	89.3774
1046.36	93.5768
1049.26	91.8598
1052.15	88.8914
1055.04	88.5439
1057.93	89.5575
1060.83	91.8071
1063.72	94.8442
1066.61	93.6465
1069.51	88.7814
1072.4	86.2499
1075.29	83.6989
1078.18	84.3728
1081.08	83.1241
1083.97	85.0318
1086.86	85.543
1089.75	88.0929
1092.65	88.2115
1095.54	86.5701
1098.43	84.7279
1101.33	84.0541
1104.22	81.1742
1107.11	77.8855
1110	73.5946
1112.89	69.9308
1115.79	67.2513
1118.68	62.9544
1121.57	60.0783
1124.47	56.4868
1127.36	53.6703
1130.25	51.7939
1133.14	49.0087
1136.04	47.2419
1138.93	46.7136
1141.82	45.6525
1144.71	46.05
1147.61	45.2744
1150.5	43.9174
1153.39	44.0962
1156.29	43.6225
1159.18	43.8891
1162.07	43.1879
1164.96	43.049
1167.86	42.6489
1170.75	42.923
1173.64	43.1585
1176.54	42.4515
1179.43	43.2773
1182.32	43.0775
1185.21	42.8956
1188.11	42.361
1191	42.504
1193.89	42.7721
1196.78	42.8606
1199.68	42.2481
1202.57	41.9136
1205.46	42.3121
1208.35	42.3276
1211.25	41.0793
1214.14	42.1732
1217.03	41.5419
1219.92	41.0302
1222.82	41.8
1225.71	40.4569
1228.6	40.8829
1231.5	41.1715
1234.39	40.1394
1237.28	41.3275
1240.17	40.8997
1243.07	40.0405
1245.96	40.3149
1248.85	39.8643
1251.74	40.238
1254.64	39.9835
1257.53	40.0566
1260.42	40.5691
1263.32	40.4775
1266.21	40.2503
1269.1	40.4184
1271.99	40.9934
1274.89	40.8015
1277.78	40.4569
1280.67	40.54
1283.57	40.1794
1286.46	40.7984
1289.35	40.1403
1292.24	40.7721
1295.13	40.1656
1298.03	40.452
1300.92	40.6089
