Measurement: Raman, 780 nm, unoriented, Raman Data RAW
Mineral: Corundum
Rruff sample: X080007
Ideal chemistry: Al_2_O_3_
Locality: Synthetic
Source: Gemological Institute of America
Description: Faceted ruby gemstone, 6.22 ct
Raman shift (cm-1)	intensity
93.3011	0
96.6759	29023.1
100.051	29947.2
103.425	29478.1
106.8	29375.8
110.175	29327.8
113.55	29343.2
116.925	29369.2
120.3	29339.6
123.674	29281.5
127.049	29252.8
130.424	29306.7
133.799	29387.8
137.174	29478.7
140.549	29616.7
143.923	29661.4
147.298	29794.5
150.673	29851
154.048	29843.8
157.423	29725.6
160.798	29571.4
164.172	29375.8
167.547	29154.3
170.922	29027.8
174.297	28831.7
177.672	28661.8
181.046	28552.9
184.421	28429.3
187.796	28324.6
191.171	28289.2
194.546	28246
197.921	28155.4
201.295	28044.1
204.67	27945
208.045	27822.8
211.42	27688.7
214.795	27465.1
218.169	27299.4
221.544	27085.6
224.919	26898.6
228.294	26704.2
231.669	26506.5
235.043	26271
238.418	26085
241.793	25910.2
245.168	25745.5
248.543	25509.8
251.918	25290.2
255.292	25106.4
258.667	24909.1
262.042	24699.9
265.417	24506.9
268.792	24247.5
272.166	24090.7
275.541	23847.3
278.916	23693.9
282.291	23534.1
285.666	23372.5
289.041	23151.3
292.415	22956.3
295.79	22746.7
299.165	22632.1
302.54	22423.7
305.915	22250.9
309.289	22060
312.664	21934.4
316.039	21826.8
319.414	21685.5
322.789	21552.5
326.164	21389.3
329.538	21289.4
332.913	21168.2
336.288	21065.1
339.663	21004.9
343.038	20872.1
346.413	20823.2
349.787	20746
353.162	20626.6
356.537	20531
359.912	20464
363.287	20377.1
366.661	20253.1
370.036	20240.1
373.411	20190.6
376.786	20159.8
380.161	20153.2
383.536	19949.2
386.91	19869.3
390.285	19767.5
393.66	19725.3
397.035	19694.7
400.41	19621
403.784	19592.2
407.159	19488.8
410.534	19506.8
413.909	19571.3
417.284	19792
420.659	19504.1
424.033	19370
427.408	19287.7
430.783	19231.7
434.158	19194.9
437.533	19190.7
440.907	19134.6
444.282	19082.2
447.657	19012.4
451.032	18958.7
454.407	18888.8
457.781	18837.1
461.156	18810.2
464.531	18780.5
467.906	18683.1
471.281	18647.8
474.656	18534.3
478.03	18487.8
481.405	18414.4
484.78	18368
488.155	18321.1
491.53	18265.7
494.904	18186.1
498.279	18116.4
501.654	18060.8
505.029	18007.3
508.404	17902.9
511.779	17819.5
515.153	17766.2
518.528	17668.4
521.903	17604.4
525.278	17549.8
528.653	17487.9
532.028	17415.7
535.402	17275.1
538.777	17204.2
542.152	17174.2
545.527	17104.6
548.902	17024.5
552.276	16946.5
555.651	16895.1
559.026	16838.6
562.401	16745.5
565.776	16675.8
569.15	16627.7
572.525	16573.7
575.9	16516
579.275	16446.6
582.65	16399.3
586.025	16317.8
589.399	16250.6
592.774	16187.2
596.149	16110.1
599.524	16078.4
602.899	15981.8
606.274	15952.6
609.648	15865.8
613.023	15788.5
616.398	15718.8
619.773	15667.8
623.148	15630.8
626.523	15575.9
629.897	15500
633.272	15411.9
636.647	15425.6
640.022	15385
643.396	15391.9
646.771	15312.9
650.146	15264.9
653.521	15159.1
656.896	15078.9
660.271	15037.7
663.645	15001
667.02	14936.8
670.395	14923.9
673.77	14855.5
677.145	14772
680.519	14700.5
683.894	14699.6
687.269	14642.7
690.644	14593.4
694.019	14532.2
697.394	14485.9
700.769	14453.8
704.143	14475.4
707.518	14420.7
710.893	14388
714.268	14340.3
717.643	14319.6
721.017	14307
724.392	14234.2
727.767	14211
731.142	14187.2
734.517	14185.6
737.891	14086.4
741.266	14087.4
744.641	14050.9
748.016	14011.5
751.391	14007.2
754.766	13951.6
758.14	13900.4
761.515	13864.7
764.89	13836.3
768.265	13800.2
771.64	13760.9
775.014	13731.3
778.389	13712.5
781.764	13640
785.139	13635.5
788.514	13650.8
791.889	13597.9
795.263	13558.6
798.638	13586.2
802.013	13547.1
805.388	13506.7
808.763	13535.6
812.138	13466.9
815.512	13421.6
818.887	13424.4
822.262	13389.6
825.637	13370
829.012	13356.7
832.386	13354.5
835.761	13287.9
839.136	13284.3
842.511	13281.9
845.886	13234.8
849.26	13225.9
852.635	13199
856.01	13150.9
859.385	13161.3
862.76	13131.7
866.135	13082
869.509	13076.8
872.884	13041.2
876.259	13000.4
879.634	12984.5
883.009	12982.5
886.384	12943
889.758	12946
893.133	12894.6
896.508	12866.1
899.883	12837.9
903.258	12806.1
906.632	12782.2
910.007	12782.8
913.382	12758.4
916.757	12741.9
920.132	12731
923.506	12736.9
926.881	12652.7
930.256	12656
933.631	12647.8
937.006	12634.1
940.381	12569.7
943.755	12540.7
947.13	12541.4
950.505	12529.8
953.88	12485.6
957.255	12460.1
960.63	12459
964.004	12445.5
967.379	12427.4
970.754	12426.8
974.129	12389.7
977.504	12370.1
980.878	12311
984.253	12297
987.628	12295.5
991.003	12321
994.378	12282
997.753	12268.2
1001.13	12302.2
1004.5	12252.1
1007.88	12241.2
1011.25	12227.4
1014.63	12197.4
1018	12185
1021.38	12189.2
1024.75	12162.1
1028.13	12167.8
1031.5	12149
1034.88	12128
1038.25	12125.6
1041.62	12103.5
1045	12115.9
1048.38	12102.8
1051.75	12064.7
1055.12	12069.2
1058.5	12070.5
1061.87	12041.4
1065.25	12040.9
1068.62	12013.2
1072	12010.9
1075.37	11973.8
1078.75	11985.9
1082.12	11950.3
1085.5	11955.5
1088.87	11914.1
1092.25	11921.7
1095.62	11880.5
1099	11873.9
1102.37	11883.3
1105.75	11847.3
1109.12	11844.6
1112.5	11832.4
1115.87	11797.2
1119.25	11776.8
1122.62	11756.3
1126	11804.6
1129.37	11808.5
1132.74	11783
1136.12	11768.1
1139.49	11806.6
1142.87	11804.8
1146.24	11769.1
1149.62	11753.1
1152.99	11739.6
1156.37	11725.6
1159.74	11748.7
1163.12	11732.8
1166.49	11743.9
1169.87	11735.3
1173.24	11758.9
1176.62	11769.6
1179.99	11769.7
1183.37	11716.8
1186.74	11760.6
1190.12	11721.6
1193.49	11677.2
1196.87	11697.3
1200.24	11688.5
1203.62	11733.7
1206.99	11705.5
1210.37	11654.8
1213.74	11692.8
1217.12	11633
1220.49	11596.4
1223.87	11619.7
1227.24	11585.6
1230.62	11632.4
1233.99	11592.8
1237.37	11597
1240.74	11553.6
1244.11	11556.1
1247.49	11559
1250.86	11562.1
1254.24	11538.3
1257.61	11529.6
1260.99	11517.7
1264.36	11526.3
1267.74	11518.7
1271.11	11509.9
1274.49	11511.5
1277.86	11514.6
1281.24	11519.7
1284.61	11544.6
