Measurement: Raman, 532 nm, unoriented, Raman Data RAW
Mineral: Corundum
Rruff sample: X080007
Ideal chemistry: Al_2_O_3_
Locality: Synthetic
Source: Gemological Institute of America
Description: Faceted ruby gemstone, 6.22 ct
Raman shift (cm-1)	intensity
90.5257	0
93.9005	27598.2
97.2753	27634.9
100.65	27357.2
104.025	27555.5
107.4	27413
110.775	27288.7
114.149	27406.1
117.524	27703
120.899	27622.5
124.274	27628
127.649	27704.2
131.024	27615.7
134.398	26087.5
137.773	24775.7
141.148	23865.6
144.523	23056.4
147.898	22471
151.272	22110.4
154.647	21652.4
158.022	21234.4
161.397	20909.8
164.772	20540.7
168.147	20279.2
171.521	20175.5
174.896	19857.3
178.271	19593.5
181.646	19561.7
185.021	19403.5
188.395	19405.4
191.77	19112.3
195.145	18898.1
198.52	18791.3
201.895	18784.9
205.269	18642.7
208.644	18549.3
212.019	18455.5
215.394	18387.6
218.769	18453.5
222.143	18404.3
225.518	18241.5
228.893	18104.7
232.268	18197.5
235.643	18007.9
239.018	18151.2
242.392	17991.8
245.767	17940
249.142	17910.6
252.517	17988.1
255.892	17846.5
259.267	17934.6
262.641	17785.4
266.016	17753
269.391	17824.5
272.766	17874.9
276.141	17712.3
279.515	17754
282.89	17709.6
286.265	17756.2
289.64	17733.8
293.015	17732.1
296.389	17707.5
299.764	17597
303.139	17462.7
306.514	17493.8
309.889	17537.1
313.264	17474.3
316.638	17377.9
320.013	17408.3
323.388	17481.8
326.763	17367.8
330.138	17386.5
333.512	17394.3
336.887	17322.1
340.262	17316.7
343.637	17343.2
347.012	17332.8
350.387	17354.8
353.761	17318.6
357.136	17378.1
360.511	17375.9
363.886	17228.2
367.261	17299.9
370.635	17295.4
374.01	17243.6
377.385	17343.6
380.76	17382.9
384.135	17245
387.51	17199
390.884	17236.6
394.259	17158
397.634	17229.6
401.009	17275.6
404.384	17181.6
407.759	17286.9
411.133	17275.7
414.508	17547.7
417.883	17553.6
421.258	17136
424.632	17178
428.007	17094.1
431.382	17214.4
434.757	17043
438.132	16956.8
441.507	16996.5
444.881	16997.9
448.256	16984.5
451.631	17034.6
455.006	16879.1
458.381	17073.8
461.755	17014
465.13	17058.3
468.505	17042.3
471.88	16962.4
475.255	17002.5
478.63	17044.1
482.004	17108.9
485.379	17106.8
488.754	17092.9
492.129	17088.8
495.504	17163.8
498.878	17127.3
502.253	17223.1
505.628	17232.8
509.003	17193.3
512.378	17154.6
515.753	17191.6
519.127	17138.9
522.502	17230.8
525.877	17168.3
529.252	17347.5
532.627	17304.2
536.001	17312.5
539.376	17351.6
542.751	17463.2
546.126	17417
549.501	17422.8
552.876	17502.8
556.25	17450
559.625	17591.8
563	17546.6
566.375	17531.1
569.75	17533.7
573.125	17537.9
576.499	17649.8
579.874	17558.9
583.249	17665.3
586.624	17632.7
589.999	17711.8
593.373	17739.3
596.748	17721
600.123	17735.8
603.498	17794.1
606.873	17839.8
610.247	17931.2
613.622	18016.7
616.997	17862.8
620.372	17926.3
623.747	17964.4
627.121	18111.3
630.496	18152.9
633.871	18200.2
637.246	18297.2
640.621	18441.5
643.996	18421.1
647.37	18370.8
650.745	18593.2
654.12	18526.5
657.495	18619.5
660.87	18712.9
664.245	18732.9
667.619	18764.3
670.994	18897.8
674.369	18927.7
677.744	19009.7
681.119	19154
684.493	19303.8
687.868	19309
691.243	19294.2
694.618	19386.5
697.993	19373.9
701.367	19523.8
704.742	19496.3
708.117	19646.6
711.492	19764.6
714.867	19779.4
718.242	19861.2
721.616	19889.4
724.991	20079.4
728.366	20226.6
731.741	20324.8
735.116	20346.8
738.49	20437.5
741.865	20507.9
745.24	20618
748.615	20792.4
751.99	20827.7
755.365	20874.3
758.739	20982.6
762.114	21136.8
765.489	21146.3
768.864	21194.3
772.239	21270.6
775.614	21413.8
778.988	21401.5
782.363	21517.7
785.738	21705.9
789.113	21757.3
792.487	21742.1
795.862	21967.8
799.237	22007.8
802.612	22142
805.987	22216.5
809.362	22361.7
812.736	22415.4
816.111	22496.5
819.486	22705.8
822.861	22672.1
826.236	22778.1
829.611	22941.6
832.985	22925.6
836.36	23188
839.735	23223.2
843.11	23384.1
846.485	23403.5
849.859	23583.6
853.234	23735.8
856.609	23937.3
859.984	24137.6
863.359	24126.5
866.734	24201.4
870.108	24328.1
873.483	24530.8
876.858	24516.4
880.233	24624.4
883.608	24638.9
886.982	24676.4
890.357	24992.1
893.732	25081.9
897.107	25112.3
900.482	25336.2
903.856	25603.4
907.231	25743.7
910.606	25825.2
913.981	26124.8
917.356	26158.8
920.731	26477.7
924.105	26628.3
927.48	26975.2
930.855	27006.5
934.23	26899.5
937.605	27146
940.98	27173.3
944.354	27350
947.729	27618.1
951.104	27811
954.479	27895.5
957.854	28156.6
961.228	28397.7
964.603	28583.8
967.978	28791.2
971.353	29047
974.728	29287.6
978.102	29524.9
981.477	29951.8
984.852	30078.1
988.227	30243.9
991.602	30530.9
994.977	30772.4
998.351	30926.5
1001.73	31158.4
1005.1	31428.5
1008.48	31651
1011.85	31860.1
1015.23	32028.9
1018.6	32386
1021.98	32648.4
1025.35	32961.4
1028.72	33088
1032.1	33256.1
1035.47	33458.4
1038.85	33832.5
1042.22	34196.9
1045.6	34524.6
1048.97	34638.3
1052.35	34936.1
1055.72	35192.5
1059.1	35420
1062.47	35843
1065.85	36109.3
1069.22	36430.7
1072.6	36844.7
1075.97	36956.1
1079.35	37212.1
1082.72	37445.9
1086.1	37800
1089.47	38010.4
1092.85	38390.8
1096.22	38793.8
1099.6	39222.8
1102.97	39537.4
1106.35	39803.9
1109.72	39926.9
1113.1	40317.8
1116.47	40607.6
1119.85	41083.3
1123.22	41291.7
1126.59	41552.9
1129.97	41839.6
1133.34	42362.1
1136.72	42872.9
1140.09	43064.1
1143.47	43280.2
1146.84	43604.8
1150.22	44109.4
1153.59	44631.3
1156.97	44880.4
1160.34	45089.4
1163.72	45582.1
1167.09	45947
1170.47	46442.1
1173.84	46809.7
1177.22	47231.9
1180.59	47485.3
1183.97	47845.9
1187.34	48201
1190.72	48750.8
1194.09	49270.9
1197.47	49902.7
1200.84	50390.2
1204.21	50886.8
1207.59	51145.3
1210.96	51771.1
1214.34	52472.1
1217.71	53050.6
1221.09	53411.7
1224.46	54158.8
1227.84	54799.2
1231.21	55116.6
1234.59	55797
1237.96	56450.5
1241.34	57049.3
1244.71	57718.1
1248.09	58515
1251.46	59245.9
1254.84	59596.9
1258.21	60456.3
1261.59	61096.8
1264.96	61921.6
1268.34	62518.4
1271.71	63353.1
1275.09	64293
1278.46	64965.8
1281.84	65534
1285.21	66440.3
1288.59	67360.9
1291.96	67963.3
1295.34	68646.7
1298.71	69502.3
1302.09	70369.3
