Measurement: Raman, 780 nm, unoriented, Raman Data Processed
Mineral: Corvusite
Rruff sample: R060265
Ideal chemistry: (Na,Ca,K)_1-x_(V^5+^,V^4+^,Fe^2+^)_8_O_20_4H_2_O
Locality: Monument no. 2 mine, Monument Valley, Apache County, Arizona, USA
Source: Michael Scott
Description: Dark brown lathlike bladed crystals in parallel
Raman shift (cm-1)	intensity
91.5599	0
94.9347	1916.65
98.3096	1965.79
101.684	497.187
105.059	107.404
108.434	227.374
111.809	835.642
115.184	1856.06
118.558	3433.5
121.933	5425.09
125.308	8350.33
128.683	11890
132.058	16743.4
135.433	22605.5
138.807	28052.4
142.182	30016.7
145.557	25201.8
148.932	17139.2
152.307	10344.1
155.681	6071.37
159.056	3439.55
162.431	1844.45
165.806	832.713
169.181	235.898
172.555	26.6104
175.93	84.0508
179.305	50.1162
182.68	126.737
186.055	406.733
189.43	703.289
192.804	877.425
196.179	783.738
199.554	516.787
202.929	247.77
206.304	101.71
209.678	1.95361
213.053	17.877
216.428	1.71728
219.803	47.8279
223.178	108.469
226.553	193.792
229.927	300.723
233.302	311.882
236.677	344.237
240.052	422.134
243.427	476.487
246.801	612.972
250.176	728.717
253.551	938.399
256.926	1109.39
260.301	1319.58
263.675	1594.45
267.05	1981.07
270.425	2501.84
273.8	3180.92
277.175	3975.4
280.55	4651.17
283.924	4798.06
287.299	4346.23
290.674	3641.23
294.049	2911.77
297.424	2309.66
300.798	1853.04
304.173	1543.66
307.548	1159.74
310.923	966.048
314.298	707.298
317.673	516.324
321.047	419.054
324.422	279.658
327.797	215.491
331.172	119.721
334.547	103.4
337.921	26.2871
341.296	33.0696
344.671	7.23169
348.046	22.2883
351.421	56.9214
354.796	36.8789
358.17	49.7307
361.545	32.5645
364.92	0.925537
368.295	4.60132
371.67	38.8916
375.044	59.8137
378.419	86.115
381.794	168.608
385.169	204.565
388.544	319.915
391.918	410.625
395.293	615.388
398.668	792.54
402.043	924.047
405.418	1070.59
408.793	1081.99
412.167	880.478
415.542	645.747
418.917	475.229
422.292	343.923
425.667	206.372
429.041	155.706
432.416	99.1643
435.791	49.8452
439.166	80.0247
442.541	72.196
445.915	81.9988
449.29	62.721
452.665	80.7173
456.04	123.636
459.415	144.96
462.789	149.297
466.164	151.304
469.539	153.321
472.914	166.639
476.289	167.412
479.664	135.58
483.038	131.454
486.413	121.336
489.788	93.416
493.163	85.811
496.538	77.1272
499.913	61.2353
503.287	37.7192
506.662	24.2615
510.037	49.9114
513.412	69.3357
516.787	66.3767
520.161	97.5566
523.536	95.2896
526.911	130.784
530.286	102.346
533.661	97.3503
537.035	79.2053
540.41	71.3508
543.785	76.811
547.16	41.1382
550.535	48.8359
553.909	6.61963
557.284	28.0361
560.659	30.5581
564.034	9.72583
567.409	10.6523
570.784	10.103
574.158	1.60693
577.533	24.3618
580.908	0.366211
584.283	48.9431
587.658	10.7495
591.033	0.892578
594.407	16.4504
597.782	1.82397
601.157	5.34595
604.532	11.7133
607.907	28.2383
611.281	25.9058
614.656	33.0376
618.031	4.43921
621.406	59.6936
624.781	60.6457
628.155	61.1383
631.53	97.386
634.905	93.5166
638.28	145.158
641.655	161.953
645.029	185.167
648.404	209.879
651.779	237.742
655.154	269.074
658.529	372.159
661.904	436.055
665.278	529.137
668.653	644.669
672.028	737.625
675.403	832.93
678.778	948.023
682.153	1078.36
685.527	1182.21
688.902	1225.25
692.277	1246.38
695.652	1250.35
699.027	1179.72
702.401	1071.03
705.776	945.433
709.151	805.599
712.526	681.507
715.901	561.691
719.275	422.924
722.65	337.597
726.025	279.321
729.4	216.748
732.775	179.533
736.149	138.48
739.524	134.915
742.899	72.3973
746.274	51.7537
749.649	27.8873
753.024	15.4716
756.398	17.14
759.773	8.96704
763.148	2.58594
766.523	14.1681
769.898	10.8155
773.273	11.2457
776.647	25.3778
780.022	2.07983
783.397	28.5821
786.772	9.72681
790.146	4.34985
793.521	14.1036
796.896	2.58594
800.271	44.6818
803.646	9.94519
807.021	39.6426
810.395	4.76782
813.77	30.7344
817.145	36.771
820.52	51.2378
823.895	52.6119
827.269	72.6985
830.644	97.63
834.019	80.5211
837.394	74.7457
840.769	44.4115
844.144	70.6156
847.518	83.8538
850.893	51.1422
854.268	50.8302
857.643	51.2081
861.018	82.5458
864.393	62.4571
867.767	53.6132
871.142	16.7341
874.517	45.9268
877.892	45.0328
881.266	34.9917
884.641	18.3489
888.016	29.7346
891.391	13.1362
894.766	7.63123
898.141	0.304688
901.515	11.0166
904.89	6.84949
908.265	13.927
911.64	11.6293
915.015	4.68396
918.389	27.6935
921.764	6.16113
925.139	56.0826
928.514	12.8512
931.889	15.5007
935.264	24.855
938.638	20.0261
942.013	49.8208
945.388	39.4192
948.763	33.6957
952.138	52.7151
955.512	166.888
958.887	90.2583
962.262	157.741
965.637	153.623
969.012	159.591
972.386	209.602
975.761	289.185
979.136	445.947
982.511	635.714
985.886	996.279
989.261	1381.22
992.635	1530.85
996.01	1101.11
999.385	630.428
1002.76	354.815
1006.13	244.508
1009.51	180.609
1012.88	126.089
1016.26	92.1351
1019.63	83.8947
1023.01	56.3165
1026.38	63.5032
1029.76	39.3815
1033.13	24.954
1036.51	22.8138
1039.88	13.7984
1043.26	14.7485
1046.63	29.6422
1050.01	6.41388
1053.38	14.8442
1056.76	8.86743
1060.13	9.11823
1063.51	17.0116
1066.88	43.0012
1070.26	25.3057
1073.63	32.9849
1077.01	9.09515
1080.38	17.2416
1083.76	11.8608
1087.13	40.9714
1090.51	91.8544
1093.88	24.2895
1097.26	16.6624
1100.63	35.9301
1104	38.7642
1107.38	6.48364
1110.75	17.9865
1114.13	9.99524
1117.5	19.3458
1120.88	21.8883
1124.25	13.3437
1127.63	23.611
1131	13.5751
1134.38	5.33911
1137.75	4.25073
1141.13	30.5969
1144.5	28.6551
1147.88	32.8763
1151.25	29.2026
1154.63	1.25
1158	13.4215
1161.38	31.978
1164.75	17.2212
1168.13	6.00995
1171.5	19.6139
1174.88	27.6237
1178.25	45.4057
1181.62	19.5293
1185	18.5856
1188.38	29.6161
1191.75	42.9824
1195.12	14.0366
1198.5	53.4714
1201.87	36.551
1205.25	19.4028
1208.62	34.5029
1212	43.9786
1215.37	30.5416
1218.75	26.8113
1222.12	11.8911
1225.5	50.6688
1228.87	6.71246
1232.25	12.8625
1235.62	27.1256
1239	37.0228
1242.37	20.2477
1245.75	16.4254
1249.12	27.2795
1252.5	7.64917
1255.87	15.8807
1259.25	2.86755
1262.62	33.6837
1265.99	19.4679
1269.37	15.838
1272.74	48.0398
1276.12	11.0045
1279.49	33.3013
1282.87	20.2284
