Measurement: Raman, 780 nm, unoriented, Raman Data Processed
Mineral: Cosalite
Rruff sample: R060625
Ideal chemistry: Pb^2+^_2_Bi^3+^_2_S^2-^_5_
Locality: Wells, British Columbia, Canada
Source: Michael Scott
Description: Steel gray metallic elongated prismatic crystals associated with quartz
Raman shift (cm-1)	intensity
128.562	0
131.455	2.34207
134.348	0.059494
137.24	2.8424
140.133	2.78517
143.026	2.12743
145.918	1.86643
148.811	1.51151
151.704	1.6234
154.597	2.49445
157.489	2.19008
160.382	2.26634
163.275	1.38682
166.167	1.24885
169.06	1.42744
171.953	1.04208
174.845	0.713089
177.738	0.691025
180.631	0.092751
183.524	0.196854
186.416	0.04248
189.309	0.215019
192.202	0.954544
195.094	1.6336
197.987	2.4001
200.88	2.80169
203.773	3.89399
206.665	4.00417
209.558	4.88398
212.451	5.66066
215.343	5.69407
218.236	6.08088
221.129	4.8803
224.021	5.34735
226.914	6.35617
229.807	6.77109
232.7	6.92998
235.592	6.3966
238.485	7.63314
241.378	7.63181
244.27	8.03643
247.163	7.93204
250.056	6.74875
252.948	6.15393
255.841	5.90942
258.734	6.29902
261.627	6.61294
264.519	6.27335
267.412	6.68267
270.305	6.22231
273.197	6.72251
276.09	7.90634
278.983	8.3814
281.875	7.70229
284.768	6.93972
287.661	5.6516
290.553	3.73804
293.446	2.51861
296.339	1.295
299.232	1.19125
302.124	0.669312
305.017	0.543653
307.91	0.121244
310.802	0.226545
313.695	0.262287
316.588	0.292906
319.481	0.041241
322.373	0.084538
325.266	0.361874
328.159	0.141119
331.051	0.154718
333.944	0.0376
336.837	0.610685
339.729	0.331856
342.622	0.085548
345.515	0.220438
348.408	0.336815
351.3	0.623344
354.193	0.689722
357.086	0.570045
359.978	0.689209
362.871	0.570946
365.764	1.03081
368.656	0.739738
371.549	0.899004
374.442	0.801001
377.334	0.731089
380.227	0.384098
383.12	0.300158
386.013	0.371876
388.905	0.262983
391.798	0.398134
394.691	0.520559
397.583	0.409781
400.476	0.289547
403.369	0.175097
406.262	0.081236
409.154	0.152456
412.047	0.22179
414.94	0.147839
417.832	0.089088
420.725	0.136297
423.618	0.031845
426.51	0.378973
429.403	0.142973
432.296	0.343557
435.188	0.410387
438.081	0.011955
440.974	0.242374
443.867	0.378159
446.759	0.210644
449.652	0.749575
452.545	0.213272
455.437	0.355511
458.33	0.708664
461.223	0.59234
464.115	0.629219
467.008	0.768206
469.901	0.58493
472.794	0.473776
475.686	0.518202
478.579	0.431337
481.472	0.260138
484.364	0.291101
487.257	0.384155
490.15	0.579372
493.043	0.680206
495.935	0.814342
498.828	0.687191
501.721	0.34956
504.613	0.298781
507.506	0.531786
510.399	0.272943
513.291	0.279554
516.184	0.21546
519.077	0.601461
521.97	0.615296
524.862	0.417979
527.755	0.195499
530.648	0.016225
533.54	0.273286
536.433	0.222773
539.326	0.157048
542.218	0.427915
545.111	0.80062
548.004	1.48568
550.896	1.44555
553.789	1.52368
556.682	0.658931
559.575	0.517712
562.467	0.214361
565.36	0.14135
568.253	0.109797
571.145	0.079843
574.038	0.026134
576.931	0.013919
579.823	0.025231
582.716	0.217234
585.609	0.021152
588.502	0.281323
591.394	0.213779
594.287	0.238534
597.18	0.265728
600.072	0.194401
602.965	0.360396
605.858	0.036744
608.75	0.312354
611.643	0.255012
614.536	0.208211
617.429	0.32739
620.321	0.047008
623.214	0.460629
626.107	0.372605
629	0.337024
631.892	0.108986
634.785	0.36514
637.678	0.326066
640.57	0.202419
643.463	0.160859
646.356	0.362434
649.248	0.488317
652.141	0.431866
655.034	0.449631
657.927	0.364855
660.819	0.187933
663.712	0.667318
666.605	1.05437
669.497	0.593905
672.39	1.10769
675.283	0.399618
678.175	1.00331
681.068	0.283359
683.961	0.047178
686.854	0.277125
689.746	0.48746
692.639	0.375606
695.532	0.090985
698.424	0.054786
701.317	0.092384
704.21	0.05857
707.102	0.075707
709.995	0.246922
712.888	0.142874
715.78	0.083805
718.673	0.001793
721.566	0.032282
724.459	0.551196
727.351	0.158411
730.244	0.117455
733.137	0.067771
736.029	0.029119
738.922	0.210192
741.815	0.423839
744.707	0.157537
747.6	0.116524
750.493	0.13296
753.386	0.147877
756.278	0.222898
759.171	0.068623
762.064	0.380564
764.956	0.093757
767.849	0.238132
770.742	0.028741
773.635	0.334888
776.527	0.064106
779.42	0.333059
782.313	0.336295
785.205	0.194975
788.098	0.543885
790.991	0.695863
793.883	0.793857
796.776	0.474533
799.669	0.852025
802.562	0.848359
805.454	0.55312
808.347	1.10152
811.24	0.712187
814.132	0.64137
817.025	0.896257
819.918	0.90998
822.81	1.1749
825.703	1.22548
828.596	0.914583
831.489	1.16268
834.381	1.14723
837.274	1.18588
840.167	1.46212
843.059	1.46788
845.952	1.37787
848.845	1.47977
851.737	1.57028
854.63	1.33091
857.523	1.45416
860.415	1.46667
863.308	1.33833
866.201	1.39878
869.094	1.45439
871.986	1.20069
874.879	1.02316
877.772	0.811068
880.664	1.12481
883.557	0.781331
886.45	0.732387
889.342	0.732854
892.235	0.562313
895.128	0.42248
898.021	0.513282
900.913	0.199128
903.806	0.451807
906.699	0.205798
909.591	0.04982
912.484	0.081303
915.377	0.077561
918.269	0.033952
921.162	0.095917
924.055	0.037441
926.948	0.030849
929.84	0.014328
932.733	0.118003
935.626	0.100762
938.518	0.211945
941.411	0.519444
944.304	0.016755
947.197	0.039865
950.089	0.029907
952.982	0.240496
955.875	0.078958
958.767	0.055978
961.66	0.000689
964.553	0.070508
967.445	0.336369
970.338	0.315629
973.231	0.215406
976.124	0.260256
979.016	0.000923
981.909	0.290615
984.802	0.105665
987.694	0.152705
990.587	0.439243
993.48	0.304491
996.372	0.248193
999.265	0.150113
1002.16	0.454959
1005.05	0.404257
1007.94	0.221958
1010.84	0.507095
1013.73	0.561102
1016.62	0.355417
1019.51	0.301463
1022.41	0.425572
1025.3	0.590443
1028.19	0.573278
1031.09	0.325867
1033.98	0.653034
1036.87	0.559038
1039.76	0.56696
1042.66	0.785094
1045.55	0.529223
1048.44	0.750788
1051.33	0.386813
1054.23	0.524652
1057.12	0.44742
1060.01	0.560445
1062.9	0.362475
1065.8	0.462209
1068.69	0.216639
1071.58	0.371239
1074.47	0.146184
1077.37	0.253851
1080.26	0.308925
1083.15	0.295884
1086.05	0.020775
1088.94	0.055786
1091.83	0.337148
1094.72	0.227952
1097.62	0.01157
1100.51	0.318969
1103.4	0.085912
1106.3	0.194486
1109.19	0.118556
1112.08	0.066766
1114.97	0.116206
1117.87	0.032587
1120.76	0.175011
1123.65	0.193824
1126.54	0.182902
1129.44	0.170915
1132.33	0.190874
1135.22	0.177405
1138.12	0.028639
1141.01	0.087999
1143.9	0.078274
1146.79	0.04108
1149.69	0.273025
1152.58	0.294623
1155.47	0.347113
1158.36	0.0118
1161.26	0.145143
1164.15	0.363581
1167.04	0.158051
1169.93	0.134002
1172.83	0.207954
1175.72	0.363358
1178.61	0.421519
1181.51	0.352749
1184.4	0.071091
1187.29	0.46495
1190.18	0.330965
1193.08	0.045491
1195.97	0.360742
1198.86	0.487409
1201.75	0.175395
1204.65	0.293525
1207.54	0.335447
1210.43	0.203315
1213.33	0.393786
1216.22	0.342422
1219.11	0.051779
1222	0.326189
1224.9	0.040646
1227.79	0.178286
1230.68	0.000211
1233.57	0.468041
1236.47	1.24534
1239.36	0.110726
1242.25	0.169555
1245.14	0.10328
1248.04	0.096476
1250.93	0.23582
1253.82	0.249826
1256.71	0.139675
1259.61	0.261361
1262.5	0.052242
1265.39	0.153254
1268.29	0.337683
1271.18	0.263592
1274.07	0.316966
1276.96	0.175502
1279.86	0.215741
