Measurement: Raman, 532 nm, unoriented, Raman Data Processed
Mineral: Cosalite
Rruff sample: R060625
Ideal chemistry: Pb^2+^_2_Bi^3+^_2_S^2-^_5_
Locality: Wells, British Columbia, Canada
Source: Michael Scott
Description: Steel gray metallic elongated prismatic crystals associated with quartz
Raman shift (cm-1)	intensity
100.672	0
104.047	0.215157
107.421	12.8488
110.796	0.111908
114.171	3.34762
117.546	10.6677
120.921	8.03523
124.296	14.9221
127.67	11.9694
131.045	18.6782
134.42	15.3073
137.795	18.6149
141.17	19.8226
144.544	14.4697
147.919	14.4369
151.294	12.211
154.669	13.3467
158.044	7.36769
161.418	6.99856
164.793	5.8444
168.168	5.72375
171.543	5.86848
174.918	4.64384
178.293	3.78457
181.667	3.70746
185.042	3.96518
188.417	2.54063
191.792	1.28468
195.167	1.74411
198.542	0.974571
201.916	1.32555
205.291	0.957382
208.666	0.191002
212.041	0.521111
215.416	0.109642
218.79	1.00411
222.165	0.519287
225.54	0.464355
228.915	1.08582
232.29	1.22292
235.664	1.77206
239.039	1.96433
242.414	1.88863
245.789	3.32618
249.164	4.80025
252.538	5.78225
255.913	7.04685
259.288	7.73405
262.663	7.77506
266.038	8.25468
269.413	7.3709
272.787	7.09128
276.162	6.9165
279.537	6.24375
282.912	5.57954
286.287	4.47493
289.661	2.64858
293.036	2.01637
296.411	1.18027
299.786	0.251022
303.161	0.148777
306.536	0.2075
309.91	0.229454
313.285	0.273434
316.66	0.327217
320.035	0.238983
323.41	0.031815
326.784	0.565022
330.159	0.580029
333.534	0.969162
336.909	0.81406
340.284	1.54063
343.659	1.43742
347.033	1.51195
350.408	1.50346
353.783	1.83934
357.158	1.73824
360.533	2.04385
363.908	1.54919
367.282	2.07014
370.657	1.1791
374.032	1.27268
377.407	1.12063
380.782	0.417549
384.156	0.847984
387.531	0.37088
390.906	0.460331
394.281	0.504601
397.656	0.713707
401.031	0.740864
404.405	0.314919
407.78	0.419094
411.155	0.334011
414.53	0.099308
417.905	0.223904
421.279	0.397388
424.654	0.377281
428.029	0.515373
431.404	0.439796
434.779	0.601627
438.154	0.48254
441.528	0.704998
444.903	0.09943
448.278	0.627975
451.653	0.255623
455.028	0.797054
458.402	1.08375
461.777	0.740459
465.152	0.613258
468.527	1.10871
471.902	0.731079
475.276	1.12338
478.651	1.6379
482.026	2.11366
485.401	1.77154
488.776	0.834343
492.151	0.945671
495.525	0.803066
498.9	0.493629
502.275	0.654531
505.65	0.286869
509.025	0.34285
512.399	0.318115
515.774	0.480886
519.149	0.109125
522.524	0.313
525.899	0.04549
529.274	0.564342
532.648	0.563879
536.023	0.072561
539.398	0.284857
542.773	0.57967
546.148	0.402422
549.523	0.496084
552.897	0.278633
556.272	0.917639
559.647	0.760151
563.022	1.21825
566.396	0.45763
569.771	1.12991
573.146	0.611177
576.521	1.17734
579.896	0.489813
583.271	0.784386
586.645	0.874983
590.02	0.386808
593.395	0.761051
596.77	0.117636
600.145	0.245213
603.519	0.114544
606.894	0.028078
610.269	0.205013
613.644	0.137499
617.019	0.458527
620.394	0.429056
623.768	0.224459
627.143	0.699869
630.518	0.716396
633.893	0.26775
637.268	1.2634
640.643	0.729132
644.017	0.963476
647.392	1.15599
650.767	1.37008
654.142	1.50304
657.517	1.23939
660.891	1.7164
664.266	1.45455
667.641	0.719265
671.016	1.19359
674.391	0.930168
677.765	0.603291
681.14	0.984966
684.515	0.613724
687.89	0.422421
691.265	0.532104
694.64	0.726883
698.014	0.34272
701.389	0.07357
704.764	0.022057
708.139	0.423145
711.514	0.141457
714.889	0.297001
718.263	0.205544
721.638	0.106304
725.013	0.07439
728.388	0.215412
731.763	0.020695
735.137	0.511475
738.512	0.491718
741.887	0.353992
745.262	0.223785
748.637	1.07352
752.011	0.703262
755.386	0.849464
758.761	0.411137
762.136	0.582188
765.511	0.441116
768.886	0.692852
772.26	0.894691
775.635	0.769318
779.01	1.44242
782.385	1.35958
785.76	1.62445
789.135	2.19644
792.509	1.71712
795.884	2.40046
799.259	3.18729
802.634	3.27187
806.009	2.88266
809.383	3.83464
812.758	4.1555
816.133	4.37056
819.508	4.13846
822.883	4.64705
826.257	5.03744
829.632	5.42688
833.007	5.96833
836.382	6.13739
839.757	6.14016
843.132	6.83782
846.506	6.27191
849.881	6.73093
853.256	6.67803
856.631	6.56616
860.006	6.61531
863.38	6.62453
866.755	6.7708
870.13	5.75185
873.505	5.67364
876.88	4.86857
880.255	4.66835
883.629	4.03672
887.004	4.02255
890.379	2.36797
893.754	2.34773
897.129	2.0421
900.504	1.55556
903.878	0.681728
907.253	0.458714
910.628	0.118446
914.003	0.31542
917.378	0.258184
920.752	0.233179
924.127	0.292168
927.502	0.225935
930.877	0.141335
934.252	0.240923
937.626	0.123304
941.001	0.099438
944.376	0.216663
947.751	0.141724
951.126	0.184536
954.5	0.136614
957.875	0.317223
961.25	0.507519
964.625	0.621759
968	0.89397
971.375	0.426287
974.75	0.856199
978.124	0.769409
981.499	0.756828
984.874	0.790794
988.249	0.467012
991.624	0.890772
994.998	0.875387
998.373	1.19438
1001.75	0.923908
1005.12	1.04436
1008.5	1.14921
1011.87	1.59591
1015.25	1.67181
1018.62	1.62452
1022	1.94541
1025.37	2.32441
1028.75	2.5427
1032.12	2.67466
1035.5	2.9852
1038.87	2.79563
1042.25	2.63852
1045.62	3.0356
1048.99	2.83114
1052.37	2.48202
1055.74	2.01594
1059.12	1.57056
1062.49	1.47065
1065.87	1.58541
1069.24	1.09781
1072.62	0.736404
1075.99	0.808483
1079.37	0.652096
1082.74	0.460606
1086.12	0.582111
1089.49	0.206284
1092.87	0.443951
1096.24	0.094303
1099.62	0.257278
1102.99	0.037458
1106.37	0.019125
1109.74	0.18849
1113.12	0.479898
1116.49	0.267071
1119.87	0.068586
1123.24	0.010416
1126.62	0.125895
1129.99	0.192196
1133.37	0.224108
1136.74	0.018879
1140.12	0.125105
1143.49	0.002117
1146.87	0.012697
1150.24	0.046865
1153.62	0.324114
1156.99	0.092964
1160.36	0.074099
1163.74	0.263378
1167.11	0.068851
1170.49	0.49906
1173.86	0.147448
1177.24	0.272434
1180.61	0.247471
1183.99	0.432785
1187.36	0.003943
1190.74	0.729467
1194.11	0.79239
1197.49	0.720887
1200.86	0.629161
1204.24	1.06069
1207.61	1.02261
1210.99	0.450809
1214.36	0.706078
1217.74	0.405227
1221.11	0.667923
1224.49	0.762273
1227.86	0.187284
1231.24	0.687556
1234.61	0.547751
1237.98	0.446931
1241.36	0.287582
1244.73	0.604897
1248.11	0.960515
1251.48	0.755395
1254.86	0.43608
1258.23	0.810454
1261.61	0.306703
1264.98	0.432824
1268.36	0.333925
1271.73	0.180241
1275.11	0.453703
1278.48	0.457149
1281.86	0.344085
1285.23	0.609724
1288.61	0.474006
1291.98	0.227139
1295.36	0.137197
1298.73	0.204823
