Measurement: Raman, 532 nm, unoriented, Raman Data Processed
Mineral: Cowlesite
Rruff sample: R060627
Ideal chemistry: Ca(Al_2_Si_3_)O_10_5-6H_2_O
Locality: Goble, Colombia County, Oregon, USA
Source: Michael Scott
Description: Radiating spherical sprays of colorless lath-like crystals
Raman shift (cm-1)	intensity
140.687	0
144.062	0.474869
147.437	1.50236
150.812	2.08069
154.187	2.88261
157.561	1.76297
160.936	2.79302
164.311	3.27058
167.686	2.9608
171.061	4.60088
174.436	2.74713
177.81	3.11353
181.185	3.64618
184.56	3.09592
187.935	4.85548
191.31	6.94183
194.685	10.0555
198.059	10.876
201.434	10.9956
204.809	11.3743
208.184	11.0512
211.559	10.6997
214.933	7.41917
218.308	3.56995
221.683	2.87765
225.058	0.235214
228.433	0.884949
231.808	1.08601
235.182	0.837387
238.557	0.708008
241.932	0.669037
245.307	0.34259
248.682	0.969055
252.056	1.23131
255.431	2.57021
258.806	0.01033
262.181	2.073
265.556	0.725418
268.93	0.854248
272.305	1.71216
275.68	3.96135
279.055	3.18051
282.43	3.02507
285.805	4.93802
289.179	4.94147
292.554	5.03599
295.929	4.68778
299.304	6.19115
302.679	5.68875
306.053	5.98564
309.428	5.10976
312.803	5.41682
316.178	8.29306
319.553	7.42885
322.928	9.10513
326.302	9.04396
329.677	8.81545
333.052	8.37431
336.427	5.57015
339.802	4.36905
343.176	4.03549
346.551	4.45377
349.926	3.68808
353.301	3.69139
356.676	3.29994
360.051	3.37894
363.425	4.15175
366.8	4.16397
370.175	3.84036
373.55	2.44571
376.925	2.43645
380.3	2.41548
383.674	3.86073
387.049	4.42323
390.424	4.50913
393.799	3.19278
397.174	3.57625
400.548	3.83914
403.923	2.08704
407.298	1.91348
410.673	0.379517
414.048	2.13515
417.423	0.113525
420.797	0.608383
424.172	0.347153
427.547	0.141037
430.922	0.566177
434.296	0.144501
437.671	0.171951
441.046	1.65338
444.421	2.01724
447.796	1.30231
451.171	1.43094
454.545	0.497086
457.92	0.477921
461.295	1.0939
464.67	0.912888
468.045	0.458115
471.42	0.462173
474.794	1.30965
478.169	0.041916
481.544	0.637329
484.919	0.660431
488.294	0.796906
491.668	0.626785
495.043	3.50018
498.418	5.12791
501.793	8.07425
505.168	10.9419
508.543	13.483
511.917	16.3123
515.292	18.2188
518.667	21.6409
522.042	28.248
525.417	35.7357
528.791	41.1817
532.166	44.3673
535.541	43.7448
538.916	38.694
542.291	29.9458
545.665	21.3321
549.04	15.5033
552.415	10.7036
555.79	9.26947
559.165	7.43268
562.54	5.74945
565.914	5.30728
569.289	3.97096
572.664	5.07561
576.039	5.11163
579.414	2.98235
582.788	2.37592
586.163	1.16122
589.538	2.1884
592.913	0.595093
596.288	0.328323
599.663	0.121307
603.037	0.615768
606.412	0.276154
609.787	0.536423
613.162	0.681396
616.537	1.60277
619.912	2.34787
623.286	2.11093
626.661	1.26056
630.036	1.37959
633.411	0.940063
636.786	2.00891
640.16	0.838196
643.535	1.02924
646.91	0.775208
650.285	0.145355
653.66	0.493484
657.034	2.43079
660.409	0.622772
663.784	0.167084
667.159	1.81287
670.534	2.02905
673.909	1.87825
677.283	2.1326
680.658	0.088913
684.033	0.747971
687.408	2.01494
690.783	1.99069
694.158	1.68211
697.532	0.126068
700.907	0.642136
704.282	0.323761
707.657	1.08411
711.032	2.46796
714.406	1.06428
717.781	0.367905
721.156	0.775208
724.531	1.85468
727.906	0.481461
731.28	1.40849
734.655	3.03929
738.03	2.95872
741.405	1.76511
744.78	1.93863
748.154	0.484146
751.529	1.58662
754.904	1.55023
758.279	1.9483
761.654	1.33281
765.029	2.37277
768.403	1.27974
771.778	1.8837
775.153	0.50238
778.528	1.29344
781.903	2.6515
785.278	1.11919
788.652	2.2585
792.027	0.287735
795.402	1.06299
798.777	1.66937
802.152	0.132385
805.526	0.467697
808.901	0.182709
812.276	1.74915
815.651	0.142822
819.026	1.3223
822.4	0.326401
825.775	1.88318
829.15	2.25052
832.525	2.76553
835.9	1.88177
839.275	1.6359
842.649	2.66789
846.024	3.11433
849.399	2.0699
852.774	4.24972
856.149	3.30402
859.524	5.07262
862.898	4.90436
866.273	4.41353
869.648	5.15073
873.023	3.59839
876.398	3.34428
879.773	2.24672
883.147	1.67088
886.522	4.00041
889.897	4.03671
893.272	2.55281
896.646	1.1687
900.021	0.384094
903.396	1.59078
906.771	2.10367
910.146	1.75925
913.521	0.919189
916.895	0.108765
920.27	0.186142
923.645	0.472305
927.02	1.82735
930.395	0.47438
933.769	1.22807
937.144	2.52683
940.519	2.54495
943.894	2.66516
947.269	0.4487
950.644	0.243729
954.018	1.2478
957.393	0.503647
960.768	0.784866
964.143	2.04269
967.518	2.79132
970.893	2.004
974.267	1.99847
977.642	1.92215
981.017	1.72888
984.392	2.6311
987.767	3.58325
991.141	3.26987
994.516	8.92377
997.891	7.54715
1001.27	1.58011
1004.64	4.44946
1008.02	3.1481
1011.39	1.9736
1014.76	0.719269
1018.14	0.759674
1021.51	0.814758
1024.89	0.036224
1028.26	0.42746
1031.64	2.01465
1035.01	3.16656
1038.39	1.69778
1041.76	1.17856
1045.14	0.402008
1048.51	2.4585
1051.89	1.7153
1055.26	3.49954
1058.64	3.98053
1062.01	4.34827
1065.39	2.57694
1068.76	3.1972
1072.14	3.94604
1075.51	2.84222
1078.89	1.90503
1082.26	2.77481
1085.64	3.43619
1089.01	3.14661
1092.39	0.732635
1095.76	2.98758
1099.14	2.17123
1102.51	2.6564
1105.88	2.14594
1109.26	0.136841
1112.63	0.260834
1116.01	0.612091
1119.38	2.93088
1122.76	1.90936
1126.13	2.12817
1129.51	0.566956
1132.88	0.502411
1136.26	1.70493
1139.63	1.46442
1143.01	1.08954
1146.38	0.283173
1149.76	0.53064
1153.13	0.901855
1156.51	1.62741
1159.88	1.56711
1163.26	1.40689
1166.63	0.707703
1170.01	1.28592
1173.38	1.13095
1176.76	2.22247
1180.13	6.05264
1183.51	1.86584
1186.88	2.78537
1190.26	3.21225
1193.63	2.09479
1197.01	2.82654
1200.38	3.64746
1203.76	2.47107
1207.13	1.10901
1210.51	1.09723
1213.88	3.55991
1217.25	2.24869
1220.63	1.98871
1224	3.19385
1227.38	1.22705
1230.75	1.17618
1234.13	2.06064
1237.5	1.39709
1240.88	0.597717
1244.25	5.4527
1247.63	3.98889
1251	1.65064
1254.38	2.08249
1257.75	4.55026
1261.13	4.72287
1264.5	1.15488
1267.88	1.62866
1271.25	2.15588
1274.63	1.79092
1278	1.16013
1281.38	1.79639
1284.75	2.76373
1288.12	1.23373
1291.5	0.583496
1294.88	0.688751
1298.25	2.56766
