Measurement: Raman, 780 nm, unoriented, Raman Data Processed
Mineral: Cowlesite
Rruff sample: R060627
Ideal chemistry: Ca(Al_2_Si_3_)O_10_5-6H_2_O
Locality: Goble, Colombia County, Oregon, USA
Source: Michael Scott
Description: Radiating spherical sprays of colorless lath-like crystals
Raman shift (cm-1)	intensity
114.099	0
117.473	0.286108
120.848	0.044594
124.223	0.943993
127.598	0.478115
130.972	1.11932
134.347	1.07083
137.722	1.90212
141.097	1.73834
144.472	1.83605
147.847	2.71671
151.221	2.97329
154.596	2.42389
157.971	2.30727
161.346	2.35194
164.721	2.02363
168.096	1.90195
171.47	1.55584
174.845	1.45466
178.22	1.58492
181.595	1.34401
184.97	1.56733
188.345	1.84669
191.719	2.03832
195.094	2.20608
198.469	2.94791
201.844	2.60093
205.219	2.15701
208.593	1.86035
211.968	1.41304
215.343	0.925314
218.718	0.296202
222.093	0.262278
225.468	0.040394
228.842	0.004454
232.217	0.019022
235.592	0.033204
238.967	0.349352
242.341	0.276179
245.716	0.459021
249.091	0.091161
252.466	0.090858
255.841	0.450108
259.216	0.142598
262.591	0.577274
265.965	0.923717
269.34	1.02835
272.715	0.872216
276.09	1.19899
279.464	0.87711
282.839	1.33597
286.214	1.17855
289.589	1.23525
292.964	1.13385
296.339	0.85239
299.713	1.25972
303.088	1.00851
306.463	1.08792
309.838	1.22988
313.213	1.29417
316.587	2.10766
319.962	2.04582
323.337	2.21893
326.712	2.14131
330.087	1.71478
333.462	1.05779
336.837	1.32908
340.211	0.809474
343.586	0.723374
346.961	0.634474
350.336	0.543792
353.711	0.961388
357.085	0.820796
360.46	0.600815
363.835	0.171433
367.21	0.343357
370.585	0.425941
373.959	0.264915
377.334	0.522114
380.709	0.377907
384.084	0.614836
387.459	0.481763
390.834	0.884485
394.208	0.681314
397.583	0.49885
400.958	0.926127
404.333	0.673845
407.708	0.314242
411.082	0.296619
414.457	0.386425
417.832	0.335595
421.207	0.43326
424.582	0.196237
427.957	0.144914
431.331	0.307412
434.706	0.150654
438.081	0.202327
441.456	0.591923
444.831	0.999104
448.205	0.409126
451.58	0.325871
454.955	0.578139
458.33	0.004954
461.705	0.314531
465.079	0.177267
468.454	0.245801
471.829	0.093008
475.204	0.623006
478.579	0.405128
481.954	0.364963
485.328	0.795251
488.703	0.257873
492.078	1.00244
495.453	1.22074
498.828	1.46447
502.202	1.84572
505.577	2.7675
508.952	3.2424
512.327	3.68179
515.702	4.72025
519.077	5.23027
522.451	6.24637
525.826	8.00358
529.201	9.20271
532.576	9.89787
535.951	9.07959
539.326	7.65135
542.7	5.44739
546.075	4.2198
549.45	2.43125
552.825	2.37239
556.2	1.4279
559.574	1.27273
562.949	1.11431
566.324	0.801608
569.699	1.40095
573.074	0.586912
576.448	0.669341
579.823	0.582227
583.198	0.330759
586.573	0.748423
589.948	0.407
593.323	0.474998
596.697	0.194827
600.072	0.232955
603.447	0.039208
606.822	0.311554
610.197	0.261876
613.572	0.27379
616.946	0.036889
620.321	0.635125
623.696	0.0982
627.071	0.158153
630.446	0.297884
633.82	0.604724
637.195	0.563847
640.57	0.352961
643.945	0.612575
647.32	0.338532
650.694	0.677205
654.069	0.657134
657.444	0.04269
660.819	0.748987
664.194	0.813572
667.569	0.767587
670.943	0.31403
674.318	0.692611
677.693	0.143177
681.068	0.727036
684.443	0.359036
687.817	0.457368
691.192	0.468937
694.567	0.208118
697.942	0.290887
701.317	0.416245
704.692	0.64477
708.066	0.281519
711.441	0.552277
714.816	0.11165
718.191	0.286367
721.566	0.456402
724.941	0.373815
728.315	0.291384
731.69	0.433146
735.065	0.114491
738.44	0.359097
741.815	0.545642
745.189	0.248398
748.564	0.630154
751.939	0.31932
755.314	0.048111
758.689	0.262489
762.063	0.21209
765.438	0.072269
768.813	0.729874
772.188	0.110458
775.563	0.098821
778.938	0.275244
782.312	0.719084
785.687	0.506184
789.062	0.235785
792.437	0.650934
795.812	0.179056
799.187	0.28453
802.561	0.127694
805.936	0.712759
809.311	0.686759
812.686	0.394227
816.061	0.134327
819.435	0.519699
822.81	0.379778
826.185	0.186399
829.56	0.391315
832.935	0.620206
836.309	0.11581
839.684	1.09464
843.059	0.452265
846.434	1.06621
849.809	1.09333
853.184	0.771449
856.558	0.799623
859.933	1.18798
863.308	0.901912
866.683	1.34322
870.058	1.62757
873.433	1.01753
876.807	0.705096
880.182	0.977825
883.557	0.709619
886.932	0.835796
890.307	0.778221
893.681	0.599349
897.056	0.683799
900.431	0.279743
903.806	0.001502
907.181	0.200527
910.556	0.878183
913.93	0.337684
917.305	0.237102
920.68	0.122794
924.055	0.419514
927.43	0.168737
930.804	0.227958
934.179	0.03093
937.554	0.263758
940.929	0.199158
944.304	0.141354
947.678	0.286728
951.053	0.696492
954.428	0.511213
957.803	0.436876
961.178	0.410635
964.553	0.34235
967.927	0.01124
971.302	0.163043
974.677	0.108341
978.052	0.27268
981.427	0.614604
984.802	0.624296
988.176	1.27979
991.551	0.883269
994.926	0.086387
998.301	0.358044
1001.68	0.143161
1005.05	0.220459
1008.42	0.44048
1011.8	0.416598
1015.17	0.64117
1018.55	0.24313
1021.92	0.079829
1025.3	1.1113
1028.67	0.20356
1032.05	0.307761
1035.42	0.292824
1038.8	0.217575
1042.17	0.749831
1045.55	0.447639
1048.92	0.077773
1052.3	0.514737
1055.67	0.414645
1059.05	0.76114
1062.42	0.439876
1065.8	0.492718
1069.17	0.493759
1072.55	0.396122
1075.92	0.397199
1079.3	0.600694
1082.67	0.265943
1086.05	0.252914
1089.42	0.374486
1092.8	0.209143
1096.17	0.101715
1099.55	0.448455
1102.92	0.099348
1106.3	0.155133
1109.67	0.235632
1113.05	0.492581
1116.42	0.011039
1119.79	0.569547
1123.17	0.220834
1126.54	0.205885
1129.92	0.196624
1133.29	0.115937
1136.67	0.179567
1140.04	0.527984
1143.42	0.477363
1146.79	0.069798
1150.17	0.067434
1153.54	0.097854
1156.92	0.619149
1160.29	0.533753
1163.67	0.223239
1167.04	0.207533
1170.42	0.150372
1173.79	0.766035
1177.17	0.890393
1180.54	0.552824
1183.92	0.447673
1187.29	0.572487
1190.66	0.40938
1194.04	0.175501
1197.41	0.350116
1200.79	0.509393
1204.16	0.754291
1207.54	0.973138
1210.91	0.396896
1214.29	0.398388
1217.66	0.501075
1221.04	0.256835
1224.41	0.137902
1227.79	0.113246
1231.16	0.279209
1234.54	0.477041
1237.91	0.06193
1241.29	0.406977
1244.66	0.189284
1248.04	0.965358
1251.41	0.053688
1254.79	0.477259
1258.16	0.349283
1261.54	0.310457
1264.91	0.720746
1268.29	0.455912
1271.66	0.267668
1275.04	0.282306
1278.41	0.159265
1281.79	0.073218
