Measurement: Raman, 514 nm, unoriented, Raman Data RAW
Mineral: Cristobalite
Rruff sample: X050046
Ideal chemistry: SiO_2_
Source: G.R. Rossman
Raman shift (cm-1)	intensity
50.26	13605
54.25	10038
58.24	7785.92
62.23	6715.28
66.22	6419.86
70.21	6591.8
74.21	6501.51
78.2	6691.48
82.19	7282.02
86.18	7149.46
90.17	7502.6
94.16	7781.75
98.15	8179.37
102.14	8753.71
106.13	10098.3
110.13	12879.2
114.12	13512.7
118.11	10147.5
122.1	9081.28
126.09	8719.71
130.08	8749.84
134.07	8586.76
138.06	8555.23
142.05	8466.2
146.04	8683.53
150.04	8589.1
154.03	8426
158.02	8475.9
162.01	8328.24
166	8259.73
169.99	8324.89
173.98	8312.06
177.97	8340.58
181.96	8405.36
185.96	8392.47
189.95	8492.11
193.94	8654.62
197.93	8789.39
201.92	9099.81
205.91	9433.4
209.9	9919.52
213.89	10625.3
217.88	11850.2
221.87	13625.7
225.87	16203
229.86	17524.2
233.85	16395.3
237.84	13995.8
241.83	11657.8
245.82	10196.2
249.81	9295.51
253.8	8803.79
257.79	8423.46
261.79	8204.5
265.78	8070.63
269.77	8260.93
273.76	8379.15
277.75	8098.71
281.74	8081.77
285.73	8202.8
289.72	7551.94
293.71	7224.44
297.7	7098.9
301.7	6988.25
305.69	6938.97
309.68	6942.41
313.67	6867.67
317.66	6769.54
321.65	6793.21
325.64	6750.72
329.63	6737.49
333.62	6703.53
337.62	6706.87
341.61	6609.66
345.6	6633.04
349.59	6692.74
353.58	6679.57
357.57	6610.93
361.56	6666.53
365.55	6664.27
369.54	6705.47
373.53	6741.5
377.53	6777.54
381.52	6813.17
385.51	6871.24
389.5	7041.59
393.49	7259.47
397.48	7698.42
401.47	8303.34
405.46	9522.19
409.45	11700.6
413.45	15372
417.44	18429.7
421.43	16702.5
425.42	12843.9
429.41	10380.3
433.4	9083.23
437.39	8361.91
441.38	7906.26
445.37	7483.14
449.37	7040.05
453.36	6724.7
457.35	6508.14
461.34	6338.31
465.33	6283.77
469.32	6210.39
473.31	6063.56
477.3	5950.28
481.29	5942.69
485.28	5821.03
489.28	5794.31
493.27	5718.6
497.26	5676.78
501.25	5542.2
505.24	5497.64
509.23	5445.27
513.22	5439.09
517.21	5388.69
521.2	5330.7
525.2	5293.01
529.19	5301.66
533.18	5242.75
537.17	5220.48
541.16	5192
545.15	5166.87
549.14	5140.66
553.13	5102.28
557.12	5080.1
561.11	5086.59
565.11	5075.83
569.1	5061.23
573.09	5033.38
577.08	4991.45
581.07	5041.71
585.06	5016.45
589.05	5007.83
593.04	5019.36
597.03	4965.18
601.03	4932.95
605.02	4960.9
609.01	4858.24
613	4962.45
616.99	4878.11
620.98	4899.18
624.97	4896.18
628.96	4868.58
632.95	4903.17
636.94	4873.08
640.94	4841.21
644.93	4839.51
648.92	4838.36
652.91	4802.12
656.9	4868.55
660.89	4857.01
664.88	4857.16
668.87	4788.95
672.86	4804.8
676.86	4779.01
680.85	4779.06
684.84	4852.3
688.83	4730.91
692.82	4799.31
696.81	4769.84
700.8	4770.3
704.79	4746.75
708.78	4783.36
712.77	4796.89
716.77	4774.01
720.76	4753.7
724.75	4757.89
728.74	4747.28
732.73	4748.18
736.72	4758.42
740.71	4769.88
744.7	4781.34
748.69	4772.58
752.69	4772.57
756.68	4799.39
760.67	4803.6
764.66	4842.3
768.65	4940.68
772.64	5120.33
776.63	5368.74
780.62	5531.25
784.61	5475.3
788.6	5373.74
792.6	5334.53
796.59	5130.02
800.58	4985.41
804.57	4843.04
808.56	4773.1
812.55	4700.19
816.54	4650.29
820.53	4671.21
824.52	4619.05
828.52	4647.2
832.51	4595.92
836.5	4587.14
840.49	4608.44
844.48	4529.51
848.47	4555.19
852.46	4569.69
856.45	4514.46
860.44	4612.27
864.43	4561.21
868.43	4483.55
872.42	4530.58
876.41	4534.57
880.4	4456.39
884.39	4490.46
888.38	4475.03
892.37	4412.53
896.36	4501.62
900.35	4443.76
904.35	4392.88
908.34	4466.35
912.33	4414.39
916.32	4428.95
920.31	4474
924.3	4456.1
928.29	4448.5
932.28	4441.34
936.27	4508.94
940.26	4384.9
944.26	4401.91
948.25	4409.41
952.24	4412.06
956.23	4350.18
960.22	4434.35
964.21	4392.56
968.2	4370.88
972.19	4387.77
976.18	4379.04
980.18	4358.42
984.17	4374
988.16	4389.59
992.15	4322.85
996.14	4345.26
1000.13	4342.66
1004.12	4310.52
1008.11	4314.86
1012.1	4285.38
1016.1	4268.23
1020.09	4264.28
1024.08	4334.15
1028.07	4307.11
1032.06	4309.71
1036.05	4319.21
1040.04	4308.03
1044.03	4289.4
1048.02	4291.78
1052.01	4280.14
1056.01	4254.63
1060	4281.01
1063.99	4300.4
1067.98	4402.99
1071.97	4692.73
1075.96	4776.08
1079.95	4622.32
1083.94	4378.81
1087.93	4276.48
1091.93	4264.19
1095.92	4252.44
1099.91	4214.56
1103.9	4216.26
1107.89	4259.98
1111.88	4233.33
1115.87	4244.62
1119.86	4249.28
1123.85	4298.91
1127.84	4313.38
1131.84	4327.86
1135.83	4342.34
1139.82	4356.82
1143.81	4335.81
1147.8	4389.1
1151.79	4429.81
1155.78	4430.63
1159.77	4492.43
1163.76	4514.74
1167.76	4560.04
1171.75	4601.18
1175.74	4643.45
1179.73	4716.85
1183.72	4800.61
1187.71	4895.89
1191.7	4935.99
1195.69	4948.54
1199.68	4941.95
1203.67	4900.87
1207.67	4994.96
1211.66	5024.23
1215.65	4975.8
1219.64	5076.14
1223.63	5092.18
1227.62	5079.98
1231.61	5128.7
1235.6	5147.53
1239.59	5168.45
1243.59	5125.42
1247.58	5203.67
1251.57	5181.49
1255.56	5153.06
1259.55	5217.83
1263.54	5302.79
1267.53	5141.44
1271.52	5173.65
1275.51	5158.96
1279.51	5228.27
1283.5	5168.93
1287.49	5206.88
1291.48	5189.57
1295.47	5221.49
1299.46	5251.45
1303.45	5291.38
1307.44	5400.22
1311.43	5380.3
1315.42	5433.72
1319.42	5544.25
1323.41	5552.58
1327.4	5640.59
1331.39	5801.31
1335.38	5841.37
1339.37	5965.76
1343.36	6062.58
1347.35	6184.06
1351.34	6324.08
1355.34	6418.47
1359.33	6573.65
1363.32	6658.81
1367.31	6818.06
1371.3	6926.03
1375.29	7062.04
1379.28	7158.52
1383.27	7332.22
1387.26	7378.87
1391.25	7332.6
1395.25	7389.24
1399.24	7507.06
1403.23	7457.5
1407.22	7474.75
1411.21	7508.74
1415.2	7470.99
1419.19	7462.61
1423.18	7415.93
1427.17	7278.79
1431.17	7166.25
1435.16	7197.64
1439.15	7014.71
1443.14	7006.13
1447.13	6986.65
1451.12	6876.81
1455.11	6812.81
1459.1	6774.83
1463.09	6700.57
1467.08	6618.5
1471.08	6559.7
1475.07	6491.65
1479.06	6455.29
1483.05	6418.24
1487.04	6431.83
1491.03	6321.25
1495.02	6323.56
1499.01	6264.69
1503	6193.44
1507	6237.19
1510.99	6191.2
1514.98	6103.78
1518.97	6146.95
1522.96	6130.43
1526.95	6171.5
1530.94	6066.64
1534.93	6097.58
1538.92	6170.34
1542.91	6127.46
1546.91	6138.48
1550.9	6121.79
1554.89	6135.72
1558.88	6074.75
1562.87	6049.44
1566.86	6082.36
1570.85	6091.22
1574.84	6063.62
1578.83	6049.51
1582.83	6093.53
1586.82	6034.72
1590.81	6011.16
1594.8	6031.73
1598.79	5994.48
1602.78	0
