Measurement: Raman, 514 nm, unoriented, Raman Data RAW
Mineral: Cristobalite
Rruff sample: X050047
Ideal chemistry: SiO_2_
Locality: Mayen, Eifel, Germany
Source: CIT
Raman shift (cm-1)	intensity
49.44	0
54.47	5727.59
59.51	7511.61
64.54	9598.41
69.58	12360.5
74.61	15595.8
79.65	17762.5
84.68	19093
89.72	20639
94.75	21907.5
99.79	23235.9
104.82	24451.6
109.86	26084.1
114.89	26972.5
119.93	26849.3
124.96	26115.6
130	26275.4
135.03	26632.3
140.07	26849.4
145.11	27250.5
150.14	27406.6
155.18	28007.3
160.21	28073.7
165.25	28668.5
170.28	28830.9
175.32	29153.8
180.35	29742.1
185.39	29822
190.42	30442.9
195.46	30652.6
200.49	31206.8
205.53	31701.4
210.56	32187.4
215.6	32926.6
220.63	34134.7
225.67	35412.6
230.7	35784.2
235.74	36053.3
240.78	35390.3
245.81	34851.1
250.85	34339.1
255.88	34371.8
260.92	34310.4
265.95	34678
270.99	34824
276.02	35259.9
281.06	35477.1
286.09	35602.4
291.13	35905.1
296.16	35836.6
301.2	36096.3
306.23	36335
311.27	36336.7
316.3	36624.8
321.34	37062.5
326.37	37145.7
331.41	37466.2
336.45	37838.6
341.48	38074.2
346.52	38213.8
351.55	38593.9
356.59	38896.3
361.62	39066.5
366.66	39327.3
371.69	39716.2
376.73	39914
381.76	40410.5
386.8	40644.5
391.83	40938.8
396.87	41482.2
401.9	42080.8
406.94	43287.2
411.97	44677.8
417.01	45991
422.04	46209.3
427.08	45384.3
432.12	44467.2
437.15	44232.3
442.19	44135.9
447.22	43934.5
452.26	44185.9
457.29	44508
462.33	44297.3
467.36	44888.7
472.4	44953.6
477.43	45208.1
482.47	45262.9
487.5	45603.4
492.54	45784.5
497.57	46191
502.61	46429.7
507.64	46650.5
512.68	47029.9
517.71	47220.7
522.75	47495.8
527.79	47664.8
532.82	47875.6
537.86	47858.1
542.89	48106.8
547.93	48355.4
552.96	48604
558	48852.6
563.03	49101.3
568.07	49349.9
573.1	49774.6
578.14	49906.8
583.17	50295.8
588.21	50586.3
593.24	50715.3
598.28	50959.3
603.31	51485.8
608.35	51672.5
613.38	51837
618.42	51796.7
623.46	52173.6
628.49	52550.5
633.53	52630.7
638.56	53195.6
643.6	53405.3
648.63	53776.2
653.67	54025.2
658.7	54110.8
663.74	54560.7
668.77	54626.1
673.81	54775.3
678.84	55345.4
683.88	55520
688.91	55481
693.95	55766.3
698.98	56051.7
704.02	56459.4
709.05	56689.7
714.09	57007
719.13	57310.5
724.16	57314.7
729.2	57897.3
734.23	58245.1
739.27	58403.9
744.3	58643.3
749.34	58828.9
754.37	59246.8
759.41	59541.4
764.44	60010.5
769.48	60311.6
774.51	60648.1
779.55	61110.8
784.58	61536.3
789.62	61657.8
794.65	61735.7
799.69	61747.3
804.72	61979.4
809.76	62456.9
814.8	62511.8
819.83	62764.6
824.87	63004.4
829.9	63376
834.94	63717
839.97	63895.6
845.01	64273.9
850.04	64558.9
855.08	64719.8
860.11	65173.8
865.15	65302
870.18	65926.6
875.22	65993.8
880.25	66169.5
885.29	66727.3
890.32	66750.9
895.36	67431.2
900.39	67398
905.43	68114.8
910.47	68234.8
915.5	68550.2
920.54	68546.4
925.57	69066.1
930.61	69179.8
935.64	69686.5
940.68	70000.3
945.71	70268.4
950.75	70812.6
955.78	71103.8
960.82	71513
965.85	71875.9
970.89	72253.6
975.92	72398.3
980.96	72702.5
985.99	73059
991.03	73477.6
996.06	73746.6
1001.1	74147.3
1006.14	74448.7
1011.17	74430.6
1016.21	75167.2
1021.24	75126.1
1026.28	75449.2
1031.31	76127.7
1036.35	76389.9
1041.38	76601.8
1046.42	77088.3
1051.45	77052.2
1056.49	77443.3
1061.52	77834.3
1066.56	78285.9
1071.59	78608.2
1076.63	79235.8
1081.66	79595.6
1086.7	79797.2
1091.74	79825.3
1096.77	80366.6
1101.81	80913.7
1106.84	80995.1
1111.88	81442.1
1116.91	81715.3
1121.95	82309.1
1126.98	82492.8
1132.02	82697.1
1137.05	82974
1142.09	83588.4
1147.12	83828.3
1152.16	84528.7
1157.19	84141.9
1162.23	84995.1
1167.26	85273.6
1172.3	85500.7
1177.33	86248.2
1182.37	86632.2
1187.41	86995.4
1192.44	87449.3
1197.48	87667.5
1202.51	88100.2
1207.55	88515.9
1212.58	88905.6
1217.62	89482.8
1222.65	89423.9
1227.69	89630.4
1232.72	90351.9
1237.76	90932.6
1242.79	91169.2
1247.83	91683.5
1252.86	91807.6
1257.9	92121.3
1262.93	92822.9
1267.97	93119.3
1273	93630.4
1278.04	93862.6
1283.08	94395.5
1288.11	94741.5
1293.15	95354.6
1298.18	95719.1
1303.22	96384
1308.25	96615.1
1313.29	96971.5
1318.32	96995
1323.36	97602.8
1328.39	98157.8
1333.43	98570.2
1338.46	99229.7
1343.5	99632
1348.53	100126
1353.57	100661
1358.6	101127
1363.64	101286
1368.67	101894
1373.71	101985
1378.75	102635
1383.78	102692
1388.82	103250
1393.85	103587
1398.89	104419
1403.92	104655
1408.96	104825
1413.99	105613
1419.03	105986
1424.06	106419
1429.1	106702
1434.13	107324
1439.17	107671
1444.2	108289
1449.24	108665
1454.27	109116
1459.31	109289
1464.34	110000
1469.38	110148
1474.42	110878
1479.45	111330
1484.49	111730
1489.52	111861
1494.56	112645
1499.59	113263
1504.63	113408
1509.66	114316
1514.7	114084
1519.73	114678
1524.77	115279
1529.8	115986
1534.84	116287
1539.87	116660
1544.91	117029
1549.94	117826
1554.98	118550
1560.01	118330
1565.05	118958
1570.09	119641
1575.12	119634
1580.16	120175
1585.19	120893
1590.23	121073
1595.26	121450
1600.3	121971
