Measurement: Raman, 514 nm, unoriented, Raman Data RAW
Mineral: Cristobalite
Rruff sample: X050049
Ideal chemistry: SiO_2_
Locality: Utah, USA
Source: Caltech
Raman shift (cm-1)	intensity
49.46	0
54.5	1707.24
59.53	2299.23
64.57	3036.64
69.6	3989.98
74.64	4967.5
79.67	5711.65
84.71	6431.04
89.74	7162.6
94.78	7629.71
99.81	7987.44
104.85	8460.62
109.89	8998.68
114.92	9315.51
119.96	9208.63
124.99	9242.7
130.03	9151.2
135.06	9377.26
140.1	9538.65
145.13	9618.31
150.17	9844.13
155.2	9970.96
160.24	10029.4
165.27	10213.9
170.31	10256.6
175.34	10512.4
180.38	10529.5
185.41	10696.9
190.45	10935.5
195.48	11107.4
200.52	11298.6
205.56	11474.3
210.59	11669.3
215.63	11876.4
220.66	12249.4
225.7	12659.2
230.73	12949.8
235.77	12887
240.8	12704
245.84	12454
250.87	12422.9
255.91	12407.4
260.94	12572.6
265.98	12579
271.01	12568.6
276.05	12824.6
281.08	12919.3
286.12	12951
291.15	13174.6
296.19	13148.5
301.23	13287.5
306.26	13270.5
311.3	13362.7
316.33	13480.2
321.37	13612.5
326.4	13742.1
331.44	13815.9
336.47	13973.1
341.51	14008.1
346.54	14077.1
351.58	14259
356.61	14397.3
361.65	14621.8
366.68	14786.5
371.72	14846.5
376.75	15037.1
381.79	14998.4
386.82	15179.5
391.86	15354.4
396.89	15748.7
401.93	15931.5
406.97	16439.5
412	16930.3
417.04	17334.9
422.07	17187.2
427.11	16952.5
432.14	16732
437.18	16643.9
442.21	16614
447.25	16496.3
452.28	16652.5
457.32	16658.2
462.35	16826.4
467.39	16927.8
472.42	17046.7
477.46	17029.3
482.49	17121.5
487.53	17207.3
492.56	17333
497.6	17439.5
502.64	17569.9
507.67	17790.3
512.71	17819.5
517.74	17991.6
522.78	18179
527.81	18059.1
532.85	18213.8
537.88	18261.2
542.92	18494.7
547.95	18588.2
552.99	18674.5
558.02	18880.8
563.06	18939.9
568.09	18987
573.13	19023.2
578.16	19265.2
583.2	19390
588.23	19567
593.27	19658.9
598.3	19760.4
603.34	19855.4
608.38	20047.4
613.41	20040.6
618.45	20223.1
623.48	20398.2
628.52	20534.8
633.55	20571
638.59	20613
643.62	20745.3
648.66	20892.7
653.69	21062.1
658.73	21082
663.76	21218.2
668.8	21557.8
673.83	21637.3
678.87	21668
683.9	22000.2
688.94	22060
693.97	22200.9
699.01	22181.3
704.05	22315.3
709.08	22713.9
714.12	22567.4
719.15	22744.3
724.19	22820.1
729.22	22902.3
734.26	23318.8
739.29	23303.6
744.33	23295.5
749.36	23666.7
754.4	23618.1
759.43	23737.3
764.47	23892
769.5	24139.4
774.54	24445
779.57	24664.5
784.61	24754
789.64	24747.2
794.68	24886
799.72	25047
804.75	24948.5
809.79	25148.1
814.82	25343.9
819.86	25347
824.89	25771.3
829.93	25603.8
834.96	26077.1
840	26144.9
845.03	26282.8
850.07	26161
855.1	26525.7
860.14	26713.5
865.17	26678.9
870.21	26969.5
875.24	26984
880.28	27105.7
885.31	27302
890.35	27204.5
895.38	27727.9
900.42	27883.9
905.46	27803.7
910.49	28175.3
915.53	28221.9
920.56	28461.1
925.6	28645.3
930.63	28778.7
935.67	28869.8
940.7	29070.3
945.74	29170.6
950.77	29276.3
955.81	29548.5
960.84	29501.6
965.88	29697.9
970.91	29778.3
975.95	29938.4
980.98	30136.8
986.02	30407.8
991.05	30423.2
996.09	30701.4
1001.13	30819.2
1006.16	31051.9
1011.2	31031.8
1016.23	31337.5
1021.27	31283.8
1026.3	31702.1
1031.34	31749.4
1036.37	31980
1041.41	32102.3
1046.44	32319.7
1051.48	32550.2
1056.51	32552.5
1061.55	32838.9
1066.58	32945.1
1071.62	33195.4
1076.65	33431.8
1081.69	33566
1086.72	33841.7
1091.76	33704.4
1096.8	33995.8
1101.83	34123.6
1106.87	34398.6
1111.9	34535.9
1116.94	34548.1
1121.97	34893.6
1127.01	35099.6
1132.04	35186.4
1137.08	35430.3
1142.11	35737.9
1147.15	35777.8
1152.18	35987.3
1157.22	36115.8
1162.25	36377.7
1167.29	36444.6
1172.32	36767.8
1177.36	36910.5
1182.39	37023
1187.43	37203
1192.47	37472.6
1197.5	37502.9
1202.54	37830.8
1207.57	38241.3
1212.61	38202.9
1217.64	38273.9
1222.68	38593.9
1227.71	38710.3
1232.75	38957.4
1237.78	39094.8
1242.82	39265.4
1247.85	39477.7
1252.89	39684.2
1257.92	39861.2
1262.96	40202.7
1267.99	40231.2
1273.03	40646.2
1278.06	40668.8
1283.1	40976.9
1288.13	41122.4
1293.17	41348.3
1298.21	41661.2
1303.24	41983.2
1308.28	41945.9
1313.31	42179.9
1318.35	42557.3
1323.38	42687.9
1328.42	43107.4
1333.45	42934.2
1338.49	43246.8
1343.52	43344.4
1348.56	43679.6
1353.59	43883.9
1358.63	44435.6
1363.66	44247
1368.7	44472.8
1373.73	44682.5
1378.77	44857.9
1383.8	45038
1388.84	45469.7
1393.88	45599.3
1398.91	45744
1403.95	46087.1
1408.98	46356.9
1414.02	46463.7
1419.05	46771.5
1424.09	46813.5
1429.12	47245.7
1434.16	47425.5
1439.19	47399.5
1444.23	47734.4
1449.26	48184.1
1454.3	48328.8
1459.33	48543.1
1464.37	48770.8
1469.4	49047.3
1474.44	49245.6
1479.47	49393.2
1484.51	49774.2
1489.54	49998.7
1494.58	50022.4
1499.62	50425.2
1504.65	50509.8
1509.69	51109.2
1514.72	51182.2
1519.76	51577.8
1524.79	51703
1529.83	51713
1534.86	51952.3
1539.9	52248.5
1544.93	52493
1549.97	52932.5
1555	52925.7
1560.04	53239.1
1565.07	53596.9
1570.11	53799.5
1575.14	54057.5
1580.18	54269.5
1585.21	54416.7
1590.25	54630.3
1595.29	54888.9
1600.32	55218.3
