Measurement: Raman, 514 nm, unoriented, Raman Data RAW
Mineral: Cristobalite
Rruff sample: X050048
Ideal chemistry: SiO_2_
Locality: Mayen, Eifel, Germany
Source: CIT
Raman shift (cm-1)	intensity
49.44	0
54.47	17309.2
59.51	22457.7
64.54	28067.9
69.58	34045.9
74.61	39633.4
79.65	43685.8
84.68	46886.7
89.72	49713
94.75	51349.2
99.79	53129.9
104.82	56552.3
109.86	61718.5
114.89	62762.4
119.93	58487.4
124.96	55390.7
130	54746.1
135.03	54599.4
140.07	54869.1
145.11	55236
150.14	55894
155.18	56698.6
160.21	56993
165.25	56982.4
170.28	57138.2
175.32	57273.1
180.35	57427
185.39	57958.8
190.42	58574.7
195.46	59296.4
200.49	60183.9
205.53	61106.9
210.56	62789.8
215.6	64972.8
220.63	68673.4
225.67	73338.9
230.7	76817.7
235.74	73446.3
240.78	68522.3
245.81	65300.9
250.85	63319.1
255.88	62263
260.92	61923.1
265.95	62070.3
270.99	62255.2
276.02	62440
281.06	62624.8
286.09	62809.6
291.13	62994.4
296.16	63179.2
301.2	63364
306.23	63548.8
311.27	63344.9
316.3	63853.8
321.34	64334.1
326.37	64730.3
331.41	65234.1
336.45	65741.3
341.48	65990.3
346.52	66177.4
351.55	66374.6
356.59	66681.4
361.62	66890.9
366.66	66864.4
371.69	67444.9
376.73	67697.3
381.76	68428.4
386.8	69320.2
391.83	70222.9
396.87	71469.6
401.9	73815
406.94	78685
411.97	86124.6
417.01	90150.5
422.04	86927
427.08	80897.4
432.12	76249.3
437.15	73839.4
442.19	72815.7
447.22	71938.7
452.26	71635.7
457.29	71754.6
462.33	71671.8
467.36	71707.9
472.4	71744.1
477.43	71721.9
482.47	71846.8
487.5	71224.1
492.54	71667
497.57	72484
502.61	73273.2
507.64	74801.9
512.68	75195
517.71	74781.2
522.75	73253.9
527.79	72993.6
532.82	72845.3
537.86	72974
542.89	73628.8
547.93	73629.6
552.96	73980.3
558	74010
563.03	73922
568.07	73882.1
573.1	73542.6
578.14	73601.2
583.17	73519.4
588.21	73335.4
593.24	73519
598.28	73446.1
603.31	73256.9
608.35	73277.5
613.38	73373.2
618.42	73317.8
623.46	73716.8
628.49	73709.5
633.53	73445.7
638.56	74079.1
643.6	73758.2
648.63	74192.5
653.67	74626.8
658.7	74907.8
663.74	75353.4
668.77	75533.8
673.81	76033.1
678.84	75798.2
683.88	75157.6
688.91	75244.3
693.95	75430.1
698.98	75335.1
704.02	75557.6
709.05	75897.4
714.09	75520.1
719.13	75993
724.16	76204.3
729.2	76166.7
734.23	76431.1
739.27	76569.7
744.3	76758.1
749.34	76913.2
754.37	76912.7
759.41	77253.6
764.44	77863.8
769.48	78457
774.51	79322.6
779.55	80166.1
784.58	80428.1
789.62	80463.7
794.65	80498.6
799.69	79675.8
804.72	79219.9
809.76	79088.7
814.8	78795.9
819.83	78716.9
824.87	78885.8
829.9	78831.2
834.94	78941.2
839.97	79407.9
845.01	79303.6
850.04	79663.1
855.08	80043.9
860.11	80159.6
865.15	80288.9
870.18	80574.6
875.22	81216
880.25	81336.1
885.29	81509.4
890.32	81592.3
895.36	81675.2
900.39	81142.4
905.43	81309.2
910.47	81651.8
915.5	81838.7
920.54	82166
925.57	82674.4
930.61	82975.5
935.64	83403.6
940.68	83743.1
945.71	84420.9
950.75	84807.4
955.78	85610.3
960.82	85964.2
965.85	86359.5
970.89	86668.7
975.92	86618.2
980.96	86877.6
985.99	86755.1
991.03	86740.8
996.06	86950.6
1001.1	86453.2
1006.14	86721.2
1011.17	86816
1016.21	86791.9
1021.24	86737.9
1026.28	86681.9
1031.31	86793.9
1036.35	86817.4
1041.38	86840.9
1046.42	86852.4
1051.45	87003.2
1056.49	86993.8
1061.52	87455.8
1066.56	87682.6
1071.59	88388.2
1076.63	88731.1
1081.66	89113.1
1086.7	88563.8
1091.74	88207.4
1096.77	88107.3
1101.81	88529.5
1106.84	88889.2
1111.88	88707.2
1116.91	88836.1
1121.95	88827.7
1126.98	88738.3
1132.02	88795.6
1137.05	88857.5
1142.09	88866.2
1147.12	88944.5
1152.16	88913.6
1157.19	88913
1162.23	88961.5
1167.26	89015
1172.3	89266
1177.33	89575.9
1182.37	89507.6
1187.41	89929.1
1192.44	90253.3
1197.48	90085.6
1202.51	90294.1
1207.55	90103.3
1212.58	90368.2
1217.62	90717.2
1222.65	90999.4
1227.69	91548.4
1232.72	91420.3
1237.76	91190.1
1242.79	91351.7
1247.83	91538.8
1252.86	91664.3
1257.9	91747.8
1262.93	92255.3
1267.97	92373.6
1273	92646.2
1278.04	92642.3
1283.08	92780.6
1288.11	93219.6
1293.15	93371.8
1298.18	93616.1
1303.22	93794.6
1308.25	94105.6
1313.29	93884.6
1318.32	94134
1323.36	94439.3
1328.39	94582.6
1333.43	94897.7
1338.46	95398.1
1343.5	95536.6
1348.53	95631.9
1353.57	95665.6
1358.6	95926.1
1363.64	96186.7
1368.67	96580.2
1373.71	96767.5
1378.75	97025.9
1383.78	97196.6
1388.82	97389
1393.85	97454.7
1398.89	98001.1
1403.92	97976.4
1408.96	98382.8
1413.99	98638.3
1419.03	98705.5
1424.06	99019.1
1429.1	99131
1434.13	99345.4
1439.17	99568.4
1444.2	100082
1449.24	100364
1454.27	100645
1459.31	100755
1464.34	100914
1469.38	100791
1474.42	101256
1479.45	101135
1484.49	101923
1489.52	102079
1494.56	102082
1499.59	102407
1504.63	102385
1509.66	102785
1514.7	103046
1519.73	103340
1524.77	103567
1529.8	103714
1534.84	103732
1539.87	103951
1544.91	104577
1549.94	104640
1554.98	104842
1560.01	105262
1565.05	105272
1570.09	105273
1575.12	105511
1580.16	105928
1585.19	106007
1590.23	106081
1595.26	106432
1600.3	106887
1605.33	0
