Measurement: Raman, 532 nm, unoriented, Raman Data Processed
Mineral: Crocoite
Rruff sample: R160016
Ideal chemistry: Pb^2+^Cr^6+^O_4_
Locality: Beresovsk, Ural Mountains, Russia
Source: Marcus Origlieri
Description: Red prismatic crystals associated with embreyite (R160015)
Raman shift (cm-1)	intensity
88.1367	0
91.5115	10.45
94.8863	13.9252
98.2612	0.448303
101.636	5.37134
105.011	10.9347
108.386	59.8562
111.76	57.2431
115.135	108.302
118.51	227.524
121.885	345.336
125.26	307.693
128.635	209.835
132.009	199.183
135.384	188.874
138.759	208.731
142.134	228.077
145.509	264.358
148.883	265.983
152.258	159.386
155.633	102.202
159.008	74.4408
162.383	60.3912
165.757	55.6837
169.132	46.6495
172.507	51.4832
175.882	48.4557
179.257	36.6349
182.632	39.4832
186.006	36.8009
189.381	30.3189
192.756	28.8084
196.131	26.7383
199.506	22.7882
202.881	15.1092
206.255	12.7496
209.63	10.5658
213.005	8.93988
216.38	8.16284
219.755	3.67337
223.129	0.603363
226.504	3.59192
229.879	0.039063
233.254	2.81891
236.629	5.66113
240.004	1.05057
243.378	2.19061
246.753	4.12631
250.128	2.58087
253.503	4.28024
256.878	6.14188
260.252	4.12555
263.627	0.525055
267.002	1.90213
270.377	0.391724
273.752	2.76611
277.127	1.18012
280.501	1.14087
283.876	2.21637
287.251	0.476837
290.626	3.29276
294.001	3.03906
297.375	1.6362
300.75	1.75503
304.125	2.93958
307.5	2.0629
310.875	2.49994
314.25	5.7225
317.624	7.39618
320.999	12.2205
324.374	17.1328
327.749	29.1951
331.124	37.2921
334.498	55.5973
337.873	83.4401
341.248	119.19
344.623	181.022
347.998	267.195
351.373	384.062
354.747	533.899
358.122	698.294
361.497	847.037
364.872	867.212
368.247	686.326
371.621	432.865
374.996	249.636
378.371	144.29
381.746	94.0637
385.121	77.3584
388.495	90.9707
391.87	125.305
395.245	183.324
398.62	254.451
401.995	328.46
405.37	348.623
408.744	297.244
412.119	222.664
415.494	149.756
418.869	97.6922
422.244	65.2529
425.618	37.8372
428.993	22.8658
432.368	10.5342
435.743	6.08588
439.118	3.70258
442.493	0.346741
445.867	1.32214
449.242	1.95825
452.617	1.74631
455.992	1.20904
459.367	0.965912
462.741	4.26276
466.116	10.1366
469.491	16.6594
472.866	32.1844
476.241	49.1183
479.615	75.861
482.99	111.771
486.365	152.072
489.74	206.511
493.115	263.171
496.49	314.48
499.864	345.268
503.239	343.507
506.614	306.822
509.989	244.391
513.364	171.481
516.739	117.594
520.113	73.3119
523.488	47.1534
526.863	25.8131
530.238	14.0326
533.613	4.54076
536.987	0.836929
540.362	1.24457
543.737	2.06493
547.112	0.568573
550.487	2.18062
553.861	5.37556
557.236	7.58369
560.611	12.8366
563.986	15.8448
567.361	19.6391
570.736	24.4354
574.11	31.0553
577.485	35.1209
580.86	35.0639
584.235	40.8521
587.61	41.4002
590.985	41.8939
594.359	39.5717
597.734	41.0844
601.109	31.547
604.484	29.5326
607.859	24.2234
611.233	18.621
614.608	16.4267
617.983	10.4808
621.358	8.7215
624.733	7.70613
628.107	3.65663
631.482	1.93375
634.857	0.57402
638.232	0.71698
641.607	2.29941
644.982	0.198318
648.356	0.767914
651.731	0.977707
655.106	0.388763
658.481	0.403488
661.856	2.35596
665.231	5.68834
668.605	7.80107
671.98	15.0885
675.355	19.2292
678.73	24.9803
682.105	31.3659
685.479	34.155
688.854	41.256
692.229	44.0855
695.604	55.4414
698.979	65.2328
702.354	82.9321
705.728	101.44
709.103	121.257
712.478	141.563
715.853	154.391
719.227	154.615
722.602	145.674
725.977	124.491
729.352	104.969
732.727	87.2507
736.102	75.5589
739.476	59.0883
742.851	47.5688
746.226	40.6985
749.601	34.8895
752.976	28.9051
756.351	25.113
759.725	19.2488
763.1	16.7748
766.475	15.0826
769.85	12.2555
773.225	9.87668
776.599	7.26749
779.974	6.27005
783.349	6.93915
786.724	1.62146
790.099	2.41779
793.473	2.16447
796.848	3.89391
800.223	2.68306
803.598	1.39914
806.973	1.49678
810.348	0.104553
813.722	0.637817
817.097	0.028442
820.472	0.506729
823.847	4.67522
827.222	1.14883
830.597	2.62714
833.971	0.125641
837.346	3.50064
840.721	0.068817
844.096	1.87122
847.471	0.785004
850.846	2.89566
854.22	7.15512
857.595	10.0092
860.97	13.6564
864.345	21.4626
867.72	31.5789
871.094	38.0104
874.469	50.2086
877.844	56.1552
881.219	66.9031
884.594	74.6572
887.968	85.838
891.343	94.3544
894.718	98.2177
898.093	108.493
901.468	123.762
904.842	137.224
908.217	160.757
911.592	186.661
914.967	215.158
918.342	251.542
921.717	281.123
925.091	312.19
928.466	352.725
931.841	394.261
935.216	429.604
938.591	456.999
941.966	465.573
945.34	447.934
948.715	411.455
952.09	351.94
955.465	278.856
958.84	217.24
962.214	171.204
965.589	141.665
968.964	118.755
972.339	92.4103
975.714	67.9017
979.088	53.2527
982.463	29.4306
985.838	15.9001
989.213	9.15509
992.588	3.68738
995.963	1.68918
999.337	4.29654
1002.71	2.35496
1006.09	1.89806
1009.46	5.03314
1012.84	0.788712
1016.21	0.283646
1019.59	0.971878
1022.96	1.8057
1026.34	2.89511
1029.71	4.10605
1033.09	7.36954
1036.46	4.91188
1039.84	7.11635
1043.21	11.1024
1046.59	10.3164
1049.96	8.52635
1053.33	10.4139
1056.71	14.1069
1060.08	13.747
1063.46	12.0061
1066.83	12.3398
1070.21	8.01187
1073.58	8.45586
1076.96	6.79955
1080.33	8.35519
1083.71	5.26518
1087.08	7.62923
1090.46	5.30899
1093.83	4.7625
1097.21	5.14534
1100.58	5.67329
1103.96	5.57127
1107.33	3.38444
1110.71	5.36101
1114.08	2.11981
1117.46	6.85031
1120.83	2.84929
1124.21	1.83008
1127.58	1.49169
1130.95	2.34088
1134.33	2.6328
1137.7	3.99266
1141.08	3.94965
1144.45	0.22226
1147.83	1.04726
1151.2	0.248405
1154.58	1.63126
1157.95	2.65178
1161.33	2.55197
1164.7	1.66559
1168.08	2.46935
1171.45	0.558586
1174.83	0.432961
1178.2	0.20414
1181.58	2.5436
1184.95	1.43792
1188.33	1.18134
1191.7	2.87041
1195.08	1.69432
1198.45	0.671967
1201.83	4.49641
1205.2	3.18815
1208.58	2.31431
1211.95	1.96459
1215.33	1.56425
1218.7	2.90235
1222.08	3.99466
1225.45	2.39331
1228.83	0.212868
1232.2	3.37632
1235.58	1.17474
1238.95	2.74087
1242.32	1.56864
1245.7	0.796722
1249.07	3.86018
1252.45	3.76936
1255.82	0.706352
1259.2	2.61734
1262.57	2.15852
1265.95	3.08633
1269.32	0.714729
1272.7	2.91587
1276.07	1.03941
1279.45	3.81003
1282.82	4.89312
1286.2	2.26199
1289.57	1.89039
1292.95	1.96781
1296.32	5.30668
1299.7	2.4058
