Measurement: Raman, 780 nm, unoriented, Raman Data RAW
Mineral: Crocoite
Rruff sample: R160016
Ideal chemistry: Pb^2+^Cr^6+^O_4_
Locality: Beresovsk, Ural Mountains, Russia
Source: Marcus Origlieri
Description: Red prismatic crystals associated with embreyite (R160015)
Raman shift (cm-1)	intensity
87.582	492.948
90.9569	489.748
94.3317	425.466
97.7065	337.45
101.081	291.996
104.456	267.376
107.831	243.005
111.206	229.487
114.581	224.24
117.955	218.108
121.33	207.406
124.705	188.241
128.08	179.301
131.455	168.346
134.829	159.4
138.204	159.161
141.579	152.577
144.954	149.1
148.329	139.468
151.704	131.62
155.078	127.837
158.453	122.299
161.828	118.068
165.203	113.41
168.578	110.537
171.952	107.883
175.327	105.7
178.702	101.518
182.077	100.76
185.452	100.984
188.827	97.4966
192.201	95.3983
195.576	94.4772
198.951	92.2903
202.326	91.4238
205.701	91.4452
209.076	87.6523
212.45	87.0074
215.825	84.8606
219.2	85.322
222.575	82.1204
225.95	82.7841
229.324	83.1358
232.699	82.0386
236.074	82.4317
239.449	80.7481
242.824	79.2923
246.198	77.5301
249.573	75.5464
252.948	75.5208
256.323	74.3845
259.698	72.8972
263.073	72.3871
266.447	71.501
269.822	69.1361
273.197	66.4259
276.572	67.6936
279.947	68.2753
283.322	65.9
286.696	65.8103
290.071	65.064
293.446	65.2592
296.821	64.3899
300.196	62.6443
303.57	62.0273
306.945	62.0905
310.32	61.8706
313.695	61.9131
317.07	60.1744
320.445	61.2989
323.819	60.4106
327.194	60.6969
330.569	60.8807
333.944	60.9629
337.319	61.7555
340.693	62.312
344.068	64.0862
347.443	66.5912
350.818	69.427
354.193	71.3808
357.567	71.1364
360.942	72.5198
364.317	69.0643
367.692	64.5966
371.067	61.7137
374.442	59.7154
377.816	57.53
381.191	58.3984
384.566	57.2585
387.941	59.0638
391.316	58.9534
394.69	60.3911
398.065	61.3524
401.44	60.4117
404.815	58.5906
408.19	58.81
411.565	57.0572
414.939	55.0437
418.314	53.5525
421.689	52.5859
425.064	52.6475
428.439	52.2498
431.813	54.1848
435.188	51.1066
438.563	51.1066
441.938	51.7192
445.313	51.2865
448.688	52.1756
452.062	51.0594
455.437	51.9778
458.812	51.6972
462.187	52.2403
465.562	50.4621
468.937	51.4993
472.311	51.8163
475.686	52.9263
479.061	53.1821
482.436	53.5063
485.81	55.4099
489.185	58.0562
492.56	60.0401
495.935	59.9341
499.31	58.4178
502.685	55.4436
506.059	55.3134
509.434	52.4706
512.809	51.6523
516.184	49.6634
519.559	49.5781
522.933	49.4504
526.308	48.4605
529.683	46.7387
533.058	48.5587
536.433	46.5844
539.808	45.7681
543.182	47.2771
546.557	45.681
549.932	45.4193
553.307	46.2245
556.682	47.6657
560.057	46.5334
563.431	46.534
566.806	46.3742
570.181	45.7552
573.556	45.4605
576.931	45.8627
580.305	45.8477
583.68	46.4927
587.055	45.0088
590.43	45.5994
593.805	45.2319
597.18	44.0098
600.554	45.1883
603.929	45.0649
607.304	44.2285
610.679	45.966
614.054	45.2902
617.428	46.1874
620.803	46.0593
624.178	43.5869
627.553	43.7422
630.928	45.7945
634.303	45.8824
637.677	46.087
641.052	45.9002
644.427	44.8869
647.802	45.6682
651.177	44.1714
654.552	47.083
657.926	45.3376
661.301	45.7926
664.676	44.4429
668.051	45.8974
671.426	45.0791
674.8	45.3055
678.175	45.8422
681.55	45.4548
684.925	46.0655
688.3	46.586
691.674	45.6634
695.049	46.8693
698.424	45.2323
701.799	45.6568
705.174	45.7401
708.548	46.9327
711.923	46.295
715.298	45.6253
718.673	47.3626
722.048	47.0582
725.423	46.8367
728.797	47.0766
732.172	47.2971
735.547	47.1771
738.922	48.001
742.297	46.1597
745.672	46.7179
749.046	46.5484
752.421	46.2703
755.796	47.6532
759.171	45.4639
762.546	46.242
765.92	47.9276
769.295	46.8495
772.67	46.0516
776.045	47.1546
779.42	46.9288
782.795	47.3811
786.169	47.45
789.544	46.7771
792.919	47.4988
796.294	45.3294
799.669	47.1049
803.043	47.5599
806.418	47.8422
809.793	48.0369
813.168	48.5718
816.543	48.1557
819.918	47.8387
823.292	47.4754
826.667	46.9318
830.042	47.3938
833.417	47.9716
836.792	48.4359
840.166	47.7093
843.541	48.6116
846.916	49.3013
850.291	49.0757
853.666	48.551
857.04	47.9138
860.415	48.916
863.79	47.758
867.165	48.2406
870.54	46.9461
873.915	47.4522
877.289	47.2754
880.664	47.1501
884.039	46.8421
887.414	45.9366
890.789	47.0877
894.163	46.326
897.538	45.6283
900.913	44.8832
904.288	45.8891
907.663	45.501
911.038	47.1807
914.412	46.5654
917.787	47.9123
921.162	50.3152
924.537	49.5503
927.912	48.4984
931.287	50.6195
934.661	48.4871
938.036	49.0633
941.411	48.7071
944.786	46.4097
948.161	45.0778
951.535	42.6935
954.91	42.5403
958.285	41.2308
961.66	39.8066
965.035	39.3763
968.409	38.7643
971.784	38.0802
975.159	38.1367
978.534	36.9718
981.909	37.5926
985.284	36.6376
988.658	36.3992
992.033	37.0712
995.408	36.6051
998.783	35.1487
1002.16	36.4264
1005.53	36.7606
1008.91	36.1806
1012.28	36.383
1015.66	36.7548
1019.03	36.9336
1022.41	35.9053
1025.78	34.8236
1029.16	36.1034
1032.53	36.0945
1035.91	35.5294
1039.28	34.8712
1042.66	34.8638
1046.03	34.4271
1049.4	36.3389
1052.78	35.1736
1056.15	34.7039
1059.53	33.7158
1062.9	33.407
1066.28	33.974
1069.65	34.3237
1073.03	33.9217
1076.4	33.2433
1079.78	33.4589
1083.15	33.3199
1086.53	33.0275
1089.9	32.4907
1093.28	32.4781
1096.65	32.8011
1100.03	31.4527
1103.4	31.35
1106.78	32.0981
1110.15	33.1921
1113.53	31.7628
1116.9	31.5721
1120.28	31.7959
1123.65	31.7849
1127.03	30.9432
1130.4	30.7993
1133.78	30.7827
1137.15	30.9758
1140.53	30.9227
1143.9	30.4015
1147.28	30.512
1150.65	29.5428
1154.03	31.606
1157.4	31.3514
1160.77	30.7269
1164.15	31.3298
1167.52	31.0344
1170.9	31.6713
1174.27	30.8299
1177.65	31.6928
1181.02	31.5709
1184.4	30.8954
1187.77	31.3384
1191.15	31.004
1194.52	31.0862
1197.9	31.5968
1201.27	32.0501
1204.65	31.0352
1208.02	31.0249
1211.4	30.394
1214.77	29.7899
1218.15	30.011
1221.52	29.2699
1224.9	30.4943
1228.27	29.6551
1231.64	31.3738
1235.02	32.0775
1238.39	30.8636
1241.77	31.4158
1245.14	29.653
1248.52	30.2936
1251.89	30.5157
1255.27	31.6747
1258.64	29.6464
1262.02	29.6683
1265.39	30.4628
1268.77	31.392
1272.14	29.9535
1275.52	32.3029
1278.89	31.5407
1282.27	31.3234
