Measurement: Raman, 780 nm, unoriented, Raman Data RAW
Mineral: Cubic zirconia
Rruff sample: X080012
Ideal chemistry: ZrO_2_
Locality: Synthetic
Source: Gemological Institute of America
Description: Faceted colorless gemstone, 1.88 ct
Raman shift (cm-1)	intensity
93.3011	0
96.6759	3271.44
100.051	3442.01
103.425	3474.45
106.8	3550.32
110.175	3685.39
113.55	3726.15
116.925	3805.98
120.3	3907.62
123.674	3996.15
127.049	4118.06
130.424	4253.91
133.799	4419.7
137.174	4493.54
140.549	4649.54
143.923	4789.11
147.298	4944.18
150.673	5066.02
154.048	5210.46
157.423	5336.2
160.798	5397.01
164.172	5478.75
167.547	5535.05
170.922	5606.27
174.297	5681.44
177.672	5770.94
181.046	5886.25
184.421	5994.27
187.796	6150.61
191.171	6285.33
194.546	6406.14
197.921	6571.93
201.295	6701.16
204.67	6948.37
208.045	7051.22
211.42	7314.28
214.795	7499.14
218.169	7544.88
221.544	7671.22
224.919	7716.74
228.294	7793.25
231.669	7888.69
235.043	7807.67
238.418	7965.21
241.793	7969.42
245.168	7970.22
248.543	8034.22
251.918	8084.82
255.292	8008.37
258.667	8125.63
262.042	8153.71
265.417	8182.56
268.792	8093.95
272.166	8112.41
275.541	8088.26
278.916	8132.93
282.291	8175.01
285.666	8283.8
289.041	8422.92
292.415	8587.76
295.79	8711.62
299.165	9015.2
302.54	9147.8
305.915	9299.09
309.289	9599.62
312.664	9857.57
316.039	10000.9
319.414	10352.9
322.789	10500.5
326.164	10635.3
329.538	10660.4
332.913	10711.2
336.288	10562.1
339.663	10424.7
343.038	10377.1
346.413	10132.6
349.787	10001.1
353.162	9993.5
356.537	9877.35
359.912	9957.88
363.287	10094.6
366.661	10249.7
370.036	10494.8
373.411	10808.3
376.786	11151.2
380.161	11565.4
383.536	12054
386.91	12663.6
390.285	13175.8
393.66	13748.9
397.035	14321.1
400.41	15023.6
403.784	15508.4
407.159	16055.9
410.534	16590.6
413.909	17099.9
417.284	17706.1
420.659	18252.4
424.033	18611.4
427.408	18973
430.783	19219.7
434.158	19611.3
437.533	20125.8
440.907	20531.5
444.282	21248
447.657	22325.7
451.032	23470.3
454.407	25075.7
457.781	27140.2
461.156	29314
464.531	31232.2
467.906	32517.4
471.281	33229.9
474.656	32899.3
478.03	31704.5
481.405	30112.1
484.78	27950.7
488.155	25838.2
491.53	23981
494.904	22187.3
498.279	20882.9
501.654	19934.1
505.029	19149.8
508.404	18669.8
511.779	18568.5
515.153	18481.2
518.528	18737.5
521.903	18815.6
525.278	18985.7
528.653	19124.8
532.028	19177.4
535.402	19084.1
538.777	18826.4
542.152	18649.5
545.527	18294.1
548.902	17662.8
552.276	17157.1
555.651	16653.3
559.026	16006
562.401	15431.5
565.776	14891.4
569.15	14355.2
572.525	13887.8
575.9	13501.5
579.275	13176.2
582.65	13121.5
586.025	12927.1
589.399	12954.7
592.774	13110.1
596.149	13266.4
599.524	13550
602.899	13845
606.274	14092.5
609.648	14439.5
613.023	14501.2
616.398	14699.9
619.773	14690
623.148	14690.3
626.523	14574
629.897	14423.2
633.272	14289.1
636.647	14198.8
640.022	14206
643.396	14314.6
646.771	14406.4
650.146	14580.6
653.521	14893.6
656.896	15207.5
660.271	15486.8
663.645	15756.9
667.02	15862.3
670.395	15969.5
673.77	15859.6
677.145	15737.2
680.519	15458.5
683.894	15155.4
687.269	14815.8
690.644	14431.9
694.019	13940.5
697.394	13548.1
700.769	13135.7
704.143	12743.1
707.518	12386.4
710.893	12045.6
714.268	11629.7
717.643	11253.6
721.017	11012
724.392	10698.3
727.767	10511.7
731.142	10189.1
734.517	10039.3
737.891	9815.04
741.266	9665.48
744.641	9563.25
748.016	9462.76
751.391	9291.38
754.766	9273.58
758.14	9080.44
761.515	9059.9
764.89	9009.56
768.265	8997.48
771.64	9007.02
775.014	8982.84
778.389	8935.47
781.764	8974.77
785.139	9022.57
788.514	8951.35
791.889	8949.14
795.263	8875.45
798.638	8866.47
802.013	8862.97
805.388	8729.9
808.763	8719.72
812.138	8642.74
815.512	8540.52
818.887	8462.66
822.262	8282.36
825.637	8274.2
829.012	8159.26
832.386	8060.11
835.761	7950.93
839.136	7963.41
842.511	7799.99
845.886	7729.37
849.26	7643.95
852.635	7635.2
856.01	7532.64
859.385	7422.52
862.76	7348.59
866.135	7310.46
869.509	7269.65
872.884	7341.78
876.259	7297.88
879.634	7314.1
883.009	7295.27
886.384	7331.61
889.758	7276.32
893.133	7309.76
896.508	7332.86
899.883	7380.62
903.258	7387.85
906.632	7430.25
910.007	7524.8
913.382	7561.65
916.757	7607.08
920.132	7612.51
923.506	7741.75
926.881	7701.18
930.256	7807.19
933.631	7901.84
937.006	7970.33
940.381	8084.11
943.755	8089.25
947.13	8164.35
950.505	8258.24
953.88	8321.45
957.255	8509.9
960.63	8530.92
964.004	8721.05
967.379	8771.8
970.754	8951.57
974.129	9009.49
977.504	9151.93
980.878	9286.59
984.253	9412.13
987.628	9639.26
991.003	9778.92
994.378	9888.4
997.753	10090.4
1001.13	10275.8
1004.5	10415.2
1007.88	10615.4
1011.25	10763.9
1014.63	10967.7
1018	11199.2
1021.38	11349
1024.75	11557.3
1028.13	11734.8
1031.5	11933.3
1034.88	12140.8
1038.25	12447.8
1041.62	12648.8
1045	12788.2
1048.38	12959.9
1051.75	13172.8
1055.12	13448.4
1058.5	13609.6
1061.87	13957
1065.25	14098
1068.62	14400.9
1072	14630
1075.37	14911
1078.75	15149.5
1082.12	15362.4
1085.5	15649.4
1088.87	15867.9
1092.25	16238.7
1095.62	16491.9
1099	16954.6
1102.37	17204
1105.75	17427
1109.12	17792.6
1112.5	18295.2
1115.87	18510.2
1119.25	18897.5
1122.62	19269.9
1126	19713.6
1129.37	20247.4
1132.74	20622.1
1136.12	21014.2
1139.49	21375
1142.87	21990.3
1146.24	22209.7
1149.62	22773.4
1152.99	23205
1156.37	23639.8
1159.74	24182.6
1163.12	24721.3
1166.49	25131
1169.87	25689.3
1173.24	26280.1
1176.62	26752.4
1179.99	27206.9
1183.37	27837.3
1186.74	28532.7
1190.12	29081
1193.49	29854.6
1196.87	30384.4
1200.24	31260.8
1203.62	32202.5
1206.99	33108
1210.37	34021
1213.74	35145.9
1217.12	36160.1
1220.49	37378
1223.87	38918.4
1227.24	40717.4
1230.62	42477
1233.99	44534.8
1237.37	46829.6
1240.74	49403.8
1244.11	52221.3
1247.49	55450.7
1250.86	58742.1
1254.24	62488
1257.61	66427.2
1260.99	70796.6
1264.36	75399.3
1267.74	80541.4
1271.11	85742
1274.49	91352.4
1277.86	97352.8
1281.24	103644
1284.61	110242
