Measurement: Raman, 532 nm, unoriented, Raman Data Processed
Mineral: Curite
Rruff sample: R130657
Ideal chemistry: Pb^2+^_3+x_[(U^6+^O_2_)_4_O_4+x_(OH)_3-x_]_2_2H_2_O
Locality: Musonoi mine, Kolwezi, Kolwezi District, Katanga Copper Crescent, Katanga, Democratic Republic of Congo
Source: Benjamin N. Schumer
Description: Orange with dark green vandenbrandeite
Raman shift (cm-1)	intensity
147.437	0
150.33	11.154
153.222	16.374
156.115	49.4697
159.008	101.045
161.901	108.771
164.793	44.9696
167.686	8.89954
170.579	3.17175
173.471	2.13391
176.364	4.25525
179.257	0.748413
182.149	10.3596
185.042	15.2024
187.935	15.1971
190.828	26.1635
193.72	39.6858
196.613	60.2877
199.506	71.7515
202.398	95.0518
205.291	114.942
208.184	158.908
211.077	195.387
213.969	184.837
216.862	187.196
219.755	193.21
222.647	193.503
225.54	196.185
228.433	187.104
231.325	211.149
234.218	220.413
237.111	232.94
240.004	237.529
242.896	258.945
245.789	299.496
248.682	346.674
251.574	371.739
254.467	399.454
257.36	444.839
260.252	505.529
263.145	598.568
266.038	676.248
268.93	730.282
271.823	727.178
274.716	661.543
277.609	538.617
280.501	417.912
283.394	309.427
286.287	223.372
289.179	155.506
292.072	100.556
294.965	62.4753
297.858	36.8865
300.75	23.8279
303.643	8.50879
306.536	0.028809
309.428	6.46411
312.321	14.8835
315.214	2.56421
318.106	5.24292
320.999	6.90088
323.892	5.49121
326.784	17.979
329.677	16.4109
332.57	25.3145
335.463	38.8289
338.355	40.0051
341.248	44.1514
344.141	49.6829
347.033	58.1487
349.926	62.1221
352.819	68.7732
355.712	71.1084
358.604	72.1943
361.497	72.5444
364.39	63.3486
367.282	61.3279
370.175	52.6592
373.068	49.4414
375.96	43.8726
378.853	37.3218
381.746	28.2693
384.639	21.2078
387.531	15.9556
390.424	17.6616
393.317	6.91919
396.209	4.85742
399.102	4.33374
401.995	7.15161
404.887	17.8906
407.78	24.0745
410.673	12.1711
413.565	3.71435
416.458	1.87769
419.351	25.5205
422.244	49.572
425.136	88.554
428.029	127.211
430.922	173.089
433.814	236.648
436.707	303.074
439.6	340.22
442.493	402.206
445.385	461.33
448.278	491.897
451.171	510.973
454.063	520.713
456.956	517.881
459.849	496.379
462.741	470.642
465.634	434.249
468.527	400.186
471.42	372.963
474.312	363.684
477.205	329.874
480.098	308.115
482.99	289.163
485.883	276.332
488.776	288.698
491.668	283.544
494.561	279.15
497.454	276.662
500.347	263.426
503.239	241.794
506.132	210.256
509.025	178.782
511.917	145.877
514.81	137.828
517.703	119.721
520.596	87.6655
523.488	74.4102
526.381	64.5266
529.274	85.4797
532.166	94.2683
535.059	110.029
537.952	121.522
540.844	141.111
543.737	158.015
546.63	176.867
549.523	184.358
552.415	194.554
555.308	185.111
558.201	175.15
561.093	155.586
563.986	137.031
566.879	115.666
569.771	86.8601
572.664	66.8193
575.557	56.0508
578.449	30.7842
581.342	14.7102
584.235	6.65039
587.128	2.22437
590.02	1.07617
592.913	10.0596
595.806	15.627
598.698	7.56201
601.591	7.55151
604.484	8.45117
607.376	1.85498
610.269	7.91577
613.162	11.919
616.055	15.626
618.947	20.5789
621.84	32.7251
624.733	44.0984
627.625	48.4475
630.518	56.5352
633.411	56.9246
636.303	58.5095
639.196	57.0251
642.089	62.4426
644.982	61.4185
647.874	62.8491
650.767	65.3059
653.66	70.7859
656.552	50.2537
659.445	43.4763
662.338	28.4236
665.231	8.56226
668.123	10.9983
671.016	5.5686
673.909	5.30225
676.801	12.2752
679.694	12.1304
682.587	11.9443
685.479	11.0041
688.372	4.47827
691.265	10.6553
694.158	4.98877
697.05	3.08545
699.943	8.35864
702.836	13.5877
705.728	22.6558
708.621	39.8792
711.514	54.2498
714.406	86.314
717.299	111.502
720.192	155.039
723.085	201.645
725.977	252.424
728.87	312.202
731.763	384.86
734.655	461.988
737.548	561.81
740.441	666.267
743.333	782.258
746.226	909.191
749.119	1070.6
752.011	1234.3
754.904	1407.69
757.797	1592.04
760.69	1776.68
763.582	1939.95
766.475	2063.26
769.368	2143.86
772.26	2205.35
775.153	2222.59
778.046	2255.87
780.938	2279.9
783.831	2301.51
786.724	2237.24
789.617	2111.81
792.509	1900.59
795.402	1629.59
798.295	1346.77
801.187	1097.7
804.08	903.467
806.973	730.955
809.865	582.392
812.758	479.189
815.651	386.803
818.544	310.993
821.436	245.156
824.329	191.973
827.222	142.466
830.114	111.1
833.007	84.8086
835.9	53.0855
838.793	42.1582
841.685	15.6321
844.578	5.35156
847.471	4.65161
850.363	3.67236
853.256	8.53955
856.149	12.793
859.041	15.8655
861.934	6.96387
864.827	2.48779
867.72	4.03442
870.612	6.58276
873.505	5.7793
876.398	6.61108
879.29	3.0791
882.183	7.12891
885.076	5.68579
887.968	17.8584
890.861	10.8096
893.754	20.4248
896.646	28.9285
899.539	37.2441
902.432	29.3909
905.325	29.8916
908.217	34.6274
911.11	37.126
914.003	35.2891
916.895	36.7419
919.788	40.8081
922.681	45.3511
925.573	43.2773
928.466	40.5115
931.359	41.5781
934.252	26.1809
937.144	23.3281
940.037	25.7693
942.93	23.1582
945.822	31.0305
948.715	18.6172
951.608	12.6665
954.5	12.0654
957.393	14.2405
960.286	24.5195
963.179	25.398
966.071	19.9111
968.964	12.7293
971.857	17.4534
974.75	21.4988
977.642	22.9395
980.535	21.5454
983.428	18.5139
986.32	8.56909
989.213	10.0998
992.106	7.03662
994.998	12.9827
997.891	0.030029
1000.78	1.10742
1003.68	3.39258
1006.57	10.9211
1009.46	11.7637
1012.36	18.7646
1015.25	30.4951
1018.14	25.251
1021.03	21.6426
1023.92	18.6882
1026.82	29.3518
1029.71	32.9102
1032.6	28.5081
1035.5	14.4863
1038.39	12.1184
1041.28	27.2395
1044.17	26.6069
1047.07	23.1306
1049.96	19.0303
1052.85	20.6633
1055.74	19.896
1058.64	19.5998
1061.53	27.6731
1064.42	22.8816
1067.32	23.0315
1070.21	29.9343
1073.1	27.9748
1075.99	24.5125
1078.89	20.7456
1081.78	16.895
1084.67	14.3972
1087.57	8.55493
1090.46	12.3867
1093.35	4.46436
1096.24	5.4812
1099.14	0.849854
1102.03	2.09204
1104.92	0.374268
1107.81	2.48389
1110.71	3.95557
1113.6	16.0403
1116.49	14.5986
1119.38	16.2949
1122.28	1.52686
1125.17	20.4553
1128.06	16.3276
1130.95	9.58227
1133.85	2.33154
1136.74	6.03955
1139.63	8.00977
1142.53	5.30908
1145.42	1.24023
1148.31	2.27124
1151.2	3.58252
1154.1	0.394043
1156.99	0.3479
1159.88	14.366
1162.78	20.6086
1165.67	23.9727
1168.56	20.2065
1171.45	16.4028
1174.35	26.6252
1177.24	21.7505
1180.13	26.2295
1183.02	26.5859
1185.92	24.2144
1188.81	19.6602
1191.7	20.227
1194.6	13.9553
1197.49	13.2278
1200.38	13.2983
1203.27	16.0132
1206.17	7.96899
1209.06	29.5164
1211.95	22.6836
1214.84	13.2483
1217.74	19.0769
1220.63	21.2534
1223.52	25.0847
1226.41	23.0513
1229.31	21.9246
1232.2	28.4424
1235.09	13.6272
1237.98	1.27954
1240.88	8.97192
1243.77	0.916748
1246.66	1.56103
1249.56	4.63867
1252.45	3.21899
1255.34	10.2996
1258.23	7.20166
1261.13	7.54297
1264.02	3.69116
1266.91	11.2024
1269.81	8.40063
1272.7	4.80835
1275.59	0.519287
1278.48	2.72461
1281.38	13.064
1284.27	8.30469
1287.16	15.2358
1290.05	5.33716
1292.95	8.40942
1295.84	0.602051
1298.73	1.02075
