Measurement: Raman, 780 nm, unoriented, Raman Data Processed
Mineral: Curite
Rruff sample: R130657
Ideal chemistry: Pb^2+^_3+x_[(U^6+^O_2_)_4_O_4+x_(OH)_3-x_]_2_2H_2_O
Locality: Musonoi mine, Kolwezi, Kolwezi District, Katanga Copper Crescent, Katanga, Democratic Republic of Congo
Source: Benjamin N. Schumer
Description: Orange with dark green vandenbrandeite
Raman shift (cm-1)	intensity
141.579	0
144.472	772.998
147.365	511.913
150.257	172.681
153.15	15.2676
156.043	372.156
158.936	708.329
161.828	597.444
164.721	195.823
167.614	30.5623
170.506	80.0481
173.399	6.06299
176.292	180.418
179.185	409.173
182.077	524.31
184.97	512.503
187.863	488.022
190.755	556.703
193.648	717.31
196.541	961.728
199.433	1294.99
202.326	1821.39
205.219	2302.66
208.112	2692.27
211.004	2757.3
213.897	2467.03
216.79	2170.23
219.682	2009.35
222.575	1880.79
225.468	1647.68
228.36	1410.46
231.253	1264.29
234.146	1245.32
237.038	1253.73
239.931	1347.02
242.824	1563.84
245.717	1835.04
248.609	2073.56
251.502	2280.13
254.395	2498.24
257.287	2858.01
260.18	3419.38
263.073	4154.75
265.966	5090.27
268.858	5834.94
271.751	5831.91
274.644	5050.28
277.536	3889.73
280.429	2785.28
283.322	1935.04
286.214	1351.41
289.107	931.83
292	601.236
294.892	385.547
297.785	204.81
300.678	83.9692
303.571	2.57349
306.463	59.7822
309.356	79.7786
312.249	61.7419
315.141	26.4153
318.034	41.1501
320.927	61.4812
323.82	75.6624
326.712	82.9695
329.605	104.959
332.498	132.609
335.39	159.863
338.283	163.116
341.176	176.462
344.068	175.678
346.961	157.605
349.854	140.526
352.747	153.89
355.639	195.175
358.532	229.866
361.425	244.917
364.317	253.356
367.21	215.458
370.103	172.03
372.995	156.055
375.888	175.798
378.781	233.657
381.674	321.765
384.566	435.255
387.459	548.07
390.352	659.015
393.244	706.794
396.137	643.712
399.03	487.191
401.923	278.322
404.815	99.6511
407.708	26.3652
410.601	94.7278
413.493	104.94
416.386	62.9006
419.279	43.8066
422.171	198.823
425.064	415.906
427.957	696.32
430.849	1058.61
433.742	1509.42
436.635	2063.79
439.528	2709.37
442.42	3377.75
445.313	4027.77
448.206	4552.38
451.098	4910.79
453.991	5023.33
456.884	4902.8
459.776	4616.82
462.669	4273.63
465.562	3931.12
468.455	3582.59
471.347	3263.95
474.24	2930.04
477.133	2610.13
480.025	2295.58
482.918	1990.91
485.811	1748.29
488.704	1572.67
491.596	1455.3
494.489	1385.31
497.382	1328.05
500.274	1255.66
503.167	1138.31
506.06	993.758
508.952	825.099
511.845	651.634
514.738	479.494
517.63	338.319
520.523	229.959
523.416	136.625
526.308	71.9114
529.201	40.4961
532.094	13.3066
534.987	33.6438
537.879	80.9609
540.772	156.925
543.665	242.955
546.557	352.854
549.45	427.179
552.343	500.324
555.236	529.437
558.128	535.059
561.021	517.302
563.914	484.574
566.806	448.441
569.699	400.734
572.592	338.661
575.484	262.327
578.377	169.42
581.27	105.842
584.163	46.2262
587.055	10.8711
589.948	23.6971
592.841	36.3877
595.733	38.6637
598.626	32.9856
601.519	23.3264
604.412	8.21301
607.304	4.98688
610.197	22.2881
613.09	44.7342
615.982	67.1683
618.875	96.2885
621.768	123.291
624.66	152.461
627.553	182.913
630.446	212.524
633.338	242.762
636.231	268.141
639.124	294.531
642.017	306.422
644.909	309.809
647.802	307.886
650.695	288.803
653.587	261.457
656.48	230.198
659.373	192.245
662.265	157.802
665.158	124.619
668.051	93.3304
670.944	70.0491
673.836	45.6523
676.729	32.5192
679.622	12.7671
682.514	2.18347
685.407	8.07593
688.3	11.7866
691.192	22.3783
694.085	29.8194
696.978	28.0381
699.871	24.8239
702.763	23.6424
705.656	6.479
708.549	36.4915
711.441	84.0557
714.334	148.111
717.227	229.266
720.12	335.235
723.012	461.715
725.905	607.669
728.798	770.138
731.69	936.434
734.583	1128.34
737.476	1331.02
740.368	1563.05
743.261	1815.86
746.154	2105.33
749.047	2437.31
751.939	2836.86
754.832	3297.34
757.725	3836.65
760.617	4418.82
763.51	4996.26
766.403	5506.81
769.295	5925.87
772.188	6172.73
775.081	6324.25
777.973	6463.11
780.866	6654.81
783.759	6932.42
786.652	7151.31
789.544	7041.39
792.437	6498.04
795.33	5600.83
798.222	4596.59
801.115	3677
804.008	2926.1
806.9	2331.01
809.793	1861.85
812.686	1484.23
815.579	1166.39
818.471	912.369
821.364	705.805
824.257	547.335
827.149	402.795
830.042	292.612
832.935	204.187
835.827	132.488
838.72	79.4165
841.613	37.7647
844.506	14.1331
847.398	8.38599
850.291	13.1792
853.184	19.2696
856.076	20.4281
858.969	30.7158
861.862	24.8581
864.755	24.5704
867.647	9.88068
870.54	14.0767
873.433	8.49451
876.325	16.7626
879.218	14.044
882.111	32.0241
885.003	42.3102
887.896	53.1877
890.789	61.2467
893.682	59.8031
896.574	59.2178
899.467	62.0806
902.36	65.1239
905.252	73.7453
908.145	78.0598
911.038	83.4409
913.93	86.77
916.823	83.3063
919.716	80.3346
922.609	74.1825
925.501	70.4804
928.394	66.2105
931.287	60.7604
934.179	56.8783
937.072	54.4148
939.965	47.9715
942.857	46.5527
945.75	47.1272
948.643	48.6679
951.535	49.2789
954.428	50.9493
957.321	52.1428
960.214	49.7259
963.106	43.5431
965.999	51.1748
968.892	35.9833
971.784	31.5856
974.677	28.8318
977.57	24.9138
980.462	25.7282
983.355	19.8484
986.248	24.6003
989.141	14.2122
992.033	13.0901
994.926	13.0609
997.819	8.93961
1000.71	8.30771
1003.6	7.17908
1006.5	8.57294
1009.39	5.79239
1012.28	6.00409
1015.17	21.0014
1018.07	19.0716
1020.96	7.26541
1023.85	8.34595
1026.75	8.11466
1029.64	9.29343
1032.53	8.94415
1035.42	9.13864
1038.32	7.01694
1041.21	6.59399
1044.1	3.29056
1046.99	1.87766
1049.89	2.71118
1052.78	0.816956
1055.67	1.20309
1058.57	0.8797
1061.46	1.6571
1064.35	0.475006
1067.24	1.38248
1070.14	2.19135
1073.03	0.685669
1075.92	0.467377
1078.81	1.47455
1081.71	2.30435
1084.6	2.33853
1087.49	3.6431
1090.38	3.7131
1093.28	2.9408
1096.17	2.7413
1099.06	2.46197
1101.96	3.54688
1104.85	2.26556
1107.74	11.608
1110.63	15.6916
1113.53	2.17069
1116.42	1.80215
1119.31	0.203125
1122.2	0.894592
1125.1	0.427673
1127.99	0.20874
1130.88	3.72418
1133.78	1.83902
1136.67	2.29944
1139.56	6.60879
1142.45	3.10877
1145.35	5.68204
1148.24	4.26013
1151.13	4.7554
1154.03	6.32938
1156.92	11.4099
1159.81	4.87686
1162.7	1.33218
1165.6	2.44785
1168.49	2.24042
1171.38	2.78272
1174.27	3.82584
1177.17	4.75326
1180.06	8.25452
1182.95	1.02689
1185.84	2.78964
1188.74	12.8638
1191.63	8.88528
1194.52	1.84433
1197.41	5.88171
1200.31	4.2507
1203.2	3.71594
1206.09	2.63229
1208.99	3.19019
1211.88	2.78064
1214.77	3.52109
1217.66	3.90598
1220.56	11.0298
1223.45	5.21292
1226.34	7.1777
1229.23	2.57764
1232.13	2.048
1235.02	2.4169
1237.91	0.502808
1240.81	0.096954
1243.7	1.79666
1246.59	1.17996
1249.48	1.38834
1252.38	1.05753
1255.27	2.49423
1258.16	3.27643
1261.05	11.1301
1263.95	2.18991
1266.84	7.54675
1269.73	9.30594
1272.62	5.07379
1275.52	2.46503
1278.41	1.69934
1281.3	0.328491
