Measurement: Raman, 532 nm, unoriented, Raman Data Processed
Mineral: Cuspidine
Rruff sample: R140776
Ideal chemistry: Ca_4_(Si_2_O_7_)F_2_
Locality: Caspar quarry, Bellerberg volcano, Ettringen, Mayen, Eifel, Rhineland-Palatinate, Germany
Source: Ch. and H. Sch√§fer
Description: Colorless to gray, associated with grossular/andradite, melilite and rankinite (R140775).
Raman shift (cm-1)	intensity
151.776	0
154.669	2.2544
157.561	12.8877
160.454	20.9927
163.347	16.1333
166.24	7.27734
169.132	1.63257
172.025	4.02564
174.918	8.38403
177.81	16.3159
180.703	15.2026
183.596	10.6958
186.488	3.4812
189.381	2.83667
192.274	6.5083
195.167	30.7127
198.059	28.0742
200.952	18.8704
203.845	17.3618
206.737	27.9907
209.63	21.1863
212.523	12.3782
215.416	18.1135
218.308	10.1655
221.201	8.08496
224.094	7.05151
226.986	0.349854
229.879	5.52905
232.772	4.86987
235.664	20.7041
238.557	25.6323
241.45	16.1272
244.343	0.424561
247.235	10.8245
250.128	24.1104
253.021	45.346
255.913	52.1208
258.806	72.1419
261.699	100.285
264.591	115.746
267.484	119.959
270.377	85.7273
273.27	57.0823
276.162	39.624
279.055	26.3027
281.948	29.8667
284.84	48.8269
287.733	63.4048
290.626	78.9475
293.519	76.5366
296.411	96.291
299.304	102.154
302.197	103.23
305.089	79.3757
307.982	52.3467
310.875	43.2173
313.767	47.4827
316.66	33.3726
319.553	22.3052
322.445	9.48242
325.338	16.1035
328.231	28.4172
331.124	37.1638
334.016	47.6594
336.909	60.0403
339.802	52.6382
342.694	60.8279
345.587	75.564
348.48	93.2451
351.373	78.9797
354.265	70.3948
357.158	64.0774
360.051	55.1748
362.943	46.5342
365.836	38.0447
368.729	17.8159
371.621	8.41797
374.514	4.26074
377.407	2.20166
380.3	10.4956
383.192	0.917236
386.085	8.92822
388.978	11.717
391.87	2.89868
394.763	9.54761
397.656	24.727
400.548	27.5879
403.441	47.687
406.334	60.9495
409.226	88.7039
412.119	96.8408
415.012	73.7417
417.905	48.105
420.797	31.8408
423.69	12.5361
426.583	19.2698
429.475	31.9268
432.368	34.5972
435.261	34.4717
438.154	25.3833
441.046	23.7639
443.939	18.5281
446.832	13.6936
449.724	8.89136
452.617	0.371582
455.51	14.7769
458.402	4.65454
461.295	2.823
464.188	2.09009
467.08	4.25464
469.973	0.295898
472.866	8.68213
475.759	7.20947
478.651	9.375
481.544	2.77539
484.437	28.0757
487.329	38.9219
490.222	40.52
493.115	31.3535
496.007	26.5151
498.9	32.1714
501.793	34.3355
504.686	51.2183
507.578	43.707
510.471	25.0806
513.364	27.2183
516.256	12.0933
519.149	13.5933
522.042	22.8203
524.934	31.4648
527.827	42.7744
530.72	71.1562
533.613	98.9443
536.505	117.028
539.398	147.005
542.291	153.206
545.183	126.701
548.076	109.478
550.969	98.731
553.861	97.9292
556.754	72.187
559.647	46.8433
562.54	27.9673
565.432	16.5684
568.325	12.312
571.218	14.4556
574.11	9.28027
577.003	11.8579
579.896	3.86523
582.788	6.45312
585.681	4.67481
588.574	4.6001
591.467	3.53809
594.359	6.68945
597.252	5.74805
600.145	3.23926
603.037	36.979
605.93	3.84815
608.823	15.7378
611.716	13.9902
614.608	5.97803
617.501	5.45606
620.394	6.75342
623.286	16.5547
626.179	13.2705
629.072	30.3657
631.964	38.0015
634.857	55.5312
637.75	86.4014
640.643	103.22
643.535	157.831
646.428	237.554
649.321	340.659
652.213	423.588
655.106	378.471
657.999	244.719
660.891	141.478
663.784	96.2437
666.677	69.7046
669.569	48.5972
672.462	26.4395
675.355	23.8852
678.248	15.9941
681.14	9.43164
684.033	0.357422
686.926	8.68896
689.818	14.9893
692.711	1.49121
695.604	7.74854
698.496	5.021
701.389	6.56201
704.282	10.0464
707.175	0.712891
710.067	9.50098
712.96	0.723145
715.853	9.61084
718.745	15.4604
721.638	14.9453
724.531	21.5068
727.423	31.9414
730.316	42.9058
733.209	39.6992
736.102	47.8101
738.994	47.3608
741.887	37.7324
744.78	38.124
747.672	29.7314
750.565	30.709
753.458	23.0532
756.351	11.5015
759.243	5.37891
762.136	3.68799
765.029	8.84229
767.921	2.38867
770.814	0.256836
773.707	18.6987
776.599	10.4004
779.492	20.5459
782.385	20.4331
785.278	2.74219
788.17	9.63574
791.063	21.4707
793.956	16.748
796.848	17.0884
799.741	28.2412
802.634	25.209
805.526	28.9858
808.419	28.2339
811.312	28.5024
814.205	33.9048
817.097	43.8667
819.99	64.6528
822.883	48.9028
825.775	39.334
828.668	38.8643
831.561	41.647
834.453	50.7041
837.346	52.8213
840.239	53.2871
843.132	44.4824
846.024	29.4482
848.917	28.4927
851.81	33.6675
854.702	22.0635
857.595	8.65332
860.488	12.6167
863.38	21.9683
866.273	14.6958
869.166	20.6538
872.059	17.2422
874.951	10.6807
877.844	7.38135
880.737	11.3857
883.629	19.7705
886.522	13.5342
889.415	22.02
892.308	52.6797
895.2	118.951
898.093	222.342
900.986	359.672
903.878	630.208
906.771	1038.62
909.664	1418.91
912.556	1143.46
915.449	541.381
918.342	251.869
921.235	128.454
924.127	88.4102
927.02	71.3296
929.913	43.2622
932.805	27.8911
935.698	17.5352
938.591	16.6846
941.483	22.9224
944.376	35.3818
947.269	20.3584
950.162	7.31592
953.054	3.43799
955.947	3.84228
958.84	19.229
961.732	22.2407
964.625	36.6304
967.518	68.957
970.41	92.418
973.303	127.028
976.196	163.283
979.088	149.437
981.981	99.1743
984.874	91.8984
987.767	90.6377
990.659	91.9673
993.552	74.8799
996.445	64.7046
999.337	36.2051
1002.23	17.1807
1005.12	36.1421
1008.02	45.3315
1010.91	26.4907
1013.8	20.3159
1016.69	23.1216
1019.59	11.3672
1022.48	13.8687
1025.37	1.50244
1028.26	15.5664
1031.16	33.0122
1034.05	38.8809
1036.94	47.0772
1039.84	48.042
1042.73	27.5469
1045.62	22.6118
1048.51	24.6773
1051.41	21.8232
1054.3	8.53662
1057.19	10.8354
1060.08	29.9424
1062.98	48.0083
1065.87	51.1504
1068.76	84.6362
1071.65	146.423
1074.55	201.75
1077.44	216.519
1080.33	192.486
1083.23	212.868
1086.12	261.427
1089.01	314.072
1091.9	283.279
1094.8	147.001
1097.69	71.855
1100.58	33.3032
1103.47	20.6167
1106.37	18.4932
1109.26	42.6211
1112.15	39.9331
1115.05	44.0732
1117.94	23.4912
1120.83	15.3125
1123.72	0.104004
1126.62	5.9541
1129.51	17.0024
1132.4	10.4224
1135.29	4.3916
1138.19	11.3931
1141.08	15.8999
1143.97	5.25391
1146.87	2.19727
1149.76	6.5415
1152.65	7.70215
1155.54	14.0322
1158.44	15.2964
1161.33	24.8096
1164.22	23.5366
1167.11	26.3374
1170.01	30.3652
1172.9	20.5156
1175.79	28.7949
1178.68	21.9287
1181.58	37.5322
1184.47	57.2769
1187.36	54.523
1190.26	61.8457
1193.15	56.3232
1196.04	42.8608
1198.93	32.2695
1201.83	30.7852
1204.72	42.3018
1207.61	28.8906
1210.51	42.7212
1213.4	36.397
1216.29	42.9766
1219.18	48.4722
1222.08	58.7759
1224.97	59.0547
1227.86	52.873
1230.75	47.353
1233.65	34.7441
1236.54	22.001
1239.43	31.2031
1242.32	34.375
1245.22	28.4238
1248.11	41.0967
1251	35.9668
1253.89	40.2329
1256.79	53.2339
1259.68	24.7041
1262.57	22.1836
1265.47	19.7222
1268.36	19.4868
1271.25	9.15332
1274.14	2.67041
1277.04	5.57324
1279.93	16.7339
1282.82	17.4385
1285.71	21.4268
1288.61	29.3838
1291.5	19.7476
1294.39	17.2446
1297.29	0.324707
1300.18	0.256348
