Measurement: Raman, 780 nm, unoriented, Raman Data Processed
Mineral: Cuspidine
Rruff sample: R140776
Ideal chemistry: Ca_4_(Si_2_O_7_)F_2_
Locality: Caspar quarry, Bellerberg volcano, Ettringen, Mayen, Eifel, Rhineland-Palatinate, Germany
Source: Ch. and H. Sch√§fer
Description: Colorless to gray, associated with grossular/andradite, melilite and rankinite (R140775).
Raman shift (cm-1)	intensity
93.8499	0
97.2247	20.8982
100.6	11.6138
103.974	9.27515
107.349	18.4087
110.724	0.298096
114.099	10.0815
117.474	37.4109
120.848	41.7688
124.223	65.9468
127.598	66.562
130.973	66.1587
134.348	72.7759
137.722	82.2695
141.097	56.8931
144.472	29.4136
147.847	13.5872
151.222	1.59106
154.597	3.48901
157.971	3.70019
161.346	14.0437
164.721	2.95801
168.096	6.59473
171.471	2.86279
174.845	1.26269
178.22	0.925781
181.595	2.1416
184.97	0.866455
188.345	6.48731
191.72	16.0371
195.094	18.5532
198.469	26.4177
201.844	35.0359
205.219	44.2258
208.594	46.926
211.969	52.7583
215.343	54.8298
218.718	60.8662
222.093	54.0637
225.468	54.906
228.843	64.4331
232.217	61.0605
235.592	70.4356
238.967	69.8669
242.342	63.5842
245.717	64.5239
249.091	59.5586
252.466	57.0061
255.841	60.3469
259.216	75.9771
262.591	90.3958
265.966	106.146
269.34	96.3804
272.715	79.6196
276.09	74.8137
279.465	76.3035
282.84	64.4802
286.214	67.9399
289.589	62.4475
292.964	53.9543
296.339	56.4692
299.714	46.1521
303.089	30.1502
306.463	16.1785
309.838	15.0017
313.213	36.3721
316.588	35.2805
319.963	32.5371
323.337	38.0012
326.712	52.9717
330.087	65.2996
333.462	92.0708
336.837	89.6069
340.212	79.1692
343.586	69.5078
346.961	62.3765
350.336	35.6575
353.711	22.7986
357.086	0.144287
360.46	10.8079
363.835	19.4514
367.21	15.2918
370.585	27.406
373.96	7.62573
377.334	7.09033
380.709	39.7861
384.084	57.7207
387.459	84.3174
390.834	106.376
394.209	120.455
397.583	136.701
400.958	161.522
404.333	182.795
407.708	212.498
411.083	251.048
414.457	268.96
417.832	282.488
421.207	253.013
424.582	215.018
427.957	174.626
431.332	156.041
434.706	172.403
438.081	210.74
441.456	257.685
444.831	297.82
448.206	338.222
451.58	359.187
454.955	347.495
458.33	316.955
461.705	249.829
465.08	196.537
468.455	150.774
471.829	121.944
475.204	111.172
478.579	103.765
481.954	112.509
485.329	139.994
488.704	168.085
492.078	216.206
495.453	237.214
498.828	251.538
502.203	271.685
505.577	265.057
508.952	234.317
512.327	210.757
515.702	182.64
519.077	167.087
522.452	158.18
525.826	163.236
529.201	155.637
532.576	160.091
535.951	166.967
539.326	166.513
542.701	149.082
546.075	121.1
549.45	93.1419
552.825	61.8708
556.2	41.074
559.575	22.5796
562.949	0.974609
566.324	2.32251
569.699	12.7758
573.074	10.5901
576.449	13.7562
579.823	12.0076
583.198	0.514404
586.573	4.70361
589.948	0.259033
593.323	8.8783
596.698	19.0334
600.072	30.1331
603.447	45.064
606.822	51.9355
610.197	51.9108
613.572	61.8925
616.947	67.9646
620.321	74.329
623.696	76.7573
627.071	80.7609
630.446	85.9381
633.821	81.0754
637.195	88.2165
640.57	91.4891
643.945	85.8645
647.32	102.85
650.695	144.254
654.069	165.273
657.444	122.134
660.819	73.4426
664.194	46.2728
667.569	33.8926
670.944	16.7665
674.318	9.75183
677.693	9.85181
681.068	0.581787
684.443	2.22876
687.818	0.395874
691.192	7.25171
694.567	13.3033
697.942	17.1725
701.317	18.9969
704.692	25.6088
708.067	32.6511
711.441	29.4921
714.816	28.8914
718.191	28.6367
721.566	27.3185
724.941	33.3156
728.316	31.5328
731.69	38.432
735.065	32.5001
738.44	28.639
741.815	24.2991
745.19	16.3127
748.564	15.2866
751.939	18.7756
755.314	18.1996
758.689	21.373
762.064	22.6854
765.438	23.9266
768.813	15.8217
772.188	9.01733
775.563	11.1907
778.938	1.63574
782.313	0.105347
785.687	2.17358
789.062	4.51099
792.437	0.309448
795.812	3.1532
799.187	1.04333
802.562	1.79419
805.936	11.1615
809.311	7.43994
812.686	2.04016
816.061	0.773926
819.436	3.90185
822.81	3.14331
826.185	4.72485
829.56	7.61438
832.935	19.1382
836.31	25.1865
839.684	32.1333
843.059	33.3428
846.434	32.2748
849.809	38.0348
853.184	32.2071
856.558	36.1073
859.933	29.5975
863.308	22.9237
866.683	18.1267
870.058	14.7587
873.433	4.26526
876.807	2.65869
880.182	4.6687
883.557	0.013428
886.932	2.67871
890.307	2.09729
893.682	1.65039
897.056	29.2173
900.431	55.5847
903.806	120.611
907.181	237.177
910.556	374.094
913.93	250.521
917.305	100.289
920.68	44.8389
924.055	24.7671
927.43	26.4115
930.804	26.4506
934.179	21.7847
937.554	25.2268
940.929	23.0314
944.304	21.8846
947.679	22.1564
951.053	16.9166
954.428	12.3004
957.803	13.6312
961.178	7.52649
964.553	16.1497
967.928	24.8405
971.302	33.7247
974.677	45.5872
978.052	51.1188
981.427	31.7004
984.802	24.2447
988.176	25.6715
991.551	30.1759
994.926	28.7112
998.301	19.8487
1001.68	14.1921
1005.05	7.36804
1008.42	8.0293
1011.8	10.7637
1015.17	11.297
1018.55	1.56836
1021.92	1.17944
1025.3	0.607178
1028.67	0.033936
1032.05	6.86829
1035.42	10.7136
1038.8	8.2356
1042.17	0.00769
1045.55	6.02686
1048.92	5.79285
1052.3	4.64783
1055.67	6.70019
1059.05	0.240356
1062.42	0.221558
1065.8	4.36438
1069.17	7.67297
1072.55	12.6209
1075.92	28.7566
1079.3	22.9011
1082.67	22.1189
1086.05	25.8362
1089.42	39.3771
1092.8	37.3539
1096.17	5.25317
1099.55	16.1592
1102.92	34.2859
1106.3	72.6307
1109.67	113.752
1113.05	162.758
1116.42	225.664
1119.79	297.864
1123.17	360.209
1126.54	422.272
1129.92	457.986
1133.29	472.459
1136.67	446.028
1140.04	389.293
1143.42	315.728
1146.79	246.418
1150.17	185.243
1153.54	132.105
1156.92	90.3914
1160.29	62.8546
1163.67	33.8219
1167.04	42.5303
1170.42	45.5648
1173.79	60.0288
1177.17	78.4279
1180.54	94.2999
1183.92	112.939
1187.29	139.303
1190.66	165.749
1194.04	184.91
1197.41	197.722
1200.79	194.472
1204.16	181.842
1207.54	153.255
1210.91	114.531
1214.29	72.0957
1217.66	31.5205
1221.04	0.589355
1224.41	19.8398
1227.79	13.3838
1231.16	2.58667
1234.54	25.1248
1237.91	65.3379
1241.29	115.627
1244.66	173.821
1248.04	238.498
1251.41	307.09
1254.79	308.548
1258.16	309.973
1261.54	322.352
1264.91	301.577
1268.29	262.826
1271.66	195.459
1275.04	122.04
1278.41	47.5742
1281.79	1.16748
