Measurement: Raman, 532 nm, unoriented, Raman Data RAW
Mineral: CuZnCl(OH)3
Rruff sample: R140401
Ideal chemistry: CuZnCl(OH)_3_
Locality: Rowley mine, Maricopa County, Arizona, USA
Source: Danielle Sotomayor and Keith Wentz
Description: Thin platy blue crystals, associated with colorless hexagonal tabular simonkolleite (R130616). The compound, chemical formula CuZnCl(OH)<sub>3</sub>, was found on a metallic mining artifact of copper composition.
Measured chemistry: Cu_0.94_Zn_1.06_Cl_0.99_(OH)_3.01_
Raman shift (cm-1)	intensity
89.3011	0
92.6759	78.5563
96.0507	81.1173
99.4255	89.6261
102.8	100.559
106.175	117.325
109.55	137.156
112.925	166.356
116.3	197.715
119.674	191.746
123.049	145.399
126.424	116.071
129.799	103.92
133.174	100.548
136.548	103.47
139.923	112.781
143.298	127.039
146.673	149.809
150.048	187.445
153.423	239.801
156.797	305.181
160.172	369.459
163.547	393.871
166.922	360.626
170.297	296.24
173.672	240.406
177.046	202.726
180.421	178.301
183.796	164.002
187.171	155.407
190.546	154.325
193.92	154.793
197.295	161.852
200.67	169.352
204.045	182.241
207.42	196.247
210.794	207.24
214.169	208.112
217.544	189.98
220.919	161.991
224.294	138.943
227.669	122.197
231.043	109.422
234.418	101.854
237.793	98.1158
241.168	93.8234
244.543	91.8291
247.917	90.7385
251.292	89.2713
254.667	90.1527
258.042	90.3908
261.417	89.748
264.792	88.4685
268.166	88.2744
271.541	87.2528
274.916	85.7864
278.291	87.2179
281.666	87.5913
285.041	91.8024
288.415	95.119
291.79	101.031
295.165	110.334
298.54	123.384
301.915	142.002
305.289	167.345
308.664	199.833
312.039	244.554
315.414	287.095
318.789	307.806
322.163	283.392
325.538	236.06
328.913	190.516
332.288	164.158
335.663	149.652
339.038	144.702
342.412	144.925
345.787	147.582
349.162	158.336
352.537	171.23
355.912	185.264
359.286	194.174
362.661	193.634
366.036	184.578
369.411	171.963
372.786	159.615
376.161	151.356
379.535	143.728
382.91	139.752
386.285	137.697
389.66	138.768
393.035	139.765
396.409	144.625
399.784	150.384
403.159	156.709
406.534	160.524
409.909	163.593
413.284	167.333
416.658	170.718
420.033	179.599
423.408	191.65
426.783	206.447
430.158	221.331
433.532	241.018
436.907	269.552
440.282	306.65
443.657	355.62
447.032	409.559
450.406	448.361
453.781	451.314
457.156	418.333
460.531	370.382
463.906	337.212
467.281	318.42
470.655	308.289
474.03	286.841
477.405	253.398
480.78	218.361
484.155	189.152
487.529	165.126
490.904	142.532
494.279	126.848
497.654	113.577
501.029	103.34
504.404	96.5409
507.778	91.9884
511.153	88.9366
514.528	85.6004
517.903	83.4601
521.278	82.2825
524.653	81.9121
528.027	80.762
531.402	80.7863
534.777	79.9405
538.152	79.3457
541.527	79.1559
544.901	78.0463
548.276	79.4123
551.651	78.6703
555.026	77.2891
558.401	77.0804
561.775	77.0095
565.15	75.7784
568.525	76.2353
571.9	75.4968
575.275	76.2771
578.649	76.1233
582.024	76.0362
585.399	76.3472
588.774	76.4124
592.149	76.1742
595.524	76.1529
598.898	75.7037
602.273	75.9625
605.648	75.3466
609.023	75.4319
612.398	75.2762
615.773	75.0445
619.147	75.6672
622.522	75.9253
625.897	75.4645
629.272	75.527
632.647	76.6531
636.021	77.8051
639.396	78.1645
642.771	79.5129
646.146	80.8701
649.521	83.195
652.895	85.1472
656.27	86.7612
659.645	88.8584
663.02	90.2227
666.395	92.7578
669.77	94.4159
673.144	97.0877
676.519	98.0608
679.894	98.3457
683.269	97.2489
686.644	95.8167
690.019	93.1554
693.393	91.3673
696.768	88.9899
700.143	87.2822
703.518	86.3178
706.893	85.3303
710.267	84.5981
713.642	82.9473
717.017	83.9631
720.392	83.817
723.767	82.7033
727.141	83.4531
730.516	82.8902
733.891	83.4203
737.266	83.6742
740.641	83.888
744.016	84.9204
747.39	85.7003
750.765	87.1846
754.14	87.6837
757.515	89.2112
760.89	90.7897
764.264	92.1959
767.639	93.2828
771.014	95.1746
774.389	97.1826
777.764	99.4773
781.139	101.714
784.513	103.541
787.888	105.203
791.263	108.196
794.638	109.476
798.013	110.548
801.388	110.695
804.762	108.067
808.137	106.191
811.512	102.044
814.887	99.6422
818.261	97.2647
821.636	94.7048
825.011	94.3411
828.386	95.3009
831.761	96.3174
835.136	96.9319
838.51	99.4032
841.885	101.682
845.26	104.473
848.635	108.344
852.01	110.578
855.385	112.88
858.759	113.318
862.134	112.867
865.509	110.011
868.884	105.714
872.259	101.132
875.633	95.963
879.008	92.8104
882.383	89.4737
885.758	86.5753
889.133	85.8617
892.508	84.5431
895.882	83.2979
899.257	82.7009
902.632	81.4231
906.007	80.7445
909.382	80.9762
912.756	80.3574
916.131	79.0281
919.506	79.6457
922.881	79.0904
926.256	78.8156
929.63	78.4612
933.005	79.0183
936.38	78.3994
939.755	78.6985
943.13	78.941
946.505	79.2003
949.879	79.1035
953.254	79.8493
956.629	79.8397
960.004	79.6798
963.379	79.0426
966.754	78.3346
970.128	79.7425
973.503	78.7642
976.878	78.0118
980.253	76.8006
983.628	75.9975
987.002	76.0182
990.377	74.8752
993.752	75.6163
997.127	74.2777
1000.5	73.973
1003.88	73.5835
1007.25	73.4884
1010.63	72.3111
1014	71.8582
1017.38	72.5293
1020.75	72.1733
1024.12	72.1541
1027.5	71.8133
1030.88	73.0622
1034.25	72.2088
1037.62	71.2382
1041	72.7978
1044.37	71.9188
1047.75	71.1147
1051.12	71.6708
1054.5	71.6505
1057.87	71.6784
1061.25	71.3393
1064.62	71.9463
1068	71.233
1071.37	70.8898
1074.75	71.116
1078.12	71.6418
1081.5	71.4845
1084.87	70.9664
1088.25	71.6733
1091.62	71.4921
1095	71.9409
1098.37	70.9407
1101.75	71.756
1105.12	71.4376
1108.5	72.2047
1111.87	72.1361
1115.24	71.6945
1118.62	71.8531
1121.99	71.8613
1125.37	71.38
1128.74	71.1611
1132.12	71.2588
1135.49	72.6411
1138.87	71.4756
1142.24	71.4602
1145.62	71.6954
1148.99	71.7727
1152.37	71.1073
1155.74	71.8254
1159.12	71.3905
1162.49	71.9605
1165.87	71.9906
1169.24	71.9432
1172.62	71.3357
1175.99	71.9638
1179.37	72.0147
1182.74	72.3798
1186.12	73.2024
1189.49	71.7338
1192.87	71.6936
1196.24	71.6889
1199.62	72.1168
1202.99	72.2143
1206.37	71.8816
1209.74	71.7315
1213.12	72.6051
1216.49	73.2064
1219.87	72.2691
1223.24	72.5763
1226.61	72.6778
1229.99	71.6774
1233.36	72.6844
1236.74	72.4236
1240.11	72.4827
1243.49	72.2511
1246.86	72.899
1250.24	72.6127
1253.61	72.2974
1256.99	72.6351
1260.36	72.9708
1263.74	72.6301
1267.11	72.1809
1270.49	72.8399
1273.86	73.0835
1277.24	72.2467
1280.61	72.4632
1283.99	73.4326
1287.36	72.7378
1290.74	75.5926
1294.11	73.4634
1297.49	72.8665
1300.86	72.3813
