Measurement: Raman, 780 nm, unoriented, Raman Data RAW
Mineral: Cylindrite
Rruff sample: R050175
Ideal chemistry: FePb_3_Sn_4_Sb_2_S_14_
Locality: Poop√≥ Province, Oruro Department, Bolivia
Source: Marcus Origlieri
Description: Gray tubular aggregates
Measured chemistry: Pb_3.05_Sn_4.25_Fe_0.84_Sb_1.87_S_14.00_
Raman shift (cm-1)	intensity
92.9658	471.753
96.3406	439.161
99.7155	388.711
103.09	333.091
106.465	311.803
109.84	287.752
113.215	283.125
116.59	281.583
119.964	278.454
123.339	273.99
126.714	280.337
130.089	276.817
133.464	274.047
136.838	280.901
140.213	284.291
143.588	275.659
146.963	277.255
150.338	276.534
153.713	275.548
157.087	272.557
160.462	266.322
163.837	270.587
167.212	275.626
170.587	269.287
173.961	272.615
177.336	273.554
180.711	271.254
184.086	274.017
187.461	274.305
190.835	270.093
194.21	271.653
197.585	267.249
200.96	265.768
204.335	265.417
207.709	263.973
211.084	263.764
214.459	261.023
217.834	256.603
221.209	254.846
224.584	251.993
227.958	241.383
231.333	240.15
234.708	237.696
238.083	233.118
241.458	222.602
244.833	214.759
248.207	209.655
251.582	200.608
254.957	195.007
258.332	190.78
261.707	178.248
265.081	173.703
268.456	173.577
271.831	167.457
275.206	170.094
278.581	170.057
281.955	174.845
285.33	174.868
288.705	180.696
292.08	178.524
295.455	177.819
298.83	168.319
302.204	158.373
305.579	153.729
308.954	138.95
312.329	128.177
315.704	117.718
319.079	111.286
322.453	104.046
325.828	98.8497
329.203	92.5738
332.578	88.4222
335.952	88.0288
339.327	81.9654
342.702	79.0996
346.077	77.205
349.452	75.049
352.827	73.6864
356.201	71.389
359.576	75.6416
362.951	72.1838
366.326	68.4177
369.701	70.5882
373.075	67.8344
376.45	68.9485
379.825	65.3072
383.2	66.8094
386.575	66.4354
389.95	66.1895
393.324	61.785
396.699	62.6629
400.074	60.6653
403.449	60.1283
406.824	64.2879
410.199	62.6205
413.573	66.613
416.948	60.1306
420.323	58.7786
423.698	61.8916
427.072	60.5307
430.447	59.7681
433.822	58.3673
437.197	56.8006
440.572	58.1697
443.947	55.9676
447.321	53.6898
450.696	52.6462
454.071	54.0531
457.446	59.0482
460.821	50.8104
464.195	53.8721
467.57	54.3651
470.945	57.6695
474.32	49.5729
477.695	54.1344
481.07	54.7185
484.444	53.7531
487.819	51.7505
491.194	50.0716
494.569	48.1473
497.944	50.2399
501.318	49.4889
504.693	45.9897
508.068	48.6127
511.443	44.9442
514.818	50.0006
518.193	46.5211
521.567	47.2208
524.942	46.6098
528.317	44.6407
531.692	47.3208
535.067	48.3464
538.442	48.9387
541.816	45.1451
545.191	44.3074
548.566	41.8772
551.941	46.0852
555.316	44.5902
558.69	46.7069
562.065	46.5107
565.44	41.6357
568.815	39.5442
572.19	39.8628
575.564	42.0536
578.939	45.5045
582.314	42.7658
585.689	41.8
589.064	40.3973
592.438	43.8831
595.813	36.0077
599.188	43.7143
602.563	39.0837
605.938	40.6456
609.313	41.7389
612.687	37.2298
616.062	35.9282
619.437	36.0803
622.812	36.1434
626.187	39.329
629.562	38.825
632.936	37.8734
636.311	34.4548
639.686	37.9862
643.061	37.822
646.436	33.9248
649.81	34.0151
653.185	37.7179
656.56	33.3961
659.935	38.7568
663.31	32.0311
666.684	35.5733
670.059	35.6493
673.434	32.8708
676.809	35.9569
680.184	34.7171
683.558	32.7557
686.933	36.9347
690.308	33.286
693.683	33.2679
697.058	30.1444
700.433	34.2507
703.807	34.484
707.182	28.7457
710.557	35.1632
713.932	37.2447
717.307	33.8045
720.682	32.1041
724.056	31.9427
727.431	32.9177
730.806	32.5804
734.181	33.9232
737.556	31.575
740.93	34.5301
744.305	33.1787
747.68	39.1082
751.055	33.2062
754.43	36.6786
757.804	34.1915
761.179	31.7172
764.554	29.5621
767.929	35.9626
771.304	36.286
774.678	33.3588
778.053	37.229
781.428	30.6019
784.803	30.436
788.178	38.1268
791.553	34.1037
794.927	30.4702
798.302	31.4485
801.677	33.7631
805.052	32.8742
808.427	39.5344
811.802	33.0746
815.176	30.7481
818.551	32.5461
821.926	34.1758
825.301	30.6767
828.676	35.2208
832.05	37.3862
835.425	29.22
838.8	35.4265
842.175	33.3931
845.55	34.7715
848.924	31.644
852.299	32.1268
855.674	30.0759
859.049	31.6443
862.424	30.2633
865.799	30.3177
869.173	29.3849
872.548	33.891
875.923	32.799
879.298	31.0511
882.673	33.498
886.047	33.026
889.422	31.7715
892.797	26.7949
896.172	28.0173
899.547	28.479
902.922	27.641
906.296	27.6726
909.671	31.7402
913.046	28.0027
916.421	28.3157
919.796	28.4538
923.17	27.3138
926.545	30.5815
929.92	27.0367
933.295	24.3325
936.67	21.4054
940.044	29.2933
943.419	26.4528
946.794	24.4748
950.169	26.2221
953.544	25.4762
956.919	24.4988
960.293	26.8183
963.668	23.8132
967.043	25.9809
970.418	24.5336
973.793	26.7733
977.168	25.5296
980.542	23.6578
983.917	27.8875
987.292	21.2092
990.667	25.6558
994.042	28.7526
997.416	18.1546
1000.79	24.0937
1004.17	25.9324
1007.54	24.3752
1010.92	24.1959
1014.29	24.1732
1017.66	22.459
1021.04	23.7202
1024.41	25.0024
1027.79	20.8903
1031.16	28.0638
1034.54	23.2736
1037.91	21.9168
1041.29	19.5234
1044.66	22.8542
1048.04	25.5777
1051.41	25.2777
1054.79	26.4133
1058.16	24.6929
1061.54	23.3521
1064.91	22.9042
1068.29	23.1874
1071.66	21.1116
1075.04	23.5973
1078.41	24.468
1081.79	22.4174
1085.16	23.9832
1088.54	20.6192
1091.91	22.6883
1095.29	21.2868
1098.66	20.6373
1102.04	23.318
1105.41	25.1515
1108.79	25.6421
1112.16	18.5994
1115.54	18.7669
1118.91	20.7616
1122.29	22.19
1125.66	22.2755
1129.03	22.7911
1132.41	20.5648
1135.78	20.1526
1139.16	25.294
1142.53	22.8335
1145.91	24.5102
1149.28	22.4477
1152.66	24.9444
1156.03	24.7296
1159.41	24.8243
1162.78	24.3286
1166.16	20.2231
1169.53	19.4707
1172.91	23.6442
1176.28	25.0416
1179.66	20.2761
1183.03	20.8636
1186.41	18.5772
1189.78	20.4322
1193.16	22.9037
1196.53	21.7093
1199.9	21.868
1203.28	25.0024
1206.65	23.2079
1210.03	21.9869
1213.4	23.5464
1216.78	21.6103
1220.15	20.5412
1223.53	21.8219
1226.9	24.0609
1230.28	24.2535
1233.65	21.438
1237.03	20.37
1240.4	24.9703
1243.78	24.4959
1247.15	20.0752
1250.53	21.4091
1253.9	24.0081
1257.28	27.1868
1260.65	23.3417
1264.03	20.3833
1267.4	25.7156
1270.78	20.3078
1274.15	19.7414
1277.53	23.587
1280.9	22.1737
1284.28	21.6842
