Measurement: Raman, 532 nm, unoriented, Raman Data RAW
Mineral: Cylindrite
Rruff sample: R050175
Ideal chemistry: FePb_3_Sn_4_Sb_2_S_14_
Locality: Poop√≥ Province, Oruro Department, Bolivia
Source: Marcus Origlieri
Description: Gray tubular aggregates
Measured chemistry: Pb_3.05_Sn_4.25_Fe_0.84_Sb_1.87_S_14.00_
Raman shift (cm-1)	intensity
93.7754	39.1925
97.1502	52.998
100.525	95.1933
103.9	169.195
107.275	244.5
110.65	297.578
114.024	383.828
117.399	493.663
120.774	577.891
124.149	640.097
127.524	667.934
130.898	738.622
134.273	802.15
137.648	807.578
141.023	811.468
144.398	792.939
147.772	802.836
151.147	795.554
154.522	798.42
157.897	788.461
161.272	786.163
164.647	784.236
168.021	774.19
171.396	786.973
174.771	774.252
178.146	772.502
181.521	774.876
184.895	770.61
188.27	765.14
191.645	756.563
195.02	756.944
198.395	759.819
201.769	754.888
205.144	748.526
208.519	747.329
211.894	737.092
215.269	733.891
218.644	734.382
222.018	732.01
225.393	723.804
228.768	716.727
232.143	712.75
235.518	697.111
238.893	692.275
242.267	680.774
245.642	668.799
249.017	655.347
252.392	639.685
255.767	622.713
259.141	610.751
262.516	597.37
265.891	583.148
269.266	562.254
272.641	553.708
276.015	546.392
279.39	533.404
282.765	524.134
286.14	519.611
289.515	519.127
292.889	521.847
296.264	524.284
299.639	522.049
303.014	522.035
306.389	514.933
309.764	506.034
313.138	491.663
316.513	472.495
319.888	459.834
323.263	442.233
326.638	425.675
330.012	408.689
333.387	395.654
336.762	385.804
340.137	370.628
343.512	363.217
346.887	354.977
350.261	343.136
353.636	337.924
357.011	328.796
360.386	323.122
363.761	319.298
367.135	310.001
370.51	303.464
373.885	301.229
377.26	295.434
380.635	291.663
384.01	285.603
387.384	282.305
390.759	279.563
394.134	278.277
397.509	277.241
400.884	273.201
404.259	270.887
407.633	269.791
411.008	271.673
414.383	268.731
417.758	267.407
421.132	265.834
424.507	265.849
427.882	267.622
431.257	264.853
434.632	262.97
438.007	265.26
441.381	263.888
444.756	260.015
448.131	259.357
451.506	260.068
454.881	256.794
458.255	258.755
461.63	252.596
465.005	252.404
468.38	255.425
471.755	250.677
475.13	250.046
478.504	247.185
481.879	247.663
485.254	244.354
488.629	240.308
492.004	241.493
495.378	238.125
498.753	237.617
502.128	233.631
505.503	233.014
508.878	231.677
512.253	229.798
515.627	228.77
519.002	225.534
522.377	224.728
525.752	223.948
529.127	223.056
532.501	220.913
535.876	221.854
539.251	220.021
542.626	216.441
546.001	217.055
549.375	214.516
552.75	214.742
556.125	212.455
559.5	210.314
562.875	211.769
566.25	208.101
569.625	208.997
572.999	209.15
576.374	205.045
579.749	208.284
583.124	207.815
586.499	206.642
589.873	205.982
593.248	205.844
596.623	206.681
599.998	205.859
603.373	205.977
606.747	204.416
610.122	205.523
613.497	205.765
616.872	209.037
620.247	203.626
623.621	202.411
626.996	204.667
630.371	200.034
633.746	200.35
637.121	198.383
640.496	198.848
643.87	196.569
647.245	194.36
650.62	193.916
653.995	190.958
657.37	192.267
660.745	188.358
664.119	188.712
667.494	188.548
670.869	180.908
674.244	185.169
677.619	186.631
680.993	184.892
684.368	184.51
687.743	184.834
691.118	181.16
694.493	179.949
697.867	182.477
701.242	182.334
704.617	179.462
707.992	179.983
711.367	178.178
714.741	178.129
718.116	178.076
721.491	175.541
724.866	175.125
728.241	173.655
731.616	175.541
734.99	173.881
738.365	172.233
741.74	170.95
745.115	168.954
748.49	169.683
751.865	164.551
755.239	163.072
758.614	162.032
761.989	161.09
765.364	160.067
768.739	157.003
772.113	154.733
775.488	156.466
778.863	153.835
782.238	150.764
785.613	151.798
788.987	150.72
792.362	149.348
795.737	146.97
799.112	150.408
802.487	145.936
805.862	147.257
809.236	145.355
812.611	143.655
815.986	145.416
819.361	146.089
822.736	144.061
826.111	143.129
829.485	141.231
832.86	143.987
836.235	143.281
839.61	140.487
842.985	141.798
846.359	142.481
849.734	138.977
853.109	141.06
856.484	138.199
859.859	138.735
863.234	138.595
866.608	138.974
869.983	138.659
873.358	136.683
876.733	137.846
880.107	135.768
883.482	136.834
886.857	135.239
890.232	133.925
893.607	132.56
896.982	133.1
900.356	132.481
903.731	132.363
907.106	132.974
910.481	131.572
913.856	131.977
917.231	131.444
920.605	131.044
923.98	130.124
927.355	129.859
930.73	130.636
934.105	132.59
937.479	129.32
940.854	132.515
944.229	130.196
947.604	133.123
950.979	133.573
954.354	133.674
957.728	133.845
961.103	133.572
964.478	133.605
967.853	133.558
971.227	133.536
974.602	129.994
977.977	128.251
981.352	128.754
984.727	128.803
988.102	128.808
991.476	128.292
994.851	125.584
998.226	127.247
1001.6	125.647
1004.98	127.895
1008.35	128.13
1011.73	124.721
1015.1	126.175
1018.48	125.541
1021.85	126.352
1025.22	125.474
1028.6	125.1
1031.97	125.689
1035.35	126.339
1038.72	125.398
1042.1	125.765
1045.47	124.241
1048.85	127.379
1052.22	126.616
1055.6	125.445
1058.97	125.303
1062.35	125.686
1065.72	123.155
1069.1	124.911
1072.47	127.114
1075.85	124.287
1079.22	123.688
1082.6	124.294
1085.97	124.211
1089.35	122.745
1092.72	124.76
1096.1	122.147
1099.47	122.762
1102.85	125.85
1106.22	123.094
1109.6	121.184
1112.97	121.774
1116.35	121.194
1119.72	122.41
1123.09	121.671
1126.47	121.289
1129.84	121.906
1133.22	121.065
1136.59	121.554
1139.97	120.319
1143.34	121.503
1146.72	121.039
1150.09	120.095
1153.47	119.24
1156.84	119.46
1160.22	121.194
1163.59	121.071
1166.97	119.638
1170.34	120.822
1173.72	121.129
1177.09	120.095
1180.47	119.074
1183.84	121.941
1187.22	119.654
1190.59	119.171
1193.96	120.147
1197.34	120.047
1200.71	118.847
1204.09	120.882
1207.46	118.01
1210.84	121.581
1214.21	119.765
1217.59	118.941
1220.96	120.806
1224.34	119.463
1227.71	119.031
1231.09	119.84
1234.46	120.693
1237.84	120.532
1241.21	118.803
1244.59	119.087
1247.96	122.038
1251.34	120.718
1254.71	119.928
1258.09	120.079
1261.46	122.335
1264.84	120.343
1268.21	119.656
1271.59	118.446
1274.96	118.691
1278.34	121.258
1281.71	119.572
1285.09	119.208
1288.46	121.093
1291.84	119.77
1295.21	120.567
1298.59	118.705
1301.96	122.171
1305.33	122.188
