Measurement: Raman, 532 nm, unoriented, Raman Data Processed
Mineral: Cyrilovite
Rruff sample: R060504
Ideal chemistry: NaFe^3+^_3_(PO_4_)_2_(OH)_4_2H_2_O
Locality: Gunheath pit, St. Austell, Cornwall, England
Source: Michael Scott
Description: Group of yellowish-brown indistinct small crystals associated with leucophosphite, R060338, and green chalcosiderite, R060339
Raman shift (cm-1)	intensity
107.421	0
110.796	13.1538
114.171	4.8291
117.546	3.36816
120.921	36.8788
124.296	150.102
127.67	299.289
131.045	520.158
134.42	818.573
137.795	1216.65
141.17	1521.95
144.544	1530.6
147.919	1218.05
151.294	1017.71
154.669	988.554
158.044	1013.35
161.418	1010.41
164.793	939.648
168.168	933.365
171.543	922.527
174.918	710.829
178.293	435.999
181.667	259.993
185.042	193.43
188.417	180.973
191.792	190.993
195.167	158.917
198.542	105.845
201.916	80.2344
205.291	47.0999
208.666	45.348
212.041	75.9382
215.416	118.382
218.79	166.071
222.165	252.787
225.54	365.783
228.915	447.003
232.29	498.677
235.664	477.605
239.039	379.885
242.414	296.458
245.789	300.396
249.164	371.213
252.538	442.25
255.913	413.84
259.288	343.553
262.663	318.077
266.038	336.702
269.413	311.938
272.787	237.205
276.162	161.923
279.537	119.373
282.912	91.9796
286.287	61.2932
289.661	23.3517
293.036	1.16419
296.411	10.7492
299.786	19.0836
303.161	25.6466
306.536	24.4935
309.91	6.51502
313.285	28.8563
316.66	88.5952
320.035	157.958
323.41	237.064
326.784	307.973
330.159	347.537
333.534	356.214
336.909	346.607
340.284	341.688
343.659	352.29
347.033	365.952
350.408	356.338
353.783	315.245
357.158	258.761
360.533	209.572
363.908	171.237
367.282	148.997
370.657	135.561
374.032	129.046
377.407	107.967
380.782	80.6457
384.156	32.3092
387.531	4.55572
390.906	7.09265
394.281	12.4113
397.656	7.27631
401.031	35.2126
404.405	75.7164
407.78	118.338
411.155	170.774
414.53	221.247
417.905	279.032
421.279	334.734
424.654	368.358
428.029	361.204
431.404	296.717
434.779	218.109
438.154	166.177
441.528	133.377
444.903	126.26
448.278	144.368
451.653	185.958
455.028	255.421
458.402	317.504
461.777	322.998
465.152	255.463
468.527	172.07
471.902	102.577
475.276	72.5488
478.651	73.0239
482.026	85.2941
485.401	107.492
488.776	127.186
492.151	138.799
495.525	133.122
498.9	111.511
502.275	72.307
505.65	35.8001
509.025	9.71625
512.399	2.53259
515.774	1.43256
519.149	9.66479
522.524	28.4122
525.899	55.0629
529.274	87.2433
532.648	117.505
536.023	120.455
539.398	100.67
542.773	60.8536
546.148	22.4291
549.523	4.9165
552.897	16.4916
556.272	9.42877
559.647	15.9104
563.022	66.4122
566.396	138.921
569.771	237.484
573.146	354.244
576.521	491.585
579.896	638.034
583.271	758.813
586.645	782.035
590.02	670.829
593.395	511.65
596.77	377.882
600.145	288.405
603.519	235.389
606.894	203.036
610.269	179.208
613.644	155.973
617.019	141.78
620.394	128.022
623.768	111.568
627.143	95.4797
630.518	83.2806
633.893	70.6666
637.268	52.6697
640.643	38.4174
644.017	27.5749
647.392	21.3605
650.767	11.683
654.142	5.5622
657.517	2.63489
660.891	1.06409
664.266	2.19635
667.641	0.755493
671.016	1.52625
674.391	0.991699
677.765	1.55933
681.14	3.86102
684.515	6.16125
687.89	9.72211
691.265	15.5361
694.64	18.382
698.014	21.944
701.389	24.4721
704.764	28.5689
708.139	29.5561
711.514	30.3756
714.889	31.5325
718.263	29.9547
721.638	28.9365
725.013	26.0207
728.388	20.1199
731.763	20.4435
735.137	17.5183
738.512	16.3328
741.887	12.7783
745.262	10.7332
748.637	7.5221
752.011	4.51752
755.386	0.999023
758.761	0.373962
762.136	0.318665
765.511	2.90851
768.886	3.02106
772.26	1.76483
775.635	0.15387
779.01	2.36975
782.385	1.74585
785.76	3.80951
789.135	4.80322
792.509	7.06689
795.884	8.11664
799.259	14.3204
802.634	17.5479
806.009	18.3915
809.383	22.3433
812.758	22.589
816.133	27.4505
819.508	31.5017
822.883	33.0641
826.257	33.3475
829.632	32.8701
833.007	34.5967
836.382	30.8189
839.757	33.9025
843.132	33.8829
846.506	33.272
849.881	35.4811
853.256	35.2409
856.631	37.0267
860.006	38.4349
863.38	41.2499
866.755	47.1364
870.13	49.8577
873.505	49.7864
876.88	49.902
880.255	49.8522
883.629	46.6895
887.004	41.519
890.379	38.7291
893.754	36.4522
897.129	32.3834
900.504	29.2357
903.878	25.1116
907.253	22.7678
910.628	13.6414
914.003	8.30267
917.378	2.46252
920.752	2.88544
924.127	5.30347
927.502	4.96326
930.877	7.15723
934.252	6.79925
937.626	5.92072
941.001	30.527
944.376	71.7399
947.751	116.839
951.126	158.58
954.5	166.707
957.875	141.96
961.25	99.9929
964.625	65.6909
968	48.2939
971.375	45.964
974.75	27.2548
978.124	18.7042
981.499	8.74298
984.874	5.14874
988.249	12.4146
991.624	13.66
994.998	8.48535
998.373	6.43866
1001.75	7.01355
1005.12	18.9899
1008.5	38.7311
1011.87	65.2455
1015.25	100.572
1018.62	155.981
1022	239.557
1025.37	366.414
1028.75	507.438
1032.12	634.939
1035.5	681.151
1038.87	633.87
1042.25	552.155
1045.62	457.089
1048.99	369.155
1052.37	276.297
1055.74	208.363
1059.12	141.661
1062.49	86.45
1065.87	38.5527
1069.24	9.15027
1072.62	4.49072
1075.99	2.12817
1079.37	14.2957
1082.74	56.7455
1086.12	126.333
1089.49	236.125
1092.87	389.997
1096.24	566.621
1099.62	701.857
1102.99	754.308
1106.37	736.224
1109.74	624.431
1113.12	459.865
1116.49	320.621
1119.87	225.263
1123.24	177.622
1126.62	169.927
1129.99	190.875
1133.37	218.24
1136.74	223.262
1140.12	174.261
1143.49	118.955
1146.87	81.235
1150.24	49.2722
1153.62	23.2678
1156.99	5.23108
1160.36	4.15149
1163.74	8.4826
1167.11	6.11713
1170.49	2.85846
1173.86	2.2254
1177.24	4.41669
1180.61	14.4714
1183.99	14.1192
1187.36	17.2355
1190.74	20.4793
1194.11	25.3996
1197.49	29.0059
1200.86	30.0755
1204.24	34.1592
1207.61	33.7118
1210.99	37.9886
1214.36	40.7654
1217.74	41.6473
1221.11	42.8977
1224.49	38.8428
1227.86	37.6632
1231.24	29.1592
1234.61	28.8118
1237.98	26.4145
1241.36	24.8071
1244.73	23.999
1248.11	21.6714
1251.48	23.8901
1254.86	20.5492
1258.23	17.6836
1261.61	14.3881
1264.98	10.1668
1268.36	10.2302
1271.73	8.57825
1275.11	5.10712
1278.48	4.61078
1281.86	2.60217
1285.23	3.57306
1288.61	2.77307
1291.98	2.94751
1295.36	2.20093
1298.73	1.82404
