Measurement: Raman, 780 nm, unoriented, Raman Data Processed
Mineral: Cyrilovite
Rruff sample: R060504
Ideal chemistry: NaFe^3+^_3_(PO_4_)_2_(OH)_4_2H_2_O
Locality: Gunheath pit, St. Austell, Cornwall, England
Source: Michael Scott
Description: Group of yellowish-brown indistinct small crystals associated with leucophosphite, R060338, and green chalcosiderite, R060339
Raman shift (cm-1)	intensity
93.3677	0
96.7425	1.61072
100.117	21.6304
103.492	36.4533
106.867	80.5811
110.242	34.7288
113.617	15.9682
116.992	2.70697
120.366	8.11029
123.741	19.4717
127.116	54.2611
130.491	125.428
133.865	231.147
137.24	399.029
140.615	546.175
143.99	594.953
147.365	486.097
150.74	385.606
154.114	381.877
157.489	418.13
160.864	438.859
164.239	411.244
167.614	414.86
170.988	437.288
174.363	353.973
177.738	205.047
181.113	100.409
184.488	52.5921
187.863	55.1118
191.237	65.8569
194.612	55.1273
197.987	26.4181
201.362	13.199
204.737	5.64343
208.112	8.28223
211.486	21.447
214.861	38.4894
218.236	50.2748
221.611	78.7675
224.986	130.418
228.36	182.472
231.735	218.912
235.11	226.782
238.485	191.189
241.86	143.284
245.234	137.333
248.609	165.417
251.984	202.544
255.359	201.74
258.734	165.575
262.109	150.92
265.483	155.674
268.858	150.204
272.233	116.842
275.608	79.021
278.983	58.3231
282.358	48.7523
285.732	32.6268
289.107	17.2875
292.482	5.6626
295.857	0.691345
299.232	1.93863
302.606	5.90842
305.981	8.44662
309.356	5.81424
312.731	3.00653
316.106	24.431
319.481	43.7987
322.855	69.3831
326.23	97.2572
329.605	113.43
332.98	119.11
336.355	113.312
339.729	116.376
343.104	121.011
346.479	126.711
349.854	125.191
353.229	114.235
356.603	97.6111
359.978	80.1736
363.353	68.9318
366.728	59.3264
370.103	58.1376
373.478	57.3041
376.852	51.7707
380.227	38.7512
383.602	20.9117
386.977	6.84494
390.352	3.22452
393.726	3.39856
397.101	0.757233
400.476	6.28183
403.851	19.0616
407.226	36.7596
410.601	52.0138
413.975	67.3177
417.35	89.3891
420.725	111.609
424.1	132.565
427.475	134.213
430.849	114.889
434.224	88.7784
437.599	64.5793
440.974	46.9359
444.349	37.4408
447.724	33.4239
451.098	42.5719
454.473	62.6096
457.848	85.9578
461.223	99.5921
464.598	87.314
467.972	61.6207
471.347	36.0609
474.722	21.2239
478.097	19.3887
481.472	20.6608
484.846	26.0439
488.221	33.7089
491.596	38.2277
494.971	38.2618
498.346	35.7956
501.721	22.9071
505.095	12.462
508.47	2.64842
511.845	0.033264
515.22	0.384476
518.595	1.18608
521.97	6.0966
525.344	15.0625
528.719	24.4125
532.094	35.6125
535.469	39.0025
538.844	35.3769
542.218	23.9617
545.593	11.0403
548.968	3.12335
552.343	3.15814
555.718	5.5705
559.092	3.76688
562.467	13.273
565.842	36.5452
569.217	64.4471
572.592	95.5243
575.967	132.436
579.341	176.415
582.716	226.004
586.091	249.156
589.466	228.77
592.841	183.098
596.216	138.947
599.59	103.674
602.965	81.1549
606.34	67.9956
609.715	61.73
613.09	52.6705
616.464	45.2304
619.839	41.8408
623.214	37.4699
626.589	31.4569
629.964	27.5611
633.338	22.3238
636.713	18.3797
640.088	12.2736
643.463	8.36449
646.838	8.01738
650.213	4.50748
653.587	8.91025
656.962	4.27005
660.337	2.50917
663.712	0.414902
667.087	0.860611
670.462	0.238541
673.836	0.63472
677.211	0.214127
680.586	0.530121
683.961	1.01465
687.336	1.83563
690.71	2.834
694.085	3.54335
697.46	4.58875
700.835	7.33458
704.21	5.11539
707.585	7.03112
710.959	9.01482
714.334	7.21021
717.709	7.00075
721.084	6.90587
724.459	5.56179
727.833	5.14376
731.208	4.89797
734.583	2.50557
737.958	3.09647
741.333	3.28937
744.707	0.776123
748.082	0.655319
751.457	0.536499
754.832	0.979401
758.207	0.526459
761.582	0.468971
764.956	0.977081
768.331	0.059517
771.706	0.765938
775.081	0.498085
778.456	0.127663
781.83	0.349564
785.205	1.34347
788.58	3.43311
791.955	2.05003
795.33	2.53398
798.705	3.79377
802.079	6.62362
805.454	8.85089
808.829	6.91668
812.204	6.5302
815.579	7.85741
818.953	7.81192
822.328	10.3658
825.703	9.74625
829.078	9.01074
832.453	9.69723
835.827	10.8166
839.202	11.1659
842.577	11.5413
845.952	11.0194
849.327	13.9347
852.702	14.0894
856.076	12.1036
859.451	11.8945
862.826	14.6349
866.201	13.4192
869.576	14.6951
872.951	16.3276
876.325	16.7741
879.7	15.427
883.075	14.2654
886.45	13.425
889.825	12.1613
893.199	10.0367
896.574	9.86132
899.949	8.4444
903.324	6.99581
906.699	5.3969
910.073	4.26682
913.448	2.08678
916.823	0.735298
920.198	0.539474
923.573	1.59284
926.948	2.145
930.322	2.49944
933.697	1.77451
937.072	0.031219
940.447	4.77287
943.822	14.071
947.197	28.5209
950.571	45.3175
953.946	56.8315
957.321	56.3563
960.696	41.8732
964.071	31.7895
967.445	25.7398
970.82	23.5869
974.195	19.6304
977.57	17.965
980.945	14.9095
984.319	13.7607
987.694	15.2065
991.069	18.8474
994.444	21.1192
997.819	24.6533
1001.19	28.1566
1004.57	33.0886
1007.94	39.3574
1011.32	41.7199
1014.69	40.189
1018.07	43.0478
1021.44	57.7265
1024.82	81.5394
1028.19	122.211
1031.57	158.826
1034.94	180.417
1038.32	175.902
1041.69	154.203
1045.07	132.429
1048.44	106.631
1051.82	85.4305
1055.19	64.5494
1058.57	47.2888
1061.94	29.8596
1065.32	15.4931
1068.69	4.49461
1072.07	1.42636
1075.44	3.69038
1078.81	1.27696
1082.19	4.32582
1085.56	15.8776
1088.94	37.5302
1092.31	70.2008
1095.69	113.388
1099.06	151.486
1102.44	175.848
1105.81	185.539
1109.19	162.714
1112.56	121.361
1115.94	82.0248
1119.31	55.8848
1122.69	41.9717
1126.06	37.4789
1129.44	41.0267
1132.81	51.2423
1136.19	54.813
1139.56	43.5471
1142.94	29.8024
1146.31	20.6761
1149.69	13.9897
1153.06	7.43221
1156.43	1.63004
1159.81	0.825661
1163.18	2.10386
1166.56	1.4604
1169.93	0.058357
1173.31	1.64108
1176.68	2.83275
1180.06	2.95255
1183.43	3.62696
1186.81	5.13619
1190.18	6.63129
1193.56	6.36847
1196.93	6.72893
1200.31	7.48661
1203.68	8.58646
1207.06	9.35019
1210.43	9.85517
1213.81	9.67616
1217.18	9.14024
1220.56	9.56618
1223.93	7.04683
1227.31	6.55301
1230.68	6.58558
1234.06	5.92197
1237.43	4.57758
1240.81	5.08521
1244.18	5.03667
1247.56	5.43529
1250.93	3.12723
1254.31	2.9958
1257.68	2.33213
1261.05	1.76576
1264.43	0.318909
1267.8	0.88002
1271.18	1.2632
1274.55	1.23656
1277.93	0.391487
1281.3	0.255745
