Measurement: Raman, 780 nm, unoriented, Raman Data Processed
Mineral: Davyne
Rruff sample: R140771
Ideal chemistry: (Na,K)_6_Ca_2_(Si_6_Al_6_)O_24_Cl_3_(S^6+^O_4_)_0.5_
Locality: Monte Somma, Somma-Vesuvius Complex, Naples Province, Campania, Italy
Source: Ch. and H. Sch√§fer
Description: Colorless, associated with calcite
Raman shift (cm-1)	intensity
222.214	0
225.106	1.31894
227.999	0.463959
230.892	0.412628
233.784	0.577301
236.677	1.37207
239.57	3.84576
242.462	3.99905
245.355	4.78918
248.248	4.43094
251.14	2.76712
254.033	0.091705
256.926	1.66547
259.818	1.37479
262.711	1.47199
265.604	2.88852
268.497	5.97232
271.389	9.3024
274.282	12.5008
277.175	18.8022
280.067	24.4562
282.96	30.2652
285.853	38.603
288.745	41.0916
291.638	32.2965
294.531	18.5039
297.424	12.0873
300.316	7.86259
303.209	4.39723
306.102	2.59992
308.994	2.12386
311.887	0.687195
314.78	1.13768
317.673	1.20756
320.565	0.327866
323.458	3.79465
326.351	0.438919
329.243	1.67242
332.136	0.033356
335.029	0.654297
337.921	1.71767
340.814	1.25282
343.707	0.545807
346.599	0.219406
349.492	0.083252
352.385	0.383972
355.278	0.069458
358.17	0.44397
361.063	1.77223
363.956	0.512726
366.848	1.12207
369.741	2.29896
372.634	2.00999
375.526	1.13126
378.419	0.662933
381.312	2.03613
384.205	3.75784
387.097	5.21387
389.99	4.98563
392.883	2.40552
395.775	2.34973
398.668	0.398987
401.561	1.39542
404.453	2.16715
407.346	1.71857
410.239	3.71576
413.132	7.84024
416.024	14.0524
418.917	19.558
421.81	27.2806
424.702	33.1075
427.595	33.9248
430.488	36.703
433.38	38.3346
436.273	46.3283
439.166	49.6401
442.058	55.7179
444.951	64.6363
447.844	81.4675
450.737	105.284
453.629	128.891
456.522	132.461
459.415	128.028
462.307	110.666
465.2	89.1771
468.093	66.4585
470.986	50.7918
473.878	41.7049
476.771	31.9327
479.664	28.5368
482.556	22.5095
485.449	18.5231
488.342	13.4117
491.234	10.4823
494.127	8.43005
497.02	6.18307
499.913	2.59424
502.805	3.29144
505.698	1.65988
508.591	0.483185
511.483	0.758698
514.376	0.237885
517.269	0.571198
520.161	0.252258
523.054	0.362549
525.947	0.819672
528.84	0.773071
531.732	0.359497
534.625	0.089203
537.518	0.987244
540.41	2.12058
543.303	1.25479
546.196	0.259583
549.088	0.566986
551.981	0.921173
554.874	1.97125
557.766	0.916199
560.659	2.0766
563.552	2.11432
566.444	1.37781
569.337	2.62393
572.23	2.94397
575.123	1.7619
578.015	2.18613
580.908	1.58163
583.801	2.87149
586.693	2.30685
589.586	1.06207
592.479	1.79416
595.371	1.69507
598.264	3.87708
601.157	5.31879
604.05	5.70746
606.942	6.85522
609.835	10.0807
612.728	14.7197
615.62	18.4008
618.513	23.9773
621.406	31.146
624.298	34.0906
627.191	32.6187
630.084	26.9118
632.977	16.8589
635.869	10.6508
638.762	6.43582
641.655	6.9187
644.547	5.67783
647.44	5.36295
650.333	7.85095
653.226	10.3198
656.118	13.4191
659.011	18.5434
661.904	17.9534
664.796	11.3292
667.689	9.24069
670.582	7.14914
673.474	6.54324
676.367	5.76834
679.26	3.69632
682.153	4.09363
685.045	1.95047
687.938	1.7951
690.831	1.33795
693.723	1.254
696.616	0.778351
699.509	0.025848
702.401	0.385956
705.294	0.472412
708.187	1.01196
711.079	0.901703
713.972	3.08933
716.865	2.13415
719.758	1.72223
722.65	0.49826
725.543	0.492371
728.436	0.579559
731.328	0.11145
734.221	1.14084
737.114	0.225128
740.006	0.238617
742.899	1.20642
745.792	0.322968
748.684	1.73093
751.577	1.58011
754.47	3.56088
757.363	4.05075
760.255	7.08261
763.148	11.4311
766.041	18.523
768.933	27.1452
771.826	34.5515
774.719	31.0897
777.611	20.9331
780.504	13.4763
783.397	7.18402
786.29	4.37302
789.182	2.7926
792.075	2.19138
794.968	1.95621
797.86	1.85599
800.753	0.22464
803.646	1.78546
806.538	2.04904
809.431	2.97046
812.324	2.36533
815.217	0.967773
818.109	0.825562
821.002	3.4303
823.895	3.69052
826.787	1.45816
829.68	1.90411
832.573	3.64038
835.466	2.3205
838.358	2.78259
841.251	2.27386
844.144	4.22852
847.036	2.85706
849.929	3.63516
852.822	4.75864
855.714	2.69928
858.607	2.98871
861.5	4.0715
864.393	3.26083
867.285	2.64535
870.178	1.89227
873.071	4.0723
875.963	3.25607
878.856	3.78348
881.749	2.36115
884.641	3.42062
887.534	9.34158
890.427	2.55444
893.319	2.11905
896.212	0.610657
899.105	2.60425
901.997	0.997375
904.89	3.33191
907.783	2.09824
910.676	2.14276
913.568	1.62064
916.461	0.263672
919.354	0.470398
922.246	0.136505
925.139	0.709808
928.032	1.02097
930.924	0.975098
933.817	1.01187
936.71	1.41769
939.603	0.00415
942.495	0.184601
945.388	1.26242
948.281	1.41348
951.173	0.881653
954.066	1.99875
956.959	2.39401
959.851	4.58554
962.744	5.2222
965.637	8.62439
968.529	12.4987
971.422	19.8509
974.315	30.1787
977.208	50.7353
980.1	83.0368
982.993	135.345
985.886	217.993
988.778	296.158
991.671	248.155
994.564	118.009
997.457	48.4728
1000.35	24.5725
1003.24	16.3963
1006.13	12.3108
1009.03	12.4052
1011.92	13.2988
1014.81	17.485
1017.71	20.4833
1020.6	29.2253
1023.49	26.2429
1026.38	26.148
1029.28	22.9473
1032.17	17.4696
1035.06	14.0321
1037.95	12.0482
1040.85	9.88202
1043.74	10.088
1046.63	11.2114
1049.53	9.19409
1052.42	10.9436
1055.31	10.7135
1058.2	12.0397
1061.1	8.8971
1063.99	7.09253
1066.88	6.09225
1069.77	2.9711
1072.67	2.01663
1075.56	0.451416
1078.45	0.123657
1081.35	1.20425
1084.24	6.9596
1087.13	17.7735
1090.02	13.6704
1092.92	4.4921
1095.81	2.08527
1098.7	0.842712
1101.59	2.31882
1104.49	3.01196
1107.38	5.01642
1110.27	3.70355
1113.16	1.91043
1116.06	0.608002
1118.95	0.282928
1121.84	0.251068
1124.73	0.565826
1127.63	0.148468
1130.52	1.8674
1133.41	2.59357
1136.31	4.6633
1139.2	4.2301
1142.09	3.46191
1144.98	4.79639
1147.88	5.10059
1150.77	4.81222
1153.66	5.24667
1156.56	4.06064
1159.45	2.68216
1162.34	3.38776
1165.23	5.91815
1168.13	4.29797
1171.02	4.89215
1173.91	3.97745
1176.8	5.58618
1179.7	4.33472
1182.59	3.97833
1185.48	2.36377
1188.38	3.60593
1191.27	4.72333
1194.16	6.31552
1197.05	6.82764
1199.94	5.4772
1202.84	6.25281
1205.73	6.57666
1208.62	5.31979
1211.52	4.26254
1214.41	4.64981
1217.3	3.84253
1220.19	2.23462
1223.09	3.80481
1225.98	2.98367
1228.87	1.43909
1231.77	1.8352
1234.66	1.84027
1237.55	2.31195
1240.44	0.247345
1243.34	0.310638
1246.23	1.17127
1249.12	1.36807
1252.01	1.88562
1254.91	2.31155
1257.8	1.76022
1260.69	3.46664
1263.59	3.44879
1266.48	2.47845
1269.37	2.87949
1272.26	0.317413
1275.16	0.24231
1278.05	1.71497
1280.94	0.913391
1283.83	0.841248
