Measurement: Raman, 780 nm, unoriented, Raman Data RAW
Mineral: Diadochite
Rruff sample: R120021
Ideal chemistry: Fe^3+^_2_(PO_4_)(S^6+^O_4_)(OH)6H_2_O
Locality: Vysočany, Prague, Czech Republic
Source: Dr. Jürgen Wachsmuth
Description: Pale yellow to colorless pulverant aggregate
Raman shift (cm-1)	intensity
91.1214	0
94.4962	1335.52
97.871	1384.03
101.246	1249.48
104.621	1111.2
107.996	1064.28
111.37	1050.67
114.745	1012.95
118.12	988.579
121.495	1007.54
124.87	1019.03
128.244	1025.32
131.619	1020.89
134.994	1061.96
138.369	1170.01
141.744	1199.88
145.119	1141.03
148.493	1099.99
151.868	1068.26
155.243	1013.65
158.618	951.521
161.993	898.034
165.367	858.118
168.742	835.239
172.117	832.779
175.492	839.707
178.867	846.205
182.242	832.661
185.616	831.531
188.991	838.108
192.366	853.031
195.741	900.78
199.115	965.779
202.49	1036.08
205.865	1056.72
209.24	983.795
212.615	915.133
215.99	861.03
219.364	821.429
222.739	822.543
226.114	841.322
229.489	850.345
232.864	859.392
236.238	869.795
239.613	883.775
242.988	885.514
246.363	887.903
249.738	883.422
253.113	876.58
256.487	868.322
259.862	860.605
263.237	862.202
266.612	877.13
269.987	896.55
273.361	913.989
276.736	936.069
280.111	963.593
283.486	994.854
286.861	1018.77
290.236	1031.97
293.61	1044.63
296.985	1069.01
300.36	1081.73
303.735	1033.57
307.11	942.385
310.485	845.322
313.859	779.741
317.234	741.228
320.609	710.507
323.984	694.627
327.359	679.463
330.733	681.26
334.108	674.079
337.483	675.091
340.858	675.915
344.233	680.009
347.608	689.163
350.982	699.997
354.357	713.29
357.732	730.756
361.107	751.236
364.482	758.306
367.856	765.541
371.231	755.282
374.606	735.848
377.981	722.646
381.356	703.957
384.731	690.218
388.105	681.978
391.48	680.158
394.855	683.865
398.23	683.193
401.605	693.166
404.979	704.504
408.354	707.07
411.729	707.639
415.104	710.194
418.479	714.987
421.853	715.76
425.228	718.831
428.603	726.514
431.978	727.768
435.353	722.607
438.728	717.028
442.102	720.134
445.477	726.985
448.852	750.335
452.227	776.369
455.602	816.295
458.976	863.361
462.351	904.313
465.726	919.47
469.101	901.346
472.476	851.844
475.851	797.055
479.225	739.585
482.6	696.045
485.975	660.147
489.35	632.599
492.725	619.389
496.099	603.682
499.474	595.362
502.849	589.532
506.224	587.067
509.599	580.917
512.973	583.796
516.348	580.877
519.723	578.556
523.098	577.446
526.473	585.296
529.848	588.631
533.222	598.27
536.597	616.468
539.972	628.086
543.347	644.558
546.722	663.188
550.096	676.77
553.471	684.62
556.846	684.045
560.221	666.661
563.596	632.991
566.971	604.846
570.345	581.052
573.72	568.349
577.095	561.841
580.47	558.028
583.845	554.762
587.22	554.687
590.594	555.743
593.969	560.001
597.344	567.538
600.719	579.75
604.094	599.123
607.468	610.982
610.843	614.312
614.218	605.085
617.593	601.298
620.968	599.251
624.342	599.637
627.717	594.672
631.092	587.649
634.467	570.967
637.842	555.003
641.217	548.266
644.591	538.407
647.966	530.281
651.341	526.52
654.716	520.451
658.091	515.877
661.466	515.573
664.84	510.142
668.215	510.749
671.59	509.303
674.965	510.936
678.34	509.908
681.714	504.973
685.089	507.171
688.464	505.972
691.839	502.44
695.214	504.015
698.588	505.952
701.963	502.632
705.338	505.646
708.713	505.828
712.088	505.429
715.462	505.827
718.837	504.574
722.212	504.485
725.587	502.279
728.962	508.391
732.337	507.125
735.711	507.334
739.086	504.47
742.461	508.611
745.836	504.899
749.211	507.195
752.586	505.918
755.96	503.21
759.335	499.74
762.71	503.231
766.085	502.694
769.46	501.264
772.834	501.458
776.209	500.741
779.584	503.763
782.959	501.174
786.334	498.65
789.708	502.058
793.083	500.338
796.458	501.331
799.833	504.819
803.208	501.017
806.583	502.793
809.957	503.459
813.332	505.445
816.707	502.477
820.082	504.373
823.457	505.634
826.832	504.944
830.206	504.656
833.581	504.195
836.956	507.043
840.331	506.586
843.706	507.785
847.08	509.824
850.455	507.644
853.83	504.019
857.205	510.045
860.58	504.526
863.955	507.705
867.329	510.131
870.704	504.246
874.079	509.148
877.454	507.174
880.829	505.406
884.203	507.883
887.578	510.608
890.953	507.113
894.328	507.929
897.703	510.276
901.077	510.378
904.452	513.104
907.827	514.085
911.202	511.853
914.577	513.988
917.952	517.589
921.326	516.365
924.701	517.79
928.076	519.707
931.451	526.547
934.826	530.507
938.2	539.18
941.575	539.912
944.95	551.501
948.325	567.073
951.7	583.552
955.074	623.734
958.449	677.991
961.824	781.568
965.199	933.128
968.574	1095.38
971.949	1071.78
975.323	910.285
978.698	824.449
982.073	840.948
985.448	943.823
988.823	1007.74
992.197	860.816
995.572	716.685
998.947	654.518
1002.32	627.143
1005.7	609.247
1009.07	617.446
1012.45	629.085
1015.82	637.643
1019.2	666.868
1022.57	691.849
1025.95	718.727
1029.32	739.389
1032.69	770.352
1036.07	832.393
1039.44	924.865
1042.82	1070.59
1046.19	1184.75
1049.57	1255.05
1052.94	1284.77
1056.32	1207.03
1059.69	1013.13
1063.07	827.319
1066.44	723.393
1069.82	678.851
1073.19	660.85
1076.57	657.396
1079.94	654.543
1083.32	635.465
1086.69	615.052
1090.07	595.644
1093.44	575.061
1096.82	565.301
1100.19	561.923
1103.57	555.507
1106.94	551.284
1110.32	554.306
1113.69	554.592
1117.07	554.726
1120.44	557.428
1123.82	556.813
1127.19	550.484
1130.57	543.384
1133.94	546.665
1137.32	539.422
1140.69	537.339
1144.06	539.352
1147.44	543.482
1150.81	542.551
1154.19	537.892
1157.56	539.183
1160.94	544.646
1164.31	545.264
1167.69	550.546
1171.06	557.164
1174.44	566.366
1177.81	579.787
1181.19	592.051
1184.56	591.413
1187.94	589.58
1191.31	578.546
1194.69	571.555
1198.06	560.341
1201.44	554.52
1204.81	553.46
1208.19	546.317
1211.56	550.256
1214.93	549.406
1218.31	546.56
1221.68	552.019
1225.06	545.522
1228.43	551.003
1231.81	550.721
1235.18	548.931
1238.56	551.213
1241.93	552.743
1245.31	553.702
1248.68	556.535
1252.06	553.904
1255.43	555.348
1258.81	562.548
1262.18	563.284
1265.56	568.679
1268.93	567.826
1272.31	566.473
1275.68	570.495
1279.06	567.826
1282.43	571.842
