Measurement: Raman, 532 nm, unoriented, Raman Data RAW
Mineral: Diamond
Rruff sample: X070001
Ideal chemistry: C
Locality: Synthetic, DeBeers Element6
Source: Eric Van Valkenburg
Description: DeBeers Element6 type IIA, colorless cut stone
Raman shift (cm-1)	intensity
149.7	128.065
154.039	138.529
158.378	136.149
162.717	141.059
167.056	146.952
171.395	151.552
175.734	152.001
180.073	154.997
184.412	161.427
188.751	162.478
193.09	172.686
197.429	169.224
201.768	157.165
206.107	168.011
210.446	184.569
214.785	181.837
219.124	178.193
223.463	180.37
227.802	180.678
232.142	190.249
236.481	185.366
240.82	185.302
245.159	189.488
249.498	192.697
253.837	187.938
258.176	195.747
262.515	192.548
266.854	193.549
271.193	207.007
275.532	201.89
279.871	207.171
284.21	198.994
288.549	203.019
292.888	206.929
297.227	210.377
301.566	206.343
305.905	202.427
310.244	221.809
314.583	207.198
318.923	216.89
323.262	216.82
327.601	217.261
331.94	210.787
336.279	227.776
340.618	222.78
344.957	229.967
349.296	226.576
353.635	235.284
357.974	227.999
362.313	233.459
366.652	234.393
370.991	248.112
375.33	248.351
379.669	230.162
384.008	233.682
388.347	236.441
392.686	242.119
397.025	235.525
401.364	248.669
405.704	246.669
410.043	245.821
414.382	243.901
418.721	254.952
423.06	250.35
427.399	263.497
431.738	255.451
436.077	267.25
440.416	257.785
444.755	267.773
449.094	265.743
453.433	280.674
457.772	265.108
462.111	272.247
466.45	279.008
470.789	268.502
475.128	275.182
479.467	278.115
483.806	278.83
488.145	274.823
492.484	276.356
496.824	292.077
501.163	287.7
505.502	290.075
509.841	286.721
514.18	303.687
518.519	302.093
522.858	298.435
527.197	314.091
531.536	294.423
535.875	312.52
540.214	299.08
544.553	306.301
548.892	309.861
553.231	319.356
557.57	305.151
561.909	320.515
566.248	319.749
570.587	328.685
574.926	317.719
579.265	317.929
583.605	332.249
587.943	321.075
592.283	333.513
596.622	334.343
600.961	339.214
605.3	332.969
609.639	348.389
613.978	350.927
618.317	350.243
622.656	360.961
626.995	348.581
631.334	367.541
635.673	365.752
640.012	365.252
644.351	355.29
648.69	374.32
653.029	370.342
657.368	370.547
661.707	374.915
666.046	381.237
670.385	378.018
674.725	388.072
679.064	383.484
683.403	387.76
687.742	398.93
692.081	395.221
696.42	397.039
700.759	401.149
705.098	404.531
709.437	414.96
713.776	410.508
718.115	410.014
722.454	416.457
726.793	421.645
731.132	427.761
735.471	416.825
739.81	432.502
744.149	436.542
748.488	431.301
752.827	436.319
757.167	441.839
761.506	438.101
765.845	457.865
770.184	457.032
774.523	456.23
778.862	464.346
783.201	458.5
787.54	477.66
791.879	472.84
796.218	489.99
800.557	481.182
804.896	493.743
809.235	489.642
813.574	489.162
817.913	502.569
822.252	500.64
826.591	509.205
830.93	510.869
835.269	525.292
839.609	523.49
843.947	529.527
848.287	534.529
852.626	540.904
856.965	528.458
861.304	543.492
865.643	550.104
869.982	560.976
874.321	560.558
878.66	563.475
882.999	561.024
887.338	570.539
891.677	574.243
896.016	578.59
900.355	581.233
904.694	580.564
909.033	589.484
913.372	601.062
917.711	601.639
922.05	607.036
926.389	606.006
930.729	611.387
935.067	631.771
939.407	637.803
943.746	641.256
948.085	642.581
952.424	642.602
956.763	650.715
961.102	641.101
965.441	665.476
969.78	665.485
974.119	662.158
978.458	674.787
982.797	680.543
987.136	684.369
991.475	697.234
995.814	692.176
1000.15	710.888
1004.49	708.762
1008.83	720.805
1013.17	736.152
1017.51	750.19
1021.85	752
1026.19	768.976
1030.53	757.107
1034.87	775.592
1039.2	785.22
1043.54	788.331
1047.88	797.586
1052.22	801.137
1056.56	819.194
1060.9	820.893
1065.24	833.08
1069.58	839.556
1073.92	841.165
1078.26	850.772
1082.6	864.75
1086.93	858.303
1091.27	869.305
1095.61	873.962
1099.95	879.913
1104.29	898.009
1108.63	885.219
1112.97	913.687
1117.31	919.198
1121.65	904.554
1125.99	918.586
1130.33	932.717
1134.66	933.955
1139	929.75
1143.34	946.229
1147.68	964.765
1152.02	980.233
1156.36	983.774
1160.7	990.767
1165.04	994.002
1169.38	1004.36
1173.71	995.995
1178.05	1015.34
1182.39	1016.51
1186.73	1051.09
1191.07	1049.67
1195.41	1075.56
1199.75	1078.3
1204.09	1084.35
1208.43	1100.64
1212.77	1116.67
1217.11	1134.86
1221.44	1139.38
1225.78	1173.27
1230.12	1181.5
1234.46	1207.48
1238.8	1218.19
1243.14	1231.43
1247.48	1300.84
1251.82	1284.09
1256.16	1321.03
1260.5	1344.06
1264.84	1344.49
1269.17	1416.46
1273.51	1449.09
1277.85	1489.96
1282.19	1507
1286.53	1542.84
1290.87	1599.03
1295.21	1652.54
1299.55	1699
1303.89	1764.67
1308.23	1833.54
1312.57	1966.82
1316.9	2182.5
1321.24	3383.28
1325.58	10611.4
1329.92	28683.6
1334.26	23658
1338.6	3617.37
1342.94	2626.92
1347.28	2423.9
1351.62	2397.75
1355.95	2401.01
1360.29	2460.17
1364.63	2527.3
1368.97	2603.87
1373.31	2748.3
1377.65	2844.65
1381.99	2964.03
1386.33	3096.03
1390.67	3266.18
1395.01	3368.44
1399.35	3501.86
1403.68	3607.47
1408.02	3746.16
1412.36	3809.41
1416.7	3869.61
1421.04	3872.2
1425.38	3898.06
1429.72	3893.64
1434.06	3857.62
1438.4	3777.03
1442.74	3731.25
1447.08	3623.23
1451.41	3514.96
1455.75	3416.74
1460.09	3348.01
1464.43	3223.07
1468.77	3201.07
1473.11	3111.83
1477.45	2964.72
1481.79	2877.07
1486.13	2844.68
1490.47	2803.31
1494.81	2756.85
1499.14	2664.55
1503.48	2606.08
1507.82	2627.9
1512.16	2547.88
1516.5	2554.67
1520.84	2519.51
1525.18	2489.91
1529.52	2485.16
1533.86	2440.89
1538.19	2438.68
1542.54	2395.39
1546.87	2417.97
1551.21	2401.09
1555.55	2374.15
1559.89	2366.58
1564.23	2371.4
1568.57	2339.92
1572.91	2371.68
1577.25	2348.9
1581.59	2336.35
1585.92	2352.48
1590.26	2358.82
1594.6	2359.94
1598.94	2358.61
1603.28	2366.5
1607.62	2371.44
1611.96	2357.95
1616.3	2394.39
1620.64	2397.84
1624.98	2415.07
1629.32	2454.74
1633.65	2506.6
1637.99	2495.36
1642.33	2496.25
1646.67	2538.47
1651.01	2558.31
1655.35	2582.97
1659.69	2588.35
1664.03	2588.52
1668.37	2614.23
1672.71	2682.73
1677.05	2697
1681.38	2719.61
1685.72	2718.92
1690.06	2754.03
1694.4	2804.26
1698.74	2833.81
