Measurement: Raman, 532 nm, unoriented, Raman Data RAW
Mineral: Diamond
Rruff sample: R150089
Ideal chemistry: C
Locality: unknown
Source: Michael Scott
Description: Faceted pale-yellow
Raman shift (cm-1)	intensity
98.3997	0
109.971	169.045
121.541	263.744
133.112	322.973
144.683	371.289
156.254	390.679
167.825	412.112
179.395	428.897
190.966	435.972
202.537	447.55
214.108	455.956
225.679	467.332
237.249	479.186
248.82	488.639
260.391	503.819
271.962	524.82
283.533	537.834
295.103	553.847
306.674	577.718
318.245	585.186
329.816	608.942
341.387	625.217
352.957	650.914
364.528	659.62
376.099	671.475
387.67	689.468
399.24	703.742
410.811	706.109
422.382	717.019
433.953	722.669
445.524	739.82
457.094	752.592
468.665	767.265
480.236	780.593
491.807	802.243
503.378	811.198
514.948	827.202
526.519	854.623
538.09	878.703
549.661	914.041
561.232	946.086
572.803	976.108
584.373	1010.41
595.944	1032.75
607.515	1048.46
619.086	1047.62
630.657	1062.46
642.227	1073.06
653.798	1094.2
665.369	1111.81
676.94	1139.2
688.51	1162.59
700.081	1173.35
711.652	1194.55
723.223	1218.46
734.794	1253.32
746.365	1276.96
757.935	1307.5
769.506	1321.34
781.077	1336.26
792.648	1361.93
804.218	1372.33
815.789	1385.62
827.36	1400.24
838.931	1400.32
850.502	1395.6
862.072	1414.1
873.643	1431.35
885.214	1436.68
896.785	1452.54
908.356	1468.92
919.927	1487.63
931.497	1501.45
943.068	1526
954.639	1559.8
966.21	1574.22
977.78	1589.89
989.351	1608.47
1000.92	1624.03
1012.49	1650.8
1024.06	1671.58
1035.63	1687.54
1047.2	1717.14
1058.78	1731.7
1070.35	1762.97
1081.92	1790.47
1093.49	1810.75
1105.06	1826.66
1116.63	1855.82
1128.2	1885.41
1139.77	1905.21
1151.34	1939.54
1162.91	1962.94
1174.48	1990.98
1186.06	2023.46
1197.63	2043.31
1209.2	2082.72
1220.77	2114.36
1232.34	2135.65
1243.91	2181.59
1255.48	2203.23
1267.05	2241.82
1278.62	2297.57
1290.19	2427.46
1301.76	3492.3
1313.33	3689.58
1324.9	6625.38
1336.47	24073.9
1348.05	6944.93
1359.62	3096.55
1371.19	2520.01
1382.76	2448.97
1394.33	2460.21
1405.9	2459.32
1417.47	2457.72
1429.04	2479.61
1440.61	2483.28
1452.18	2518.61
1463.75	2531.51
1475.33	2565.53
1486.9	2589.99
1498.47	2607.32
1510.04	2637.83
1521.61	2665.38
1533.18	2687.2
1544.75	2711.49
1556.32	2746.35
1567.89	2762.3
1579.46	2778.01
1591.03	2804.27
1602.6	2830.72
1614.17	2846.4
1625.74	2885.54
1637.32	2907.02
1648.89	2923.68
1660.46	2962.72
1672.03	2978.64
1683.6	3022.35
1695.17	3055.59
1706.74	3069.64
1718.31	3086.53
1729.88	3122.53
1741.45	3128.27
1753.02	3151.27
1764.6	3188.09
1776.17	3209.51
1787.74	3230.85
1799.31	3247.59
1810.88	3255.01
1822.45	3295.91
1834.02	3319.38
1845.59	3328.87
1857.16	3328.01
1868.73	3366.19
1880.3	3390.12
1891.87	3398.17
1903.44	3409.64
1915.02	3414.02
1926.59	3432.89
1938.16	3450.19
1949.73	3451.44
1961.3	3474.71
1972.87	3493.6
1984.44	3493.81
1996.01	3528.3
2007.58	3558.81
2019.15	3591.88
2030.72	3596.11
2042.29	3611.45
2053.86	3640.85
2065.44	3648.86
2077.01	3660.26
2088.58	3651.72
2100.15	3680.37
2111.72	3670.36
2123.29	3665.95
2134.86	3693.91
2146.43	3705.35
2158	3723.06
2169.57	3727.35
2181.14	3747.53
2192.72	3777.05
2204.28	3772.92
2215.86	3789.7
2227.43	3822.48
2239	3840.33
2250.57	3860.23
2262.14	3873.73
2273.71	3899.43
2285.28	3924.31
2296.85	3940.72
2308.42	3965.65
2319.99	3983.55
2331.56	4005.16
2343.14	4002.93
2354.71	4013.78
2366.28	4028.5
2377.85	4032.99
2389.42	4068.07
2400.99	4100.63
2412.56	4139.56
2424.13	4168.99
2435.7	4226.74
2447.27	4249.6
2458.84	4281.45
2470.41	4287.76
2481.99	4268.5
2493.55	4255.84
2505.13	4248.99
2516.7	4220.85
2528.27	4184.51
2539.84	4168.96
2551.41	4167.67
2562.98	4161.9
2574.55	4156.31
2586.12	4177.88
2597.69	4185.29
2609.26	4177.52
2620.83	4195.09
2632.41	4187.23
2643.98	4199.71
2655.55	4199.05
2667.12	4224.53
2678.69	4170.95
2690.26	4124.41
2701.83	4123.93
2713.4	4122.6
2724.97	4124.92
2736.54	4141.23
2748.11	4154.9
2759.68	4147.31
2771.26	4165.73
2782.82	4175.53
2794.4	4168.58
2805.97	4168.29
2817.54	4171.21
2829.11	4176.64
2840.68	4166.88
2852.25	4163.81
2863.82	4179.07
2875.39	4194.65
2886.96	4184
2898.53	4194.57
2910.1	4198.37
2921.68	4203.35
2933.25	4198.79
2944.82	4206.98
2956.39	4218.85
2967.96	4217.7
2979.53	4219.61
2991.1	4222.05
3002.67	4230.47
3014.24	4243.33
3025.81	4230.16
3037.38	4235.17
3048.95	4211.37
3060.53	4234.9
3072.09	4227.23
3083.67	4220.18
3095.24	4232.44
3106.81	4254.94
3118.38	4233.76
3129.95	4252.18
3141.52	4273.59
3153.09	4255.89
3164.66	4266.17
3176.23	4291.89
3187.8	4299.07
3199.37	4316.34
3210.95	4287.99
3222.52	4322.32
3234.09	4317.84
3245.66	4322.8
3257.23	4322.54
3268.8	4318.71
3280.37	4323.4
3291.94	4330.47
3303.51	4344.86
3315.08	4347.1
3326.65	4345.68
3338.22	4352.51
3349.8	4353.9
3361.36	4331.31
3372.94	4349.83
3384.51	4328.05
3396.08	4338.82
3407.65	4348.46
3419.22	4360.99
3430.79	4373.89
3442.36	4374.06
3453.93	4376.17
3465.5	4390.15
3477.07	4386.75
3488.64	4429.18
3500.22	4430.7
3511.79	4477.18
3523.36	4524.55
3534.93	4600.26
3546.5	4654.19
3558.07	4705.98
3569.64	4761.7
3581.21	4787.29
3592.78	4776.86
3604.35	4734.8
3615.92	4680.25
3627.49	4629.76
3639.07	4639.01
3650.64	4583.37
3662.21	4566.94
3673.78	4562.35
3685.35	4551.97
3696.92	4551.72
3708.49	4554.03
3720.06	4561.62
3731.63	4567.14
3743.2	4582.23
3754.77	4580
3766.34	4598.91
3777.91	4617.97
3789.49	4642.05
3801.06	4661.8
3812.63	4674.4
3824.2	4714.82
3835.77	4730.61
3847.34	4756.16
3858.91	4780.75
3870.48	4804.69
3882.05	4837.02
3893.62	4856.62
3905.19	4851.71
3916.76	4848.96
3928.34	4853.49
3939.91	4824.98
3951.48	4830.77
3963.05	4842.02
3974.62	4835.81
3986.19	4833.39
3997.76	4833.82
4009.33	4846.9
4020.9	4840.53
4032.47	4841.69
4044.04	4841.47
4055.61	4853.64
4067.18	4860.47
4078.76	4867.15
4090.33	4854.73
4101.9	4878.16
4113.47	4875.35
4125.04	4870.82
4136.61	4891.76
4148.18	4917.96
4159.75	4922.04
4171.32	4947.44
4182.89	4949.02
4194.46	4980.6
4206.03	4956.07
4217.6	4987.98
4229.18	4982.33
4240.75	4994.88
