Measurement: Raman, 785 nm, unoriented, Raman Data RAW
Mineral: Diamond
Rruff sample: X070001
Ideal chemistry: C
Locality: Synthetic, DeBeers Element6
Source: Eric Van Valkenburg
Description: DeBeers Element6 type IIA, colorless cut stone
Raman shift (cm-1)	intensity
183.985	29.8962
187.842	25.503
191.698	31.4101
195.555	26.8044
199.412	24.7487
203.269	25.5369
207.126	26.258
210.983	26.6186
214.84	28.4064
218.697	20.7265
222.554	23.1133
226.411	19.3894
230.268	17.8569
234.125	21.3722
237.982	13.7433
241.839	21.0598
245.696	20.6956
249.553	18.8074
253.409	18.842
257.266	18.9798
261.123	18.1647
264.98	18.8245
268.837	17.6749
272.694	17.9071
276.551	15.0596
280.408	21.2548
284.265	18.4675
288.122	20.537
291.979	22.1126
295.836	22.7065
299.693	19.9087
303.55	18.7028
307.406	17.4781
311.263	20.651
315.12	15.767
318.977	21.3847
322.834	18.4388
326.691	18.051
330.548	22.289
334.405	18.3253
338.262	22.7348
342.119	20.5028
345.976	18.8706
349.833	19.6989
353.69	17.5181
357.547	20.4842
361.404	20.1194
365.26	16.9848
369.118	24.6139
372.974	20.1197
376.831	23.0955
380.688	23.1869
384.545	20.7911
388.402	18.6471
392.259	20.7886
396.116	17.2957
399.973	17.5431
403.83	19.5865
407.687	18.0274
411.544	17.4781
415.401	21.7416
419.258	20.2667
423.115	19.6952
426.971	17.644
430.828	16.2136
434.685	21.1657
438.542	19.1491
442.399	18.1157
446.256	20.8128
450.113	17.8666
453.97	20.2243
457.827	20.4097
461.684	20.594
465.541	18.1524
469.398	18.941
473.255	20.1772
477.112	16.9127
480.969	20.8256
484.825	18.6209
488.682	18.9605
492.539	15.3621
496.396	23.6828
500.253	19.9322
504.11	19.7186
507.967	20.0132
511.824	21.0035
515.681	16.7424
519.538	19.4311
523.395	20.5644
527.252	19.4289
531.109	18.4365
534.966	18.779
538.822	19.1951
542.679	21.3235
546.536	21.9432
550.393	19.226
554.25	21.5999
558.107	20.0985
561.964	20.755
565.821	21.9578
569.678	20.68
573.535	21.797
577.392	20.9409
581.249	20.9969
585.106	22.0964
588.963	23.6177
592.82	21.4608
596.677	17.7987
600.533	20.1569
604.39	22.4207
608.247	21.1307
612.104	18.2072
615.961	22.0816
619.818	21.0317
623.675	18.9534
627.532	21.5619
631.389	21.8172
635.246	18.0527
639.103	24.3476
642.96	17.4223
646.817	20.5392
650.674	24.159
654.531	20.3613
658.388	22.0023
662.244	22.4983
666.101	25.4586
669.958	20.1883
673.815	26.3261
677.672	24.7495
681.529	20.6946
685.386	21.2277
689.243	24.2498
693.1	22.4683
696.957	22.4499
700.814	28.7433
704.671	28.7127
708.528	27.7547
712.385	26.9971
716.241	28.634
720.098	23.8584
723.955	24.9412
727.812	24.3034
731.669	26.3741
735.526	28.2546
739.383	25.2971
743.24	24.6043
747.097	25.548
750.954	27.2113
754.811	22.6786
758.668	25.0835
762.525	22.7237
766.382	26.0584
770.239	28.6875
774.096	21.6863
777.952	25.5058
781.809	26.1963
785.666	25.5399
789.523	25.9594
793.38	27.3833
797.237	24.313
801.094	23.6065
804.951	25.1659
808.808	23.4817
812.665	23.9559
816.522	22.3915
820.379	25.6787
824.236	24.629
828.093	24.5834
831.949	25.9549
835.807	22.9131
839.663	22.8575
843.52	27.3973
847.377	26.4254
851.234	26.0831
855.091	23.829
858.948	24.4969
862.805	25.6416
866.662	27.1351
870.519	24.1003
874.376	26.0493
878.233	26.9659
882.09	25.023
885.947	22.8188
889.803	23.0456
893.66	23.2851
897.517	22.3977
901.374	22.1175
905.231	22.979
909.088	19.2012
912.945	22.9681
916.802	22.6598
920.659	28.2457
924.516	23.1005
928.373	24.8903
932.23	23.4129
936.087	23.163
939.944	23.7375
943.801	21.7003
947.658	24.8839
951.514	24.7264
955.371	23.6395
959.228	23.1625
963.085	26.37
966.942	21.7348
970.799	22.8582
974.656	25.0996
978.513	25.5579
982.37	22.6573
986.227	22.722
990.084	24.9436
993.941	25.3424
997.798	22.5444
1001.65	25.9741
1005.51	25.8819
1009.37	27.9746
1013.23	26.7418
1017.08	23.6163
1020.94	24.293
1024.8	28.332
1028.65	28.0154
1032.51	27.6091
1036.37	24.9344
1040.22	24.8285
1044.08	26.4608
1047.94	26.473
1051.8	28.7789
1055.65	29.5774
1059.51	27.2509
1063.37	27.688
1067.22	29.005
1071.08	30.5462
1074.94	26.586
1078.79	31.9427
1082.65	30.4899
1086.51	26.9621
1090.36	31.9807
1094.22	30.9799
1098.08	27.5956
1101.93	30.5658
1105.79	29.7291
1109.65	28.7175
1113.51	31.3408
1117.36	32.5954
1121.22	30.6601
1125.08	34.4942
1128.93	31.0051
1132.79	34.0701
1136.65	34.9927
1140.5	34.7551
1144.36	35.7344
1148.22	35.1441
1152.08	38.28
1155.93	33.6502
1159.79	29.5572
1163.65	35.279
1167.5	33.7481
1171.36	37.0413
1175.22	37.2979
1179.07	38.7611
1182.93	38.6923
1186.79	33.9978
1190.64	36.0063
1194.5	38.1631
1198.36	33.3988
1202.21	43.0859
1206.07	39.1239
1209.93	39.4144
1213.79	39.1797
1217.64	41.6873
1221.5	42.8915
1225.36	44.0207
1229.21	44.6038
1233.07	53.3618
1236.93	49.9653
1240.79	52.588
1244.64	47.7758
1248.5	49.0601
1252.36	52.2445
1256.21	52.993
1260.07	54.6959
1263.93	50.119
1267.78	53.6816
1271.64	59.7094
1275.5	59.1056
1279.35	53.0932
1283.21	59.2933
1287.07	65.7394
1290.92	66.9814
1294.78	76.7979
1298.64	75.6177
1302.49	88.9411
1306.35	105.868
1310.21	124.367
1314.07	172
1317.92	329.096
1321.78	1436.41
1325.64	3449.84
1329.49	8971.23
1333.35	16248.7
1337.21	1544.51
1341.07	399.776
1344.92	197.293
1348.78	132.48
1352.64	118.928
1356.49	102.229
1360.35	99.9155
1364.21	88.7708
1368.06	82.605
1371.92	76.4855
1375.78	68.5131
1379.63	60.7272
1383.49	58.711
1387.35	55.4383
1391.2	55.4022
1395.06	42.5145
1398.92	44.7828
1402.78	43.1843
1406.63	42.0414
1410.49	44.6775
1414.35	41.2066
1418.2	42.3184
1422.06	39.945
1425.92	41.4895
1429.77	36.1675
1433.63	36.7355
1437.49	35.0525
1441.35	36.2234
1445.2	32.6946
1449.06	33.8639
1452.92	44.5721
1456.77	44.551
1460.63	38.5455
1464.49	34.3223
1468.34	36.0341
1472.2	37.5359
1476.06	34.7804
1479.91	30.0415
1483.77	30.2981
1487.63	31.5627
1491.48	29.7941
1495.34	32.853
1499.2	31.7973
1503.06	31.9102
1506.91	38.1733
1510.77	30.5948
1514.63	30.9242
1518.48	33.9084
1522.34	33.552
1526.2	34.5685
1530.06	35.3915
1533.91	30.2461
1537.77	32.817
1541.62	32.6235
1545.48	29.1535
1549.34	30.1282
1553.2	30.6093
1557.05	28.5717
1560.91	32.6988
1564.77	30.4636
1568.62	24.1216
1572.48	29.5244
1576.34	24.1382
1580.19	28.369
1584.05	27.748
1587.91	23.405
1591.77	28.8906
1595.62	28.8629
1599.48	26.9398
1603.34	26.4798
1607.19	22.526
1611.05	27.8569
1614.91	26.3067
1618.76	26.6911
1622.62	26.803
1626.48	21.09
1630.34	25.6008
1634.19	22.7881
1638.05	25.184
1641.91	26.1852
1645.76	29.7019
1649.62	23.992
1653.48	19.6427
1657.33	25.9354
1661.19	25.9278
1665.05	22.345
1668.9	25.7394
1672.76	23.8847
1676.62	20.6277
1680.47	24.3055
1684.33	22.8425
1688.19	26.261
1692.05	20.6583
