Measurement: Raman, 532 nm, unoriented, Raman Data Processed
Mineral: Dickinsonite-(KMnNa)
Rruff sample: R160071
Ideal chemistry: K(NaMn^2+^)CaNa_3_AlMn^2+^_13_(PO_4_)_12_(OH)_2_
Locality: Nancy Pegmatite, Chacabuco Dept, San Luis, Argentina
Source: Thomas A. Loomis
Description: Dark green massive, associated with dark brown bobfergusonite (R160069)
Measured chemistry: (K_0.61_Pb_0.32_)_Σ0.93_(Na_1.00_Mn_1.00_)_Σ2.00_(Ca_0.33_Ba_0.18_)_Σ0.51_Na_2.98_Al_0.94_(Mn_6.84_Fe^2+^_5.41_Mg_0.82_)_Σ13.07_(PO_4_)_12_(OH)_2_
Raman shift (cm-1)	intensity
144.062	0
146.955	1.02994
149.848	1.81558
152.74	2.59705
155.633	6.43936
158.526	2.16977
161.418	2.36157
164.311	3.75003
167.204	4.29568
170.097	4.13306
172.989	6.08246
175.882	4.64645
178.775	5.78409
181.667	5.8577
184.56	3.98627
187.453	5.11279
190.345	4.78619
193.238	6.36252
196.131	4.87347
199.024	4.95642
201.916	5.1098
204.809	3.63141
207.702	5.65155
210.594	5.66647
213.487	6.61746
216.38	4.58255
219.273	1.80862
222.165	0.540466
225.058	0.484161
227.951	2.44638
230.843	0.491211
233.736	2.18784
236.629	0.959534
239.521	0.605591
242.414	2.72845
245.307	2.74176
248.2	2.81928
251.092	4.7536
253.985	3.12677
256.878	5.05649
259.77	6.33447
262.663	3.78961
265.556	3.04257
268.448	1.41577
271.341	3.18356
274.234	4.40597
277.127	4.25882
280.019	3.16037
282.912	4.81195
285.805	3.10681
288.697	4.86548
291.59	4.39264
294.483	2.48688
297.375	4.6893
300.268	3.58423
303.161	2.82861
306.053	4.52774
308.946	0.806946
311.839	0.591431
314.732	0.015656
317.624	0.269318
320.517	1.63336
323.41	2.58032
326.302	1.53043
329.195	3.72446
332.088	2.63376
334.981	3.81458
337.873	1.89493
340.766	4.30093
343.659	5.41803
346.551	3.35843
349.444	3.73682
352.337	3.25293
355.229	2.31067
358.122	1.72583
361.015	2.2652
363.908	2.53867
366.8	3.36423
369.693	2.71072
372.586	0.83493
375.478	1.12763
378.371	1.8887
381.264	0.359161
384.156	1.10394
387.049	0.874695
389.942	2.0397
392.834	4.84805
395.727	7.23602
398.62	10.7207
401.513	12.1078
404.405	13.4437
407.298	14.1875
410.191	16.5394
413.083	14.3897
415.976	15.179
418.869	13.9155
421.762	15.9697
424.654	16.3972
427.547	16.8517
430.44	19.8906
433.332	21.2185
436.225	26.8722
439.118	24.1591
442.01	21.2775
444.903	21.1756
447.796	20.4715
450.688	19.3408
453.581	21.3135
456.474	20.8364
459.367	24.3439
462.259	21.7754
465.152	18.8229
468.045	17.6038
470.937	18.4605
473.83	20.7175
476.723	19.7377
479.615	20.1995
482.508	19.9968
485.401	17.0797
488.294	14.423
491.186	11.0231
494.079	12.3885
496.972	10.8632
499.864	11.3298
502.757	8.40393
505.65	8.29874
508.543	6.03339
511.435	1.42447
514.328	0.175629
517.221	0.701294
520.113	2.0546
523.006	1.8541
525.899	1.0925
528.791	2.00702
531.684	0.067535
534.577	1.86179
537.47	2.07623
540.362	4.19968
543.255	5.85532
546.148	6.8154
549.04	7.51712
551.933	8.6824
554.826	11.0975
557.718	10.4629
560.611	10.7586
563.504	10.2103
566.396	12.6614
569.289	14.2805
572.182	16.6799
575.075	18.158
577.967	19.6275
580.86	19.5062
583.753	24.1177
586.645	24.7377
589.538	26.7254
592.431	28.7223
595.323	30.7956
598.216	30.6532
601.109	28.9067
604.002	24.4383
606.894	23.4862
609.787	18.7005
612.68	17.5314
615.572	13.5333
618.465	15.2827
621.358	21.9856
624.25	18.2174
627.143	24.8187
630.036	28.7096
632.929	32.0123
635.821	32.1063
638.714	31.138
641.607	27.8554
644.5	19.5003
647.392	15.577
650.285	11.7649
653.178	8.63559
656.07	7.40955
658.963	5.99222
661.856	3.12283
664.748	2.56055
667.641	5.08603
670.534	2.84976
673.427	2.89853
676.319	0.213684
679.212	0.091003
682.105	0.838684
684.997	1.56259
687.89	3.14008
690.783	1.24188
693.675	0.027313
696.568	0.046844
699.461	2.82605
702.354	0.380524
705.246	1.07657
708.139	1.66092
711.032	2.19498
713.924	0.198547
716.817	1.29892
719.71	1.79929
722.602	2.10251
725.495	2.9744
728.388	3.30203
731.28	4.56265
734.173	2.15738
737.066	5.56775
739.959	4.79474
742.851	2.35559
745.744	3.59384
748.637	3.26492
751.529	4.08713
754.422	2.27765
757.315	3.91446
760.207	3.37399
763.1	2.27182
765.993	2.53732
768.886	3.32083
771.778	4.3204
774.671	1.939
777.564	1.93732
780.456	1.55673
783.349	3.09888
786.242	2.83572
789.135	2.51077
792.027	4.80167
794.92	6.14908
797.813	7.21549
800.705	7.87695
803.598	5.95789
806.491	2.53857
809.383	4.19162
812.276	6.90814
815.169	6.19598
818.062	6.33728
820.954	8.13898
823.847	8.45236
826.74	7.02393
829.632	11.6671
832.525	11.5151
835.418	12.1722
838.31	12.2146
841.203	11.615
844.096	11.3865
846.989	11.4391
849.881	8.41403
852.774	13.7876
855.667	9.49737
858.559	6.20923
861.452	4.59976
864.345	5.50833
867.237	3.4874
870.13	1.40076
873.023	0.341888
875.915	0.255707
878.808	0.124146
881.701	4.06632
884.594	1.67453
887.486	0.415985
890.379	1.62509
893.272	1.08505
896.164	0.444489
899.057	1.32519
901.95	5.95309
904.842	10.2379
907.735	11.6308
910.628	11.281
913.521	12.9965
916.413	10.8441
919.306	10.2345
922.199	11.8411
925.091	16.8699
927.984	25.1426
930.877	37.0197
933.769	45.6239
936.662	52.8965
939.555	57.5128
942.448	64.8721
945.34	71.7083
948.233	85.8169
951.126	107.532
954.018	133.916
956.911	152.755
959.804	169.242
962.697	184.381
965.589	210.421
968.482	242.889
971.375	287.182
974.267	326.261
977.16	351.916
980.053	356.398
982.945	342.845
985.838	314.882
988.731	276.959
991.624	241.312
994.516	209.282
997.409	176.393
1000.3	141.452
1003.19	110.716
1006.09	84.096
1008.98	60.4879
1011.87	42.7089
1014.76	27.6401
1017.66	22.1115
1020.55	16.0317
1023.44	13.615
1026.34	11.0587
1029.23	10.5209
1032.12	10.1887
1035.01	7.70624
1037.91	5.31592
1040.8	1.94165
1043.69	0.604462
1046.59	4.31384
1049.48	3.36557
1052.37	2.60022
1055.26	0.854645
1058.16	0.547302
1061.05	1.08832
1063.94	1.40201
1066.83	4.3158
1069.73	6.784
1072.62	8.81857
1075.51	8.25177
1078.4	6.67502
1081.3	8.50348
1084.19	7.93561
1087.08	7.20764
1089.97	7.3746
1092.87	8.69049
1095.76	10.9542
1098.65	14.708
1101.55	13.23
1104.44	14.0233
1107.33	11.1447
1110.22	8.45245
1113.12	2.52774
1116.01	2.40723
1118.9	5.50369
1121.8	5.15375
1124.69	3.26004
1127.58	3.16846
1130.47	3.17169
1133.37	5.48682
1136.26	6.643
1139.15	9.43469
1142.04	8.07663
1144.94	7.7937
1147.83	8.74103
1150.72	7.59436
1153.62	9.46915
1156.51	8.85858
1159.4	7.31262
1162.29	4.85449
1165.19	2.31445
1168.08	0.846252
1170.97	1.12711
1173.86	0.694885
1176.76	0.207825
1179.65	0.095917
1182.54	0.196838
1185.43	0.648621
1188.33	1.18616
1191.22	2.13104
1194.11	2.27997
1197.01	3.78888
1199.9	3.69379
1202.79	1.97232
1205.68	1.52914
1208.58	2.53274
1211.47	4.02402
1214.36	4.72348
1217.25	6.28464
1220.15	4.05566
1223.04	4.84033
1225.93	4.68329
1228.83	4.12878
1231.72	3.08466
1234.61	3.21982
1237.5	5.54028
1240.4	4.06232
1243.29	4.77679
1246.18	8.03696
1249.07	7.15823
1251.97	4.65985
1254.86	3.77072
1257.75	5.70181
1260.64	6.73498
1263.54	5.20667
1266.43	5.07523
1269.32	4.26404
1272.21	3.30704
1275.11	4.3168
1278	0.664154
1280.89	3.92645
1283.79	3.45828
1286.68	2.78549
1289.57	1.50784
1292.46	0.132233
1295.36	1.56927
1298.25	2.66742
