Measurement: Raman, 780 nm, unoriented, Raman Data Processed
Mineral: Dickinsonite-(KMnNa)
Rruff sample: R160071
Ideal chemistry: K(NaMn^2+^)CaNa_3_AlMn^2+^_13_(PO_4_)_12_(OH)_2_
Locality: Nancy Pegmatite, Chacabuco Dept, San Luis, Argentina
Source: Thomas A. Loomis
Description: Dark green massive, associated with dark brown bobfergusonite (R160069)
Measured chemistry: (K_0.61_Pb_0.32_)_Σ0.93_(Na_1.00_Mn_1.00_)_Σ2.00_(Ca_0.33_Ba_0.18_)_Σ0.51_Na_2.98_Al_0.94_(Mn_6.84_Fe^2+^_5.41_Mg_0.82_)_Σ13.07_(PO_4_)_12_(OH)_2_
Raman shift (cm-1)	intensity
158.935	0
161.828	4.76996
164.721	0.280151
167.613	0.8284
170.506	1.94061
173.399	0.446136
176.292	1.06265
179.184	2.06244
182.077	2.65939
184.97	0.60543
187.862	2.90485
190.755	1.24542
193.648	0.711853
196.54	0.124329
199.433	2.75977
202.326	1.92908
205.219	1.86108
208.111	1.00485
211.004	0.707123
213.897	0.470123
216.789	1.25491
219.682	3.06268
222.575	1.92184
225.468	1.56128
228.36	4.66208
231.253	2.55109
234.146	7.897
237.038	5.85461
239.931	3.72147
242.824	5.70352
245.716	5.54404
248.609	3.80908
251.502	3.34088
254.394	3.02493
257.287	3.02386
260.18	3.79352
263.073	2.06839
265.965	3.01657
268.858	0.177429
271.751	1.31332
274.643	1.82413
277.536	0.780548
280.429	1.67807
283.322	1.56638
286.214	4.78229
289.107	4.1568
292	3.65338
294.892	2.64768
297.785	3.05551
300.678	3.83514
303.57	3.03159
306.463	3.49227
309.356	2.71615
312.248	3.89706
315.141	2.60016
318.034	2.73651
320.927	1.80048
323.819	2.32648
326.712	1.73508
329.605	1.25403
332.497	2.20621
335.39	0.893311
338.283	2.07791
341.175	-0.116455
344.068	0.184681
346.961	0.32132
349.854	0.993195
352.746	0.100525
355.639	1.34729
358.532	0.540497
361.424	-0.321991
364.317	0.283884
367.21	0.986674
370.103	0.849762
372.995	0.995056
375.888	1.91293
378.781	1.89261
381.673	4.56607
384.566	6.82733
387.459	4.98645
390.351	7.49408
393.244	8.84988
396.137	9.24542
399.029	9.01657
401.922	10.0694
404.815	10.2958
407.708	11.2692
410.6	12.6003
413.493	12.9597
416.386	13.5672
419.278	16.1946
422.171	15.2309
425.064	16.0236
427.957	18.4404
430.849	17.2456
433.742	19.8036
436.635	19.3071
439.527	21.4177
442.42	20.2086
445.313	18.0741
448.205	18.9803
451.098	19.0039
453.991	16.8271
456.884	16.7592
459.776	16.6514
462.669	16.7088
465.562	14.4924
468.454	15.3972
471.347	15.3069
474.24	12.1566
477.132	12.4236
480.025	12.4196
482.918	9.62207
485.81	8.34552
488.703	7.75101
491.596	9.05231
494.489	6.81497
497.381	5.19388
500.274	6.80258
503.167	4.30597
506.059	2.15652
508.952	2.61469
511.845	0.417999
514.737	0.528229
517.63	1.0227
520.523	0.602448
523.416	0.068726
526.308	1.26767
529.201	1.48187
532.094	2.15109
534.986	2.25604
537.879	3.12527
540.772	0.44635
543.665	3.50974
546.557	2.62845
549.45	4.00708
552.343	5.39996
555.235	3.77887
558.128	5.51331
561.021	2.39352
563.913	1.17093
566.806	2.26953
569.699	3.42523
572.592	2.90283
575.484	4.33035
578.377	4.04672
581.27	4.8346
584.162	4.85336
587.055	3.68314
589.948	6.771
592.841	7.95715
595.733	6.14609
598.626	7.07394
601.519	6.67999
604.411	5.29199
607.304	4.67273
610.197	3.39435
613.089	1.94022
615.982	2.40366
618.875	3.39069
621.768	4.68124
624.66	5.16657
627.553	5.16034
630.446	7.45334
633.338	5.68718
636.231	4.01971
639.124	4.63159
642.016	1.23067
644.909	0.006012
647.802	0.979156
650.694	0.033844
653.587	1.27472
656.48	2.41065
659.373	1.81014
662.265	1.67427
665.158	0.470734
668.051	0.664993
670.943	0.927124
673.836	0.339111
676.729	0.934372
679.621	1.99789
682.514	0.254807
685.407	0.840012
688.3	1.57292
691.192	0.45546
694.085	0.336456
696.978	1.51921
699.87	0.724914
702.763	1.47098
705.656	0.877594
708.548	0.990494
711.441	0.638443
714.334	0.320663
717.227	0.322205
720.119	0.131393
723.012	2.03668
725.905	1.53777
728.797	3.37018
731.69	2.96071
734.583	0.112732
737.476	1.09781
740.368	1.7018
743.261	3.11183
746.154	1.56659
749.046	0.962891
751.939	1.75938
754.832	0.903397
757.724	1.59097
760.617	3.27476
763.51	4.13866
766.403	0.077423
769.295	2.77602
772.188	1.11446
775.081	2.22899
777.973	0.562149
780.866	0.83168
783.759	1.49979
786.652	1.71851
789.544	1.66411
792.437	3.52995
795.33	2.00792
798.222	1.87845
801.115	3.4139
804.008	3.24046
806.9	2.60751
809.793	1.16341
812.686	2.75015
815.578	3.50151
818.471	4.35921
821.364	2.87085
824.257	2.87561
827.149	2.57726
830.042	2.5235
832.935	2.30539
835.827	3.18323
838.72	3.30095
841.613	2.04601
844.505	4.02753
847.398	2.5459
850.291	4.09364
853.184	1.98712
856.076	3.25873
858.969	2.37682
861.862	3.20705
864.754	2.08687
867.647	1.67479
870.54	1.8578
873.433	0.394287
876.325	0.014709
879.218	0.701691
882.111	0.007767
885.003	0.471741
887.896	0.519577
890.789	0.086044
893.681	0.148163
896.574	0.577774
899.467	0.3564
902.36	0.739441
905.252	1.09966
908.145	0.327515
911.038	1.02756
913.93	2.77261
916.823	3.36894
919.716	3.28033
922.608	6.48543
925.501	8.22122
928.394	12.7968
931.287	14.8207
934.179	18.2359
937.072	21.5438
939.965	28.1737
942.857	27.8555
945.75	32.2452
948.643	36.2283
951.535	38.9509
954.428	40.0952
957.321	43.3063
960.213	46.4
963.106	51.182
965.999	58.2215
968.892	60.4624
971.784	61.8192
974.677	64.4646
977.57	65.128
980.462	62.2359
983.355	57.8634
986.248	49.1715
989.141	42.9338
992.033	36.7475
994.926	30.3973
997.819	24.7253
1000.71	20.4335
1003.6	15.9153
1006.5	12.4572
1009.39	9.25232
1012.28	9.66847
1015.17	9.32573
1018.07	6.8663
1020.96	4.54361
1023.85	3.92015
1026.75	1.08916
1029.64	0.9375
1032.53	1.83792
1035.42	1.38493
1038.32	1.4266
1041.21	1.98698
1044.1	0.667679
1046.99	0.431229
1049.89	0.359161
1052.78	0.52269
1055.67	0.156631
1058.57	0.714233
1061.46	0.403076
1064.35	0.630798
1067.24	1.52925
1070.14	0.104431
1073.03	1.06171
1075.92	0.815613
1078.81	0.680206
1081.71	1.83256
1084.6	1.52861
1087.49	1.88628
1090.38	3.50594
1093.28	0.238022
1096.17	2.64759
1099.06	0.468674
1101.96	0.823227
1104.85	2.06282
1107.74	2.19369
1110.63	3.1362
1113.53	2.5789
1116.42	3.97797
1119.31	5.39671
1122.2	4.68523
1125.1	3.28241
1127.99	3.68085
1130.88	2.94421
1133.78	4.03456
1136.67	4.0136
1139.56	2.485
1142.45	2.91859
1145.35	2.62154
1148.24	1.21423
1151.13	2.83832
1154.03	1.78456
1156.92	0.016663
1159.81	1.73108
1162.7	0.992569
1165.6	0.525314
1168.49	0.813538
1171.38	0.895279
1174.27	0.54097
1177.17	1.64243
1180.06	0.565186
1182.95	2.35907
1185.84	1.24324
1188.74	2.74083
1191.63	3.91043
1194.52	3.32289
1197.41	2.61168
1200.31	0.731003
1203.2	2.15276
1206.09	2.45433
1208.99	2.3434
1211.88	4.63696
1214.77	4.00983
1217.66	2.78294
1220.56	6.12444
1223.45	3.24538
1226.34	0.163208
1229.23	1.10223
1232.13	0.719299
1235.02	2.72626
1237.91	3.04619
1240.81	3.05565
1243.7	2.32492
1246.59	1.89783
1249.48	1.76309
1252.38	0.917709
1255.27	2.7238
1258.16	3.33928
1261.05	1.65366
1263.95	2.43314
1266.84	1.98293
1269.73	1.31915
1272.62	0.124664
1275.52	3.70525
1278.41	0.845001
1281.3	0.125183
