Measurement: Raman, 514 nm, unoriented, Raman Data RAW
Mineral: Diopside
Rruff sample: X050060
Ideal chemistry: CaMgSi_2_O_6_
Locality: DeKalb, New York, USA
Source: G.R. Rossman
Raman shift (cm-1)	intensity
101.1	4448.94
106.1	4413.19
111.2	4398.31
116.2	4392.37
121.3	4387.75
126.3	4412.85
131.4	4534.83
136.4	5124.45
141.5	5808.98
146.5	5661.05
151.6	4967.6
156.6	4558.43
161.7	4586.65
166.7	4621.12
171.8	4602.47
176.8	4643.25
181.9	4818.67
186.9	4870.95
192	4878.12
197	4982.05
202.1	4898.47
207.1	4636.22
212.2	4459.33
217.2	4444.14
222.3	4575.72
227.4	4861.28
232.4	5160.64
237.5	5019.36
242.5	4726.58
247.6	4710.22
252.6	4945.87
257.7	5176.37
262.7	4956.76
267.8	4626
272.8	4506.91
277.9	4448.94
282.9	4454.68
288	4488.04
293	4530.9
298.1	4759.68
303.1	4970.7
308.2	5119.16
313.2	5437.76
318.3	6785.02
323.3	9187.29
328.4	10152.5
333.4	8316.72
338.5	6226.51
343.5	5396.82
348.6	5280.84
353.6	5646.3
358.7	6230.66
363.7	6308.33
368.8	6091.04
373.8	5728.82
378.9	5534.8
383.9	6195.44
389	7940.8
394	9093.83
399.1	7912.48
404.1	6048.01
409.2	5050.93
414.2	4734.84
419.3	4586.9
424.3	4555.96
429.4	4506.06
434.4	4467.69
439.5	4438.69
444.5	4460.27
449.6	4460.04
454.6	4471.16
459.7	4578.62
464.7	4728.89
469.8	4767.55
474.8	4585.57
479.9	4506.2
485	4449.65
490	4449.25
495.1	4469.47
500.1	4598.13
505.2	4979.35
510.2	5412.57
515.3	5386.99
520.3	5012.47
525.4	4817.86
530.4	4747.79
535.5	4692.72
540.5	4595.92
545.6	4560.09
550.6	4643.78
555.7	4942.2
560.7	5298.94
565.8	5119.07
570.8	4731.05
575.9	4582.55
580.9	4506.88
586	4452.18
591	4460.74
596.1	4470.07
601.1	4454.64
606.2	4465.19
611.2	4478.91
616.3	4479.5
621.3	4490.04
626.4	4592.89
631.4	4658.17
636.5	4771.22
641.5	4902.31
646.6	5217.1
651.6	5826.92
656.7	7376.04
661.7	11480
666.8	16788.3
671.8	16866.1
676.9	11701.9
681.9	7640.41
687	5920.9
692	5284.71
697.1	4921.57
702.1	4777.51
707.2	4770.15
712.2	4723.13
717.3	4651.31
722.3	4549.29
727.4	4482.45
732.4	4444.85
737.5	4419.51
742.6	4448.07
747.6	4427.66
752.7	4408.36
757.7	4431.33
762.8	4444.71
767.8	4376.32
772.9	4415.16
777.9	4401.31
783	4390.33
788	4384.27
793.1	4381.55
798.1	4378.95
803.2	4356.05
808.2	4363.42
813.3	4362.22
818.3	4375.87
823.4	4351.28
828.4	4378.19
833.5	4386.69
838.5	4389.59
843.6	4470.04
848.6	4654.62
853.7	5061.46
858.7	5166.83
863.8	4870.51
868.8	4618.03
873.9	4506.93
878.9	4441.46
884	4408.11
889	4431.97
894.1	4389.73
899.1	4426.49
904.2	4409.92
909.2	4488.17
914.3	4460.55
919.3	4489.34
924.4	4424.11
929.4	4412.42
934.5	4386.36
939.5	4328.72
944.6	4340.97
949.6	4336.62
954.7	4384.33
959.7	4381.48
964.8	4412.79
969.8	4430.32
974.9	4481.31
979.9	4578.14
985	4644.01
990.1	4873.69
995.1	5246.82
1000.2	6084.43
1005.2	8903.68
1010.3	15576.5
1015.3	21044
1020.4	16254.4
1025.4	9136.07
1030.5	6194.51
1035.5	5429.47
1040.6	5309.65
1045.6	5479.55
1050.7	5551.47
1055.7	5223.67
1060.8	4791.28
1065.8	4600.88
1070.9	4400.44
1075.9	4406.36
1081	4452.56
1086	4387.03
1091.1	4336.32
1096.1	4454.1
1101.2	4362.87
1106.2	4338.38
1111.3	4373.96
1116.3	4405.98
1121.4	4371.06
1126.4	4361.29
1131.5	4406.55
1136.5	4464.65
1141.6	4470.52
1146.6	4465.8
1151.7	4468.21
1156.7	4550.8
1161.8	4434.52
1166.8	4440.34
1171.9	4374.76
1176.9	4423.15
1182	4433.61
1187	4455.8
1192.1	4509.32
1197.1	4485.46
1202.2	4419.29
1207.2	4485.21
1212.3	4623.1
1217.3	4630.58
1222.4	4574.2
1227.4	4552.86
1232.5	4612.1
1237.5	4518.74
1242.6	4443.74
1247.7	4477.33
1252.7	4432.33
1257.8	4394.81
1262.8	4389.76
1267.9	4394.04
1272.9	4355.22
1278	4241.69
1283	4357.25
1288.1	4480.32
1293.1	4402.58
1298.2	4436.09
1303.2	4314.71
1308.3	4403.88
1313.3	4449.19
1318.4	4428.56
1323.4	4478.18
1328.5	4472.79
1333.5	4623.36
1338.6	4542.65
1343.6	4701.9
1348.7	4550.21
1353.7	4663.3
1358.8	4563.83
1363.8	4447.04
1368.9	4420.48
1373.9	4447.75
1379	4423.69
1384	4538.51
1389.1	4328.22
1394.1	4423.47
1399.2	4248.83
1404.2	4304.61
1409.3	4490.8
1414.3	4472.42
1419.4	4380.2
1424.4	4359.09
1429.5	4403.67
1434.5	4290.44
1439.6	4305.1
1444.6	4374.25
1449.7	4277.04
1454.7	4392.67
1459.8	4316.58
1464.8	4409.9
1469.9	4357.79
1474.9	4249.94
1480	4358.76
1485	4402.71
1490.1	4633.72
1495.1	4621.06
1500.2	4563.36
