Measurement: Raman, 514 nm, unoriented, Raman Data RAW
Mineral: Dioptase
Rruff sample: X050061
Ideal chemistry: Cu^2+^SiO_3_H_2_O
Locality: Reneville, Democratic Republic of the Congo
Source: University of Arizona Mineral Museum
Description: Single crystal
Raman shift (cm-1)	intensity
111.67	8207.33
116.73	9327.33
121.787	9696.33
126.839	15610.3
131.888	22600
136.934	19388.7
141.976	9935
147.014	9065.02
152.048	10197
157.079	17256
162.106	15850.3
167.13	10811.3
172.15	12591.7
177.166	17363
182.179	12731
187.188	10543.7
192.194	11645.3
197.196	11348
202.194	10271.3
207.189	11413
212.18	15261.7
217.167	27752.7
222.151	42976
227.131	32049.3
232.108	17584
237.081	14138.3
242.051	13754
247.017	8525.67
251.979	7623
256.938	9662.67
261.893	21595.7
266.844	21282.7
271.792	12306.3
276.737	11730.7
281.678	13898
286.615	19810.7
291.549	26277.1
296.479	16316
301.405	8683.33
306.328	6836.33
311.248	6236
316.164	7020.33
321.076	10953
325.985	12712.7
330.89	8589
335.791	7170.67
340.69	7057.67
345.584	8519.33
350.475	17081
355.363	42047.7
360.247	21366
365.127	10827
370.004	8502.67
374.877	7998.67
379.747	8425
384.613	10070.7
389.476	15163.3
394.335	29604.7
399.191	34101.7
404.043	17657.3
408.892	11309.3
413.737	11216
418.579	12418.3
423.417	13184.3
428.251	13999.7
433.082	14413.3
437.91	13633.3
442.734	12224
447.555	12137
452.372	13673.7
457.186	10963
461.996	7849.67
466.802	6561.67
471.605	6051.67
476.405	5910.67
481.201	6129.67
485.994	6850.67
490.783	6885.67
495.569	6814.67
500.351	7541.67
505.13	9048.33
509.905	11244.3
514.677	13116.7
519.445	14050
524.21	13973.7
528.971	13154.3
533.729	11616.7
538.484	9805.67
543.235	8224
547.983	7323.33
552.727	7282.67
557.467	8153.67
562.205	8678.33
566.938	7667.67
571.669	7180.67
576.396	5789.33
581.119	4816.33
585.839	4310
590.556	4084.67
595.269	3915.33
599.978	3783.33
604.685	3760.67
609.388	3738.67
614.087	3737.33
618.783	3827.67
623.476	3959
628.165	4165.33
632.85	4471.67
637.533	4939.49
642.212	5705.67
646.887	7493.67
651.559	12165
656.228	23847.3
660.893	24827.7
665.555	13682
670.214	8477.33
674.869	6346.33
679.52	5215
684.169	4650.33
688.813	4378
693.455	4167.67
698.093	4086
702.728	4019.67
707.359	4107
711.987	4194.33
716.612	4371.67
721.233	4785.67
725.851	5497.67
730.465	7003.33
735.076	10043
739.684	13477
744.288	12081
748.889	8654
753.487	6611.33
758.081	5584.67
762.672	5063
767.26	4798.33
771.844	4698.67
776.425	4662.33
781.002	4657.33
785.576	4770
790.147	4780.33
794.714	4808.33
799.278	4802
803.839	4715
808.397	4564.67
812.951	4445.67
817.501	4336
822.049	4260
826.593	4247
831.134	4211.33
835.671	4045.67
840.205	3897.65
844.736	3760.18
849.263	3698.59
853.788	3648.69
858.308	3673.56
862.826	3644.53
867.34	3690.37
871.851	3707.7
876.359	3788.87
880.863	3841.29
885.364	3939.89
889.862	4095.23
894.356	4319.43
898.847	4673.21
903.335	5387.81
907.819	6931.36
912.301	8743.59
916.778	8264.96
921.253	6211.83
925.724	5200.39
930.192	4895.06
934.657	4725.56
939.119	4673.69
943.577	4766.07
948.032	5092.81
952.484	5717.58
956.932	6394.54
961.377	5902.08
965.819	5209.34
970.257	4999.57
974.693	5047.45
979.125	5197.1
983.554	5564.08
987.979	6195.01
992.402	7551.73
996.821	11165.8
1001.24	19594.7
1005.65	19149.2
1010.06	12280.2
1018.46	10534
1022.95	9547.67
1027.44	8875.67
1031.93	7837.33
1036.41	6492.33
1040.89	5562.67
1045.37	5071.67
1049.84	4752.67
1054.32	4552.33
1058.78	4361.33
1063.25	4319.33
1067.71	4227.33
1072.17	4132.33
1076.62	4066
1081.07	4014
1085.52	3971.28
1089.97	3901
1094.41	3867
1098.85	3858.33
1103.29	3811
1107.72	3790.33
1112.15	3744.67
1116.58	3764
1121	3724.67
1125.42	3755.67
1129.84	3757
1134.25	3774.33
1138.66	3778.67
1143.07	3790.33
1147.47	3785
1151.88	3808
1156.28	3800.67
1160.67	3804.67
1165.06	3802.67
1169.45	3795.67
1173.84	3789.67
1178.22	3722.31
1182.6	3717
1186.98	3701
1191.35	3646.33
1195.72	3608.67
1200.09	3619
1204.45	3599.33
1208.82	3585.33
1213.17	3599.67
1217.53	3567
1221.88	3552.79
1226.23	3515.33
1230.58	3506.33
1234.92	3447
1239.26	3453.67
1243.59	3424.13
1247.93	3425.89
1252.26	3427.21
1256.59	3405.67
1260.91	3393
1265.23	3385
1269.55	3385
1273.86	3349.67
1278.17	3349.67
1282.48	3352.33
1286.79	3348.33
1291.09	3367.33
1295.39	3336.33
1299.69	3355.33
1303.98	3368
1308.27	3355.67
1312.56	3341
1316.84	3333
1321.12	3388
1325.4	3337
1329.68	3342.33
1333.95	3353
1338.22	3318.67
1342.48	3304.67
1346.75	3324
1351.01	3323.33
1355.27	3308
1359.52	3291.33
1363.77	3282
1368.02	3254.33
1372.26	3256.33
1376.5	3248.84
1380.74	3204.33
1384.98	3215.67
1389.21	3219.33
1393.44	3202.67
1397.67	3201
1401.89	3209.33
1406.11	3219.67
1410.33	3208.67
1414.54	3192
1418.75	3236
1422.96	3206.67
1427.17	3248.33
1431.37	3232
1435.57	3226.33
1439.77	3240.67
1443.96	3219.67
1448.15	3202
1452.34	3217
1456.52	3204.67
1460.7	3205
1464.88	3225.33
1469.06	3190.33
1473.23	3196.67
1477.4	3192.67
1481.57	3166.64
1485.73	3167.67
1489.89	3179.33
1494.05	3150.33
1498.2	3149.67
1502.35	3164.33
1506.5	3166
1510.65	3157.33
1514.79	3151
1518.93	3157.33
1523.07	3163
1527.2	3144
1531.33	3133
1535.46	3163.33
1539.58	3157.67
1543.7	3165.33
1547.82	3149.33
1551.94	3143.67
1556.05	3174.67
1560.16	3166.33
1564.27	3159
1568.37	3153.33
1572.47	3135.67
1576.57	3134.33
1580.67	3134
1584.76	3119.75
1588.85	3123.67
1592.93	3102
1597.02	3098.33
1601.1	3076
1605.18	3075
1609.25	3050.33
1613.32	3058
1617.39	3027.33
1621.46	3009.33
1625.52	2986.67
1629.58	2987.67
1633.64	2968
1637.69	2958
1641.74	2948.67
1645.79	2929.33
1649.84	2920.33
1653.88	2908.67
1657.92	2898.67
1661.95	2883.67
