Measurement: Raman, 532 nm, unoriented, Raman Data Processed
Mineral: Dravite
Rruff sample: R060280
Ideal chemistry: NaMg_3_Al_6_(Si_6_O_18_)(BO_3_)_3_(OH)_3_OH
Locality: near Merelani, Tanzania
Source: Herb Obodda
Description: Green fragment
Measured chemistry: (Na_0.45_Ca_0.40_[box]_0.15_)(Mg_0.89_Al_0.07_Ti_0.04_)_3_Al_6_(BO_3_)_3_(Si_0.93_B_0.07_)_6_O_18_((OH)_0.95_O_0.05_)_4_
Raman shift (cm-1)	intensity
90.2653	0
93.6401	284.156
97.0149	187.57
100.39	101.241
103.765	72.8843
107.139	71.9106
110.514	59.2388
113.889	38.6274
117.264	139.963
120.639	106.05
124.013	277.144
127.388	307.965
130.763	523.851
134.138	707.232
137.513	831.844
140.888	971.96
144.262	777.196
147.637	702.008
151.012	583.457
154.387	492.631
157.762	329.313
161.137	156.144
164.511	27.687
167.886	46.5688
171.261	53.6294
174.636	8.25049
178.011	6.17676
181.385	12.1577
184.76	138.406
188.135	420.398
191.51	824.904
194.885	1360.36
198.26	1997.67
201.634	2759.6
205.009	3910.42
208.384	5685.09
211.759	8218.62
215.133	11003
218.508	11600
221.883	9289.46
225.258	6835.89
228.633	5546.83
232.008	5153.12
235.382	5362.32
238.757	5982.02
242.132	6806.61
245.507	7182.99
248.882	6509.18
252.256	5112.23
255.631	3585.7
259.006	2594.52
262.381	2013.22
265.756	1691.08
269.131	1532.68
272.505	1427.45
275.88	1210.58
279.255	842.021
282.63	476.293
286.005	211.665
289.38	8.35107
292.754	105.011
296.129	137.064
299.504	76.5498
302.879	41.0078
306.254	71.5078
309.628	340.32
313.003	692.275
316.378	959.507
319.753	722.342
323.128	473.604
326.502	540.446
329.877	717.906
333.252	1095.85
336.627	1570.93
340.002	1990.26
343.377	2237.28
346.751	2351.49
350.126	2634.27
353.501	3224.55
356.876	4212.14
360.251	5799.5
363.625	8060.11
367	10636.7
370.375	12178
373.75	11354.6
377.125	8736.49
380.5	6051.59
383.874	4157.75
387.249	3000.67
390.624	2214.59
393.999	1797.66
397.374	1583.38
400.748	1473.67
404.123	1459.89
407.498	1271.58
410.873	995.165
414.248	627.42
417.623	396.985
420.997	175.179
424.372	6.61768
427.747	68.5049
431.122	61.8213
434.497	25.6494
437.872	7.01611
441.246	12.9668
444.621	5.87646
447.996	12.6309
451.371	23.5391
454.745	16.3989
458.12	13.5093
461.495	36.9145
464.87	57.7334
468.245	116.829
471.62	199.194
474.994	335.803
478.369	484.878
481.744	709.563
485.119	873.882
488.494	1008.35
491.868	1118.57
495.243	1179.37
498.618	1280.4
501.993	1445.86
505.368	1534.46
508.743	1519.31
512.117	1337.19
515.492	1119.28
518.867	863.46
522.242	669.922
525.617	620.659
528.991	676.169
532.366	789.668
535.741	907.385
539.116	915.972
542.491	890.627
545.866	776.393
549.24	587.679
552.615	431.228
555.99	289.19
559.365	196.553
562.74	121.14
566.115	87.6555
569.489	13.4575
572.864	10.4617
576.239	9.40112
579.614	34.9736
582.989	35.002
586.363	15.4717
589.738	17.4971
593.113	8.87817
596.488	17.5916
599.863	27.9043
603.237	46.2324
606.612	58.8613
609.987	72.167
613.362	97.4155
616.737	159.144
620.112	173.965
623.486	291.169
626.861	481.269
630.236	692.499
633.611	871.028
636.986	775.176
640.361	573.023
643.735	509.401
647.11	643.926
650.485	873.816
653.86	1070.6
657.235	1207.56
660.609	1454.49
663.984	1751.34
667.359	2025.61
670.734	2253.31
674.109	2303.74
677.484	2122.59
680.858	1892.86
684.233	1753.17
687.608	1736.06
690.983	1904.99
694.357	2270
697.732	2794.22
701.107	3372.27
704.482	3667.65
707.857	3352.88
711.232	2513.28
714.606	1535.91
717.981	783.61
721.356	360.523
724.731	130.033
728.106	22.3545
731.481	31.1069
734.855	31.4092
738.23	53.522
741.605	35.1924
744.98	75.48
748.355	292.993
751.729	548.145
755.104	878.877
758.479	1095.73
761.854	1117.23
765.229	865.393
768.604	531.108
771.978	391.923
775.353	291.735
778.728	277.513
782.103	264.094
785.478	329.45
788.852	388.137
792.227	471.753
795.602	553.004
798.977	597.208
802.352	659.93
805.726	770.398
809.101	969.267
812.476	1276.87
815.851	1580.93
819.226	1825.39
822.601	1847.11
825.975	1644.61
829.35	1364
832.725	1088.28
836.1	867.941
839.475	643.461
842.85	466.394
846.224	302.01
849.599	175.657
852.974	85.6704
856.349	30.356
859.724	1.87353
863.098	1.88355
866.473	4.81811
869.848	7.92896
873.223	1.94019
876.598	18.3992
879.972	10.6384
883.347	4.99048
886.722	32.3489
890.097	16.7671
893.472	42.0256
896.847	48.0564
900.221	87.2141
903.596	102.98
906.971	84.458
910.346	109.374
913.721	101.472
917.096	121.809
920.47	92.7148
923.845	84.2434
927.22	63.1536
930.595	22.5552
933.97	3.99805
937.344	32.3374
940.719	23.7495
944.094	8.99976
947.469	9.02344
950.844	87.9653
954.218	134.618
957.593	200.632
960.968	269.835
964.343	381.991
967.718	486.934
971.092	583.762
974.467	665.397
977.842	650.489
981.217	581.742
984.592	478.923
987.967	386.629
991.341	213.875
994.716	107.755
998.091	19.9521
1001.47	14.5571
1004.84	1.22632
1008.22	68.0017
1011.59	220.583
1014.97	411.68
1018.34	623.627
1021.72	789.471
1025.09	948.068
1028.46	1103.19
1031.84	1219.74
1035.21	1345.85
1038.59	1454.94
1041.96	1544.18
1045.34	1575.23
1048.71	1580.91
1052.09	1518.98
1055.46	1406.07
1058.84	1298.14
1062.21	1227.14
1065.59	1198.08
1068.96	1193.1
1072.34	1196.12
1075.71	1147.3
1079.09	1026.67
1082.46	876.608
1085.84	720.332
1089.21	552.75
1092.59	418.028
1095.96	322.713
1099.34	236.373
1102.71	144.561
1106.09	99.0886
1109.46	93.6926
1112.84	102.412
1116.21	86.7278
1119.58	59.8083
1122.96	68.134
1126.33	30.8335
1129.71	14.4983
1133.08	9.48755
1136.46	18.4043
1139.83	25.7424
1143.21	2.94604
1146.58	7.95947
1149.96	17.9712
1153.33	51.2129
1156.71	45.1863
1160.08	68.8931
1163.46	65.5325
1166.83	60.4751
1170.21	78.7908
1173.58	104.056
1176.96	119.817
1180.33	93.4429
1183.71	91.9231
1187.08	116.303
1190.46	115.766
1193.83	120.355
1197.2	94.6736
1200.58	90.9146
1203.95	67.5178
1207.33	101.478
1210.7	87.9187
1214.08	136.17
1217.45	145.643
1220.83	175.546
1224.2	203.275
1227.58	229.625
1230.95	250.287
1234.33	259.046
1237.7	236.928
1241.08	230.155
1244.45	203.255
1247.83	173.085
1251.2	155.626
1254.58	159.489
1257.95	102.82
1261.33	85.604
1264.7	81.0435
1268.08	67.7686
1271.45	29.5891
1274.83	39.78
1278.2	41.8018
1281.58	24.1162
1284.95	22.5129
1288.33	5.37354
1291.7	3.073
1295.08	14.2144
1298.45	0.94751
1301.83	0
