Measurement: Raman, 532 nm, unoriented, Raman Data Processed
Mineral: Dresserite
Rruff sample: R060304
Ideal chemistry: Ba_2_Al_4_(CO_3_)_4_(OH)_8_3H_2_O
Locality: Francon Quarry, Montreal,  Quebec, Canada
Source: Michael Scott
Description: White acicular crystals in a spherical aggregate
Raman shift (cm-1)	intensity
117.264	38878.1
120.639	39547.6
124.013	40216.7
127.388	40775.8
130.763	41187.7
134.138	41496.8
137.513	41887.5
140.888	42375.9
144.262	42793.5
147.637	43085.9
151.012	43427.3
154.387	43809.5
157.762	44151.7
161.137	44522.6
164.511	45068.3
167.886	45531.6
171.261	45868.1
174.636	46233.3
178.011	46576.9
181.385	46847.2
184.76	47274.5
188.135	47676.6
191.51	48134.8
194.885	48357.6
198.26	48747.2
201.634	49007.8
205.009	49320.2
208.384	49641.6
211.759	50048.6
215.133	50507.3
218.508	51000.1
221.883	51272.9
225.258	51698.5
228.633	51989.1
232.008	52211.7
235.382	52525.6
238.757	52967.8
242.132	53468.2
245.507	53826.8
248.882	53920.9
252.256	54252.6
255.631	54661.1
259.006	55149.8
262.381	55463.6
265.756	55938.5
269.131	56258.4
272.505	56848.3
275.88	57146.2
279.255	57601.2
282.63	57855.1
286.005	58268
289.38	58691.6
292.754	59078.8
296.129	59434.8
299.504	59682.1
302.879	60071.4
306.254	60518.7
309.628	60985.1
313.003	61401.8
316.378	61832.5
319.753	62016
323.128	62430.9
326.502	62947.9
329.877	63162.7
333.252	63544.5
336.627	63894.3
340.002	64498.9
343.377	64891.4
346.751	65199.7
350.126	65465.1
353.501	65872.2
356.876	66342.4
360.251	66907.1
363.625	67323.3
367	67682.1
370.375	67977.7
373.75	68277.4
377.125	68879.2
380.5	69346.5
383.874	69730.7
387.249	70058.6
390.624	70364.8
393.999	70514.9
397.374	71043.1
400.748	71549.8
404.123	72135.1
407.498	72341.1
410.873	72680.8
414.248	73156.4
417.623	73834.5
420.997	74413.5
424.372	74591.8
427.747	74858.4
431.122	75167.9
434.497	75482.8
437.872	75825
441.246	76420.7
444.621	76867.1
447.996	77182.4
451.371	77504.4
454.745	77939.5
458.12	78568.7
461.495	79063.3
464.87	79422.1
468.245	79889.8
471.62	80247.7
474.994	80529
478.369	80738.7
481.744	81269.1
485.119	81894.9
488.494	82478.3
491.868	82889.6
495.243	83072.4
498.618	83337.1
501.993	83786.4
505.368	84106.6
508.743	84665.1
512.117	85089
515.492	85493.1
518.867	85849.8
522.242	86274.9
525.617	86642.1
528.991	87022.2
532.366	87457.4
535.741	87818.2
539.116	88099.2
542.491	88588.4
545.866	89254.3
549.24	89757.7
552.615	90133.1
555.99	90378
559.365	90755.2
562.74	91402.7
566.115	91699.8
569.489	91924.2
572.864	92444
576.239	92909.7
579.614	93300.4
582.989	93585.5
586.363	94294.9
589.738	94581.9
593.113	94770.6
596.488	95100.1
599.863	95534.3
603.237	95994.1
606.612	96423.1
609.987	97037.4
613.362	97432.1
616.737	97914.1
620.112	98154.8
623.486	98562.9
626.861	98946.6
630.236	99371.6
633.611	99744.1
636.986	100145
640.361	100523
643.735	100914
647.11	101315
650.485	101932
653.86	102415
657.235	102526
660.609	102938
663.984	103578
667.359	103881
670.734	104264
674.109	104535
677.484	104875
680.858	105558
684.233	105857
687.608	106392
690.983	106806
694.357	106967
697.732	107380
701.107	107988
704.482	108514
707.857	108981
711.232	109358
714.606	109702
717.981	110198
721.356	110799
724.731	111264
728.106	111837
731.481	111995
734.855	112364
738.23	112745
741.605	113158
744.98	113646
748.355	114128
751.729	114616
755.104	114595
758.479	114698
761.854	115135
765.229	115275
768.604	115605
771.978	115980
775.353	116152
778.728	116397
782.103	116682
785.478	117290
788.852	117339
792.227	117404
795.602	117643
798.977	117962
802.352	118321
805.726	118925
809.101	119176
812.476	119282
815.851	119789
819.226	120080
822.601	120432
825.975	120291
829.35	120414
832.725	120657
836.1	120920
839.475	121368
842.85	121811
846.224	122161
849.599	122240
852.974	122330
856.349	122772
859.724	123247
863.098	123486
866.473	123421
869.848	123804
873.223	124272
876.598	124278
879.972	124503
883.347	124615
886.722	124871
890.097	125440
893.472	125950
896.847	126160
900.221	126494
903.596	126566
906.971	126949
910.346	127129
913.721	127231
917.096	127606
920.47	127821
923.845	128292
927.22	128536
930.595	128641
933.97	128941
937.344	129099
940.719	129378
944.094	130004
947.469	130248
950.844	130413
954.218	130628
957.593	130650
960.968	130918
964.343	131573
967.718	132249
971.092	132338
974.467	132590
977.842	132887
981.217	133135
984.592	133421
987.967	133861
991.341	134166
994.716	134445
998.091	134657
1001.47	135014
1004.84	135316
1008.22	135566
1011.59	136026
1014.97	136210
1018.34	136388
1021.72	136684
1025.09	136748
1028.46	137248
1031.84	137216
1035.21	137901
1038.59	138241
1041.96	138613
1045.34	138970
1048.71	138918
1052.09	139358
1055.46	139761
1058.84	139562
1062.21	139937
1065.59	140355
1068.96	140804
1072.34	141100
1075.71	141499
1079.09	141684
1082.46	142328
1085.84	142799
1089.21	143076
1092.59	143333
1095.96	143702
1099.34	144077
1102.71	144347
1106.09	144443
1109.46	144837
1112.84	145108
1116.21	145299
1119.58	145715
1122.96	146035
1126.33	146205
1129.71	146192
1133.08	146543
1136.46	147180
1139.83	147630
1143.21	148060
1146.58	148176
1149.96	148722
1153.33	149383
1156.71	149872
1160.08	150059
1163.46	150218
1166.83	150551
1170.21	151118
1173.58	151358
1176.96	151889
1180.33	152348
1183.71	152615
1187.08	153256
1190.46	153544
1193.83	153789
1197.2	154291
1200.58	154225
1203.95	154750
1207.33	155208
1210.7	155588
1214.08	155644
1217.45	156062
1220.83	156614
1224.2	156774
1227.58	156733
1230.95	157156
1234.33	157652
1237.7	157934
1241.08	158380
1244.45	158898
1247.83	159359
1251.2	159926
1254.58	160163
1257.95	160576
1261.33	160700
1264.7	160716
1268.08	161148
1271.45	161543
1274.83	161910
1278.2	162225
1281.58	162638
1284.95	162969
1288.33	163375
1291.7	163606
1295.08	164061
1298.45	164079
1301.83	164484
