Measurement: Raman, 780 nm, unoriented, Raman Data Processed
Mineral: Dresserite
Rruff sample: R060304
Ideal chemistry: Ba_2_Al_4_(CO_3_)_4_(OH)_8_3H_2_O
Locality: Francon Quarry, Montreal,  Quebec, Canada
Source: Michael Scott
Description: White acicular crystals in a spherical aggregate
Raman shift (cm-1)	intensity
97.3453	0
100.72	22.749
104.095	79.8848
107.47	139.75
110.845	135.499
114.219	69.6894
117.594	11.4277
120.969	5.01856
124.344	13.2227
127.719	14.9248
131.094	13.543
134.468	4.70508
137.843	18.9473
141.218	69.7344
144.593	109.04
147.968	132.684
151.342	118.516
154.717	198.197
158.092	244.135
161.467	337.15
164.842	461.33
168.216	579.803
171.591	703.485
174.966	812.125
178.341	864.181
181.716	941.773
185.09	959.295
188.465	878.723
191.84	746.508
195.215	665.673
198.59	623.355
201.965	564.959
205.339	597.877
208.714	606.77
212.089	633.473
215.464	694.905
218.839	753.769
222.214	809.434
225.588	881.691
228.963	895.54
232.338	768.631
235.713	546.222
239.088	357.727
242.462	203.337
245.837	111.237
249.212	49.21
252.587	10.0693
255.962	16.0117
259.336	25.4629
262.711	16.9297
266.086	25.6885
269.461	49.2168
272.836	48.7803
276.211	79.5508
279.585	85.6269
282.96	103.873
286.335	124.263
289.71	177.811
293.085	201.986
296.459	215.792
299.834	219.559
303.209	192.442
306.584	154.421
309.959	180.664
313.334	174.11
316.708	160.653
320.083	129.807
323.458	98.6103
326.833	55.7666
330.207	10.1191
333.582	5.40625
336.957	28.4775
340.332	20.1201
343.707	16.4199
347.082	6.62207
350.456	2.37012
353.831	0.692383
357.206	35.4629
360.581	53.6738
363.956	51.9834
367.33	64.9277
370.705	65.3682
374.08	28.2773
377.455	32.5527
380.83	33.0977
384.205	33.792
387.579	32.8818
390.954	38.7188
394.329	37.1719
397.704	31.4082
401.079	21.1143
404.453	16.8174
407.828	1.06738
411.203	0.710938
414.578	5.40234
417.953	8.58594
421.327	46.709
424.702	26.3604
428.077	11.959
431.452	18.6201
434.827	21.3633
438.202	21.0439
441.576	35.5732
444.951	20.418
448.326	21.7705
451.701	45.7988
455.076	65.0332
458.45	65.1982
461.825	68.4531
465.2	79.1758
468.575	81.3535
471.95	97.332
475.325	61.3545
478.699	66.8789
482.074	61.2373
485.449	57.3887
488.824	55.6836
492.199	44.6377
495.573	36.1885
498.948	25.3516
502.323	8.0293
505.698	1.80469
509.073	7.26172
512.447	8.17871
515.822	11.7354
519.197	12.9688
522.572	3.98144
525.947	14.6914
529.322	17.7227
532.696	15.5361
536.071	33.5615
539.446	73.6006
542.821	97.1152
546.196	147.12
549.57	169.721
552.945	236.911
556.32	264.777
559.695	282.622
563.07	269.11
566.444	241.671
569.819	216.934
573.194	152.365
576.569	118.784
579.944	77.2773
583.319	31.832
586.693	8.67285
590.068	6.95019
593.443	5.28711
596.818	45.6406
600.193	61.2695
603.567	98.1113
606.942	107.915
610.317	112.188
613.692	108.112
617.067	87.3086
620.442	62.833
623.816	62.5723
627.191	52.8975
630.566	45.1289
633.941	44.4551
637.316	34.6777
640.69	36.8486
644.065	24.498
647.44	25.3613
650.815	11.5312
654.19	0.771484
657.564	21.0293
660.939	15.9883
664.314	8.4707
667.689	6.73242
671.064	8.8291
674.439	1.74805
677.813	7.50293
681.188	1.77539
684.563	1.63672
687.938	15.29
691.313	15.207
694.688	13.2744
698.062	4.39258
701.437	21.6943
704.812	29.9688
708.187	35.375
711.562	57.0889
714.936	82.667
718.311	93.3203
721.686	107.387
725.061	140.609
728.436	161.731
731.81	164.529
735.185	116.875
738.56	86.1231
741.935	70.3203
745.31	70.0723
748.684	61.1895
752.059	71.833
755.434	70.4394
758.809	42.5732
762.184	34.21
765.559	24.3984
768.933	29.7539
772.308	34.5303
775.683	18.7666
779.058	7.39746
782.433	10.3252
785.808	4.64746
789.182	2.54394
792.557	0.02832
795.932	9.34082
799.307	7.19629
802.682	9.24512
806.056	32.4766
809.431	23.5146
812.806	18.3398
816.181	30.7559
819.556	30.8545
822.93	36.9004
826.305	31.0996
829.68	38.1709
833.055	24.771
836.43	34.3555
839.804	36.3115
843.179	37.7524
846.554	37.9429
849.929	28.3975
853.304	50.5815
856.679	39.627
860.053	50.5063
863.428	56.1787
866.803	38.4434
870.178	34.4185
873.553	17.7251
876.927	14.3921
880.302	9.6875
883.677	11.9331
887.052	25.2998
890.427	19.7588
893.802	24.7075
897.176	2.94727
900.551	0.246582
903.926	1.51953
907.301	4.56689
910.676	16.5405
914.05	19.8364
917.425	9.94287
920.8	11.4863
924.175	1.10693
927.55	18.27
930.924	1.23877
934.299	5.86963
937.674	20.7798
941.049	8.02685
944.424	2.19922
947.799	0.945313
951.173	1.06787
954.548	7.84033
957.923	9.63623
961.298	7.42822
964.673	12.8921
968.047	7.77051
971.422	12.5283
974.797	2.59717
978.172	1.11621
981.547	7.72656
984.922	6.92627
988.296	20.3765
991.671	18.6572
995.046	25.936
998.421	0.694336
1001.8	8.89111
1005.17	18.8584
1008.54	14.1392
1011.92	8.4043
1015.29	12.3477
1018.67	6.13623
1022.04	7.21143
1025.42	5.6582
1028.79	4.42432
1032.17	3.83691
1035.54	36.8716
1038.92	20.4575
1042.29	11.9414
1045.67	12.2637
1049.04	17.5142
1052.42	11.4375
1055.79	31.0566
1059.17	32.4551
1062.54	50.2217
1065.92	77.4727
1069.29	105.362
1072.67	167.035
1076.04	268.115
1079.42	412.573
1082.79	561.715
1086.17	672.097
1089.54	751.821
1092.92	716.931
1096.29	706.513
1099.66	730.743
1103.04	612.017
1106.41	453.76
1109.79	324.361
1113.16	192.662
1116.54	97.8999
1119.91	44.1397
1123.29	23.6167
1126.66	1.43262
1130.04	0.38623
1133.41	0.239746
1136.79	4.41064
1140.16	5.63086
1143.54	7.48975
1146.91	3.61572
1150.29	7.56494
1153.66	6.21338
1157.04	3.08398
1160.41	6.74316
1163.79	10.8633
1167.16	16.3198
1170.54	29.4824
1173.91	38.4653
1177.29	30.6191
1180.66	31.4653
1184.04	36.1685
1187.41	31.5239
1190.79	30.0801
1194.16	33.3071
1197.54	37.7188
1200.91	36.251
1204.28	34.6094
1207.66	26.5249
1211.03	19.7549
1214.41	25.978
1217.78	11.2476
1221.16	0.508301
1224.53	5.71094
1227.91	20.8652
1231.28	19.6895
1234.66	16.6396
1238.03	10.978
1241.41	3.48828
1244.78	5.80225
1248.16	10.7495
1251.53	11.3008
1254.91	14.3203
1258.28	19.9126
1261.66	14.8159
1265.03	17.2065
1268.41	18.1133
1271.78	10.5337
1275.16	2.04346
1278.53	15.3887
1281.9	9.72021
