Measurement: Raman, 514 nm, unoriented, Raman Data RAW
Mineral: Dumortierite
Rruff sample: X050065
Ideal chemistry: AlAl_6_BSi_3_O_18_
Locality: Dehesa, San Diego County, California, USA
Source: Caltech
Description: Single crystal
Raman shift (cm-1)	intensity
174.789	9086
178.941	9339
183.092	9690
187.24	10240
191.386	10780
195.53	11440
199.672	12180
203.812	12740
207.949	12730
212.085	12480
216.218	12080
220.349	11810
224.479	11830
228.606	11920
232.731	11860
236.853	11570
240.974	11550
245.093	11480
249.209	11450
253.324	11561.6
257.436	11760
261.546	11920
265.654	11750
269.761	11800
273.864	12220
277.966	13040
282.066	13540
286.164	13460
290.259	13260
294.353	12990
298.444	12580
302.534	12330
306.621	12320
310.706	12210
314.789	11890
318.87	11760
322.949	11800
327.026	11930
331.101	12000
335.174	12150
339.244	12560
343.313	12800
347.38	12950
351.444	13240
355.507	13760
359.567	14030
363.625	14260
367.682	14480
371.736	14540
375.788	14620
379.838	14540
383.886	14660
387.932	14840
391.976	14970
396.018	15020
400.058	15270
404.096	15700
408.131	15850
412.165	15730
416.197	15640
420.226	15230
424.254	15120
428.28	14910
432.303	14700
436.325	14820
440.344	14960
444.362	14980
448.377	15160
452.39	15500
456.402	15810
460.411	15860
464.419	15920
468.424	15990
472.427	16420
476.429	16440
480.428	16470
484.425	16750
488.42	16810
492.414	17260
496.405	17260
500.394	17370
504.381	17570
508.366	17780
512.35	17400
516.331	17280
520.31	17150
524.287	17230
528.263	16960
532.236	16750
536.207	16590
540.176	16350
544.143	16390
548.109	16490
552.072	16430
556.033	16430
559.993	16640
563.95	16670
567.905	16260
571.859	16060
575.81	15870
579.759	15760
583.707	15620
587.652	15400
591.596	15250
595.537	15410
599.477	15630
603.414	15830
607.35	15780
611.283	15800
615.215	15890
619.145	16000
623.072	16160
626.998	16130
630.922	16140
634.844	16230
638.764	16220
642.682	16110
646.598	16200
650.512	16170
654.424	16300
658.334	16530
662.242	16500
666.148	16490
670.052	16470
673.955	16510
677.855	16720
681.754	16380
685.65	16410
689.545	16150
693.437	16410
697.328	16490
701.217	17310
705.104	16550
708.989	16330
712.872	16600
716.753	16610
720.632	16870
724.509	16720
728.384	16810
732.258	17020
736.129	17410
739.999	17540
743.866	17430
747.732	17560
751.596	17580
755.457	17830
759.317	17710
763.175	17720
767.031	17430
770.886	17410
774.738	17450
778.588	17440
782.437	17490
786.283	17370
790.128	17380
793.971	17510
797.812	17670
801.651	17840
805.488	17760
809.323	17700
813.156	17700
816.988	18220
820.817	18210
824.645	18350
828.47	18628.6
832.294	18690
836.116	18780
839.936	19010
843.755	19050
847.571	19060
851.385	18940
855.198	18780
859.008	19220
862.817	19530
866.624	19670
870.429	19660
874.232	19740
878.034	20030
881.833	20050
885.631	20400
889.426	20630
893.22	20830
897.012	20530
900.802	20800
904.591	21080
908.377	21700
912.161	22190
915.944	22450
919.725	22620
923.504	22670
927.281	23970
931.056	25290
934.83	26220
938.601	27060
942.371	27820
946.139	28800
949.905	28560
953.669	28580
957.431	27720
961.192	26590
964.95	25650
968.707	24530
972.462	24260
976.215	24340
979.966	24500
983.716	24650
987.464	24230
991.209	24530
994.953	25000
998.695	24810
1002.44	25350
1006.17	25310
1009.91	25010
1013.65	24660
1017.38	23820
1021.11	23540
1024.84	23420
1028.57	23470
1032.29	23340
1036.02	23280
1039.74	22860
1043.46	22520
1047.18	22490
1050.89	22670
1054.61	22860
1058.32	22820
1062.03	23040
1065.74	22820
1069.45	22400
1073.16	22450
1076.86	22780
1080.56	23000
1084.26	23370
1087.96	23440
1091.66	23160
1095.35	23040
1099.05	23170
1102.74	23040
1106.43	23320
1110.12	23690
1113.8	23640
1117.49	23510
1121.17	23450
1124.85	23280
1128.53	22840
1132.2	23400
1135.88	23810
1139.55	24110
1143.23	23570
1146.9	23950
1150.56	23520
1154.23	23630
1157.9	23780
1161.56	23710
1165.22	24250
1168.88	24400
1172.54	24280
1176.19	24240
1179.85	24070
1183.5	23800
1187.15	24150
1190.8	24480
1194.45	24670
1198.09	25040
1201.73	25170
1205.38	25260
1209.02	24820
1212.65	24780
1216.29	24860
1219.93	25680
1223.56	25910
1227.19	25900
1230.82	26180
1234.45	25990
1238.07	25930
1241.7	25600
1245.32	25930
1248.94	25930
1252.56	26570
1256.18	26700
1259.79	26700
1263.41	26690
1267.02	26300
1270.63	26090
1274.24	25950
1277.84	26110
1281.45	26620
1285.05	26640
1288.65	26830
1292.26	27290
1295.85	27280
1299.45	27240
1303.04	27110
1306.64	27070
1310.23	26690
1313.82	26960
1317.41	27440
1320.99	27760
1324.58	28050
1328.16	28420
1331.74	28360
1335.32	28260
1338.9	27800
1342.47	27760
1346.05	28140
1349.62	28110
1353.19	28880
1356.76	29190
1360.33	29400
1363.89	29870
1367.46	29970
1371.02	29240
1374.58	29350
1378.14	29450
1381.69	29440
1385.25	29590
