Measurement: Raman, 532 nm, unoriented, Raman Data RAW
Mineral: Ecdemite
Rruff sample: R060738
Ideal chemistry: Pb^2+^_6_As^3+^_2_O_7_Cl_4_
Locality: Laurium, Greece
Source: Michael Scott
Description: Tan colored spherical aggregates
Raman shift (cm-1)	intensity
130.683	58545.7
134.058	59458.5
137.433	62805.4
140.807	66545.5
144.182	69544.8
147.557	71385.4
150.932	72790.2
154.307	73963.3
157.682	75282.5
161.056	75814.5
164.431	73903
167.806	69919.9
171.181	65450.3
174.555	62152.4
177.93	60123.5
181.305	58492.7
184.68	57451.1
188.055	56602.8
191.43	55387.2
194.804	54103
198.179	52572.8
201.554	51085.8
204.929	49289.2
208.304	47948.6
211.678	46103.7
215.053	44620.4
218.428	43539.6
221.803	42656.2
225.178	41583.8
228.553	40912.7
231.927	40406.5
235.302	39882.2
238.677	39457.6
242.052	39045.2
245.427	39088.5
248.801	38823.1
252.176	38271.6
255.551	38110.3
258.926	37774.6
262.301	37822.7
265.676	37653.9
269.05	37357.9
272.425	37210.8
275.8	37084.9
279.175	36865.2
282.55	36721.7
285.924	36483.4
289.299	36368.5
292.674	36235.2
296.049	36044.1
299.424	36015.6
302.798	36341.5
306.173	36662.6
309.548	36613.5
312.923	36364.1
316.298	36204
319.672	35876.2
323.047	35851
326.422	35594.8
329.797	35532.2
333.172	35017.3
336.547	34852.9
339.921	34506.5
343.296	34035.2
346.671	33810.9
350.046	33719.1
353.421	33343.7
356.796	33209.1
360.17	33036.6
363.545	32803.2
366.92	32714
370.295	32691.9
373.67	32398.4
377.044	32512.6
380.419	32196.1
383.794	32026.6
387.169	32017.6
390.544	31946.9
393.918	31740.5
397.293	31522.7
400.668	31466.3
404.043	31373.3
407.418	31153.2
410.793	31073.1
414.167	31114.8
417.542	30965.2
420.917	30983
424.292	30804.8
427.667	30591.3
431.041	30749
434.416	30641.7
437.791	30699.4
441.166	30571.5
444.541	30425.5
447.915	30398.7
451.29	30144.5
454.665	30218.6
458.04	30150.6
461.415	29993.1
464.79	30106
468.164	30088.3
471.539	30044
474.914	29930.4
478.289	29787.3
481.664	29846.1
485.039	29935.5
488.413	29789
491.788	29702.2
495.163	29687.5
498.538	29510
501.913	29668.6
505.287	29649.8
508.662	29796
512.037	29887.4
515.412	29937.7
518.787	29990.7
522.161	30212.5
525.536	30200.8
528.911	30385.9
532.286	30436.1
535.661	30546.8
539.036	30555.4
542.41	30928.8
545.785	31110
549.16	31322
552.535	31473.1
555.909	31535.1
559.284	31650.5
562.659	31926.3
566.034	32108.9
569.409	32192.1
572.784	32273.4
576.158	32276.7
579.533	32230.9
582.908	32566.9
586.283	32629.7
589.658	32740.2
593.032	32828.2
596.407	33097.2
599.782	33197
603.157	33306.8
606.532	33588.1
609.907	33745.5
613.281	33846.2
616.656	34041.8
620.031	34157.5
623.406	34512.6
626.781	34474.9
630.156	34562.7
633.53	34652.4
636.905	34821.5
640.28	34840.6
643.655	35093.1
647.029	35166.4
650.404	35699.4
653.779	35716.9
657.154	35962
660.529	36057.8
663.904	36038.1
667.278	36182.5
670.653	36330.4
674.028	36309.1
677.403	36349.8
680.778	36579.9
684.153	36915.4
687.527	37320.2
690.902	37829.3
694.277	38465.6
697.652	39349.5
701.027	40231.7
704.401	41251
707.776	42298
711.151	42887.5
714.526	43051.7
717.901	43297.3
721.276	43177
724.65	42956.5
728.025	42961.6
731.4	42868.9
734.775	43212.7
738.149	43592.8
741.524	43878.4
744.899	44042.4
748.274	43839
751.649	43212.6
755.024	42379.9
758.398	41416.1
761.773	40211.1
765.148	39437.4
768.523	38873.8
771.898	38450.7
775.273	38076.2
778.647	37922.5
782.022	38076.1
785.397	38251.4
788.772	38657
792.146	39355.7
795.521	40220.6
798.896	40867.3
802.271	41714.1
805.646	42296.7
809.021	42197.7
812.395	41705.4
815.77	40960.9
819.145	40003.5
822.52	39278.4
825.895	38592.8
829.269	38355.2
832.644	37595.3
836.019	36932.5
839.394	36459.8
842.769	36076.2
846.144	35892.4
849.518	35528.2
852.893	35236.2
856.268	34890.4
859.643	34776.5
863.018	34715.3
866.393	34470.5
869.767	34335.8
873.142	34292.2
876.517	34252.7
879.892	34307.6
883.266	34384.4
886.641	34310
890.016	34332.5
893.391	34287.1
896.766	34249
900.141	34001.1
903.515	33781.7
906.89	33614.8
910.265	33704.5
913.64	33667.4
917.015	33712.9
920.39	33815.9
923.764	33982.5
927.139	34155.8
930.514	34164.9
933.889	34008.8
937.264	34067.6
940.638	34151.3
944.013	33930.3
947.388	33985.3
950.763	34154.8
954.138	34359.2
957.513	34333.2
960.887	34536.3
964.262	34674.9
967.637	34545.6
971.012	34600.7
974.386	34305.6
977.761	34396.2
981.136	34115.3
984.511	34204.4
987.886	34091.7
991.261	34221.2
994.635	34088.5
998.01	34263.1
1001.38	34219.2
1004.76	34444.4
1008.13	34370.1
1011.51	34512.6
1014.88	34571.6
1018.26	34604.1
1021.63	34782.6
1025.01	34977.7
1028.38	35075.5
1031.76	35068.1
1035.13	35106.5
1038.51	35396.5
1041.88	35236.1
1045.26	35262.7
1048.63	35349.8
1052.01	35443.4
1055.38	35682.3
1058.76	35636.3
1062.13	35602.2
1065.51	35540.9
1068.88	35603.3
1072.26	35774.1
1075.63	35711.1
1079.01	35766.4
1082.38	35720.6
1085.76	35948.5
1089.13	36148.4
1092.51	36039.8
1095.88	36472.1
1099.26	36386
1102.63	36387.3
1106	36494.3
1109.38	36367.4
1112.75	36407.4
1116.13	36529
1119.5	36456
1122.88	36488.8
1126.25	36647
1129.63	36787.6
1133	36909.1
1136.38	36821.6
1139.75	36927.3
1143.13	36987.7
1146.5	36917.7
1149.88	37049.9
1153.25	37187.8
1156.63	37211.3
1160	37183.2
1163.38	37329.5
1166.75	37183
1170.13	37279.8
1173.5	37466.3
1176.88	37589.1
1180.25	37682
1183.62	38001
1187	37808
1190.38	37802.1
1193.75	37837
1197.12	37832.1
1200.5	37791.7
1203.87	37992.1
1207.25	38087.1
1210.62	38180.5
1214	38166.7
1217.37	38266.3
1220.75	38321.1
1224.12	38414.5
1227.5	38433.8
1230.87	38637.8
1234.25	38759.1
1237.62	38924.7
1241	38993.7
1244.37	39041
1247.75	39209.2
1251.12	39176.7
1254.5	39140
1257.87	39408.2
1261.25	39117.1
1264.62	39253.7
1267.99	39417.9
1271.37	39707.1
1274.74	39801.9
1278.12	39909.1
1281.49	39860.8
1284.87	40017.8
1288.24	40117.2
1291.62	40174.6
1294.99	40295.9
