Measurement: Raman, 780 nm, unoriented, Raman Data Processed
Mineral: Eddavidite
Rruff sample: R050381
Ideal chemistry: Cu^2+^_12_Pb^4+^_2_O_15_Br_2_
Locality: Southwest mine, Bisbee, Arizona, USA
Source: University of Arizona Mineral Museum
Description: Black cubes, associated with malachite and cuprite. Type sample
Measured chemistry: Pb_1.95_Cu_12.14_O_15.09_(Br_1.16_Cl_0.75_)_Î£1.91_
Raman shift (cm-1)	intensity
111.206	0
114.581	0.38678
117.955	2.24023
121.33	7.19501
124.705	9.60919
128.08	20.0159
131.455	17.8861
134.829	24.5453
138.204	22.7816
141.579	26.1816
144.954	22.9379
148.329	16.4308
151.704	14.9463
155.078	6.23303
158.453	3.40277
161.828	3.95001
165.203	0.934814
168.578	1.9342
171.952	8.22766
175.327	1.94147
178.702	1.83514
182.077	5.74268
185.452	2.55664
188.827	4.56256
192.201	6.24243
195.576	2.99689
198.951	9.96558
202.326	12.7989
205.701	9.43634
209.076	9.84399
212.45	9.9032
215.825	10.5724
219.2	14.116
222.575	17.8876
225.95	17.1951
229.324	21.928
232.699	24.4712
236.074	32.9198
239.449	34.7888
242.824	41.2592
246.198	51.7947
249.573	52.7858
252.948	60.6289
256.323	74.4504
259.698	87.9744
263.073	98.596
266.447	116.56
269.822	120.227
273.197	124.387
276.572	118.42
279.947	102.346
283.322	84.7589
286.696	67.5023
290.071	49.509
293.446	34.6638
296.821	21.7053
300.196	16.1322
303.57	20.6029
306.945	14.3336
310.32	16.8001
313.695	23.8206
317.07	22.9396
320.445	24.8658
323.819	24.4488
327.194	24.5466
330.569	20.1985
333.944	18.0829
337.319	13.3528
340.693	8.60315
344.068	9.98483
347.443	6.15149
350.818	4.93085
354.193	0.026184
357.567	2.30377
360.942	4.36899
364.317	1.68106
367.692	0.156738
371.067	0.80603
374.442	1.12894
377.816	2.41919
381.191	0.768921
384.566	2.89383
387.941	2.72253
391.316	5.00644
394.69	4.08466
398.065	3.68735
401.44	2.94528
404.815	7.1478
408.19	6.90469
411.565	6.57312
414.939	9.17957
418.314	8.16879
421.689	7.83954
425.064	6.3519
428.439	5.92706
431.813	10.3416
435.188	6.75113
438.563	7.83237
441.938	7.18076
445.313	6.71014
448.688	8.35556
452.062	6.21115
455.437	5.80362
458.812	8.07333
462.187	6.54736
465.562	6.39654
468.937	4.82989
472.311	6.39569
475.686	3.4278
479.061	3.66892
482.436	2.04211
485.81	2.76822
489.185	0.672119
492.56	1.4808
495.935	3.32925
499.31	4.41739
502.685	0.072754
506.059	1.11417
509.434	0.393402
512.809	4.439
516.184	0.240112
519.559	3.63669
522.933	1.86908
526.308	3.90271
529.683	2.73972
533.058	4.95636
536.433	4.16122
539.808	2.7894
543.182	0.461151
546.557	1.14816
549.932	3.36096
553.307	3.51984
556.682	5.50012
560.057	1.26737
563.431	4.06207
566.806	6.00024
570.181	2.23529
573.556	3.73843
576.931	6.21756
580.305	5.20767
583.68	0.700409
587.055	1.39966
590.43	5.53864
593.805	6.16153
597.18	3.66214
600.554	8.3345
603.929	7.75101
607.304	6.32565
610.679	5.22226
614.054	2.05814
617.428	4.34134
620.803	6.10443
624.178	2.89426
627.553	2.83615
630.928	7.80444
634.303	4.07266
637.677	4.19305
641.052	2.23593
644.427	2.38626
647.802	1.34326
651.177	0.72525
654.552	0.671692
657.926	2.88916
661.301	0.328094
664.676	2.9032
668.051	0.468781
671.426	0.976044
674.8	2.21667
678.175	1.8262
681.55	3.65674
684.925	7.0083
688.3	4.47324
691.674	2.81442
695.049	1.94989
698.424	8.9382
701.799	5.39017
705.174	4.73062
708.548	8.65408
711.923	3.29266
715.298	7.41718
718.673	7.02606
722.048	4.08533
725.423	3.57663
728.797	5.36502
732.172	6.54932
735.547	6.87372
738.922	5.00278
742.297	5.30978
745.672	2.94141
749.046	2.18994
752.421	2.71716
755.796	1.04556
759.171	1.32935
762.546	3.37058
765.92	4.9498
769.295	1.32898
772.67	3.54263
776.045	3.63178
779.42	5.10059
782.795	3.35049
786.169	1.98294
789.544	1.92294
792.919	6.23941
796.294	3.80887
799.669	0.757111
803.043	4.87564
806.418	6.72116
809.793	0.788177
813.168	2.43668
816.543	5.32675
819.918	11.5522
823.292	2.49344
826.667	1.63907
830.042	0.635376
833.417	3.09363
836.792	5.03555
840.166	3.84677
843.541	4.1441
846.916	4.87317
850.291	4.30252
853.666	5.25696
857.04	4.07581
860.415	5.49994
863.79	8.92017
867.165	5.48853
870.54	7.48331
873.915	5.62549
877.289	2.74457
880.664	4.16788
884.039	5.40714
887.414	2.66065
890.789	2.6698
894.163	0.932465
897.538	5.41025
900.913	0.486359
904.288	4.73303
907.663	0.024445
911.038	2.24472
914.412	0.908264
917.787	3.86002
921.162	0.61734
924.537	5.27194
927.912	6.15186
931.287	4.96579
934.661	4.60773
938.036	5.42358
941.411	3.42331
944.786	5.67899
948.161	4.42697
951.535	2.66168
954.91	1.50687
958.285	2.99225
961.66	2.49344
965.035	6.42859
968.409	1.57526
971.784	2.11649
975.159	0.342438
978.534	5.38828
981.909	4.44479
985.284	1.64899
988.658	0.823608
992.033	2.80374
995.408	3.34299
998.783	4.31366
1002.16	3.65128
1005.53	3.24817
1008.91	0.82605
1012.28	3.85364
1015.66	3.01263
1019.03	5.09271
1022.41	3.92395
1025.78	0.07019
1029.16	4.02295
1032.53	5.62408
1035.91	4.47949
1039.28	2.66107
1042.66	4.45947
1046.03	4.93616
1049.4	3.21527
1052.78	1.85126
1056.15	8.62799
1059.53	8.54675
1062.9	8.35767
1066.28	8.66449
1069.65	7.32117
1073.03	6.61475
1076.4	3.80035
1079.78	10.4405
1083.15	9.66492
1086.53	13.4773
1089.9	13.1239
1093.28	6.14307
1096.65	3.84448
1100.03	10.8956
1103.4	1.83429
1106.78	7.86273
1110.15	0.305298
1113.53	0.440857
1116.9	0.746643
1120.28	4.33417
1123.65	0.376892
1127.03	1.8291
1130.4	0.157043
1133.78	2.9209
1137.15	6.67273
1140.53	6.06683
1143.9	12.3584
1147.28	1.79602
1150.65	11.519
1154.03	3.88946
1157.4	4.23486
1160.77	1.22333
1164.15	0.020752
1167.52	5.3728
1170.9	7.5545
1174.27	7.83807
1177.65	10.8041
1181.02	1.133
1184.4	4.3205
1187.77	6.83398
1191.15	9.20807
1194.52	13.4376
1197.9	4.55359
1201.27	2.48975
1204.65	8.12903
1208.02	5.49426
1211.4	6.85632
1214.77	2.51086
1218.15	8.32416
1221.52	9.10217
1224.9	2.60754
1228.27	1.52667
1231.64	1.49408
1235.02	3.73615
1238.39	3.65369
1241.77	5.06561
1245.14	5.9245
1248.52	1.37805
1251.89	3.1615
1255.27	5.70178
1258.64	9.64618
1262.02	6.89398
1265.39	7.48541
1268.77	0.94989
1272.14	3.04175
1275.52	1.58673
1278.89	0.103943
1282.27	0
