Measurement: Raman, 532 nm, unoriented, Raman Data Processed
Mineral: Eddavidite
Rruff sample: R050381
Ideal chemistry: Cu^2+^_12_Pb^4+^_2_O_15_Br_2_
Locality: Southwest mine, Bisbee, Arizona, USA
Source: University of Arizona Mineral Museum
Description: Black cubes, associated with malachite and cuprite. Type sample
Measured chemistry: Pb_1.95_Cu_12.14_O_15.09_(Br_1.16_Cl_0.75_)_Î£1.91_
Raman shift (cm-1)	intensity
88.1367	0
91.5115	9.37006
94.8863	6.62409
98.2612	0.182625
101.636	2.5984
105.011	1.88785
108.386	24.5932
111.76	16.1251
115.135	28.8546
118.51	38.7484
121.885	37.2953
125.26	44.725
128.635	38.4887
132.009	45.2039
135.384	39.6468
138.759	44.8693
142.134	46.7612
145.509	36.6881
148.883	37.0648
152.258	32.3261
155.633	32.8013
159.008	22.0213
162.383	21.7511
165.757	19.353
169.132	17.7453
172.507	16.2388
175.882	15.3879
179.257	13.8072
182.632	11.2079
186.006	11.746
189.381	10.0236
192.756	6.35542
196.131	6.66809
199.506	3.94536
202.881	1.52782
206.255	1.69707
209.63	0.522919
213.005	0.557449
216.38	0.485443
219.755	0.413025
223.129	0.21965
226.504	0.137177
229.879	0.679199
233.254	1.58707
236.629	4.29137
240.004	2.66019
243.378	5.96622
246.753	5.14368
250.128	4.19125
253.503	5.10959
256.878	5.25177
260.252	7.24683
263.627	11.8652
267.002	11.3699
270.377	14.6075
273.752	19.9938
277.127	22.7002
280.501	27.6702
283.876	29.7305
287.251	37.7583
290.626	43.0957
294.001	46.8422
297.375	52.3947
300.75	58.2349
304.125	61.9293
307.5	65.0369
310.875	68.9372
314.25	71.2178
317.624	71.1787
320.999	72.2815
324.374	68.1792
327.749	64.6464
331.124	59.6518
334.498	50.9722
337.873	44.7249
341.248	37.9884
344.623	31.0448
347.998	21.9604
351.373	15.5407
354.747	10.9163
358.122	6.7698
361.497	4.09434
364.872	1.59736
368.247	0.287971
371.621	0.383133
374.996	1.9884
378.371	1.8856
381.746	0.673874
385.121	0.853256
388.495	0.839821
391.87	0.619415
395.245	0.645004
398.62	0.214142
401.995	1.44566
405.37	2.9491
408.744	3.20598
412.119	4.32916
415.494	7.50775
418.869	8.67824
422.244	10.2787
425.618	12.6976
428.993	14.0837
432.368	15.84
435.743	16.4833
439.118	20.5776
442.493	23.8369
445.867	28.0735
449.242	29.3649
452.617	31.4173
455.992	30.1095
459.367	29.8176
462.741	27.8118
466.116	22.3276
469.491	20.2717
472.866	17.3978
476.241	16.7824
479.615	16.5868
482.99	18.4483
486.365	18.3513
489.74	21.661
493.115	24.7481
496.49	28.3346
499.864	33.3964
503.239	34.9537
506.614	38.3768
509.989	39.4843
513.364	44.8665
516.739	50.6576
520.113	62.2065
523.488	79.5874
526.863	92.833
530.238	88.6973
533.613	68.79
536.987	43.6254
540.362	27.07
543.737	16.9912
547.112	10.567
550.487	6.88153
553.861	4.58996
557.236	2.44541
560.611	1.763
563.986	0.2472
567.361	0.610023
570.736	0.847664
574.11	0.622589
577.485	0.543083
580.86	0.776054
584.235	0.843193
587.61	1.55897
590.985	0.263397
594.359	0.527634
597.734	0.191299
601.109	1.40944
604.484	3.00718
607.859	0.884247
611.233	1.6335
614.608	3.08162
617.983	2.22291
621.358	3.1394
624.733	3.12264
628.107	3.68472
631.482	3.91705
634.857	3.90198
638.232	4.43458
641.607	4.74729
644.982	3.63661
648.356	3.17062
651.731	4.16969
655.106	3.12218
658.481	3.3652
661.856	2.61408
665.231	3.51857
668.605	3.10267
671.98	5.77919
675.355	2.66722
678.73	3.56947
682.105	2.6028
685.479	1.90264
688.854	0.97805
692.229	1.08585
695.604	1.73985
698.979	1.19134
702.354	1.47303
705.728	1.14696
709.103	1.58584
712.478	0.768341
715.853	1.31042
719.227	1.0977
722.602	1.0237
725.977	1.66165
729.352	0.625546
732.727	0.886723
736.102	0.454895
739.476	0.107933
742.851	1.57176
746.226	0.492577
749.601	0.52882
752.976	0.577717
756.351	0.54285
759.725	0.888783
763.1	0.468716
766.475	0.88699
769.85	1.60452
773.225	0.806629
776.599	1.12126
779.974	0.40506
783.349	0.75864
786.724	0.476803
790.099	0.765472
793.473	0.040424
796.848	1.71183
800.223	0.979683
803.598	0.980202
806.973	1.25063
810.348	0.16013
813.722	1.5566
817.097	0.731621
820.472	0.720474
823.847	2.14014
827.222	1.21205
830.597	0.9706
833.971	1.80415
837.346	2.04
840.721	1.53669
844.096	1.51533
847.471	0.31461
850.846	0.333935
854.22	1.32177
857.595	2.18621
860.97	0.822758
864.345	0.330296
867.72	0.697762
871.094	0.043709
874.469	0.024933
877.844	0.33939
881.219	0.887093
884.594	0.254692
887.968	0.199184
891.343	0.17947
894.718	0.779118
898.093	1.52645
901.468	0.23851
904.842	1.56216
908.217	0.971584
911.592	2.2208
914.967	2.31783
918.342	1.37463
921.717	2.49554
925.091	1.49346
928.466	1.98527
931.841	2.80435
935.216	1.6297
938.591	1.83238
941.966	1.65377
945.34	0.346706
948.715	1.2768
952.09	2.12868
955.465	1.97396
958.84	1.78079
962.214	0.771778
965.589	1.76442
968.964	1.32353
972.339	2.29633
975.714	1.76691
979.088	1.23312
982.463	2.06095
985.838	2.6017
989.213	0.095127
992.588	0.733231
995.963	2.03293
999.337	0.781933
1002.71	1.78236
1006.09	1.45411
1009.46	2.09686
1012.84	1.43434
1016.21	1.52525
1019.59	1.42428
1022.96	0.249432
1026.34	1.0532
1029.71	0.873703
1033.09	1.36313
1036.46	0.868946
1039.84	0.504177
1043.21	1.60279
1046.59	1.2111
1049.96	0.704075
1053.33	0.413181
1056.71	0.189434
1060.08	1.2009
1063.46	1.78771
1066.83	1.05539
1070.21	1.77976
1073.58	0.819927
1076.96	0.681602
1080.33	1.16175
1083.71	0.969463
1087.08	1.0014
1090.46	1.05172
1093.83	0.824085
1097.21	0.801792
1100.58	0.951244
1103.96	0.897026
1107.33	0.124355
1110.71	0.959122
1114.08	0.360939
1117.46	0.265686
1120.83	0.658901
1124.21	0.829739
1127.58	0.051456
1130.95	0.04744
1134.33	0.97047
1137.7	1.19529
1141.08	0.043911
1144.45	0.966267
1147.83	1.07743
1151.2	1.10993
1154.58	1.8483
1157.95	0.262459
1161.33	1.32857
1164.7	0.109577
1168.08	0.617756
1171.45	1.04199
1174.83	0.127964
1178.2	2.2619
1181.58	1.77692
1184.95	0.746475
1188.33	1.92766
1191.7	1.15787
1195.08	0.414806
1198.45	1.1745
1201.83	0.232491
1205.2	1.15663
1208.58	0.996143
1211.95	1.17555
1215.33	0.669968
1218.7	0.416183
1222.08	0.990402
1225.45	1.359
1228.83	0.501595
1232.2	3.16704
1235.58	1.44756
1238.95	0.104515
1242.32	1.26958
1245.7	1.54479
1249.07	0.938377
1252.45	0.617275
1255.82	0.940147
1259.2	1.1881
1262.57	1.3311
1265.95	0.798351
1269.32	0.568573
1272.7	1.13049
1276.07	0.328602
1279.45	1.21104
1282.82	1.81192
1286.2	0.487026
1289.57	1.86967
1292.95	1.15257
1296.32	1.59422
1299.7	0.366322
