Measurement: Raman, 514 nm, unoriented, Raman Data RAW
Mineral: Ekanite
Rruff sample: X060007
Ideal chemistry: Ca_2_ThSi_8_O_20_
Locality: Sri Lanka
Source: University of Arizona Mineral Museum
Description: Single crystal
Raman shift (cm-1)	intensity
124.945	12757.3
129.995	13405
135.042	14029
140.085	14478.3
145.125	14907.3
150.161	15238.7
155.193	15670
160.222	15865.7
165.247	16266.7
170.268	16641
175.286	16801
180.3	16982
185.31	17409.7
190.317	17667.3
195.32	18023.7
200.32	18523
205.316	18566.7
210.308	18588.3
215.297	18693.7
220.283	18657.2
225.264	18529
230.242	18418.7
235.217	18129
240.187	18195
245.155	18295.7
250.118	18339.3
255.078	18440.3
260.035	18516.7
264.988	18782
269.937	18755.7
274.883	18834
279.825	19037.3
284.764	19132.3
289.699	19195.3
294.63	19504
299.558	19664.7
304.482	19717
309.403	20025.7
314.321	20214.7
319.234	20640.7
324.144	20792
329.051	21284.3
333.954	21713.7
338.853	22129.7
343.749	22507.7
348.641	22588.3
353.53	22386.7
358.416	22188.7
363.297	22012
368.175	21823.4
373.05	21713
377.921	21719.7
382.789	21622.7
387.653	21617
392.514	21647
397.371	21669.3
402.224	21817.7
407.074	21851.7
411.921	22197.3
416.763	22342.7
421.603	22390
426.439	22645
431.271	22890.3
436.1	22946
440.926	23099.5
445.748	22948.7
450.566	22640.3
455.381	22551.3
460.192	22320.3
465	22213.7
469.805	21993.7
474.606	21951.7
479.403	21827
484.197	21790
488.987	21722.3
493.775	21550.3
498.558	21582.3
503.338	21494.3
508.115	21532.3
512.888	21527.7
517.657	21460.7
522.424	21410.3
527.186	21462.7
531.946	21450.7
536.701	21565.3
541.454	21391.7
546.203	21427
550.948	21313
555.69	21380.3
560.429	21317.3
565.164	21445
569.895	21426.7
574.623	21328.7
579.348	21306.3
584.069	21359.5
588.787	21359
593.502	21363
598.213	21308.3
602.92	21337
607.624	21306.7
612.325	21236
617.022	21169.3
621.716	21151.7
626.407	21186.7
631.094	21106
635.777	21040.3
640.457	21151
645.134	20978
649.808	21024
654.478	21023.7
659.144	21179.3
663.807	21063.3
668.467	21053.4
673.123	21046.3
677.776	21071.7
682.426	21107.7
687.072	21252.7
691.715	21245.7
696.354	21205.7
700.99	21287.7
705.623	21412.3
710.252	21359.3
714.878	21542.3
719.5	21618.3
724.119	21528
728.735	21638.7
733.347	21620
737.956	21642.7
742.562	21798.3
747.164	21841
751.763	21904.3
756.359	21905.3
760.951	21989.3
765.54	22128.3
770.125	22235
774.707	22321.7
779.286	22433.3
783.861	22434.8
788.433	22505.3
793.002	22646.7
797.567	22659.3
802.129	22830.7
806.688	22874
811.243	22984.3
815.795	23095.7
820.344	23177.3
824.889	23254
829.431	23348
833.97	23606.3
838.505	23707.6
843.037	23899.2
847.566	24156.6
852.091	24178
856.614	24531
861.132	24675
865.648	24803.1
870.16	25245.8
874.669	25324
879.174	25529.3
883.676	25635.1
888.175	25968.5
892.671	26140.2
897.163	26371.6
901.652	26647.6
906.138	26784.7
910.62	27106.3
915.1	27278.2
919.575	27453.6
924.048	27626.4
928.517	27907.3
932.983	28170.8
937.446	28408.6
941.905	28597.4
946.362	28943
950.815	29142.9
955.264	29486.5
959.71	29834.6
964.154	30134.8
968.593	30444.7
973.03	30879.3
977.463	31470.3
981.893	32152.7
986.32	33063
990.744	33796.1
995.164	33702.2
999.581	33350.8
1004	32470.6
1008.41	31755.7
1017.17	31078
1021.66	30499.3
1026.15	30235
1030.64	30170
1035.12	29981.7
1039.6	29907.3
1044.08	30037.7
1048.55	29967.3
1053.02	29843.7
1057.49	29866.7
1061.95	29909.3
1066.42	29967.3
1070.87	30214
1075.33	30247.7
1079.78	30314.7
1084.23	30482
1088.67	30417.3
1093.12	30565
1097.56	30492
1101.99	30637.7
1106.42	30758
1110.86	30740.3
1115.28	30783.3
1119.7	30992.3
1124.12	30969.3
1128.54	30947
1132.96	31077.3
1137.37	31049.7
1141.78	31149.7
1146.18	31240
1150.58	31280.7
1154.98	31333.7
1159.38	31360.7
1163.77	31506.3
1168.16	31490.7
1172.54	31647
1176.92	31767.7
1181.31	31747.3
1185.68	31761.3
1190.06	31718.7
1194.42	31802.7
1198.79	31898.3
1203.16	31839.3
1207.52	31999
1211.88	31958.7
1216.23	32030.3
1220.58	32113.3
1224.93	32184.3
1229.28	32158
1233.62	32418.3
1237.96	32446.3
1242.3	32497.3
1246.63	32395.3
1250.96	32621
1255.29	32529.3
1259.61	32681.7
1263.93	32754.7
1268.25	32729.7
1272.56	32863.7
1276.88	32792
1281.18	33009.5
1285.49	33023.3
1289.79	32965.7
1294.09	33102
1298.39	33281.3
1302.68	33312.3
1306.97	33365
1311.26	33377.7
1315.54	33448.7
1319.82	33470
1324.1	33618
1328.38	33676.7
1332.65	33794
1336.92	33907
1341.18	33928.3
1345.45	34190
1349.71	34099
1353.96	34187.7
1358.22	34307.3
1362.47	34425.3
1366.71	34531.7
1370.96	34677.3
1375.2	34754.3
1379.44	34961.3
1383.67	34911
1387.91	34960
1392.14	35115.7
1396.36	35120.3
1400.59	35114
1404.81	35202
1409.02	35336.7
1413.24	35488.7
1417.45	35484.7
1421.66	35616.7
1425.86	35809.3
1430.07	36031
1434.26	35945
1438.46	36146.7
1442.65	36252
1446.84	36218
1451.03	36308.3
1455.22	36536.3
1459.4	36554.3
1463.58	36555
1467.75	36634.3
1471.92	36635.3
1476.09	36839.3
1480.26	36763
1484.42	36795
1488.58	36834.7
1492.74	36660
1496.89	36660.7
1501.05	36817.3
1505.19	37169
1509.34	37088.3
1513.48	37264
1517.62	37247.3
1521.76	37305.7
1525.89	37329.7
1530.02	37436
1534.15	37418.7
1538.27	37539.3
1542.39	37449.3
1546.51	37693.3
1550.63	37695.7
1554.74	37812
1558.85	37796.3
1562.96	37881
1567.06	37802.3
1571.16	37900.3
1575.26	37968.7
1579.36	38180.3
1583.45	38136
1587.54	38116.7
1591.62	38151
1595.71	38313
1599.79	38375.3
1603.87	38329.3
1607.94	38330.7
1612.01	38330.3
1616.08	38373
1620.14	38581.7
1624.21	38554.7
1628.27	38399
1632.32	38422.7
1636.38	38510.7
1640.43	38498.3
1644.48	38550.7
1648.52	38620.3
1652.57	38698.4
1656.6	38794.3
