Measurement: Raman, 514 nm, unoriented, Raman Data RAW
Mineral: Elbaite
Rruff sample: X050066
Ideal chemistry: Na(Al_1.5_Li_1.5_)Al_6_(Si_6_O_18_)(BO_3_)_3_(OH)_3_OH
Locality: Otjimbinque, Namibia
Source: G.R. Rossman
Raman shift (cm-1)	intensity
97.5	117
108.3	380.869
119.1	1010.33
130	1892.71
140.8	2826.85
151.6	4084.79
162.5	4287.17
173.3	4903.45
184.1	5290.73
195	7189.74
205.8	12012.1
216.6	30398.3
227.5	39253.5
238.3	26384.4
249.1	26633.2
260	22998
270.8	20759.4
281.6	14309.6
292.5	9243.03
303.3	8057.99
314.1	10716.5
325	10507
335.8	11086.3
346.6	13461.1
357.5	18537.3
368.3	42032.3
379.1	48854.3
390	24375.4
400.8	22160.6
411.6	21253.2
422.5	12952
433.3	8251.73
444.1	7216.53
455	6510.63
465.8	6172.18
476.6	6113.72
487.5	6889.28
498.3	8654.85
509.1	11217.4
520	11678.2
530.8	9567.35
541.6	8421.13
552.5	7154.33
563.3	6594.29
574.1	6388.09
585	6734.62
595.8	6932.34
606.6	6826.67
617.5	7245.43
628.3	10444.4
639.1	17239.7
650	15504.9
660.8	11131.9
671.6	8210.12
682.5	7724.81
693.3	11465.1
704.1	24076
715	22076.2
725.8	10683.4
736.6	8445.94
747.5	11194
758.3	8873.6
769.1	5314.09
780	4185.49
790.8	3809.67
801.6	3636.55
812.5	3767.52
823.3	4248.64
834.1	5238.94
845	4511.92
855.8	3991.72
866.6	3978.71
877.5	4347.02
888.3	4807.34
899.1	3785.01
910	3204.82
920.8	3176.46
931.6	3561.77
942.5	4262.29
953.3	5510.44
964.1	7527.81
975	8555.79
985.8	8392.2
996.6	8249.9
1007.5	7692.62
1018.3	7345.56
1029.1	7096.74
1040	6897.71
1050.8	7782.29
1061.6	9287.7
1072.5	10619.9
1083.3	12196.5
1094.1	11112.9
1105	7295.15
1115.8	5237.12
1126.6	4286.18
1137.5	3455
1148.3	2808.79
1159.1	2458.22
1170	2337.87
1180.8	2295.84
1191.6	2264.28
1202.5	2289.73
1213.3	2265.61
1224.1	2267.66
1235	2361.4
1245.8	2400.3
1256.6	2550.35
1267.5	2602.22
1278.3	2657.81
1289.1	2722.36
1300	2647.69
1310.8	2723
1321.6	2755.94
1332.5	2725.33
1343.3	2662.32
1354.1	2702.63
1365	2732.28
1375.8	2764.24
1386.6	2859.67
1397.5	3132.49
1408.3	3252.15
1419.1	3073.38
1430	2918.29
1440.8	2914.62
1451.6	2843.5
1462.5	2941.98
1473.3	2758.88
1484.1	2608.55
1495	2597.81
1505.8	2685.86
1516.6	2782.05
1527.5	2743.06
1538.3	2653.19
1549.1	2593.16
1560	2444.81
1570.8	2386.37
1581.6	2437.77
1592.5	2343.39
1603.3	2365.65
1614.1	2349.23
1625	2340.46
1635.8	2451.28
1646.6	2465.71
1657.5	2557.9
1668.3	2589.55
1679.1	2497.81
1690	2484.79
1700.8	2472.14
1711.6	2503.2
1722.5	2542.64
1733.3	2482.97
1744.1	2481.48
1755	2469.81
1765.8	2437.8
1776.6	2375.48
1787.5	2388.64
1798.3	2377.27
1809.1	2351.36
1820	2389.02
1830.8	2410.42
1841.6	2386.62
1852.5	2484.51
1863.3	2532.68
1874.1	2557.19
1885	2612.85
1895.8	2666.27
1906.6	2684.72
1917.5	2659.37
1928.3	2709.76
1939.1	2688.69
1950	2644.95
1960.8	2659.53
1971.6	2674.1
1982.5	2688.67
1993.3	2679
2004.1	2766.15
2015	2763.84
2025.8	2765.41
2036.6	2787.29
2047.5	2756.74
2058.3	2719.78
2069.1	2668.22
2080	2593.33
2090.8	2570.31
2101.6	2554.54
2112.5	2502.11
2123.3	2531.8
2134.1	2493.04
2145	2508.47
2155.8	2450.41
2166.6	2477.3
2177.5	2460.31
2188.3	2393.33
2199.1	2410.9
2210	2407.04
2220.8	2434.84
2231.6	2441.51
2242.5	2430.04
2253.3	2418.49
2264.1	2459.98
2275	2417.8
2285.8	2437.25
2296.6	2441.97
2307.5	2459.69
2318.3	2419.48
2329.1	2581.05
2340	2449.78
2350.8	2462.73
2361.6	2452.44
2372.5	2441.3
2383.3	2449.13
2394.1	2449.31
2405	2435.09
2415.8	2449.38
2426.6	2444.29
2437.5	2478.05
2448.3	2461.43
2459.1	2482.58
2470	2474.91
2480.8	2498.3
2491.6	2531.98
2502.5	2516.25
2513.3	2481.07
2524.1	2469.15
2535	2469.28
2545.8	2481.48
2556.6	2472.6
2567.5	2463.72
2578.3	2454.84
2589.1	2452.7
2600	2484.14
2610.8	2462.92
2621.6	2509
2632.5	2489.34
2643.3	2504.83
2654.1	2492.26
2665	2499.48
2675.8	2544.11
2686.6	2419.99
2697.5	2463.76
2708.3	2420.84
2719.1	2431.85
2730	2516.46
2740.8	2510.99
2751.6	2500.07
2762.5	2512.19
2773.3	2505.54
2784.1	2519.02
2795	2500.69
2805.8	2546.46
2816.6	2526.5
2827.5	2544.5
2838.3	2540.34
2849.1	2501.65
2860	2506.6
2870.8	2523.55
2881.6	2581.27
2892.5	2508.21
2903.3	2566.26
2914.1	2524.9
2925	2554.7
2935.8	2537.03
2946.6	2552.81
2957.5	2590.9
2968.3	2608.57
2979.1	2597.25
2990	2651.6
3000.8	2592.61
3011.6	2612.68
3022.5	2629.38
3033.3	2545.89
3044.1	2649.68
3055	2648.96
3065.8	2601.32
3076.6	2653.1
3087.5	2651.33
3098.3	2664
3109.1	2696.85
3120	2676.44
3130.8	2689.86
3141.6	2757.43
3152.5	2760.95
3163.3	2801.42
3174.1	2822.34
3185	2928.96
3195.8	2935.82
3206.6	2998.18
3217.5	3062.33
3228.3	3077.38
3239.1	3113.43
3250	3130.78
3260.8	3225.03
3271.6	3382.11
3282.5	3666.37
3293.3	4003.78
3304.1	4551.28
3315	4933.05
3325.8	5296.41
3336.6	5211.5
3347.5	5128.84
3358.3	4856.01
3369.1	4670.31
3380	4576
3390.8	4810.73
3401.6	5483.67
3412.5	7302.7
3423.3	11036.6
3434.1	16830.5
3445	25580.4
3455.8	38767.8
3466.6	54102.8
3477.5	59336.3
3488.3	53704.7
3499.1	41999.7
3510	27885.6
3520.8	17103.8
3531.6	11804.8
3542.5	12007.7
3553.3	17475.1
3564.1	25409.2
3575	39011.3
3585.8	56110.9
3596.6	52396.8
3607.5	29250.6
3618.3	11791
3629.1	5796.82
3640	5576.63
3650.8	12400.7
3661.6	8952.42
3672.5	4863.68
3683.3	4366.72
3694.1	3644.23
3704.9	3227.54
3715.8	3155.07
3726.6	3070.8
3737.4	3029.62
3748.3	2940.32
3759.1	2925.04
3769.9	2845.46
3780.8	2905.03
3791.6	2935.03
3802.4	2896.43
3813.3	2933.29
3824.1	2865.2
3834.9	2900.84
3845.8	2908.66
3856.6	2888.93
3867.4	2916.26
3878.3	2905.87
3889.1	2850.7
3899.9	2983.6
3910.8	2914.84
3921.6	2918.75
3932.4	2851
3943.3	2904.64
3954.1	2857.36
3964.9	2864.21
3975.8	2851.25
3986.6	2892.85
3997.4	2878.43
