Measurement: Raman, 514 nm, unoriented, Raman Data RAW
Mineral: Elbaite
Rruff sample: X050067
Ideal chemistry: Na(Al_1.5_Li_1.5_)Al_6_(Si_6_O_18_)(BO_3_)_3_(OH)_3_OH
Locality: Ware mine, Aguanga Mtns, San Diego County, California, USA
Source: G.R. Rossman
Raman shift (cm-1)	intensity
97.5	110
108.3	335.133
119.1	1009.69
130	2236.45
140.8	2768
151.6	3501.31
162.5	4226.69
173.3	4279.24
184.1	4856.89
195	5283.78
205.8	6526.86
216.6	13266.6
227.5	16387.8
238.3	11656.5
249.1	10602.2
260	9014.07
270.8	8529.11
281.6	7493.01
292.5	5803.29
303.3	5494.93
314.1	6337.63
325	7682.16
335.8	9319.47
346.6	10583.1
357.5	11646.2
368.3	23425.4
379.1	21866.2
390	11498.9
400.8	10312
411.6	10927
422.5	7213.61
433.3	5517.88
444.1	5643.91
455	5549.34
465.8	5381.38
476.6	5531.96
487.5	6321.75
498.3	7121.94
509.1	7013.8
520	6071.84
530.8	5271.6
541.6	5089.74
552.5	4801.53
563.3	4805.3
574.1	4794.4
585	4859.99
595.8	4562.86
606.6	4460.36
617.5	4648.15
628.3	6913.72
639.1	8543.07
650	6697.57
660.8	6126.17
671.6	4845.06
682.5	4535.02
693.3	7577.13
704.1	15327.2
715	9913.89
725.8	5307.22
736.6	4894.28
747.5	8895.96
758.3	8914.31
769.1	5155.72
780	3864.72
790.8	2792.64
801.6	2398.7
812.5	2280.14
823.3	2364.88
834.1	2898.01
845	3324.7
855.8	3250.24
866.6	2678.58
877.5	2303.97
888.3	2225.64
899.1	2193.52
910	2245.43
920.8	2471.13
931.6	2946.15
942.5	3372.25
953.3	3954.34
964.1	4722.33
975	5403.48
985.8	5525.51
996.6	5539.28
1007.5	5778.44
1018.3	6538.45
1029.1	6547.94
1040	7759.13
1050.8	12500.4
1061.6	13397.3
1072.5	8795.53
1083.3	7673.59
1094.1	6252.01
1105	4106.74
1115.8	3164.17
1126.6	2758.72
1137.5	2356.11
1148.3	2118.7
1159.1	2038.18
1170	2022.73
1180.8	2050.73
1191.6	1997.62
1202.5	2053.69
1213.3	2093.41
1224.1	2094.63
1235	2137.92
1245.8	2216.66
1256.6	2239.01
1267.5	2261.16
1278.3	2346.13
1289.1	2437.77
1300	2438.79
1310.8	2463.96
1321.6	2510
1332.5	2604.99
1343.3	2719.01
1354.1	2733.75
1365	2852.51
1375.8	3406.07
1386.6	3562.58
1397.5	3374.22
1408.3	3172.76
1419.1	3021.44
1430	2861.88
1440.8	2761.93
1451.6	2626.27
1462.5	2548.94
1473.3	2476.03
1484.1	2463.55
1495	2493.66
1505.8	2572.78
1516.6	2656.38
1527.5	2656.44
1538.3	2575.5
1549.1	2479.85
1560	2479.27
1570.8	2388.16
1581.6	2365.16
1592.5	2303.08
1603.3	2267.69
1614.1	2300.55
1625	2313
1635.8	2271.36
1646.6	2328.59
1657.5	2384.74
1668.3	2328.37
1679.1	2411.54
1690	2381.92
1700.8	2352.31
1711.6	2322.69
1722.5	2275.25
1733.3	2298.86
1744.1	2244.1
1755	2244.64
1765.8	2243.51
1776.6	2181.89
1787.5	2226.12
1798.3	2234.14
1809.1	2226.68
1820	2230.47
1830.8	2186.05
1841.6	2248.7
1852.5	2283.08
1863.3	2278.58
1874.1	2248.66
1885	2287.23
1895.8	2282.74
1906.6	2264.67
1917.5	2265.08
1928.3	2279.65
1939.1	2297.21
1950	2311.4
1960.8	2281.99
1971.6	2318.69
1982.5	2325.56
1993.3	2313.42
2004.1	2336.06
2015	2274.48
2025.8	2285.45
2036.6	2263.46
2047.5	2237.84
2058.3	2172.95
2069.1	2153.62
2080	2138.57
2090.8	2083.91
2101.6	2118.31
2112.5	2059.78
2123.3	2024.91
2134.1	2013.19
2145	2016.48
2155.8	1986.87
2166.6	1971.13
2177.5	1994.72
2188.3	1998.98
2199.1	1979.7
2210	1985.38
2220.8	1982.67
2231.6	1926.99
2242.5	1954.7
2253.3	1951.52
2264.1	1941.37
2275	1916.6
2285.8	1942.15
2296.6	1909.09
2307.5	1934.05
2318.3	1870.5
2329.1	2061.04
2340	1926.03
2350.8	1926.82
2361.6	1900.88
2372.5	1884.5
2383.3	1898.91
2394.1	1884.55
2405	1874.88
2415.8	1907.83
2426.6	1876.27
2437.5	1898.29
2448.3	1898.92
2459.1	1886.7
2470	1885.18
2480.8	1883.2
2491.6	1877.26
2502.5	1881.61
2513.3	1908.07
2524.1	1906.97
2535	1887.62
2545.8	1927.34
2556.6	1891.68
2567.5	1909.15
2578.3	1942.26
2589.1	1902.8
2600	1905.44
2610.8	1916.14
2621.6	1891.8
2632.5	1912.47
2643.3	1905.79
2654.1	1928.06
2665	1903.12
2675.8	1901.67
2686.6	1887.32
2697.5	1886.16
2708.3	1885.27
2719.1	1896.29
2730	1863.36
2740.8	1894.24
2751.6	1900.96
2762.5	1894.87
2773.3	1910.22
2784.1	1919.22
2795	1943.48
2805.8	1927.09
2816.6	1912
2827.5	1916.89
2838.3	1938.57
2849.1	1936.1
2860	1959.2
2870.8	1902.5
2881.6	1989.55
2892.5	1952.96
2903.3	1979.73
2914.1	2004.86
2925	1956.88
2935.8	1996.85
2946.6	1998.95
2957.5	2070.72
2968.3	1981.82
2979.1	1976.03
2990	2008.47
3000.8	1953.08
3011.6	2024.36
3022.5	1989.87
3033.3	2022.21
3044.1	2022.52
3055	1972.96
3065.8	1979.45
3076.6	1973.41
3087.5	1973.74
3098.3	2007
3109.1	1982.61
3120	2045.7
3130.8	1991.56
3141.6	2003.7
3152.5	2007.65
3163.3	2006.86
3174.1	2027.33
3185	2042.72
3195.8	2005.34
3206.6	2116.81
3217.5	2062.9
3228.3	2040.28
3239.1	2046.63
3250	2109.46
3260.8	2107.86
3271.6	2123.74
3282.5	2185.6
3293.3	2222.15
3304.1	2424.66
3315	2635.91
3325.8	2789.35
3336.6	2845.86
3347.5	2853.35
3358.3	2772.4
3369.1	2667.92
3380	2573
3390.8	2584.07
3401.6	2713.92
3412.5	3084.04
3423.3	3838.61
3434.1	5185.71
3445	7203.78
3455.8	10072.9
3466.6	14795.7
3477.5	23526.5
3488.3	33778.9
3499.1	38345.9
3510	27568.1
3520.8	13971.5
3531.6	9296.27
3542.5	12765.6
3553.3	26471.3
3564.1	38620.6
3575	29026.4
3585.8	28180.7
3596.6	39133.6
3607.5	25943.8
3618.3	7174.17
3629.1	3723.34
3640	3281.34
3650.8	3322.27
3661.6	2869.01
3672.5	3683.23
3683.3	3626.24
3694.1	2801.23
3704.9	2559.04
3715.8	2469.52
3726.6	2214.58
3737.4	2169.28
3748.3	2099.91
3759.1	2102.92
3769.9	2079.85
3780.8	2105.01
3791.6	2037.57
3802.4	2078.48
3813.3	2030.5
3824.1	2021.34
3834.9	2066.99
3845.8	2033.72
3856.6	2034.74
3867.4	2011.07
3878.3	2093.45
3889.1	2038.44
3899.9	2016.82
3910.8	2061.71
3921.6	2018.83
3932.4	1993.82
3943.3	2050.67
3954.1	2047.82
3964.9	2076.57
3975.8	2053.44
3986.6	2028.09
3997.4	2066.78
