Measurement: Raman, 532 nm, unoriented, Raman Data Processed
Mineral: Elyite
Rruff sample: R130277
Ideal chemistry: Cu^2+^Pb^2+^_4_(S^6+^O_4_)O_2_(OH)_4_H_2_O
Locality: Haltcliff Smelter, Caldbeck Fells, Cumbria
Source: Neil Hubbard
Description: Violet acicular crystals, associated with sky-blue prismatic chenite, R130278.
Raman shift (cm-1)	intensity
206.034	0
208.927	0.651539
211.819	0.128071
214.712	1.03449
217.605	0.921337
220.497	1.20582
223.39	1.0857
226.283	0.647703
229.175	0.608643
232.068	0.311331
234.961	0.36474
237.854	0.097284
240.746	0.794416
243.639	0.776192
246.532	1.32864
249.424	0.858753
252.317	1.74548
255.21	3.16924
258.103	4.19377
260.995	5.59589
263.888	7.38117
266.781	9.25863
269.673	11.4665
272.566	13.5181
275.459	16.5453
278.351	17.5487
281.244	17.9201
284.137	16.6391
287.029	14.469
289.922	12.835
292.815	11.0817
295.708	11.3022
298.6	10.4838
301.493	9.40982
304.386	8.363
307.278	7.17829
310.171	5.36477
313.064	5.47963
315.957	5.60904
318.849	4.89517
321.742	4.8546
324.635	5.00349
327.527	4.13061
330.42	3.10637
333.313	3.09971
336.205	2.79477
339.098	2.42966
341.991	2.91584
344.884	2.65117
347.776	1.98325
350.669	2.52765
353.562	3.02652
356.454	2.14523
359.347	2.43294
362.24	2.17106
365.132	2.21968
368.025	1.51474
370.918	1.81307
373.81	0.760673
376.703	0.73504
379.596	1.21604
382.489	0.392601
385.381	0.216253
388.274	0.340584
391.167	0.049996
394.059	0.344
396.952	0.40235
399.845	0.314582
402.738	0.618645
405.63	0.426064
408.523	1.25233
411.416	1.32501
414.308	1.59981
417.201	1.63252
420.094	1.38274
422.986	2.93028
425.879	2.85707
428.772	3.70681
431.664	4.84269
434.557	4.49529
437.45	4.89651
440.343	4.02312
443.235	3.68418
446.128	4.61555
449.021	3.76571
451.913	3.64732
454.806	3.04555
457.699	2.30244
460.591	1.70034
463.484	1.87085
466.377	1.15135
469.27	1.7455
472.162	1.47321
475.055	2.12918
477.948	2.96362
480.84	2.60056
483.733	3.01423
486.626	2.70019
489.519	3.30514
492.411	4.26896
495.304	3.44697
498.197	4.35658
501.089	4.18288
503.982	4.59765
506.875	4.86212
509.767	4.68861
512.66	5.59073
515.553	4.79822
518.446	3.58082
521.338	3.55595
524.231	3.3762
527.124	3.02526
530.016	2.38706
532.909	2.15795
535.802	1.75005
538.694	1.16025
541.587	0.930772
544.48	1.24424
547.372	0.158309
550.265	0.224616
553.158	0.340717
556.051	0.100202
558.943	0.101301
561.836	0.074532
564.729	0.073913
567.621	0.040867
570.514	0.112345
573.407	0.149235
576.299	0.397133
579.192	0.31593
582.085	0.501911
584.978	0.337887
587.87	0.388562
590.763	0.888214
593.656	0.935228
596.548	0.817469
599.441	0.212829
602.334	1.54239
605.226	0.918199
608.119	0.953112
611.012	1.07688
613.905	1.43537
616.797	1.3435
619.69	0.833182
622.583	0.944221
625.475	0.386126
628.368	0.980476
631.261	0.238265
634.154	0.412508
637.046	0.123983
639.939	0.211581
642.832	0.791303
645.724	0.501894
648.617	0.785188
651.51	0.488564
654.402	0.636524
657.295	0.413663
660.188	0.651318
663.081	0.121715
665.973	0.728163
668.866	0.641294
671.759	0.755321
674.651	0.731961
677.544	0.224757
680.437	0.556394
683.329	0.248135
686.222	0.504816
689.115	0.640582
692.008	0.616846
694.9	0.585571
697.793	0.209485
700.686	0.337421
703.578	0.106446
706.471	0.361281
709.364	0.658046
712.256	0.816054
715.149	0.691652
718.042	0.562079
720.934	0.33287
723.827	0.819933
726.72	0.764375
729.613	0.481514
732.505	0.529244
735.398	0.271656
738.291	0.167521
741.183	0.904974
744.076	0.781043
746.969	0.590947
749.861	0.498111
752.754	0.557458
755.647	0.762009
758.54	0.540014
761.432	0.144932
764.325	0.346989
767.218	0.814975
770.11	0.599292
773.003	0.325251
775.896	0.473954
778.788	0.627241
781.681	0.038279
784.574	0.98582
787.467	0.446361
790.359	0.624783
793.252	0.06151
796.145	0.271474
799.037	0.353817
801.93	0.430134
804.823	0.087532
807.716	1.03055
810.608	1.09897
813.501	0.915286
816.394	0.473422
819.286	1.05182
822.179	0.621892
825.072	0.48532
827.964	1.34063
830.857	0.371959
833.75	0.030031
836.643	0.566426
839.535	0.827868
842.428	0.660468
845.321	0.912452
848.213	0.507872
851.106	1.02348
853.999	0.693134
856.891	0.062306
859.784	0.328632
862.677	0.352618
865.569	0.308772
868.462	0.145561
871.355	0.587612
874.248	0.073252
877.14	0.648477
880.033	0.596325
882.926	0.65553
885.818	0.332387
888.711	0.602389
891.604	0.144207
894.496	0.319983
897.389	0.533014
900.282	0.241628
903.175	0.830617
906.067	0.425586
908.96	0.672084
911.853	0.007695
914.745	0.05098
917.638	0.039297
920.531	0.48313
923.423	0.825164
926.316	0.748185
929.209	0.292076
932.102	0.234111
934.994	0.592543
937.887	0.634389
940.78	0.972559
943.672	1.32886
946.565	2.28541
949.458	3.97509
952.351	6.84082
955.243	12.9495
958.136	19.6768
961.029	31.7517
963.921	43.9467
966.814	39.733
969.707	17.276
972.599	6.77746
975.492	3.40603
978.385	1.96915
981.278	1.48548
984.17	0.849293
987.063	0.475995
989.956	0.874309
992.848	0.554625
995.741	0.386044
998.634	0.322079
1001.53	0.186883
1004.42	0.377156
1007.31	0.438244
1010.21	0.711621
1013.1	0.067041
1015.99	0.40512
1018.88	0.183622
1021.77	0.14242
1024.67	0.151853
1027.56	0.663705
1030.45	0.426886
1033.35	1.6585
1036.24	2.50009
1039.13	3.08983
1042.02	5.51507
1044.92	5.87479
1047.81	3.42479
1050.7	1.88184
1053.6	2.37294
1056.49	1.20578
1059.38	1.89632
1062.27	1.74766
1065.17	1.73472
1068.06	2.45709
1070.95	2.23162
1073.84	2.00783
1076.74	1.86647
1079.63	1.4203
1082.52	0.407486
1085.41	0.90323
1088.31	0.726008
1091.2	0.643095
1094.09	0.6866
1096.99	1.61288
1099.88	1.29333
1102.77	0.747517
1105.66	0.803109
1108.56	1.37278
1111.45	0.535052
1114.34	0.752353
1117.23	0.786507
1120.13	0.664015
1123.02	0.518242
1125.91	0.346348
1128.81	0.875486
1131.7	0.559491
1134.59	0.220571
1137.48	0.564567
1140.38	0.424106
1143.27	0.327471
1146.16	0.774022
1149.05	0.703686
1151.95	0.313569
1154.84	0.355414
1157.73	0.48896
1160.62	1.14281
1163.52	0.16524
1166.41	0.246824
1169.3	0.218265
1172.2	0.28171
1175.09	0.445044
1177.98	0.935953
1180.87	1.01343
1183.77	0.57135
1186.66	0.632293
1189.55	1.08927
1192.44	0.726901
1195.34	0.932482
1198.23	0.626688
1201.12	0.54922
1204.02	0.91762
1206.91	1.06481
1209.8	0.990971
1212.69	0.89495
1215.59	1.10953
1218.48	0.774632
1221.37	1.03332
1224.26	0.848725
1227.16	0.237235
1230.05	0.400689
1232.94	1.10722
1235.84	0.141408
1238.73	0.311823
1241.62	0.462863
1244.51	0.503288
1247.41	0.013101
1250.3	0.925149
1253.19	0.399727
1256.08	0.50302
1258.98	0.161085
1261.87	0.878798
1264.76	0.339479
1267.65	0.145471
1270.55	0.103869
1273.44	0.424452
1276.33	0.35085
1279.23	0.143263
1282.12	0.041357
1285.01	0.615039
1287.9	0.767309
1290.8	0.672114
1293.69	0.527424
1296.58	0.383867
1299.47	0.245173
