Measurement: Raman, 780 nm, unoriented, Raman Data Processed
Mineral: Elyite
Rruff sample: R130277
Ideal chemistry: Cu^2+^Pb^2+^_4_(S^6+^O_4_)O_2_(OH)_4_H_2_O
Locality: Haltcliff Smelter, Caldbeck Fells, Cumbria
Source: Neil Hubbard
Description: Violet acicular crystals, associated with sky-blue prismatic chenite, R130278.
Raman shift (cm-1)	intensity
213.657	0
216.55	0.72406
219.442	1.6293
222.335	0.373871
225.228	1.53279
228.121	0.333328
231.013	0.789749
233.906	0.236954
236.799	2.64995
239.691	1.8353
242.584	3.47929
245.477	6.3277
248.369	7.19997
251.262	9.14574
254.155	13.7621
257.048	19.8536
259.94	23.9727
262.833	31.3973
265.726	39.1086
268.618	48.8975
271.511	57.5203
274.404	66.315
277.296	73.9385
280.189	74.0264
283.082	67.82
285.975	58.6897
288.867	50.9216
291.76	47.9669
294.653	47.0126
297.545	42.9313
300.438	40.872
303.331	36.2572
306.224	28.723
309.116	24.7477
312.009	18.6334
314.902	19.7191
317.794	18.9621
320.687	17.0502
323.58	16.0199
326.472	14.1381
329.365	12.4992
332.258	11.5037
335.151	10.435
338.043	8.8399
340.936	9.04858
343.829	7.86003
346.721	6.6156
349.614	6.82942
352.507	7.0737
355.399	8.42923
358.292	7.98221
361.185	6.22571
364.077	9.26114
366.97	5.99959
369.863	2.53201
372.755	3.74106
375.648	2.8325
378.541	1.11389
381.434	0.058975
384.326	1.69832
387.219	0.865524
390.112	1.35414
393.004	0.442764
395.897	0.026749
398.79	0.987228
401.683	0.964081
404.575	0.596924
407.468	2.61171
410.361	3.45364
413.253	5.94273
416.146	8.10678
419.039	9.06406
421.931	11.869
424.824	13.9683
427.717	15.3429
430.61	17.9806
433.502	17.5892
436.395	15.2395
439.288	15.4778
442.18	14.363
445.073	14.1673
447.966	14.1367
450.858	12.4658
453.751	12.8864
456.644	10.095
459.536	8.34218
462.429	6.16151
465.322	5.26077
468.215	6.13518
471.107	6.32375
474	7.28313
476.893	7.71712
479.785	10.0835
482.678	10.3839
485.571	11.6291
488.463	13.0268
491.356	13.2548
494.249	13.9917
497.142	14.414
500.034	12.4681
502.927	14.788
505.82	15.8473
508.712	14.7571
511.605	16.3754
514.498	14.3194
517.39	12.1923
520.283	11.4931
523.176	9.94765
526.068	9.90685
528.961	9.96617
531.854	5.53035
534.747	4.14362
537.639	5.14607
540.532	2.63229
543.425	2.79088
546.317	1.31239
549.21	0.424896
552.103	0.110168
554.995	0.612778
557.888	0.146286
560.781	0.493164
563.674	0.662247
566.566	0.470169
569.459	0.099533
572.352	0.233871
575.244	0.106445
578.137	0.04805
581.03	0.240295
583.923	3.26285
586.815	1.24736
589.708	2.24937
592.601	2.49683
595.493	2.46867
598.386	2.31453
601.279	3.94914
604.171	3.12648
607.064	3.34253
609.957	4.24818
612.85	3.47565
615.742	2.69543
618.635	3.2148
621.528	2.24124
624.42	2.2975
627.313	2.16315
630.206	0.168808
633.098	0.707932
635.991	0.281754
638.884	0.711411
641.776	0.814575
644.669	0.660721
647.562	0.879227
650.455	1.83023
653.347	1.43079
656.24	1.00595
659.133	1.45039
662.025	0.843872
664.918	1.85291
667.811	1.79344
670.703	1.27873
673.596	0.189621
676.489	1.73909
679.381	1.0717
682.274	0.662735
685.167	0.301498
688.06	0.156662
690.952	2.00942
693.845	1.2616
696.738	2.2881
699.63	1.7415
702.523	0.870514
705.416	2.70886
708.308	2.12483
711.201	2.78995
714.094	1.74204
716.987	1.07806
719.879	1.59189
722.772	1.77203
725.665	1.30884
728.557	1.7659
731.45	0.401871
734.343	0.970947
737.236	0.666718
740.128	0.034607
743.021	0.691971
745.914	1.5549
748.806	1.30072
751.699	1.06384
754.592	0.471344
757.484	0.982132
760.377	0.806732
763.27	0.704056
766.163	0.702332
769.055	0.866669
771.948	0.692902
774.841	0.944397
777.733	0.378281
780.626	0.741409
783.519	0.209869
786.411	0.923584
789.304	1.59389
792.197	1.01918
795.089	0.080215
797.982	0.18634
800.875	0.426544
803.768	0.513031
806.66	2.30635
809.553	0.591095
812.446	0.788467
815.338	0.488968
818.231	1.70908
821.124	2.5607
824.016	1.57799
826.909	2.53319
829.802	1.11777
832.694	2.06262
835.587	1.2803
838.48	2.27129
841.373	2.31648
844.265	1.20541
847.158	2.5052
850.051	1.73505
852.943	0.240906
855.836	1.16476
858.729	0.477615
861.621	0.915802
864.514	2.34699
867.407	0.843597
870.3	0.895706
873.192	1.32912
876.085	0.339157
878.978	0.670639
881.87	0.987305
884.763	0.606262
887.656	0.237381
890.548	0.923523
893.441	0.762283
896.334	0.447586
899.227	2.49579
902.119	1.01184
905.012	0.792618
907.905	1.37755
910.797	0.320557
913.69	0.591965
916.583	1.36139
919.476	0.348267
922.368	1.00128
925.261	0.143219
928.154	0.077347
931.046	2.13156
933.939	1.92767
936.832	2.7468
939.724	3.98395
942.617	7.32134
945.51	10.6271
948.403	18.5326
951.295	32.6979
954.188	50.9457
957.081	75.4649
959.973	117.175
962.866	160.487
965.759	136.339
968.651	57.8475
971.544	23.566
974.437	11.7957
977.329	6.24527
980.222	3.87076
983.115	3.834
986.008	1.09369
988.9	0.104172
991.793	1.47093
994.686	1.14172
997.578	0.549713
1000.47	1.07051
1003.36	1.05377
1006.26	0.229111
1009.15	0.23381
1012.04	1.9675
1014.93	1.34572
1017.83	0.072388
1020.72	1.29147
1023.61	1.33192
1026.51	2.46883
1029.4	3.20654
1032.29	5.07111
1035.18	8.97383
1038.08	14.4055
1040.97	22.1673
1043.86	23.8368
1046.75	12.6314
1049.65	7.52477
1052.54	8.16451
1055.43	6.51065
1058.33	6.10806
1061.22	6.90103
1064.11	6.30588
1067	6.89548
1069.9	6.88727
1072.79	7.07532
1075.68	8.0966
1078.57	6.16502
1081.47	5.98776
1084.36	4.71477
1087.25	4.44246
1090.14	4.09525
1093.04	4.30965
1095.93	5.61021
1098.82	3.64841
1101.71	3.40183
1104.61	3.94072
1107.5	2.32495
1110.39	1.51608
1113.29	1.37288
1116.18	1.46257
1119.07	0.558548
1121.96	1.33025
1124.86	0.451859
1127.75	0.465027
1130.64	0.188446
1133.54	0.057663
1136.43	0.676926
1139.32	1.28397
1142.21	0.759293
1145.11	0.046707
1148	0.986191
1150.89	1.79326
1153.78	1.20221
1156.68	2.38506
1159.57	2.68655
1162.46	2.13957
1165.36	1.84431
1168.25	1.22003
1171.14	2.19978
1174.03	3.11964
1176.93	2.20662
1179.82	1.1214
1182.71	3.04132
1185.6	3.37982
1188.5	2.37422
1191.39	2.00949
1194.28	3.39047
1197.17	2.80936
1200.07	3.28366
1202.96	2.56854
1205.85	2.59999
1208.74	2.8181
1211.64	3.1958
1214.53	1.74054
1217.42	1.74596
1220.32	0.933441
1223.21	0.384918
1226.1	0.845474
1228.99	0.23114
1231.89	1.20799
1234.78	2.9084
1237.67	1.64372
1240.57	1.51538
1243.46	0.666077
1246.35	0.59816
1249.24	0.960007
1252.14	0.814499
1255.03	1.36182
1257.92	1.4478
1260.81	2.28369
1263.71	0.995987
1266.6	0.824829
1269.49	1.35843
1272.38	1.06543
1275.28	1.04257
1278.17	0.345474
1281.06	0.624481
1283.95	0
