Measurement: Raman, 780 nm, unoriented, Raman Data Processed
Mineral: Emmonsite
Rruff sample: R130473
Ideal chemistry: Fe^3+^_2_(Te^4+^O_3_)_3_2H_2_O
Locality: Tombstone, Arizona, USA
Source: Rock Currier
Description: Aggregates of granular green crystals
Raman shift (cm-1)	intensity
87.582	0
90.9569	171.6
94.3317	414.326
97.7065	372.927
101.081	565.083
104.456	630.625
107.831	597.932
111.206	698.394
114.581	260.814
117.955	9.34937
121.33	36.0949
124.705	0.728638
128.08	29.9293
131.455	108.35
134.829	256.935
138.204	509.984
141.579	842.397
144.954	866.331
148.329	685.539
151.704	731.51
155.078	817.163
158.453	693.23
161.828	678.008
165.203	816.566
168.578	1068.25
171.952	1365
175.327	1620.37
178.702	1618.36
182.077	1573.99
185.452	1630.23
188.827	1285.87
192.201	541.597
195.576	120.857
198.951	18.9507
202.326	33.7944
205.701	15.8597
209.076	80.7516
212.45	160.258
215.825	285.939
219.2	440.293
222.575	501.202
225.95	440.562
229.324	310.583
232.699	246.758
236.074	268.171
239.449	265.702
242.824	257.457
246.198	293.48
249.573	359.733
252.948	391.183
256.323	420.45
259.698	444.538
263.073	538.1
266.447	715.945
269.822	938.93
273.197	1063.91
276.572	869.41
279.947	515.639
283.322	252.077
286.696	130.224
290.071	79.5417
293.446	46.4199
296.821	10.7775
300.196	7.72046
303.57	14.6499
306.945	68.7373
310.32	177.461
313.695	308.439
317.07	460.322
320.445	606.375
323.819	670.915
327.194	567.26
330.569	358.584
333.944	172.087
337.319	41.8892
340.693	22.5264
344.068	54.3878
347.443	45.6165
350.818	31.1661
354.193	5.92468
357.567	50.9122
360.942	103.607
364.317	168.106
367.692	239.679
371.067	308.277
374.442	360.723
377.816	424.548
381.191	522.154
384.566	671.284
387.941	849.623
391.316	1001.62
394.69	1082.85
398.065	1093.03
401.44	1044.43
404.815	971.617
408.19	910.694
411.565	868.875
414.939	865.626
418.314	863.989
421.689	852.278
425.064	887.798
428.439	978.163
431.813	1148.52
435.188	1314.11
438.563	1384.3
441.938	1291.3
445.313	1144.79
448.688	1030.43
452.062	985.36
455.437	919.799
458.812	800.688
462.187	646.183
465.562	492.925
468.937	403.417
472.311	359.116
475.686	331.693
479.061	309.723
482.436	263.099
485.81	201.368
489.185	156.963
492.56	103.442
495.935	54.7269
499.31	30.3305
502.685	1.61823
506.059	11.2652
509.434	17.7976
512.809	23.9175
516.184	14.9657
519.559	11.9314
522.933	12.1183
526.308	0.675415
529.683	7.64056
533.058	4.46185
536.433	20.2409
539.808	25.5155
543.182	37.0458
546.557	34.4703
549.932	42.5765
553.307	51.2806
556.682	52.3856
560.057	55.1999
563.431	59.4524
566.806	58.3769
570.181	53.8971
573.556	46.8203
576.931	40.1895
580.305	28.1265
583.68	16.283
587.055	10.3337
590.43	2.62909
593.805	1.60492
597.18	0.356262
600.554	2.27124
603.929	5.19843
607.304	13.3521
610.679	28.8287
614.054	43.4836
617.428	66.2214
620.803	112.144
624.178	165.492
627.553	212.457
630.928	283.166
634.303	386.661
637.677	540.495
641.052	720.194
644.427	915.236
647.802	1079.21
651.177	1236.04
654.552	1377.77
657.926	1401.77
661.301	1294.4
664.676	1137.19
668.051	1008.7
671.426	933.303
674.8	884.524
678.175	779.503
681.55	636.315
684.925	440.082
688.3	269.489
691.674	162.175
695.049	83.2289
698.424	44.462
701.799	19.8699
705.174	5.49811
708.548	6.32642
711.923	13.8768
715.298	5.51032
718.673	1.22809
722.048	12.9935
725.423	34.7277
728.797	63.8446
732.172	108.682
735.547	166.01
738.922	249.813
742.297	346.804
745.672	477.901
749.046	602.771
752.421	727.801
755.796	851.374
759.171	940.28
762.546	978.279
765.92	914.33
769.295	779.182
772.67	696.496
776.045	656.207
779.42	708.454
782.795	815.153
786.169	914.967
789.544	886.067
792.919	728.955
796.294	542.044
799.669	393.596
803.043	291.657
806.418	211.3
809.793	135.365
813.168	91.5926
816.543	58.7975
819.918	35.6406
823.292	22.2496
826.667	13.4413
830.042	6.57294
833.417	2.08252
836.792	5.3175
840.166	3.89053
843.541	0.408112
846.916	5.40103
850.291	0.220398
853.666	0.270264
857.04	0.968964
860.415	0.342957
863.79	1.38028
867.165	3.61877
870.54	7.34268
873.915	4.63351
877.289	3.74676
880.664	5.34085
884.039	6.07062
887.414	9.92657
890.789	9.65961
894.163	14.2984
897.538	10.0995
900.913	9.85254
904.288	7.12079
907.663	6.681
911.038	12.8364
914.412	12.0508
917.787	11.105
921.162	5.98978
924.537	7.18015
927.912	7.2739
931.287	7.86197
934.661	10.3901
938.036	5.79681
941.411	5.19385
944.786	16.0231
948.161	5.74808
951.535	5.58356
954.91	5.25952
958.285	4.04306
961.66	1.17105
965.035	3.0217
968.409	4.6398
971.784	3.96524
975.159	3.00415
978.534	4.77606
981.909	8.47256
985.284	6.53204
988.658	8.81381
992.033	14.0485
995.408	12.3921
998.783	16.9926
1002.16	34.18
1005.53	59.4087
1008.91	58.5782
1012.28	26.7991
1015.66	16.4373
1019.03	11.4627
1022.41	12.0087
1025.78	10.2481
1029.16	1.86212
1032.53	4.91931
1035.91	3.90927
1039.28	0.983856
1042.66	5.76504
1046.03	1.31259
1049.4	2.62186
1052.78	6.4017
1056.15	3.74048
1059.53	2.7879
1062.9	6.66675
1066.28	2.77719
1069.65	2.97702
1073.03	5.15808
1076.4	4.22397
1079.78	7.56946
1083.15	4.96317
1086.53	9.77432
1089.9	17.2361
1093.28	22.2222
1096.65	37.966
1100.03	47.5417
1103.4	46.3981
1106.78	32.7553
1110.15	19.8966
1113.53	14.5349
1116.9	10.6446
1120.28	5.17368
1123.65	4.85297
1127.03	4.6814
1130.4	1.60916
1133.78	2.34598
1137.15	1.63513
1140.53	8.00937
1143.9	5.64105
1147.28	11.928
1150.65	15.5915
1154.03	14.1335
1157.4	16.2277
1160.77	11.3593
1164.15	9.48193
1167.52	15.0037
1170.9	5.66104
1174.27	7.2225
1177.65	4.41217
1181.02	9.53076
1184.4	4.89429
1187.77	5.44879
1191.15	8.63119
1194.52	4.02441
1197.9	2.74585
1201.27	6.24561
1204.65	4.30579
1208.02	4.54765
1211.4	8.51402
1214.77	9.21727
1218.15	9.81631
1221.52	3.44286
1224.9	8.64793
1228.27	5.50324
1231.64	3.32048
1235.02	5.67833
1238.39	8.11287
1241.77	5.92181
1245.14	4.47279
1248.52	7.19571
1251.89	8.54977
1255.27	3.78908
1258.64	0.114182
1262.02	1.53275
1265.39	8.82857
1268.77	4.60469
1272.14	0.804504
1275.52	2.93057
1278.89	3.26593
1282.27	0
