Measurement: Raman, 532 nm, unoriented, Raman Data Processed
Mineral: Emmonsite
Rruff sample: R130473
Ideal chemistry: Fe^3+^_2_(Te^4+^O_3_)_3_2H_2_O
Locality: Tombstone, Arizona, USA
Source: Rock Currier
Description: Aggregates of granular green crystals
Raman shift (cm-1)	intensity
119.474	0
122.849	2.78516
126.224	119.322
129.599	274.609
132.974	528.797
136.348	945.629
139.723	1695.02
143.098	2494.65
146.473	1969.59
149.848	1417.34
153.222	1407.05
156.597	1305.74
159.972	1023.29
163.347	1146.39
166.722	1421.09
170.097	1923.63
173.471	2555.42
176.846	3008.62
180.221	3029.04
183.596	3414.27
186.971	3805.37
190.345	2651.37
193.72	926.254
197.095	191.572
200.47	89.54
203.845	131.167
207.22	14.5967
210.594	133.89
213.969	335.459
217.344	634.386
220.719	961.027
224.094	1074.3
227.469	837.263
230.843	564.68
234.218	494.677
237.593	532.067
240.968	430.504
244.343	463.242
247.717	598.637
251.092	720.87
254.467	827.843
257.842	993.114
261.217	1087.13
264.591	1309.1
267.966	1803.2
271.341	2456.66
274.716	2626.34
278.091	1854.15
281.466	939.163
284.84	459.701
288.215	279.081
291.59	212.694
294.965	164.57
298.34	83.4668
301.714	6.01465
305.089	50.0293
308.464	192.6
311.839	431.038
315.214	722.388
318.589	1034.55
321.963	1390.94
325.338	1452.26
328.713	1129.7
332.088	645.092
335.463	256.914
338.837	26.6016
342.212	64.6309
345.587	125.324
348.962	109.569
352.337	58.4766
355.712	35.624
359.086	138.025
362.461	259.714
365.836	467.618
369.211	630.739
372.586	759.42
375.96	897.007
379.335	1062.12
382.71	1423.25
386.085	1923.17
389.46	2414.89
392.834	2794.32
396.209	2975.57
399.584	2902.53
402.959	2725.15
406.334	2446.04
409.709	2255.93
413.083	2143.76
416.458	2130.92
419.833	2077.3
423.208	2079.02
426.583	2242.15
429.957	2527.91
433.332	2992.42
436.707	3339.36
440.082	3395.31
443.457	2985.23
446.832	2662.05
450.206	2432.18
453.581	2313.94
456.956	2162.29
460.331	1865.58
463.706	1473.58
467.08	1143.48
470.455	906.836
473.83	753.723
477.205	709.451
480.58	598.129
483.955	494.315
487.329	395.023
490.704	280.627
494.079	198.44
497.454	120.369
500.829	70.332
504.204	26.8574
507.578	4.37402
510.953	35.1641
514.328	91.1758
517.703	86.2783
521.078	23.0537
524.452	6.94531
527.827	7.78223
531.202	22.4648
534.577	29.5967
537.952	74.5801
541.327	59.6484
544.701	101.06
548.076	78.1826
551.451	85.7705
554.826	119.336
558.201	114.279
561.575	133.869
564.95	141.984
568.325	126.874
571.7	108.248
575.075	93.3887
578.449	23.6133
581.824	27.4277
585.199	69.2168
588.574	31.8916
591.949	0.530273
595.323	5.68945
598.698	18.5303
602.073	13.6426
605.448	13.291
608.823	75.1035
612.198	142.749
615.572	226.735
618.947	288.784
622.322	368.473
625.697	501.076
629.072	653.648
632.447	901.144
635.821	1274.22
639.196	1783.08
642.571	2317.17
645.946	2824.7
649.321	3332.26
652.695	3792.8
656.07	3995.99
659.445	3881.91
662.82	3466.42
666.195	3070.8
669.569	2929.71
672.944	2863.55
676.319	2623.36
679.694	2235.91
683.069	1742.37
686.444	1161.84
689.818	718.614
693.193	407.659
696.568	238.319
699.943	93.5596
703.318	23.3906
706.692	34.8662
710.067	3.30469
713.442	1.8418
716.817	65.7598
720.192	34.6543
723.567	12.0586
726.941	47.9102
730.316	97.4131
733.691	199.508
737.066	389.774
740.441	552.899
743.816	740.885
747.19	935.109
750.565	1177.33
753.94	1383.41
757.315	1578.33
760.69	1712.64
764.064	1629.8
767.439	1437.82
770.814	1267.16
774.189	1185.05
777.564	1232.24
780.938	1469.28
784.313	1742.29
787.688	1849.72
791.063	1656.35
794.438	1303.96
797.813	1007.11
801.187	735.481
804.562	505.158
807.937	350.094
811.312	233.969
814.687	138.658
818.062	71.4688
821.436	35.1836
824.811	8.85352
828.186	2.60644
831.561	23.3848
834.936	37.668
838.31	28.9316
841.685	32.8174
845.06	31.4043
848.435	18.3066
851.81	11.2578
855.184	19.6504
858.559	13.5254
861.934	4.58008
865.309	28.416
868.684	7.67969
872.059	16.2939
875.433	10.1299
878.808	7.72559
882.183	14.5
885.558	27.8516
888.933	46.1289
892.308	39.2695
895.682	11.3271
899.057	16.2939
902.432	61.1309
905.807	55.0107
909.182	50.3018
912.556	68.0117
915.931	56.3691
919.306	67.0137
922.681	44.4102
926.056	25.8262
929.431	34.6504
932.805	69.2188
936.18	36.4844
939.555	43.3291
942.93	60.835
946.305	16.7461
949.679	0.540039
953.054	49.1592
956.429	12.4912
959.804	10.4697
963.179	47.5176
966.553	60.6553
969.928	5.15234
973.303	23.751
976.678	29.3604
980.053	54.8242
983.428	22.5596
986.802	25.9062
990.177	31.2021
993.552	73.1191
996.927	82.2041
1000.3	92.4189
1003.68	74.0381
1007.05	123.635
1010.43	72.2022
1013.8	65.8516
1017.18	17.9727
1020.55	8.44824
1023.92	0.283203
1027.3	40.7148
1030.67	56.1182
1034.05	47.4951
1037.42	37.665
1040.8	63.8066
1044.17	68.9766
1047.55	11.0137
1050.92	31.5469
1054.3	63.668
1057.67	81.8301
1061.05	60.1836
1064.42	45.8467
1067.8	63.5039
1071.17	74.1074
1074.55	68.8691
1077.92	55.79
1081.3	79.0283
1084.67	90.5889
1088.05	93.4307
1091.42	50.4902
1094.8	76.2139
1098.17	125.456
1101.55	173.613
1104.92	133.499
1108.3	31.1855
1111.67	35.1123
1115.05	28.6104
1118.42	88.2158
1121.8	94.3613
1125.17	43.0303
1128.55	6.18652
1131.92	1.47852
1135.29	68.2939
1138.67	81.6289
1142.04	74.5029
1145.42	90.0195
1148.79	68.2969
1152.17	69.666
1155.54	87.3477
1158.92	110.74
1162.29	82.6377
1165.67	48.5264
1169.04	49.1016
1172.42	98.5459
1175.79	108.83
1179.17	114.757
1182.54	56.1631
1185.92	90.1836
1189.29	98.6582
1192.67	114.426
1196.04	97.9336
1199.42	99.6719
1202.79	81.0518
1206.17	41.0967
1209.54	51.1973
1212.91	60.2783
1216.29	74.8955
1219.66	98.6738
1223.04	74.9648
1226.41	38.4883
1229.79	26.9248
1233.16	10.8565
1236.54	7.88672
1239.91	59.0986
1243.29	91.5078
1246.66	104.436
1250.04	130.295
1253.41	93.1436
1256.79	102.936
1260.16	104.421
1263.54	57.1621
1266.91	73.5498
1270.29	31.0469
1273.66	7.67578
1277.04	15.0176
1280.41	41.0869
1283.79	53.794
1287.16	0.085938
1290.54	10.9365
1293.91	16.6328
1297.29	72.8057
1300.66	0
