Measurement: Raman, 532 nm, unoriented, Raman Data Processed
Mineral: Enstatite
Rruff sample: R060630
Ideal chemistry: MgSiO_3_
Locality: unknown
Source: Gemological Institute of America
Description: Tan colored fragment
Measured chemistry: (Mg_0.89_Fe_0.07_Al_0.04_)_Σ=1_(Si_0.96_Al_0.04_)_Σ=1_O_3_
Raman shift (cm-1)	intensity
92.1938	0
95.5686	48.302
98.9434	3.69556
102.318	1.40356
105.693	48.4092
109.068	281.331
112.443	427.604
115.817	619.19
119.192	782.267
122.567	853.198
125.942	938.929
129.317	997.408
132.692	1187.12
136.066	1512.52
139.441	2069.5
142.816	2423.21
146.191	1776.86
149.566	1075.04
152.94	799.691
156.315	750.259
159.69	561.59
163.065	414.036
166.44	354.252
169.815	333.366
173.189	362.976
176.564	243.006
179.939	152.274
183.314	130.638
186.689	131.867
190.064	156.066
193.438	186.109
196.813	236.006
200.188	245.928
203.563	254.883
206.938	278.399
210.312	288.828
213.687	232.772
217.062	209.502
220.437	247.292
223.812	337.243
227.186	473.408
230.561	676.396
233.936	1039.35
237.311	1590.23
240.686	1708.8
244.06	1050.19
247.435	582.836
250.81	288.858
254.185	119.795
257.56	34.2334
260.935	15.4316
264.309	26.4688
267.684	36.0166
271.059	36.0393
274.434	25.165
277.809	13.7234
281.183	7.2146
284.558	3.78467
287.933	16.7759
291.308	25.3901
294.683	42.5269
298.058	87.5774
301.432	106.964
304.807	83.082
308.182	71.4048
311.557	110.204
314.932	148.774
318.307	154.397
321.681	192.404
325.056	273.777
328.431	352.305
331.806	491.302
335.181	735.598
338.555	1078.91
341.93	1513.7
345.305	1982.82
348.68	2340.35
352.055	2339
355.43	1965.53
358.804	1489.69
362.179	1145.81
365.554	875.111
368.929	632.249
372.304	470.923
375.678	416.961
379.053	418.21
382.428	376.836
385.803	359.147
389.178	353.524
392.553	310.042
395.927	329.204
399.302	443.012
402.677	576.999
406.052	612.352
409.427	541.955
412.801	558.441
416.176	692.81
419.551	849.497
422.926	815.864
426.301	520.653
429.675	202.862
433.05	7.25146
436.425	46.687
439.8	19.6738
443.175	155.541
446.55	311.25
449.924	274.266
453.299	130.78
456.674	34.2139
460.049	3.7417
463.424	0.440918
466.798	3.24902
470.173	0.751465
473.548	14.1235
476.923	9.19824
480.298	19.7529
483.673	29.0811
487.047	40.0566
490.422	31.7173
493.797	18.5713
497.172	0.143066
500.547	2.43506
503.921	31.7988
507.296	78.4541
510.671	161.822
514.046	243.898
517.421	349.938
520.795	422.356
524.17	438.463
527.545	377.83
530.92	327.102
534.295	301.131
537.67	304.452
541.044	309.469
544.419	288.611
547.794	323.441
551.169	328.483
554.544	255.812
557.918	177.065
561.293	130.546
564.668	111.07
568.043	90.7334
571.418	93.9814
574.793	124.959
578.167	148.66
581.542	144.889
584.917	90.79
588.292	59.0059
591.667	43.2329
595.042	28.5718
598.416	24.8804
601.791	3.81348
605.166	13.022
608.541	7.58838
611.916	6.00146
615.29	6.7583
618.665	6.94531
622.04	5.02148
625.415	5.17383
628.79	30.27
632.164	68.2647
635.539	125.04
638.914	184.904
642.289	242.779
645.664	322.969
649.039	467.256
652.413	698.855
655.788	1005.73
659.163	1364.03
662.538	1645.62
665.913	1601.69
669.288	1361.1
672.662	1263.53
676.037	1425.28
679.412	1868.89
682.787	2603.01
686.162	3349.84
689.536	3433.83
692.911	2554.97
696.286	1559.86
699.661	931.113
703.036	579.187
706.41	369.791
709.785	253.011
713.16	170.278
716.535	115.268
719.91	82.9194
723.284	72.0601
726.659	63.3003
730.034	52.9082
733.409	54.9111
736.784	83.082
740.159	118.103
743.533	158.592
746.908	218.147
750.283	316.635
753.658	402.251
757.033	319.519
760.408	161.63
763.782	90.0644
767.157	44.0645
770.532	17.9824
773.907	7.7915
777.282	6.75684
780.656	8.80469
784.031	5.92871
787.406	11.1289
790.781	4.21289
794.156	8.8877
797.53	6.14893
800.905	2.17236
804.28	9.47266
807.655	23.5483
811.03	24.1519
814.405	23.5439
817.779	32.0698
821.154	51.9707
824.529	47.2847
827.904	47.417
831.279	75.3872
834.654	92.2744
838.028	129.214
841.403	207.839
844.778	264.853
848.153	285.294
851.528	282.168
854.902	233.058
858.277	191.051
861.652	162.232
865.027	109.859
868.402	80.4683
871.777	72.7329
875.151	55.7944
878.526	30.9531
881.901	13.4648
885.276	5.66455
888.651	5.63965
892.025	13.9595
895.4	17.8242
898.775	19.8735
902.15	19.646
905.525	24.5532
908.899	17.5112
912.274	33.9023
915.649	50.5708
919.024	89.6655
922.399	147.716
925.774	202.441
929.148	266.404
932.523	310.791
935.898	298.296
939.273	260.073
942.648	219.563
946.023	199.602
949.397	164.324
952.772	145.13
956.147	109.096
959.522	62.8359
962.896	27.085
966.271	1.87842
969.646	8.82324
973.021	11.874
976.396	9.97949
979.771	10.1016
983.145	34.8931
986.52	88.2534
989.895	160.985
993.27	275.653
996.645	440.115
1000.02	697.26
1003.39	982.579
1006.77	1321.21
1010.14	1624.59
1013.52	1793.23
1016.89	1758.24
1020.27	1678.98
1023.64	1617.31
1027.02	1600.47
1030.39	1598.43
1033.77	1609.28
1037.14	1520.59
1040.52	1265.49
1043.89	973.019
1047.27	722.806
1050.64	538.279
1054.02	403.821
1057.39	319.627
1060.77	242.346
1064.14	190.764
1067.52	136.149
1070.89	88.4082
1074.27	40.7759
1077.64	28.0503
1081.02	4.28564
1084.39	10.812
1087.77	5.54443
1091.14	5.19043
1094.51	5.23242
1097.89	4.12305
1101.26	0.210449
1104.64	3.20654
1108.01	1.82861
1111.39	20.6562
1114.76	10.3599
1118.14	9.89014
1121.51	19.1528
1124.89	8.84326
1128.26	5.44141
1131.64	2.58301
1135.01	12.2891
1138.39	13.2881
1141.76	22.0615
1145.14	14.419
1148.51	15.9482
1151.89	16.3452
1155.26	28.3013
1158.64	14.9785
1162.01	7.63184
1165.38	3.21094
1168.76	0.035156
1172.13	11.5576
1175.51	18.1431
1178.88	15.6826
1182.26	26.0645
1185.63	26.6226
1189.01	25.084
1192.38	30.498
1195.76	23.3286
1199.13	24.2441
1202.51	14.0269
1205.88	17.6357
1209.26	20.1641
1212.63	17.4263
1216.01	13.8369
1219.38	19.2436
1222.76	10.2417
1226.13	7.271
1229.51	2.85059
1232.88	0.40918
1236.26	1.80762
1239.63	10.0605
1243.01	17.5156
1246.38	17.0986
1249.76	27.8389
1253.13	23.146
1256.51	27.9678
1259.88	6.81787
1263.26	8.0332
1266.63	0.645508
1270.01	0.520508
1273.38	4.93945
1276.76	0.633789
1280.13	4.36328
1283.5	17.1816
1286.88	8.75244
1290.25	14.3496
1293.63	13.249
1297	1.13721
1300.38	8.29639
