Measurement: Raman, 780 nm, unoriented, Raman Data Processed
Mineral: Enstatite
Rruff sample: R060630
Ideal chemistry: MgSiO_3_
Locality: unknown
Source: Gemological Institute of America
Description: Tan colored fragment
Measured chemistry: (Mg_0.89_Fe_0.07_Al_0.04_)_Σ=1_(Si_0.96_Al_0.04_)_Σ=1_O_3_
Raman shift (cm-1)	intensity
114.701	0
118.076	0.349609
121.451	24.2039
124.826	69.3071
128.201	102.561
131.576	210.003
134.95	378.478
138.325	661.147
141.7	895.265
145.075	690.441
148.45	364.65
151.825	216.235
155.199	200.11
158.574	142.325
161.949	66.6265
165.324	30.4905
168.698	15.8534
172.073	21.8753
175.448	1.30212
178.823	6.18127
182.198	4.04993
185.573	7.54993
188.947	22.5919
192.322	41.8073
195.697	70.258
199.072	83.9506
202.447	102.71
205.821	137.492
209.196	157.479
212.571	133.427
215.946	108.349
219.321	124.854
222.696	151.358
226.07	188.696
229.445	244.583
232.82	343.616
236.195	492.734
239.57	603.16
242.945	418.554
246.319	211.287
249.694	108.084
253.069	51.6843
256.444	25.0775
259.818	12.77
263.193	7.66425
266.568	0.752625
269.943	5.4577
273.318	8.11847
276.693	5.23846
280.067	7.42889
283.442	6.39612
286.817	6.53778
290.192	4.44257
293.567	13.3372
296.942	28.7093
300.316	45.895
303.691	29.9076
307.066	9.91675
310.441	12.2026
313.816	26.34
317.19	48.0445
320.565	75.4871
323.94	121.724
327.315	188.523
330.69	286.513
334.065	425.927
337.439	613.957
340.814	829.014
344.189	1087.65
347.564	1299.26
350.938	1325.44
354.313	1133.03
357.688	847.108
361.063	606.659
364.438	418.302
367.813	278.855
371.187	180.278
374.562	120.239
377.937	93.8161
381.312	78.5765
384.687	79.235
388.062	87.4463
391.436	90.2357
394.811	114.469
398.186	159.387
401.561	218.176
404.935	248.99
408.31	225.993
411.685	206.666
415.06	238.999
418.435	286.469
421.81	317.333
425.184	244.887
428.559	123.845
431.934	42.5687
435.309	19.4544
438.684	42.7868
442.058	112.222
445.433	198.971
448.808	213.404
452.183	135.311
455.558	57.1077
458.933	18.8309
462.307	3.19788
465.682	2.3822
469.057	7.46887
472.432	7.45834
475.807	10.0332
479.182	7.94037
482.556	2.86304
485.931	0.034546
489.306	5.68866
492.681	5.89215
496.055	8.75537
499.43	13.566
502.805	17.0233
506.18	22.7952
509.555	35.8761
512.93	48.7838
516.304	62.916
519.679	77.9193
523.054	86.6744
526.429	83.9167
529.804	82.7127
533.178	80.7528
536.553	90.8555
539.928	96.9553
543.303	80.994
546.678	67.1685
550.053	67.2045
553.427	57.9704
556.802	48.7138
560.177	38.0863
563.552	25.7148
566.927	21.7485
570.302	18.3959
573.676	19.5269
577.051	20.619
580.426	19.2223
583.801	14.5647
587.176	6.39279
590.55	3.00214
593.925	1.68671
597.3	2.90988
600.675	0.569794
604.05	0.895386
607.424	1.72043
610.799	4.11505
614.174	1.86295
617.549	1.63211
620.924	2.15774
624.298	11.4715
627.673	21.6524
631.048	37.0774
634.423	64.8473
637.798	94.0908
641.173	123.831
644.547	159.09
647.922	214.83
651.297	305.668
654.672	430.642
658.047	589.778
661.421	737.157
664.796	753.524
668.171	662.493
671.546	605.739
674.921	654.439
678.295	813.261
681.67	1092.82
685.045	1436.29
688.42	1561.23
691.795	1253.84
695.17	799.557
698.544	479.206
701.919	295.863
705.294	191.23
708.669	125.555
712.044	86.5634
715.418	61.3071
718.793	44.1638
722.168	31.1601
725.543	26.1185
728.918	19.1621
732.293	17.3204
735.667	15.8654
739.042	14.0206
742.417	14.0071
745.792	15.0456
749.167	19.7797
752.541	24.2284
755.916	19.6401
759.291	8.56821
762.666	1.78744
766.041	0.637512
769.415	2.88748
772.79	3.60315
776.165	3.48425
779.54	1.61932
782.915	1.76703
786.29	0.781311
789.664	0.580536
793.039	1.3324
796.414	2.30386
799.789	3.7728
803.164	4.73846
806.538	7.24661
809.913	8.58768
813.288	9.84378
816.663	13.0162
820.038	14.2042
823.413	17.4659
826.787	24.4634
830.162	25.2216
833.537	29.7055
836.912	39.7974
840.287	54.5087
843.661	75.4634
847.036	90.0582
850.411	97.2034
853.786	92.5146
857.161	77.5505
860.535	62.706
863.91	51.7517
867.285	44.0757
870.66	37.7699
874.035	30.9544
877.409	22.918
880.784	18.2437
884.159	12.3401
887.534	8.21774
890.909	6.66843
894.284	2.6537
897.658	0.457733
901.033	1.06209
904.408	0.952911
907.783	0.031372
911.158	1.07759
914.533	4.91971
917.907	11.6094
921.282	21.0397
924.657	29.1019
928.032	38.9391
931.407	48.304
934.781	52.5693
938.156	53.8807
941.531	52.786
944.906	50.5114
948.281	51.138
951.655	46.2732
955.03	43.1922
958.405	33.2647
961.78	20.8564
965.155	9.51741
968.529	2.64224
971.904	2.22717
975.279	2.81532
978.654	1.21297
982.029	5.14679
985.404	14.5577
988.778	31.2731
992.153	54.4954
995.528	91.4665
998.903	140.001
1002.28	201.048
1005.65	272.321
1009.03	338.667
1012.4	375.589
1015.78	364.209
1019.15	330.536
1022.53	307.125
1025.9	293.978
1029.28	291.057
1032.65	290.077
1036.03	276.323
1039.4	230.116
1042.78	174.142
1046.15	127.522
1049.53	93.568
1052.9	66.7891
1056.28	53.4418
1059.65	38.938
1063.02	27.2637
1066.4	20.9028
1069.77	13.3844
1073.15	6.55476
1076.52	5.17094
1079.9	2.31154
1083.27	1.81398
1086.65	0.186325
1090.02	0.267273
1093.4	0.071762
1096.77	1.39136
1100.15	0.559341
1103.52	0.503281
1106.9	1.29465
1110.27	1.29152
1113.65	0.384018
1117.02	2.2363
1120.4	1.85458
1123.77	0.51915
1127.15	0.312042
1130.52	1.46195
1133.9	3.45982
1137.27	2.20413
1140.64	4.49526
1144.02	3.91226
1147.39	3.45366
1150.77	1.39578
1154.14	0.887512
1157.52	1.38402
1160.89	0.241333
1164.27	2.44629
1167.64	1.70747
1171.02	5.44661
1174.39	0.981781
1177.77	2.34973
1181.14	2.54645
1184.52	2.46637
1187.89	0.890976
1191.27	4.87239
1194.64	4.36459
1198.02	1.27582
1201.39	1.187
1204.77	2.68446
1208.14	1.21446
1211.52	1.50078
1214.89	1.46256
1218.27	0.689651
1221.64	1.3726
1225.02	1.05864
1228.39	1.67256
1231.77	2.72615
1235.14	1.76566
1238.52	1.537
1241.89	1.87624
1245.26	0.657242
1248.64	2.39519
1252.01	2.04883
1255.39	2.25391
1258.76	0.685333
1262.14	1.16849
1265.51	1.94852
1268.89	3.4435
1272.26	1.04611
1275.64	1.80771
1279.01	0.196609
1282.39	0.802948
