Measurement: Raman, 532 nm, unoriented, Raman Data Processed
Mineral: Eosphorite
Rruff sample: R060293
Ideal chemistry: Mn^2+^AlPO_4_(OH)_2_H_2_O
Locality: Mawi area, Nuristan, Laghman Province, Afghanistan
Source: Herb Obodda
Description: Orange brown prismatic crystal
Measured chemistry: (Mn^2+^_0.67_Fe^2+^_0.30_Ca_0.03_)_Σ=1_Al_1.00_(P_1.00_O_4_)(OH)_2_·H_2_O
Raman shift (cm-1)	intensity
90.2653	0
93.6401	18.0361
97.0149	2.24898
100.39	7.29622
103.765	8.56305
107.139	25.8483
110.514	39.9816
113.889	69.5544
117.264	138.533
120.639	146.88
124.013	58.2226
127.388	14.1448
130.763	5.46375
134.138	1.33936
137.513	4.28332
140.888	6.93343
144.262	1.80559
147.637	1.0171
151.012	4.18246
154.387	11.9551
157.762	18.4098
161.137	25.3626
164.511	43.5964
167.886	71.1464
171.261	113.329
174.636	95.6072
178.011	62.7133
181.385	53.2666
184.76	52.8261
188.135	58.4253
191.51	64.9981
194.885	70.7764
198.26	81.9738
201.634	94.5128
205.009	114.426
208.384	132.061
211.759	122.651
215.133	118.54
218.508	124.054
221.883	126.397
225.258	132.23
228.633	144.173
232.008	137.101
235.382	120.288
238.757	110.363
242.132	109.107
245.507	121.716
248.882	144.021
252.256	163.41
255.631	156.846
259.006	115.199
262.381	64.144
265.756	24.3866
269.131	4.85081
272.505	4.10693
275.88	3.50079
279.255	0.127808
282.63	6.40642
286.005	15.0887
289.38	26.4737
292.754	33.7437
296.129	40.3668
299.504	42.9828
302.879	43.534
306.254	41.7514
309.628	35.3109
313.003	25.4298
316.378	15.6024
319.753	7.5115
323.128	2.26927
326.502	0.4422
329.877	3.04717
333.252	1.60983
336.627	0.109253
340.002	3.26669
343.377	4.84634
346.751	5.03545
350.126	3.46411
353.501	0.212204
356.876	0.341782
360.251	0.200424
363.625	0.524506
367	0.055252
370.375	0.887238
373.75	3.97115
377.125	11.5992
380.5	21.9912
383.874	36.9127
387.249	55.2377
390.624	79.6937
393.999	107.697
397.374	132.838
400.748	140.76
404.123	127.036
407.498	97.2906
410.873	71.1665
414.248	51.9437
417.623	40.5845
420.997	32.1591
424.372	23.9549
427.747	19.69
431.122	15.8038
434.497	16.0897
437.872	14.845
441.246	16.2353
444.621	18.2498
447.996	22.6089
451.371	31.6234
454.745	39.6956
458.12	53.5689
461.495	68.2063
464.87	80.8228
468.245	91.0814
471.62	90.8979
474.994	75.4826
478.369	60.0704
481.744	39.487
485.119	26.8233
488.494	16.4294
491.868	11.0463
495.243	8.71819
498.618	6.89337
501.993	6.02362
505.368	4.96196
508.743	2.34976
512.117	1.84528
515.492	0.65744
518.867	4.16641
522.242	1.87498
525.617	1.37949
528.991	2.87999
532.366	1.36081
535.741	2.10167
539.116	0.686951
542.491	2.27615
545.866	10.0999
549.24	18.231
552.615	30.8112
555.99	49.4805
559.365	66.8208
562.74	55.2712
566.115	35.0047
569.489	30.5459
572.864	40.3419
576.239	63.1469
579.614	101.198
582.989	160.516
586.363	249.942
589.738	367.551
593.113	503.029
596.488	564.527
599.863	454.813
603.237	316.715
606.612	257.589
609.987	247.206
613.362	253.454
616.737	250.908
620.112	225.815
623.486	181.809
626.861	141.793
630.236	113.824
633.611	89.0941
636.986	66.8757
640.361	45.4103
643.735	27.1588
647.11	18.6817
650.485	11.3714
653.86	9.31204
657.235	2.26096
660.609	0.487534
663.984	1.00037
667.359	1.71913
670.734	0.378189
674.109	0.498199
677.484	1.57033
680.858	2.10613
684.233	1.21056
687.608	0.911987
690.983	1.45137
694.357	1.65761
697.732	1.95813
701.107	0.457382
704.482	0.200974
707.857	0.032166
711.232	0.59758
714.606	0.399933
717.981	1.14941
721.356	0.458801
724.731	0.318268
728.106	0.417419
731.481	0.044357
734.855	0.11647
738.23	1.22961
741.605	0.871735
744.98	0.995697
748.355	1.40945
751.729	1.67001
755.104	1.71893
758.479	0.576279
761.854	0.364655
765.229	2.01999
768.604	1.42629
771.978	0.064545
775.353	1.50987
778.728	0.198334
782.103	0.341385
785.478	0.570953
788.852	0.918579
792.227	1.06735
795.602	3.19702
798.977	3.43367
802.352	5.5423
805.726	8.14414
809.101	10.0573
812.476	10.3039
815.851	11.1233
819.226	9.13054
822.601	9.50223
825.975	7.96709
829.35	7.12753
832.725	7.67334
836.1	9.29637
839.475	8.96605
842.85	13.0455
846.224	16.2041
849.599	16.4707
852.974	19.4066
856.349	23.8848
859.724	28.2027
863.098	34.4703
866.473	40.9717
869.848	48.2264
873.223	53.0999
876.598	54.3972
879.972	52.9452
883.347	47.8977
886.722	41.1871
890.097	35.1351
893.472	30.2582
896.847	22.9024
900.221	15.8379
903.596	10.5662
906.971	4.53976
910.346	1.39389
913.721	1.9382
917.096	1.15655
920.47	4.85684
923.845	4.44177
927.22	4.62764
930.595	2.55768
933.97	2.05673
937.344	8.87419
940.719	20.8757
944.094	37.9786
947.469	71.0045
950.844	130.66
954.218	250.588
957.593	471.384
960.968	816.164
964.343	1350.85
967.718	1926.38
971.092	1700.22
974.467	950.159
977.842	521.649
981.217	329.923
984.592	233.923
987.967	186.093
991.341	159.845
994.716	157.44
998.091	179.18
1001.47	223.709
1004.84	301.627
1008.22	405.506
1011.59	522.469
1014.97	587.214
1018.34	503.419
1021.72	342.103
1025.09	230.994
1028.46	193.595
1031.84	200.514
1035.21	227.469
1038.59	235.507
1041.96	191.553
1045.34	127.852
1048.71	92.925
1052.09	88.8601
1055.46	80.1351
1058.84	52.1313
1062.21	21.3002
1065.59	4.65816
1068.96	4.65327
1072.34	6.34448
1075.71	4.26953
1079.09	4.21904
1082.46	0.68457
1085.84	2.65466
1089.21	2.51651
1092.59	2.41417
1095.96	4.81935
1099.34	8.10468
1102.71	13.3673
1106.09	19.117
1109.46	19.0495
1112.84	15.7792
1116.21	12.7891
1119.58	10.1848
1122.96	7.83586
1126.33	5.62566
1129.71	2.60349
1133.08	1.01199
1136.46	1.55884
1139.83	2.78267
1143.21	7.01332
1146.58	8.09833
1149.96	6.56879
1153.33	3.61812
1156.71	3.06013
1160.08	1.18811
1163.46	0.594925
1166.83	0.246201
1170.21	1.04839
1173.58	0.794235
1176.96	0.955887
1180.33	0.479935
1183.71	1.85445
1187.08	0.537048
1190.46	0.658539
1193.83	0.707718
1197.2	0.31102
1200.58	0.22728
1203.95	0.984375
1207.33	0.931519
1210.7	1.25856
1214.08	1.02606
1217.45	1.50906
1220.83	1.70062
1224.2	1.03441
1227.58	0.479706
1230.95	1.17007
1234.33	0.922668
1237.7	0.489243
1241.08	4.11798
1244.45	0.747223
1247.83	0.499542
1251.2	1.56401
1254.58	1.10722
1257.95	1.6593
1261.33	1.47252
1264.7	1.31523
1268.08	1.73569
1271.45	1.86089
1274.83	0.008987
1278.2	1.44888
1281.58	1.14151
1284.95	1.7458
1288.33	1.28148
1291.7	2.14317
1295.08	0.426529
1298.45	0.033737
1301.83	0
