Measurement: Raman, 780 nm, unoriented, Raman Data RAW
Mineral: Eosphorite
Rruff sample: R140390
Ideal chemistry: Mn^2+^AlPO_4_(OH)_2_H_2_O
Locality: Seco claim, Taquaral, Brazil
Source: Gunnar Farber
Description: Aggregates of brown prismatic crystals.
Measured chemistry: (Mn_0.55_Fe^2+^_0.37_Ca_0.04_Mg_0.01_)_Σ=0.97_Al_1.00_(P_1.02_O_4_)(OH)_2_·H_2_O
Raman shift (cm-1)	intensity
99.2738	481.315
102.649	478.731
106.023	478.452
109.398	467.389
112.773	448.239
116.148	414.846
119.523	373.798
122.897	347.498
126.272	325.253
129.647	310.929
133.022	296.853
136.397	285.924
139.772	275.566
143.146	265.326
146.521	260.385
149.896	256.092
153.271	252.987
156.646	248.996
160.02	249.365
163.395	249.01
166.77	249.547
170.145	246.923
173.52	248.482
176.894	248.831
180.269	249.399
183.644	253.797
187.019	257.187
190.394	262.771
193.769	266.541
197.143	270.077
200.518	269.875
203.893	269.44
207.268	268.356
210.643	260.32
214.018	254.923
217.392	250.136
220.767	244.756
224.142	241.904
227.517	239.156
230.892	236.279
234.266	233.464
237.641	228.768
241.016	227.85
244.391	222.965
247.766	221.768
251.14	218.57
254.515	215.251
257.89	213.576
261.265	212.927
264.64	213.655
268.014	215.188
271.389	214.42
274.764	213.416
278.139	210.596
281.514	209.153
284.889	208.606
288.263	207.744
291.638	206.331
295.013	208.196
298.388	209.704
301.763	212.8
305.137	211.786
308.512	210.481
311.887	206.351
315.262	203.136
318.637	199.174
322.012	194.778
325.386	191.25
328.761	186.501
332.136	184.385
335.511	180.016
338.886	175.919
342.26	171.849
345.635	166.682
349.01	162.82
352.385	159.844
355.76	157.347
359.135	154.786
362.509	153.942
365.884	154.263
369.259	155.583
372.634	157.144
376.009	159.187
379.383	160.208
382.758	163.556
386.133	163.704
389.508	165.008
392.883	166.206
396.257	167.135
399.632	171.398
403.007	174.42
406.382	179.308
409.757	184.172
413.132	189.649
416.506	193.151
419.881	196.937
423.256	197.937
426.631	195.145
430.006	192.87
433.38	186.085
436.755	178.245
440.13	169.622
443.505	160.926
446.88	152.588
450.255	146.975
453.629	141.16
457.004	137.652
460.379	135.794
463.754	132.508
467.129	129.964
470.503	128.935
473.878	126.207
477.253	124.923
480.628	123.021
484.003	123.237
487.377	124.718
490.752	125.119
494.127	128.502
497.502	130.592
500.877	131.529
504.252	132.656
507.626	131.748
511.001	129.113
514.376	127.008
517.751	124.083
521.126	119.894
524.5	118.003
527.875	114.474
531.25	113.189
534.625	112.213
538	111.469
541.375	110.518
544.749	110.742
548.124	110.839
551.499	114.426
554.874	119.161
558.249	121.851
561.623	124.194
564.998	128.039
568.373	129.021
571.748	130.943
575.123	130.585
578.497	131.284
581.872	133.942
585.247	137.436
588.622	145.606
591.997	157.253
595.371	171.376
598.746	187.507
602.121	196.564
605.496	192.938
608.871	179.617
612.246	162.898
615.62	148.081
618.995	135.984
622.37	125.683
625.745	120.278
629.12	117.495
632.494	114.508
635.869	113.237
639.244	111.836
642.619	109.645
645.994	108.356
649.369	105.41
652.743	102.436
656.118	97.802
659.493	94.5566
662.868	86.9042
666.243	82.8487
669.617	78.787
672.992	75.2803
676.367	71.5241
679.742	69.3364
683.117	67.7073
686.491	65.9356
689.866	64.5285
693.241	64.0768
696.616	62.5407
699.991	61.3195
703.366	60.4241
706.74	59.539
710.115	57.6912
713.49	58.0203
716.865	55.9745
720.24	55.3161
723.614	55.801
726.989	52.9518
730.364	52.3991
733.739	51.1992
737.114	49.905
740.489	49.5391
743.863	49.6594
747.238	48.3713
750.613	48.3801
753.988	46.8154
757.363	46.8436
760.737	45.8154
764.112	44.6513
767.487	44.286
770.862	44.1617
774.237	42.85
777.611	41.5647
780.986	40.9606
784.361	40.5178
787.736	40.3388
791.111	39.9654
794.486	39.57
797.86	39.0652
801.235	38.924
804.61	39.0884
807.985	38.9593
811.36	39.3396
814.734	38.4398
818.109	39.5473
821.484	38.7934
824.859	39.0885
828.234	39.176
831.609	39.0011
834.983	39.2658
838.358	39.0263
841.733	39.5505
845.108	39.4875
848.483	39.6228
851.857	40.5591
855.232	40.7379
858.607	40.7223
861.982	40.7069
865.357	41.3839
868.731	41.5603
872.106	41.6476
875.481	41.404
878.856	41.5172
882.231	42.3075
885.606	43.1589
888.98	42.8872
892.355	43.4596
895.73	43.8834
899.105	44.7712
902.48	44.9407
905.854	45.2813
909.229	46.6121
912.604	48.265
915.979	49.1453
919.354	49.5441
922.729	51.5366
926.103	52.0478
929.478	53.9085
932.853	56.4311
936.228	60.286
939.603	62.739
942.977	67.2211
946.352	71.6569
949.727	76.8565
953.102	81.7153
956.477	90.9978
959.851	103.046
963.226	120.444
966.601	140.015
969.976	157.523
973.351	162.787
976.726	158.272
980.1	149.397
983.475	139.822
986.85	129.995
990.225	122.396
993.6	114.029
996.974	108.164
1000.35	103.763
1003.72	98.9862
1007.1	94.3132
1010.47	91.9412
1013.85	88.3333
1017.22	85.7978
1020.6	83.9137
1023.97	82.0597
1027.35	80.5528
1030.72	79.5543
1034.1	79.7372
1037.47	79.2225
1040.85	79.5598
1044.22	80.7599
1047.6	80.4397
1050.97	82.5149
1054.35	83.1948
1057.72	84.1298
1061.1	85.877
1064.47	85.5171
1067.85	83.9826
1071.22	84.4452
1074.6	82.1563
1077.97	79.3405
1081.35	76.2402
1084.72	73.0769
1088.09	70.4726
1091.47	67.316
1094.84	64.7441
1098.22	63.4352
1101.59	61.9823
1104.97	61.2003
1108.34	59.7685
1111.72	58.7938
1115.09	57.2034
1118.47	55.5779
1121.84	54.8345
1125.22	53.4827
1128.59	51.9785
1131.97	49.7081
1135.34	48.2156
1138.72	47.5087
1142.09	44.8367
1145.47	43.2424
1148.84	42.1661
1152.22	41.4671
1155.59	40.2515
1158.97	39.5382
1162.34	38.7311
1165.71	38.3564
1169.09	37.7134
1172.46	36.5824
1175.84	36.0655
1179.21	35.6425
1182.59	34.0766
1185.96	33.5821
1189.34	33.4663
1192.71	32.5217
1196.09	32.042
1199.46	31.6341
1202.84	31.0271
1206.21	30.8892
1209.59	30.4321
1212.96	29.8319
1216.34	29.3359
1219.71	28.6249
1223.09	28.8095
1226.46	28.6618
1229.84	28.0143
1233.21	28.608
1236.59	28.1256
1239.96	27.6146
1243.34	27.8659
1246.71	27.6734
1250.09	27.9877
1253.46	27.1255
1256.84	27.4834
1260.21	27.2311
1263.59	27.4464
1266.96	27.0171
1270.33	27.6396
1273.71	27.1578
1277.08	27.0872
1280.46	27.1299
1283.83	27.1972
