Measurement: Raman, 532 nm, unoriented, Raman Data RAW
Mineral: Eosphorite
Rruff sample: R140390
Ideal chemistry: Mn^2+^AlPO_4_(OH)_2_H_2_O
Locality: Seco claim, Taquaral, Brazil
Source: Gunnar Farber
Description: Aggregates of brown prismatic crystals.
Measured chemistry: (Mn_0.55_Fe^2+^_0.37_Ca_0.04_Mg_0.01_)_Σ=0.97_Al_1.00_(P_1.02_O_4_)(OH)_2_·H_2_O
Raman shift (cm-1)	intensity
108.586	436.382
111.961	460.447
115.335	466.683
118.71	454.748
122.085	440.111
125.46	433.53
128.835	428.26
132.209	423.234
135.584	418.045
138.959	415.191
142.334	412.514
145.709	409.972
149.084	412.494
152.458	416.032
155.833	420.332
159.208	425.449
162.583	434.11
165.958	439.395
169.333	447.644
172.707	455.744
176.082	463.931
179.457	474.438
182.832	483.638
186.207	495.698
189.581	506.95
192.956	517.843
196.331	524.586
199.706	527.071
203.081	525.711
206.455	520.248
209.83	514.753
213.205	511.363
216.58	507.824
219.955	501.465
223.329	496.724
226.704	486.558
230.079	479.06
233.454	467.262
236.829	453.738
240.204	441.004
243.578	427.786
246.953	412.626
250.328	403.861
253.703	397.622
257.078	395.317
260.452	395.431
263.827	395.704
267.202	394.81
270.577	399.319
273.952	400.937
277.327	404.455
280.701	406.337
284.076	407.974
287.451	411.358
290.826	413.678
294.201	417.149
297.575	419.198
300.95	420.511
304.325	420.499
307.7	422.02
311.075	421.698
314.45	418.346
317.824	413.315
321.199	410.461
324.574	405.757
327.949	398.041
331.324	393.104
334.699	386.195
338.073	381.863
341.448	377.297
344.823	372.128
348.198	368.999
351.573	365.536
354.947	362.717
358.322	360.161
361.697	359.584
365.072	357.471
368.447	356.261
371.822	356.837
375.196	359.808
378.571	364.911
381.946	367.087
385.321	372.047
388.696	377.174
392.07	382.324
395.445	390.528
398.82	402.259
402.195	415.372
405.57	430.18
408.945	447.688
412.319	465.417
415.694	480.747
419.069	494.294
422.444	500.643
425.818	496.556
429.193	488.478
432.568	478.432
435.943	462.519
439.318	443.735
442.693	425.478
446.067	409.193
449.442	393.241
452.817	380.644
456.192	371.746
459.567	367.084
462.942	361.2
466.316	357.899
469.691	361.739
473.066	357.291
476.441	356.973
479.816	358.855
483.19	365.863
486.565	373.435
489.94	387.676
493.315	398.189
496.69	410.41
500.065	421.583
503.439	433.452
506.814	440.07
510.189	443.362
513.564	443.061
516.939	437.304
520.313	430.782
523.688	425.433
527.063	417.606
530.438	412.716
533.813	408.875
537.188	402.125
540.562	402.485
543.937	401.522
547.312	404.592
550.687	411.102
554.062	416.96
557.436	427.863
560.811	437.648
564.186	447.38
567.561	451.562
570.936	455.652
574.311	457.732
577.685	460.381
581.06	463.682
584.435	470.943
587.81	485.795
591.185	507.875
594.559	538.52
597.934	571.222
601.309	588.219
604.684	586.207
608.059	555.159
611.433	517.088
614.808	474.897
618.183	442.389
621.558	417.467
624.933	403.67
628.308	394.604
631.682	391.317
635.057	390.003
638.432	389.115
641.807	387.49
645.182	387.001
648.557	382.772
651.931	374.298
655.306	362.312
658.681	348.119
662.056	335.525
665.431	321.473
668.805	307.914
672.18	295.007
675.555	285.652
678.93	275.91
682.305	271.165
685.679	264.921
689.054	260.876
692.429	255.909
695.804	252.199
699.179	248.61
702.553	244.934
705.928	241.942
709.303	238.563
712.678	234.737
716.053	232.557
719.428	230.09
722.802	227.149
726.177	224.114
729.552	220.765
732.927	220.669
736.302	218.62
739.677	217.563
743.051	215.243
746.426	213.576
749.801	211.765
753.176	210.636
756.551	206.183
759.925	200.923
763.3	196.595
766.675	189.624
770.05	181.871
773.425	176.201
776.799	168.793
780.174	164.098
783.549	160.846
786.924	156.802
790.299	153.059
793.674	150.402
797.048	148.063
800.423	148.19
803.798	147.285
807.173	146.109
810.548	145.117
813.923	144.907
817.297	144.244
820.672	144.508
824.047	143.675
827.422	144.542
830.797	144.615
834.171	143.812
837.546	142.981
840.921	145.11
844.296	145.107
847.671	145.077
851.045	145.77
854.42	146.131
857.795	146.304
861.17	147
864.545	147.61
867.92	148.905
871.294	149.093
874.669	152.537
878.044	149.539
881.419	150.96
884.794	152.298
888.168	153.372
891.543	154.977
894.918	157.444
898.293	157.799
901.668	159.651
905.043	163.039
908.417	165.403
911.792	169.537
915.167	173.139
918.542	176.894
921.917	180.958
925.291	186.375
928.666	192.25
932.041	198.998
935.416	207.622
938.791	215.666
942.165	226.96
945.54	237.48
948.915	249.994
952.29	265.629
955.665	284.273
959.04	309.914
962.414	345.218
965.789	386.228
969.164	426.166
972.539	451.473
975.914	458.452
979.288	444.648
982.663	429.455
986.038	409.653
989.413	391.928
992.788	369.358
996.163	353.436
999.537	339.172
1002.91	324.603
1006.29	313.183
1009.66	301.082
1013.04	291.774
1016.41	282.287
1019.79	274.895
1023.16	267.627
1026.54	263.92
1029.91	259.589
1033.29	255.961
1036.66	253.307
1040.04	252.863
1043.41	253.391
1046.79	254.351
1050.16	255.957
1053.53	255.64
1056.91	256.523
1060.28	254.769
1063.66	256.482
1067.03	256.902
1070.41	256.55
1073.78	252.369
1077.16	249.342
1080.53	246.925
1083.91	242.61
1087.28	241.117
1090.66	238.795
1094.03	235.93
1097.41	234.464
1100.78	234.31
1104.16	231.524
1107.53	229.329
1110.91	229.489
1114.28	226.651
1117.66	222.774
1121.03	221.375
1124.41	216.323
1127.78	213.692
1131.15	209.423
1134.53	206.223
1137.9	201.226
1141.28	197.532
1144.65	193.067
1148.03	189.634
1151.4	184.315
1154.78	181.852
1158.15	178.681
1161.53	174.511
1164.9	171.365
1168.28	166.829
1171.65	163.939
1175.03	159.81
1178.4	155.387
1181.78	152.017
1185.15	151.418
1188.53	147.376
1191.9	143.589
1195.28	140.745
1198.65	136.979
1202.03	135.372
1205.4	133.237
1208.78	130.075
1212.15	128.894
1215.53	127.01
1218.9	125.536
1222.28	124.045
1225.65	121.564
1229.03	121.868
1232.4	121.898
1235.78	120.231
1239.15	120.153
1242.52	119.295
1245.9	119.095
1249.27	118.723
1252.65	118.634
1256.02	118.071
1259.4	118.081
1262.77	117.692
1266.15	119.198
1269.52	117.089
1272.9	117.783
1276.27	116.837
1279.65	115.425
1283.02	115.387
1286.4	115.949
1289.77	114.957
1293.15	114.816
1296.52	113.623
1299.9	114.336
