Measurement: Raman, 780 nm, unoriented, Raman Data Processed
Mineral: Eosphorite
Rruff sample: R060293
Ideal chemistry: Mn^2+^AlPO_4_(OH)_2_H_2_O
Locality: Mawi area, Nuristan, Laghman Province, Afghanistan
Source: Herb Obodda
Description: Orange brown prismatic crystal
Measured chemistry: (Mn^2+^_0.67_Fe^2+^_0.30_Ca_0.03_)_Σ=1_Al_1.00_(P_1.00_O_4_)(OH)_2_·H_2_O
Raman shift (cm-1)	intensity
93.9705	0
97.3453	4.42248
100.72	9.8681
104.095	0.06665
107.47	10.7945
110.845	26.7332
114.219	57.2221
117.594	128.665
120.969	168.702
124.344	79.5706
127.719	31.8533
131.094	20.2911
134.468	13.1616
137.843	2.41214
141.218	6.83331
144.593	2.49008
147.968	4.9325
151.342	6.50671
154.717	10.0299
158.092	19.6141
161.467	32.6102
164.842	52.6153
168.216	88.106
171.591	133.434
174.966	118.121
178.341	76.6012
181.716	62.2262
185.09	54.7343
188.465	55.3637
191.84	58.3051
195.215	58.9651
198.59	64.9271
201.965	73.4127
205.339	83.7112
208.714	91.8872
212.089	80.3213
215.464	69.3443
218.839	73.7623
222.214	79.4151
225.588	86.0393
228.963	93.6308
232.338	102.077
235.713	106.292
239.088	111.837
242.462	127.575
245.837	149.875
249.212	186.028
252.587	215.308
255.962	214.498
259.336	171.13
262.711	103.197
266.086	52.8908
269.461	22.7098
272.836	6.60544
276.211	1.35877
279.585	0.720642
282.96	2.74771
286.335	8.53693
289.71	12.4459
293.085	17.3654
296.459	19.1036
299.834	18.7335
303.209	19.8268
306.584	17.774
309.959	13.5285
313.334	11.1878
316.708	4.12285
320.083	1.13086
323.458	2.71671
326.833	3.70149
330.207	3.91925
333.582	1.20978
336.957	0.897964
340.332	4.6519
343.707	4.78293
347.082	8.16881
350.456	9.22472
353.831	10.8857
357.206	12.5019
360.581	13.1926
363.956	19.3421
367.33	23.4116
370.705	30.4184
374.08	39.7417
377.455	54.3871
380.83	70.1368
384.205	92.3328
387.579	122.097
390.954	157.739
394.329	196.496
397.704	226.778
401.079	225.447
404.453	188.444
407.828	134.782
411.203	87.6832
414.578	55.2637
417.953	33.6886
421.327	20.7608
424.702	13.7562
428.077	6.16977
431.452	4.82458
434.827	2.99487
438.202	0.083817
441.576	1.21733
444.951	0.048752
448.326	2.01326
451.701	5.8976
455.076	9.26849
458.45	14.2252
461.825	20.7473
465.2	23.4939
468.575	28.4933
471.95	28.5624
475.325	27.0257
478.699	18.3726
482.074	15.7723
485.449	10.5819
488.824	8.07294
492.199	6.63232
495.573	5.41734
498.948	5.03522
502.323	4.97035
505.698	4.43013
509.073	3.29128
512.447	1.77097
515.822	1.55601
519.197	0.366425
522.572	0.154938
525.947	0.506058
529.322	0.789719
532.696	1.30939
536.071	0.201233
539.446	1.96025
542.821	0.638458
546.196	4.57964
549.57	8.10435
552.945	13.1742
556.32	21.1349
559.695	29.6801
563.07	25.602
566.444	15.8847
569.819	10.1682
573.194	14.8555
576.569	23.4273
579.944	35.4993
583.319	52.7222
586.693	75.2875
590.068	113.141
593.443	156.698
596.818	188.296
600.193	182.43
603.567	170.641
606.942	184.835
610.317	223.272
613.692	268.8
617.067	296.165
620.442	281.367
623.816	227.302
627.191	167.273
630.566	123.325
633.941	92.6509
637.316	67.5985
640.69	47.1572
644.065	30.2888
647.44	20.5622
650.815	14.4135
654.19	9.00803
657.564	6.15462
660.939	3.24731
664.314	2.56569
667.689	0.308334
671.064	0.140717
674.439	0.068375
677.813	0.400269
681.188	0.051651
684.563	0.664581
687.938	0.484909
691.313	0.473526
694.688	0.683884
698.062	0.231201
701.437	0.135132
704.812	0.626343
708.187	0.639847
711.562	0.097427
714.936	0.82608
718.311	0.666733
721.686	0.094833
725.061	0.534409
728.436	0.334366
731.81	1.2215
735.185	0.813553
738.56	0.491348
741.935	1.28993
745.31	0.863495
748.684	0.081833
752.059	1.06625
755.434	1.32845
758.809	1.29884
762.184	1.06728
765.559	0.725693
768.933	0.593491
772.308	1.69319
775.683	1.28819
779.058	0.088272
782.433	0.238281
785.808	1.33653
789.182	0.006683
792.557	0.652328
795.932	1.01799
799.307	2.21454
802.682	1.39786
806.056	2.54182
809.431	3.52271
812.806	3.01686
816.181	3.77251
819.556	2.5867
822.93	2.2523
826.305	2.43059
829.68	3.98282
833.055	2.61674
836.43	3.07019
839.804	5.77428
843.179	5.30896
846.554	5.16513
849.929	6.40338
853.304	8.09172
856.679	8.91968
860.053	9.8974
863.428	14.1129
866.803	17.6948
870.178	17.5511
873.553	20.5552
876.927	19.6799
880.302	19.1271
883.677	17.6732
887.052	15.2507
890.427	12.6221
893.802	10.0864
897.176	7.8658
900.551	6.05989
903.926	3.00957
907.301	1.42621
910.676	1.12137
914.05	0.874481
917.425	2.31865
920.8	2.77531
924.175	2.38071
927.55	1.21298
930.924	1.0705
934.299	2.68997
937.674	7.92805
941.049	12.1452
944.424	21.479
947.799	37.7256
951.173	67.0982
954.548	120.265
957.923	220.795
961.298	375.253
964.673	630.527
968.047	954.39
971.422	925.597
974.797	529.113
978.172	272.792
981.547	157.363
984.922	101.748
988.296	72.8309
991.671	54.0034
995.046	44.7221
998.421	42.8112
1001.8	50.0297
1005.17	63.738
1008.54	85.5915
1011.92	113.332
1015.29	134.915
1018.67	123.096
1022.04	85.7893
1025.42	59.3797
1028.79	48.5705
1032.17	55.267
1035.54	69.3406
1038.92	75.9124
1042.29	69.3946
1045.67	47.068
1049.04	33.9031
1052.42	31.5596
1055.79	30.4639
1059.17	22.1473
1062.54	10.6213
1065.92	3.79139
1069.29	0.502998
1072.67	1.06491
1076.04	2.92368
1079.42	2.34989
1082.79	1.3345
1086.17	0.403473
1089.54	0.628738
1092.92	0.562721
1096.29	2.07645
1099.66	2.4266
1103.04	5.45014
1106.41	7.35786
1109.79	7.75204
1113.16	7.0242
1116.54	5.58113
1119.91	3.30576
1123.29	3.78088
1126.66	2.87213
1130.04	2.9128
1133.41	1.83314
1136.79	0.598007
1140.16	0.196884
1143.54	1.366
1146.91	2.61006
1150.29	1.52937
1153.66	1.72436
1157.04	0.036224
1160.41	0.952126
1163.79	0.244942
1167.16	0.201683
1170.54	0.648834
1173.91	0.647247
1177.29	1.26257
1180.66	0.007233
1184.04	0.525543
1187.41	1.1671
1190.79	0.972717
1194.16	1.37571
1197.54	1.1695
1200.91	1.72964
1204.28	0.979362
1207.66	2.18456
1211.03	1.86173
1214.41	0.968842
1217.78	1.15503
1221.16	1.13229
1224.53	0.694717
1227.91	1.07879
1231.28	0.331291
1234.66	0.564278
1238.03	0.388718
1241.41	1.14783
1244.78	0.006355
1248.16	0.52681
1251.53	0.434158
1254.91	0.151451
1258.28	0.989456
1261.66	1.84824
1265.03	0.53878
1268.41	1.75041
1271.78	0.756424
1275.16	0.267738
1278.53	1.70247
1281.9	0.440353
