Measurement: Raman, 532 nm, unoriented, Raman Data Processed
Mineral: Ericaite
Rruff sample: R130477
Ideal chemistry: Fe^2+^_3_B_7_O_13_Cl
Locality: Sudahm, Germany
Source: Rock Currier
Description: Dark purple cube
Raman shift (cm-1)	intensity
141.17	0
144.544	28.5781
147.919	5.60742
151.294	58.3332
154.669	147.721
158.044	186.484
161.418	170.567
164.793	128.003
168.168	77.8719
171.543	48.2106
174.918	25.5613
178.293	3.50195
181.667	1.4292
185.042	6.19141
188.417	5.19128
191.792	2.2605
195.167	12.6777
198.542	19.163
201.916	52.6418
205.291	79.7687
208.666	106.238
212.041	124.686
215.416	143.383
218.79	146.307
222.165	144.888
225.54	133.309
228.915	124.986
232.29	119.522
235.664	113.734
239.039	110.412
242.414	91.7944
245.789	80.5758
249.164	67.0947
252.538	62.46
255.913	54.9863
259.288	52.7655
262.663	54.3655
266.038	45.777
269.413	40.3167
272.787	33.9978
276.162	33.6628
279.537	29.3165
282.912	24.4579
286.287	23.2288
289.661	13.7351
293.036	5.98474
296.411	5.51929
299.786	6.18335
303.161	8.90002
306.536	8.76611
309.91	8.5459
313.285	6.68823
316.66	7.33557
320.035	1.80115
323.41	1.57519
326.784	1.43164
330.159	0.05957
333.534	9.41284
336.909	32.651
340.284	40.7158
343.659	62.3676
347.033	92.8451
350.408	103.889
353.783	53.8053
357.158	27.6238
360.533	21.1416
363.908	31.8221
367.282	52.6125
370.657	81.4558
374.032	87.9578
377.407	97.3445
380.782	116.846
384.156	94.4602
387.531	51.4414
390.906	30.3706
394.281	22.2253
397.656	21.4126
401.031	9.43848
404.405	0.802124
407.78	4.18189
411.155	3.38904
414.53	2.05945
417.905	6.9137
421.279	6.7926
424.654	13.2535
428.029	22.9935
431.404	24.9402
434.779	20.9524
438.154	11.134
441.528	17.2903
444.903	14.4224
448.278	17.8727
451.653	18.8868
455.028	15.9899
458.402	10.47
461.777	11.2224
465.152	2.99365
468.527	0.362915
471.902	2.87317
475.276	3.91309
478.651	2.05518
482.026	1.50561
485.401	3.08154
488.776	5.8269
492.151	9.8595
495.525	6.95825
498.9	9.06348
502.275	12.2877
505.65	19.949
509.025	24.3279
512.399	35.6274
515.774	50.0842
519.149	69.6769
522.524	84.0427
525.899	70.2136
529.274	34.6332
532.648	12.0709
536.023	5.21716
539.398	0.026733
542.773	5.71045
546.148	13.4756
549.523	33.2263
552.897	59.0538
556.272	57.859
559.647	33.0704
563.022	14.0847
566.396	1.49377
569.771	1.62402
573.146	1.44324
576.521	0.704712
579.896	1.51953
583.271	2.01306
586.645	1.83936
590.02	1.56555
593.395	4.75757
596.77	10.6077
600.145	19.4655
603.519	35.3678
606.894	41.0147
610.269	24.6467
613.644	23.3656
617.019	29.6381
620.394	47.7908
623.768	58.9008
627.143	63.9202
630.518	83.5355
633.893	120.747
637.268	173.638
640.643	237.197
644.017	275.24
647.392	200.254
650.767	99.6492
654.142	66.3495
657.517	68.4185
660.891	93.7175
664.266	129.138
667.641	158.686
671.016	137.774
674.391	80.441
677.765	37.578
681.14	17.817
684.515	4.99878
687.89	0.092407
691.265	2.29578
694.64	1.28857
698.014	5.20337
701.389	8.05176
704.764	10.6242
708.139	14.2195
711.514	17.5739
714.889	23.9077
718.263	30.4121
721.638	39.7573
725.013	44.2687
728.388	39.6967
731.763	29.7367
735.137	24.9557
738.512	25.1599
741.887	24.0848
745.262	23.728
748.637	15.4937
752.011	8.37085
755.386	4.49854
758.761	2.15442
762.136	1.10266
765.511	2.25501
768.886	0.989624
772.26	3.47156
775.635	6.38586
779.01	7.97314
782.385	9.38782
785.76	10.135
789.135	15.5215
792.509	19.3865
795.884	17.0527
799.259	14.1113
802.634	8.4812
806.009	10.7666
809.383	8.4458
812.758	9.19287
816.133	10.3138
819.508	11.8796
822.883	11.9761
826.257	8.47217
829.632	5.24805
833.007	7.38013
836.382	7.94507
839.757	12.3013
843.132	8.87598
846.506	11.728
849.881	27.9451
853.256	32.475
856.631	30.0832
860.006	28.7573
863.38	21.1127
866.755	18.0192
870.13	14.0713
873.505	14.8152
876.88	6.76599
880.255	6.85181
883.629	6.39294
887.004	4.39832
890.379	1.44458
893.754	9.00732
897.129	10.6041
900.504	6.1156
903.878	4.10998
907.253	5.69104
910.628	8.36841
914.003	3.80725
917.378	8.12598
920.752	8.27271
924.127	8.91284
927.502	11.7042
930.877	9.62964
934.252	3.59387
937.626	0.458984
941.001	0.300659
944.376	1.02063
947.751	1.25989
951.126	2.55749
954.5	10.084
957.875	19.8866
961.25	29.8388
964.625	33.4388
968	28.725
971.375	27.2615
974.75	27.6649
978.124	24.3728
981.499	24.9762
984.874	18.1072
988.249	15.9428
991.624	17.3772
994.998	19.4016
998.373	15.8595
1001.75	10.1325
1005.12	10.4065
1008.5	6.07544
1011.87	0.055664
1015.25	5.33191
1018.62	2.33752
1022	0.942871
1025.37	7.45606
1028.75	8.39075
1032.12	13.6616
1035.5	27.7352
1038.87	33.6464
1042.25	55.2505
1045.62	65.7399
1048.99	66.9819
1052.37	60.8865
1055.74	39.1062
1059.12	26.928
1062.49	22.1155
1065.87	11.6135
1069.24	12.0768
1072.62	9.26709
1075.99	7.4646
1079.37	4.24805
1082.74	2.25012
1086.12	0.079956
1089.49	3.61499
1092.87	3.34558
1096.24	2.28772
1099.62	2.55737
1102.99	4.51758
1106.37	4.25146
1109.74	6.36182
1113.12	5.40393
1116.49	3.99976
1119.87	6.06091
1123.24	0.133179
1126.62	0.983154
1129.99	2.36694
1133.37	1.40198
1136.74	0.922607
1140.12	5.79748
1143.49	4.38281
1146.87	10.8023
1150.24	22.899
1153.62	30.554
1156.99	43.3807
1160.36	47.3516
1163.74	39.1624
1167.11	32.1881
1170.49	25.8149
1173.86	15.7681
1177.24	10.7775
1180.61	5.12756
1183.99	3.11121
1187.36	3.59082
1190.74	7.08276
1194.11	9.08166
1197.49	2.05835
1200.86	4.36841
1204.24	7.49536
1207.61	11.8523
1210.99	17.7821
1214.36	17.8503
1217.74	26.7419
1221.11	24.8685
1224.49	26.7075
1227.86	17.8981
1231.24	13.7924
1234.61	10.629
1237.98	1.13232
1241.36	0.042236
1244.73	0.310425
1248.11	5.77942
1251.48	4.79614
1254.86	3.42163
1258.23	5.71045
1261.61	3.71973
1264.98	6.42859
1268.36	3.57495
1271.73	6.28235
1275.11	1.60278
1278.48	5.9657
1281.86	8.33447
1285.23	2.27661
1288.61	6.36743
1291.98	9.77026
1295.36	2.38269
1298.73	3.87964
