Measurement: Raman, 780 nm, unoriented, Raman Data Processed
Mineral: Ericaite
Rruff sample: R130476
Ideal chemistry: Fe^2+^_3_B_7_O_13_Cl
Locality: Bischofferode, Kreis Worbis, Thuringen, Germany
Source: Rock Currier
Description: Dark purple cube
Raman shift (cm-1)	intensity
93.8499	0
97.2247	1.72937
100.6	12.7362
103.974	0.356812
107.349	34.9686
110.724	25.2146
114.099	24.4376
117.474	8.87561
120.848	2.71777
124.223	3.2251
127.598	3.84131
130.973	24.5177
134.348	52.4398
137.722	97.7015
141.097	110.99
144.472	89.46
147.847	72.7269
151.222	66.6975
154.597	84.8779
157.971	88.9468
161.346	73.3375
164.721	50.0371
168.096	32.0211
171.471	21.1536
174.845	10.2579
178.22	2.25098
181.595	2.31665
184.97	2.67297
188.345	0.393188
191.72	3.74609
195.094	8.26489
198.469	10.9154
201.844	19.4428
205.219	21.652
208.594	24.8164
211.969	29.0627
215.343	28.7817
218.718	29.6672
222.093	28.4247
225.468	28.9304
228.843	28.4469
232.217	27.7913
235.592	27.4548
238.967	26.3084
242.342	28.4286
245.717	23.3658
249.091	18.4515
252.466	16.1721
255.841	17.7954
259.216	14.9313
262.591	13.6278
265.966	12.1893
269.34	6.53784
272.715	5.72217
276.09	7.01245
279.465	4.98547
282.84	4.02576
286.214	1.65747
289.589	1.59314
292.964	0.00769
296.339	0.375122
299.714	0.047119
303.089	1.78003
306.463	5.86902
309.838	1.28503
313.213	0.540039
316.588	1.82642
319.963	1.82983
323.337	1.90478
326.712	3.37909
330.087	1.98047
333.462	9.27521
336.837	9.18298
340.212	20.0976
343.586	24.5525
346.961	34.3536
350.336	42.9626
353.711	22.144
357.086	11.8031
360.46	13.6386
363.835	12.2843
367.21	24.8825
370.585	27.1013
373.96	35.1307
377.334	30.1673
380.709	32.6802
384.084	28.4279
387.459	15.0638
390.834	9.93903
394.209	10.836
397.583	5.66864
400.958	3.11719
404.333	1.12946
407.708	1.16492
411.083	1.57648
414.457	0.704285
417.832	1.35315
421.207	1.84985
424.582	6.48029
427.957	6.99316
431.332	8.06195
434.706	6.7337
438.081	7.82086
441.456	9.99158
444.831	9.55469
448.206	7.70801
451.58	9.97925
454.955	6.66657
458.33	7.72046
461.705	5.26837
465.08	3.02789
468.455	3.08868
471.829	4.03503
475.204	4.67194
478.579	4.01746
481.954	2.47003
485.329	4.2019
488.704	1.10169
492.078	5.24335
495.453	3.73413
498.828	0.578857
502.203	3.32214
505.577	5.06958
508.952	7.5658
512.327	11.2618
515.702	13.9631
519.077	17.7978
522.452	24.0726
525.826	19.844
529.201	10.7812
532.576	3.53955
535.951	1.21643
539.326	0.94928
542.701	0.981079
546.075	2.09705
549.45	10.4731
552.825	14.6849
556.2	16.0817
559.575	8.05102
562.949	4.54254
566.324	0.318787
569.699	1.05481
573.074	1.83838
576.449	0.081299
579.823	2.0592
583.198	2.69031
586.573	2.5235
589.948	1.63397
593.323	4.47931
596.698	3.87836
600.072	7.42975
603.447	12.1174
606.822	15.587
610.197	7.05444
613.572	5.23712
616.947	6.66577
620.321	12.7757
623.696	18.6264
627.071	21.9573
630.446	29.7644
633.821	38.5107
637.195	54.352
640.57	72.8107
643.945	84.9043
647.32	65.4658
650.695	36.4929
654.069	23.1383
657.444	22.4736
660.819	26.4813
664.194	36.6868
667.569	44.6136
670.944	39.7542
674.318	22.9291
677.693	12.2566
681.068	3.41425
684.443	2.50269
687.818	0.113647
691.192	1.62775
694.567	0.488953
697.942	0.687439
701.317	0.460327
704.692	1.7843
708.067	3.86432
711.441	6.70602
714.816	6.1785
718.191	7.73752
721.566	11.0013
724.941	13.424
728.316	14.5764
731.69	9.08231
735.065	7.89505
738.44	4.13275
741.815	8.51419
745.19	7.52271
748.564	4.01199
751.939	2.75604
755.314	1.54831
758.689	0.034332
762.064	0.144775
765.438	2.6471
768.813	0.576508
772.188	0.452728
775.563	0.711884
778.938	1.80789
782.313	2.7294
785.687	2.46079
789.062	3.69635
792.437	4.15567
795.812	3.6543
799.187	3.57623
802.562	4.27286
805.936	3.42703
809.311	5.06229
812.686	4.02667
816.061	2.75119
819.436	2.79453
822.81	3.73547
826.185	3.00748
829.56	3.10474
832.935	5.23666
836.31	4.58554
839.684	3.37473
843.059	4.25711
846.434	5.10818
849.809	8.08957
853.184	11.8172
856.558	9.99515
859.933	8.43359
863.308	6.82788
866.683	7.34528
870.058	4.97751
873.433	2.62244
876.807	3.77393
880.182	4.17252
883.557	1.92474
886.932	2.59906
890.307	3.4191
893.682	2.599
897.056	1.66315
900.431	0.162903
903.806	2.31076
907.181	0.07605
910.556	0.731903
913.93	0.010437
917.305	0.906769
920.68	1.18835
924.055	1.13937
927.43	2.5751
930.804	1.72281
934.179	1.88541
937.554	5.96677
940.929	0.834045
944.304	0.583069
947.679	0.903992
951.053	1.07092
954.428	2.3287
957.803	3.86798
961.178	5.66324
964.553	7.12729
967.928	8.43735
971.302	6.24542
974.677	5.03561
978.052	6.55383
981.427	3.85748
984.802	4.25263
988.176	5.41727
991.551	4.72632
994.926	6.70111
998.301	3.18164
1001.68	3.62494
1005.05	2.47745
1008.42	1.76459
1011.8	1.302
1015.17	0.944611
1018.55	1.93469
1021.92	1.26196
1025.3	0.487244
1028.67	2.40985
1032.05	3.55664
1035.42	6.80554
1038.8	8.84406
1042.17	9.03693
1045.55	13.4413
1048.92	13.7697
1052.3	10.2312
1055.67	8.31821
1059.05	7.16171
1062.42	4.25259
1065.8	3.45865
1069.17	8.01505
1072.55	1.91922
1075.92	0.183929
1079.3	1.19385
1082.67	1.06354
1086.05	2.11444
1089.42	0.496826
1092.8	0.726868
1096.17	1.6243
1099.55	0.543182
1102.92	0.917175
1106.3	2.90717
1109.67	1.31039
1113.05	0.929749
1116.42	0.427612
1119.79	1.03345
1123.17	0.74173
1126.54	0.035034
1129.92	0.560974
1133.29	0.900818
1136.67	0.351196
1140.04	2.61038
1143.42	2.99423
1146.79	2.68875
1150.17	6.30942
1153.54	8.46045
1156.92	9.30273
1160.29	9.76791
1163.67	8.71704
1167.04	6.30655
1170.42	5.51422
1173.79	4.07111
1177.17	4.08545
1180.54	3.5502
1183.92	1.78415
1187.29	2.17377
1190.66	2.39676
1194.04	2.81067
1197.41	2.3461
1200.79	1.9567
1204.16	2.40466
1207.54	2.93826
1210.91	3.41101
1214.29	3.74478
1217.66	5.65842
1221.04	4.80951
1224.41	3.80237
1227.79	4.88257
1231.16	2.55649
1234.54	3
1237.91	1.38351
1241.29	0.537231
1244.66	1.1593
1248.04	1.21976
1251.41	0.872375
1254.79	0.928558
1258.16	2.35565
1261.54	5.38297
1264.91	1.44635
1268.29	1.32871
1271.66	0.767059
1275.04	1.07321
1278.41	1.07227
1281.79	0.143768
