Measurement: Raman, 780 nm, unoriented, Raman Data Processed
Mineral: Ericaite
Rruff sample: R130477
Ideal chemistry: Fe^2+^_3_B_7_O_13_Cl
Locality: Sudahm, Germany
Source: Rock Currier
Description: Dark purple cube
Raman shift (cm-1)	intensity
93.8499	0
97.2247	4.06848
100.6	3.77649
103.974	1.49109
107.349	17.7012
110.724	2.07532
114.099	3.65576
117.474	0.934204
120.848	8.12207
124.223	18.9902
127.598	36.155
130.973	59.4456
134.348	89.1312
137.722	145.304
141.097	180.479
144.472	165.358
147.847	128.657
151.222	118.548
154.597	114.747
157.971	93.2667
161.346	71.0847
164.721	48.5996
168.096	31.724
171.471	17.0179
174.845	11.1514
178.22	1.66846
181.595	1.29199
184.97	0.871338
188.345	1.82349
191.72	0.063354
195.094	2.42127
198.469	3.80188
201.844	9.62488
205.219	11.297
208.594	13.5477
211.969	13.9683
215.343	12.8379
218.718	15.0852
222.093	13.7234
225.468	12.2439
228.843	9.28064
232.217	10.4512
235.592	7.05127
238.967	5.28125
242.342	10.0482
245.717	9.8396
249.091	4.98889
252.466	5.297
255.841	6.12622
259.216	3.50256
262.591	5.37268
265.966	6.00342
269.34	2.1521
272.715	2.9845
276.09	4.44702
279.465	3.87695
282.84	1.55347
286.214	0.238281
289.589	3.38281
292.964	0.631226
296.339	4.28186
299.714	2.33972
303.089	5.12378
306.463	5.14856
309.838	2.28589
313.213	2.29871
316.588	4.62256
319.963	5.85803
323.337	2.01269
326.712	3.9563
330.087	4.69983
333.462	7.7196
336.837	5.30664
340.212	5.85779
343.586	11.5404
346.961	16.2797
350.336	16.7821
353.711	13.7362
357.086	9.87854
360.46	10.3262
363.835	14.3278
367.21	17.0079
370.585	18.3618
373.96	18.0233
377.334	21.0665
380.709	26.1912
384.084	22.5802
387.459	14.2008
390.834	7.78332
394.209	6.39941
397.583	1.80542
400.958	0.625854
404.333	0.127197
407.708	0.36792
411.083	1.8266
414.457	0.38208
417.832	2.16058
421.207	2.76709
424.582	5.67761
427.957	7.76978
431.332	4.17023
434.706	1.65888
438.081	3.95392
441.456	6.02478
444.831	3.43805
448.206	1.51062
451.58	2.34326
454.955	5.36035
458.33	7.45428
461.705	4.06989
465.08	3.0293
468.455	3.7785
471.829	3.59992
475.204	4.45013
478.579	3.17236
481.954	1.18439
485.329	3.76422
488.704	3.90576
492.078	5.04608
495.453	4.41504
498.828	1.21289
502.203	3.4303
505.577	1.68958
508.952	6.64654
512.327	7.29138
515.702	4.70673
519.077	7.42371
522.452	8.23877
525.826	6.61359
529.201	4.4173
532.576	1.46387
535.951	0.66095
539.326	2.59729
542.701	2.72876
546.075	0.556641
549.45	0.554626
552.825	2.88977
556.2	2.53461
559.575	0.837524
562.949	1.75702
566.324	1.12512
569.699	0.065491
573.074	1.85175
576.449	2.14764
579.823	1.31226
583.198	5.8443
586.573	3.64813
589.948	1.68701
593.323	2.72199
596.698	2.31006
600.072	5.28101
603.447	9.77148
606.822	12.3497
610.197	8.96991
613.572	11.4684
616.947	14.6983
620.321	16.3934
623.696	13.4713
627.071	12.9048
630.446	10.9822
633.821	14.3227
637.195	18.5996
640.57	24.4003
643.945	32.8826
647.32	27.3811
650.695	17.4751
654.069	15.2709
657.444	18.6785
660.819	20.6744
664.194	25.2721
667.569	30.7648
670.944	25.1999
674.318	18.0859
677.693	9.10168
681.068	5.93799
684.443	3.11401
687.818	0.561584
691.192	5.32251
694.567	0.972351
697.942	0.92511
701.317	0.118652
704.692	1.39123
708.067	0.878113
711.441	3.07873
714.816	2.06659
718.191	0.947876
721.566	4.72961
724.941	3.58337
728.316	6.40851
731.69	4.05499
735.065	6.74518
738.44	3.23901
741.815	6.21332
745.19	4.66644
748.564	2.70276
751.939	0.9552
755.314	0.158997
758.689	1.46399
762.064	0.820251
765.438	0.063477
768.813	0.029541
772.188	1.15259
775.563	0.614929
778.938	1.80121
782.313	0.027954
785.687	3.58405
789.062	3.59772
792.437	4.99902
795.812	6.18848
799.187	2.74292
802.562	4.48071
805.936	5.56183
809.311	4.67175
812.686	3.6098
816.061	3.46881
819.436	5.99774
822.81	3.52319
826.185	2.56451
829.56	1.82263
832.935	3.90814
836.31	5.58435
839.684	2.2904
843.059	5.40851
846.434	3.64551
849.809	8.02173
853.184	5.1214
856.558	6.24805
859.933	4.8689
863.308	2.4549
866.683	2.8443
870.058	6.01038
873.433	1.93768
876.807	1.97296
880.182	3.20825
883.557	3.21136
886.932	2.24152
890.307	2.43317
893.682	0.426147
897.056	2.69525
900.431	1.43762
903.806	0.897827
907.181	1.03772
910.556	1.90308
913.93	0.454773
917.305	0.940918
920.68	0.53418
924.055	0.018433
927.43	1.9505
930.804	1.89417
934.179	2.40271
937.554	0.308167
940.929	1.73608
944.304	2.52704
947.679	0.289795
951.053	2.24487
954.428	1.07221
957.803	2.41461
961.178	4.7677
964.553	1.21393
967.928	5.7077
971.302	4.06189
974.677	1.64978
978.052	3.41394
981.427	1.40256
984.802	2.62759
988.176	2.85065
991.551	3.61505
994.926	4.0639
998.301	3.87274
1001.68	0.778229
1005.05	1.68759
1008.42	1.3458
1011.8	1.70822
1015.17	1.47617
1018.55	1.47775
1021.92	0.776184
1025.3	2.29556
1028.67	2.10223
1032.05	2.27716
1035.42	2.91122
1038.8	4.94806
1042.17	4.50674
1045.55	6.77173
1048.92	7.04983
1052.3	6.1095
1055.67	5.57519
1059.05	4.94138
1062.42	6.23553
1065.8	4.75601
1069.17	4.80316
1072.55	4.60083
1075.92	3.01797
1079.3	2.52713
1082.67	3.49796
1086.05	2.87289
1089.42	1.1926
1092.8	0.867737
1096.17	1.47949
1099.55	0.998138
1102.92	1.80829
1106.3	2.28915
1109.67	1.36789
1113.05	1.05347
1116.42	0.091461
1119.79	0.044159
1123.17	0.168457
1126.54	2.9942
1129.92	2.01535
1133.29	3.57523
1136.67	2.26331
1140.04	1.11926
1143.42	3.55719
1146.79	1.90494
1150.17	3.43716
1153.54	4.05118
1156.92	5.52655
1160.29	5.3584
1163.67	3.84692
1167.04	3.96057
1170.42	4.53955
1173.79	3.26047
1177.17	4.47235
1180.54	2.06113
1183.92	1.75324
1187.29	1.0611
1190.66	2.60883
1194.04	3.19418
1197.41	2.64053
1200.79	1.37384
1204.16	2.0542
1207.54	2.94815
1210.91	1.31909
1214.29	1.85529
1217.66	1.92407
1221.04	3.34357
1224.41	3.93704
1227.79	1.25677
1231.16	1.13046
1234.54	3.21768
1237.91	0.553619
1241.29	1.59677
1244.66	1.70035
1248.04	1.35983
1251.41	0.990814
1254.79	0.846588
1258.16	2.07095
1261.54	2.79855
1264.91	3.48517
1268.29	3.96228
1271.66	2.51444
1275.04	1.79688
1278.41	1.40597
1281.79	0.406097
