Measurement: Raman, 532 nm, unoriented, Raman Data Processed
Mineral: Ericaite
Rruff sample: R130476
Ideal chemistry: Fe^2+^_3_B_7_O_13_Cl
Locality: Bischofferode, Kreis Worbis, Thuringen, Germany
Source: Rock Currier
Description: Dark purple cube
Raman shift (cm-1)	intensity
140.205	0
143.58	9.09106
146.955	9.79932
150.33	58.4607
153.705	163.377
157.079	271.838
160.454	302.873
163.829	227.156
167.204	136.262
170.579	81.4492
173.953	38.6399
177.328	9.41333
180.703	1.7937
184.078	4.59326
187.453	3.10913
190.828	6.54419
194.202	9.76099
197.577	12.6958
200.952	46.8994
204.327	71.3635
207.702	104.522
211.077	104.328
214.451	114.801
217.826	114.393
221.201	116.827
224.576	106.116
227.951	95.8528
231.325	99.8149
234.7	104.654
238.075	99.5808
241.45	88.0381
244.825	72.7205
248.2	60.7895
251.574	58.54
254.949	59.092
258.324	67.8186
261.699	72.2444
265.074	61.1785
268.448	54.1555
271.823	48.0115
275.198	34.3523
278.573	34.5986
281.948	21.0657
285.322	24.8367
288.697	13.6084
292.072	6.5376
295.447	2.56201
298.822	1.69605
302.197	9.94287
305.571	7.78027
308.946	5.29443
312.321	6.26001
315.696	5.07373
319.071	4.61914
322.445	0.571777
325.82	4.59009
329.195	6.31519
332.57	15.3174
335.945	48.2375
339.32	74.3735
342.694	117.31
346.069	194.281
349.444	289.008
352.819	140.83
356.194	54.6316
359.568	33.6997
362.943	47.9312
366.318	81.3064
369.693	132.102
373.068	153.705
376.442	173.661
379.817	218.112
383.192	205.155
386.567	118.787
389.942	70.0815
393.317	57.5249
396.691	58.343
400.066	38.0503
403.441	6.31226
406.816	4.92163
410.191	5.75561
413.565	6.23755
416.94	8.43896
420.315	7.28491
423.69	22.0627
427.065	48.2703
430.44	53.0164
433.814	43.614
437.189	29.5837
440.564	34.5618
443.939	37.2991
447.314	50.9927
450.688	49.0518
454.063	28.9351
457.438	27.7078
460.813	12.1895
464.188	6.00757
467.563	4.51685
470.937	0.039795
474.312	2.45239
477.687	0.66626
481.062	4.58911
484.437	0.358154
487.812	8.57886
491.186	13.9536
494.561	6.625
497.936	11.9146
501.311	35.8083
504.686	38.2971
508.06	49.7976
511.435	75.2039
514.81	117.423
518.185	162.273
521.56	213.568
524.934	207.927
528.309	111.321
531.684	48.4163
535.059	17.509
538.434	4.56299
541.809	12.7273
545.183	39.1843
548.558	86.2532
551.933	166.391
555.308	180.838
558.683	104.72
562.058	45.3198
565.432	27.7595
568.807	5.85596
572.182	4.427
575.557	0.716797
578.932	3.42261
582.306	0.105957
585.681	5.34399
589.056	1.09961
592.431	1.52612
595.806	10.6416
599.181	27.3755
602.555	56.0796
605.93	76.0823
609.305	44.3596
612.68	26.8174
616.055	33.3643
619.429	65.3562
622.804	112.623
626.179	153.046
629.554	219.398
632.929	317.576
636.303	446.461
639.678	603.263
643.053	725.498
646.428	566.559
649.803	293.595
653.178	157.346
656.552	138.775
659.927	178.821
663.302	247.452
666.677	315.212
670.052	313.764
673.427	206.255
676.801	101.207
680.176	44.7163
683.551	10.8752
686.926	3.13306
690.301	1.97949
693.675	4.55566
697.05	2.74097
700.425	7.62915
703.8	9.40967
707.175	22.4023
710.549	33.8594
713.924	43.0332
717.299	61.1748
720.674	74.7468
724.049	91.5523
727.423	89.707
730.798	67.4602
734.173	53.7998
737.548	50.9514
740.923	53.303
744.298	55.7275
747.672	39.8193
751.047	22.8135
754.422	7.76562
757.797	2.48486
761.172	2.65649
764.547	2.87402
767.921	1.6167
771.296	6.20581
774.671	17.3123
778.046	16.3972
781.421	21.9116
784.795	23.6521
788.17	27.7034
791.545	34.6018
794.92	24.5933
798.295	16.0884
801.669	5.86646
805.044	1.89526
808.419	5.05273
811.794	7.32251
815.169	5.42676
818.544	18.1155
821.918	11.4683
825.293	7.15503
828.668	5.76685
832.043	0.296387
835.418	1.82568
838.793	4.28052
842.167	6.04468
845.542	6.94482
848.917	25.25
852.292	47.9477
855.667	55.7864
859.041	47.6467
862.416	32.311
865.791	33.4106
869.166	35.2268
872.541	16.259
875.915	10.0862
879.29	7.94434
882.665	7.07031
886.04	2.05298
889.415	0.383057
892.79	11.6416
896.164	16.8572
899.539	15.6365
902.914	9.54517
906.289	5.05859
909.664	13.8994
913.038	6.13306
916.413	15.4641
919.788	22.2971
923.163	26.1831
926.538	33.8281
929.913	35.7683
933.287	19.0456
936.662	15.6274
940.037	1.40576
943.412	1.06982
946.787	4.69702
950.162	4.78882
953.536	24.823
956.911	55.7126
960.286	99.917
963.661	112.621
967.036	108.504
970.41	90.675
973.785	82.1118
977.16	76.4929
980.535	70.1548
983.91	57.9465
987.284	56.0752
990.659	51.456
994.034	58.6841
997.409	41.6135
1000.78	34.3284
1004.16	22.2214
1007.53	14.1743
1010.91	1.60547
1014.28	11.2398
1017.66	4.48047
1021.03	3.24023
1024.41	0.023682
1027.78	12.2078
1031.16	17.4165
1034.53	36.6284
1037.91	49.1191
1041.28	85.6702
1044.66	117.008
1048.03	126.43
1051.41	106.473
1054.78	75.0911
1058.16	44.5422
1061.53	34.4085
1064.9	20.4287
1068.28	10.6362
1071.65	4.8313
1075.03	12.8088
1078.4	8.67798
1081.78	1.82739
1085.15	1.73144
1088.53	12.1982
1091.9	16.3628
1095.28	15.221
1098.65	23.9592
1102.03	22.7114
1105.4	13.6924
1108.78	10.125
1112.15	13.885
1115.53	21.5212
1118.9	12.5393
1122.28	6.88306
1125.65	3.29981
1129.03	1.32397
1132.4	4.44824
1135.78	2.47241
1139.15	10.6204
1142.53	13.0632
1145.9	20.7998
1149.28	28.2385
1152.65	55.3582
1156.03	70.6985
1159.4	87.094
1162.78	83.6716
1166.15	73.1985
1169.53	60.2139
1172.9	45.148
1176.27	30.9119
1179.65	27.7451
1183.02	16.2122
1186.4	23.7561
1189.77	22.3901
1193.15	18.8862
1196.52	22.2402
1199.9	16.9119
1203.27	32.3555
1206.65	32.5464
1210.02	48.1963
1213.4	49.3452
1216.77	55.5444
1220.15	66.3525
1223.52	66.3257
1226.9	50.1157
1230.27	37.6216
1233.65	17.8774
1237.02	10.2417
1240.4	1.43018
1243.77	1.1543
1247.14	5.83008
1250.52	5.36914
1253.89	6.33252
1257.27	13.8184
1260.64	19.8789
1264.02	2.84619
1267.39	25.9766
1270.77	13.9692
1274.14	9.65185
1277.52	8.65332
1280.89	12.5879
1284.27	10.0727
1287.64	14.9824
1291.02	10.7935
1294.39	9.05371
1297.77	5.39062
