Measurement: Raman, 780 nm, unoriented, Raman Data RAW
Mineral: Eudialyte
Rruff sample: R060035
Ideal chemistry: Na_15_Ca_6_Fe^2+^_3_Zr^4+^_3_Si(Si_25_O_73_)(O,OH,H_2_O)_3_(Cl,OH)_2_
Locality: Chibini, Kola Peninsula, Russia
Source: University of Arizona Mineral Museum
Description: Deep pink coarsely crystalline
Measured chemistry: (Na_14.86_K_0.14_)_Σ=15_Ca_6.00_(Fe_1.52_Mn_1.48_)_Σ=3_(Zr_2.82_Ti_0.18_)_Σ=3_(Si_0.93_Nb_0.07_)_Σ=1_(Si_25.00_O_73_)((OH)_1.01_(H_2_O)_1.99_)_Σ=3_(Cl_1.65_(OH)_0.35_)_Σ=2_
Raman shift (cm-1)	intensity
174.483	1507.31
177.376	1518.92
180.269	1543.16
183.162	1564.13
186.054	1599.1
188.947	1623.21
191.84	1645.32
194.732	1667.88
197.625	1688.17
200.518	1695.18
203.411	1699.11
206.303	1700.66
209.196	1707.45
212.089	1699.66
214.981	1690.04
217.874	1677.55
220.767	1669.22
223.659	1654.09
226.552	1652.19
229.445	1647
232.338	1640.63
235.23	1640.33
238.123	1641.11
241.016	1638.09
243.908	1638.92
246.801	1647.57
249.694	1655.34
252.586	1661.43
255.479	1678.43
258.372	1681.97
261.264	1690.97
264.157	1704.4
267.05	1711.32
269.943	1726.42
272.835	1723
275.728	1736.46
278.621	1735.61
281.513	1734.05
284.406	1732.96
287.299	1734
290.191	1749.09
293.084	1748.29
295.977	1750.61
298.87	1746.27
301.762	1764.29
304.655	1753.29
307.548	1771.9
310.44	1775.34
313.333	1775.6
316.226	1774.78
319.118	1781.2
322.011	1779.59
324.904	1781.68
327.796	1797.73
330.689	1784.7
333.582	1790.36
336.475	1787.13
339.367	1779.87
342.26	1776.83
345.153	1758.64
348.045	1747.42
350.938	1736.85
353.831	1740.77
356.724	1728
359.616	1727.87
362.509	1711.62
365.402	1708.2
368.294	1694.2
371.187	1679.69
374.08	1678.12
376.972	1660.96
379.865	1645.35
382.758	1628.69
385.651	1627.23
388.543	1623.74
391.436	1610.62
394.329	1608.01
397.221	1599.88
400.114	1597.98
403.007	1596.23
405.899	1603.43
408.792	1611.6
411.685	1604.02
414.577	1615.28
417.47	1628.86
420.363	1649.22
423.256	1679.18
426.148	1700.81
429.041	1746.16
431.934	1794.97
434.826	1839.89
437.719	1906.61
440.612	1973.29
443.505	2061.85
446.397	2131.81
449.29	2196.14
452.183	2280.8
455.075	2355.3
457.968	2407.62
460.861	2458.84
463.753	2487.6
466.646	2516.2
469.539	2521.19
472.432	2499.37
475.324	2479.66
478.217	2482.94
481.11	2463.27
484.002	2447.98
486.895	2451.26
489.788	2443.86
492.68	2441.14
495.573	2413.74
498.466	2387.11
501.358	2334.61
504.251	2296.54
507.144	2235.07
510.037	2166.38
512.929	2111.93
515.822	2040.37
518.715	1988.97
521.607	1925.34
524.5	1878.8
527.393	1833.32
530.285	1801.43
533.178	1765.17
536.071	1740.06
538.964	1721.36
541.856	1709.7
544.749	1711.1
547.642	1701.6
550.534	1710.48
553.427	1711.81
556.32	1722.73
559.212	1699.33
562.105	1680.54
564.998	1665.61
567.891	1644.15
570.783	1592.39
573.676	1536.98
576.569	1508.78
579.461	1479.01
582.354	1472.72
585.247	1461.27
588.139	1464.72
591.032	1457.26
593.925	1457.74
596.817	1458.77
599.71	1464.18
602.603	1465.98
605.496	1474.29
608.388	1465.49
611.281	1475.1
614.174	1465.85
617.066	1473.32
619.959	1462.59
622.852	1463.13
625.745	1471.88
628.637	1470.62
631.53	1472.18
634.423	1469.3
637.315	1481.91
640.208	1493.86
643.101	1494.99
645.993	1491.53
648.886	1504.18
651.779	1521.57
654.672	1533.43
657.564	1541.57
660.457	1555.06
663.35	1571.96
666.242	1574.79
669.135	1595.12
672.028	1610.42
674.92	1623.19
677.813	1624.61
680.706	1638.69
683.598	1653.14
686.491	1660.98
689.384	1664.45
692.277	1677.65
695.169	1693.79
698.062	1689.9
700.955	1686.24
703.847	1675.94
706.74	1664.03
709.633	1645.04
712.525	1619.61
715.418	1585.01
718.311	1554.03
721.204	1523.3
724.096	1509.74
726.989	1494.16
729.882	1474.49
732.774	1469.26
735.667	1464.44
738.56	1440.45
741.452	1429.35
744.345	1428.07
747.238	1420.15
750.131	1397.06
753.023	1392.12
755.916	1366.42
758.809	1364.81
761.701	1352.95
764.594	1349.93
767.487	1338.8
770.38	1337.36
773.272	1325.31
776.165	1327.68
779.058	1320.01
781.95	1321.98
784.843	1319.68
787.736	1310.59
790.628	1310.33
793.521	1320.24
796.414	1320.14
799.307	1313.79
802.199	1309.98
805.092	1318.59
807.985	1323.99
810.877	1336.95
813.77	1339.63
816.663	1342.97
819.555	1356.37
822.448	1360.26
825.341	1364.28
828.234	1362.47
831.126	1375.57
834.019	1377.06
836.912	1378.91
839.804	1382.77
842.697	1384.11
845.59	1385.54
848.482	1380.41
851.375	1375.33
854.268	1377.54
857.16	1376.81
860.053	1363.6
862.946	1361.26
865.839	1353.78
868.731	1347.31
871.624	1345.75
874.517	1337.23
877.409	1335.41
880.302	1315.13
883.195	1312.88
886.087	1315.91
888.98	1313.37
891.873	1315.53
894.765	1310.88
897.658	1306.55
900.551	1320.72
903.444	1314.88
906.336	1327.01
909.229	1326.28
912.122	1333.02
915.014	1331.23
917.907	1332.6
920.8	1349.35
923.692	1350.27
926.585	1330.15
929.478	1333.32
932.371	1328.1
935.263	1323.01
938.156	1325.27
941.049	1328.57
943.941	1321.16
946.834	1328.65
949.727	1334.77
952.62	1341.32
955.512	1344.49
958.405	1340.52
961.298	1358.77
964.19	1353.08
967.083	1365.04
969.976	1376.15
972.868	1378.39
975.761	1391.71
978.654	1402.22
981.547	1416.48
984.439	1434.54
987.332	1445.52
990.225	1461.02
993.117	1469.72
996.01	1497.48
998.903	1496.42
1001.79	1501.15
1004.69	1504.11
1007.58	1510.44
1010.47	1508.26
1013.37	1517.35
1016.26	1513.59
1019.15	1518.43
1022.04	1514.36
1024.94	1507.56
1027.83	1489.87
1030.72	1489.53
1033.62	1488.06
1036.51	1474.74
1039.4	1467.94
1042.29	1463.01
1045.19	1447.39
1048.08	1446.45
1050.97	1444.79
1053.86	1440.36
1056.76	1447.14
1059.65	1438.85
1062.54	1449.76
1065.43	1443.87
1068.33	1440.76
1071.22	1455.87
1074.11	1458.09
1077.01	1460.78
1079.9	1464.66
1082.79	1486.6
1085.68	1482.86
1088.58	1489.68
1091.47	1505.28
1094.36	1499.25
1097.25	1515.24
1100.15	1497.92
1103.04	1506.06
1105.93	1495.67
1108.83	1502.08
1111.72	1515.84
1114.61	1513.49
1117.5	1526.25
1120.4	1523.03
1123.29	1535.92
1126.18	1558.33
1129.07	1565.93
1131.97	1577.83
1134.86	1592.69
1137.75	1610.63
1140.64	1623.51
1143.54	1645.09
1146.43	1659.42
1149.32	1674.81
1152.22	1692.5
1155.11	1705.85
1158	1724.73
