Measurement: Raman, 780 nm, unoriented, Raman Data RAW
Mineral: Eudialyte
Rruff sample: R050230
Ideal chemistry: Na_15_Ca_6_Fe^2+^_3_Zr^4+^_3_Si(Si_25_O_73_)(O,OH,H_2_O)_3_(Cl,OH)_2_
Locality: Kipawa alkaline complex, near Sheffield Lake, Villedieu Township, Temiscamingue County, Quebec, Canada
Source: Marcus Origlieri
Description: Massive aggregate of red crystals
Measured chemistry: (Na_14.50_K_0.35_Ca_0.15_)_Σ=15_Ca_6.00_(Fe_1.86_Mn_1.01_Mg_0.13_)_Σ=3_(Zr_2.91_Ti_0.09_)_3_(Si_0.94_Nb_0.06_)_Σ=1.00_(Si_25.00_O_73_)(OH)_1.10_(H_2_O)_1.90_)_Σ=3_(Cl_1.17_(OH)_0.83_)_Σ=2_
Raman shift (cm-1)	intensity
92.3535	1694.65
95.7283	1769.46
99.1031	1763.37
102.478	1735.7
105.853	1756.89
109.228	1762.64
112.602	1791.09
115.977	1811.81
119.352	1824.53
122.727	1843.94
126.102	1862.07
129.476	1885.75
132.851	1897.76
136.226	1929.45
139.601	1951.7
142.976	1975.72
146.351	1971.96
149.725	2002.44
153.1	2010.16
156.475	2042.26
159.85	2051.16
163.225	2089.13
166.6	2117.36
169.974	2153.95
173.349	2203.25
176.724	2254.48
180.099	2293.55
183.474	2354.2
186.848	2391.03
190.223	2432.26
193.598	2479.88
196.973	2516.08
200.348	2548.73
203.722	2587.87
207.097	2607.02
210.472	2625.85
213.847	2637.26
217.222	2650.75
220.596	2670.7
223.971	2684.37
227.346	2686.7
230.721	2719.26
234.096	2740.13
237.471	2787.06
240.845	2831.4
244.22	2858.05
247.595	2904.92
250.97	2954.6
254.345	3004.67
257.719	3064.97
261.094	3113.82
264.469	3169.48
267.844	3219.7
271.219	3289.12
274.594	3353.22
277.968	3400.79
281.343	3470.12
284.718	3523.38
288.093	3571.97
291.468	3660.82
294.842	3767.58
298.217	3900.61
301.592	4039.92
304.967	4193.07
308.342	4325.74
311.717	4444.16
315.091	4551.59
318.466	4616.13
321.841	4660.95
325.216	4665.75
328.591	4644.04
331.966	4619.48
335.34	4549.07
338.715	4479.97
342.09	4411.7
345.465	4333.33
348.839	4259.57
352.214	4171.91
355.589	4104.4
358.964	4042.81
362.339	4004.97
365.714	3973.88
369.088	3957.28
372.463	3945.16
375.838	3945.11
379.213	3953.19
382.588	3945.36
385.962	3945.55
389.337	3955.07
392.712	3977.59
396.087	3987.15
399.462	3996.94
402.837	3987.71
406.211	4007.07
409.586	4003.85
412.961	4041.62
416.336	4053.42
419.711	4066.56
423.086	4105.4
426.46	4133.01
429.835	4155.45
433.21	4208.38
436.585	4255.46
439.96	4274.11
443.334	4334.7
446.709	4365.54
450.084	4406.75
453.459	4425.87
456.834	4438.18
460.209	4436.51
463.583	4396.74
466.958	4336.61
470.333	4259.82
473.708	4174.61
477.083	4077.26
480.457	3991.84
483.832	3910.73
487.207	3828.04
490.582	3781.63
493.957	3735.59
497.332	3698.76
500.706	3651.23
504.081	3614.34
507.456	3587.76
510.831	3545.15
514.206	3503.47
517.58	3462.87
520.955	3410.89
524.33	3383.75
527.705	3334.34
531.08	3300.1
534.455	3271.05
537.829	3222.28
541.204	3203.31
544.579	3170.4
547.954	3140.4
551.329	3124.16
554.703	3123.62
558.078	3096.44
561.453	3054.93
564.828	3035.79
568.203	2984.08
571.577	2919.02
574.952	2827.25
578.327	2736.57
581.702	2662.91
585.077	2601.57
588.452	2566.8
591.826	2541.54
595.201	2505.67
598.576	2482.9
601.951	2459.56
605.326	2442.4
608.7	2408.98
612.075	2387.3
615.45	2348.58
618.825	2329.23
622.2	2309.43
625.574	2310.16
628.949	2299.11
632.324	2293.74
635.699	2291.14
639.074	2289.91
642.448	2287.17
645.823	2278.22
649.198	2292.36
652.573	2292.82
655.948	2290.48
659.323	2306.06
662.697	2313.63
666.072	2314.35
669.447	2323.79
672.822	2325.59
676.197	2330.36
679.572	2326.59
682.946	2310.45
686.321	2298.4
689.696	2281.08
693.071	2262.01
696.446	2239.8
699.82	2209.56
703.195	2177.99
706.57	2124.04
709.945	2063.23
713.32	1990.53
716.694	1929.51
720.069	1883.01
723.444	1839.77
726.819	1803.34
730.194	1763.55
733.569	1732.4
736.943	1695.36
740.318	1659.38
743.693	1622
747.068	1575.6
750.443	1534.11
753.817	1490.04
757.192	1440.62
760.567	1404.08
763.942	1360.5
767.317	1318.22
770.692	1280.01
774.066	1240.48
777.441	1212.95
780.816	1186.27
784.191	1194.33
787.566	1127.89
790.941	1105.29
794.315	1082.22
797.69	1056.45
801.065	1030.23
804.44	1014.78
807.815	1005.97
811.189	986.945
814.564	975.872
817.939	962.651
821.314	948.107
824.689	935.491
828.063	930.65
831.438	919.363
834.813	906.999
838.188	893.79
841.563	892.676
844.938	875.282
848.312	868.084
851.687	857.732
855.062	858.319
858.437	845.669
861.812	836.389
865.187	823.891
868.561	811.134
871.936	803.562
875.311	794.698
878.686	783.605
882.061	773.302
885.435	759.562
888.81	763.457
892.185	755.98
895.56	748.425
898.935	753.011
902.309	745.774
905.684	746.584
909.059	752.695
912.434	746.144
915.809	755.242
919.183	757.749
922.558	765.265
925.933	761.458
929.308	772.463
932.683	763.838
936.058	773.967
939.432	771.983
942.807	778.866
946.182	784.489
949.557	790.325
952.932	791.295
956.307	797.905
959.681	803.989
963.056	802.966
966.431	796.437
969.806	807.019
973.181	813.848
976.555	823.321
979.93	839.375
983.305	844.732
986.68	862.22
990.055	875.569
993.429	888.783
996.804	914.341
1000.18	919.793
1003.55	940.516
1006.93	951.536
1010.3	958.823
1013.68	973.471
1017.05	988.988
1020.43	1004.18
1023.8	1018.54
1027.18	1044.28
1030.55	1055.44
1033.93	1076.39
1037.3	1110.23
1040.68	1123.88
1044.05	1143.81
1047.43	1169.29
1050.8	1207.38
1054.18	1243.85
1057.55	1282.91
1060.93	1322.19
1064.3	1362.2
1067.67	1398.38
1071.05	1442.67
1074.42	1491.82
1077.8	1535.32
1081.17	1588.84
1084.55	1657.51
1087.92	1686.41
1091.3	1695.6
1094.67	1744.1
1098.05	1794.01
1101.42	1847.64
1104.8	1924.36
1108.17	1997.31
1111.55	2101.56
1114.92	2204.66
1118.3	2309.12
1121.67	2431.11
1125.05	2581.06
1128.42	2726.85
1131.8	2883.3
1135.17	3043.12
1138.55	3208.39
1141.92	3401.14
1145.3	3595.42
1148.67	3807.05
1152.05	4045.86
1155.42	4286.19
1158.8	4554.6
1162.17	4830.06
1165.55	5146.67
1168.92	5476.06
1172.3	5836.48
1175.67	6207.16
1179.04	6641.93
1182.42	7072.93
1185.79	7551.1
1189.17	8056.31
1192.54	8586.51
1195.92	9135.13
1199.29	9714.5
1202.67	10378.3
1206.04	11004.8
1209.42	11703.6
1212.79	12418.1
1216.17	13201
1219.54	13962.9
1222.92	14786.5
1226.29	15596.7
1229.67	16455.3
1233.04	17276
1236.42	18075.8
1239.79	18806.6
1243.17	19473.1
1246.54	20084.2
1249.92	20515.9
1253.29	20816.2
1256.66	21013.3
1260.04	21040.4
1263.41	20955.1
1266.79	20785.3
1270.16	20554.1
1273.54	20251
1276.91	19991.1
1280.29	19779.5
1283.66	19681.8
