Measurement: Raman, 532 nm, unoriented, Raman Data Processed
Mineral: Fairbankite
Rruff sample: R140375
Ideal chemistry: Pb^2+^_12_(Te^4+^O_3_)_11_(S^6+^O_4_)
Locality: Near Tombstone, Tombstone District, Tombstone Hills, Cochise County, Arizona, USA
Source: Rock Currier
Description: Vitreous-clear tabular crystals, associated with cerussite.
Raman shift (cm-1)	intensity
88.1367	0
91.5115	288.216
94.8863	87.1081
98.2612	48.0708
101.636	221.803
105.011	869.237
108.386	1863.49
111.76	3185.9
115.135	4353.84
118.51	4244.56
121.885	4436.22
125.26	4533.12
128.635	4161.5
132.009	3442.73
135.384	3619.81
138.759	3816.57
142.134	2944.8
145.509	2412.62
148.883	2354.53
152.258	2444.99
155.633	2649.95
159.008	3082.91
162.383	3811.69
165.757	4876.35
169.132	5175.97
172.507	3837.92
175.882	2538.64
179.257	2061.23
182.632	2222.65
186.006	2609.06
189.381	2851.67
192.756	2730.94
196.131	2608.22
199.506	2663.18
202.881	2520.96
206.255	2153.32
209.63	1910.26
213.005	1644.95
216.38	1273.48
219.755	968.815
223.129	796.92
226.504	697.061
229.879	467.368
233.254	155.93
236.629	64.1625
240.004	150.92
243.378	152.263
246.753	69.4867
250.128	21.7954
253.503	99.2537
256.878	121.138
260.252	188.534
263.627	309.059
267.002	439.716
270.377	473.728
273.752	358.232
277.127	140.495
280.501	24.594
283.876	78.2156
287.251	31.963
290.626	100.125
294.001	258.971
297.375	344.263
300.75	381.596
304.125	481.36
307.5	710.493
310.875	1010.05
314.25	1104.88
317.624	922.284
320.999	683.132
324.374	515.24
327.749	451.524
331.124	411.066
334.498	466.046
337.873	613.235
341.248	714.674
344.623	834.969
347.998	1089.59
351.373	1544.89
354.747	2266.87
358.122	3320.92
361.497	4758.73
364.872	6104.82
368.247	6321.2
371.621	5111.73
374.996	3660.14
378.371	2556.7
381.746	1819.31
385.121	1331.06
388.495	1009.94
391.87	777.037
395.245	633.234
398.62	555.385
401.995	475.698
405.37	377.463
408.744	266.832
412.119	161.28
415.494	141.28
418.869	206.862
422.244	296.717
425.618	389.122
428.993	489.779
432.368	490.109
435.743	251.711
439.118	79.5411
442.493	20.1365
445.867	50.7994
449.242	61.3332
452.617	48.704
455.992	16.5131
459.367	5.6474
462.741	19.0417
466.116	23.3084
469.491	35.0308
472.866	60.41
476.241	82.1031
479.615	108.738
482.99	132.118
486.365	153.888
489.74	180.17
493.115	202.072
496.49	222.832
499.864	250.003
503.239	270.324
506.614	292.474
509.989	309.197
513.364	340.48
516.739	383.804
520.113	425.352
523.488	461.317
526.863	468.114
530.238	440.003
533.613	412.304
536.987	395.256
540.362	350.157
543.737	318.046
547.112	277.828
550.487	235.088
553.861	193.37
557.236	140.61
560.611	97.783
563.986	46.3185
567.361	10.7663
570.736	29.0568
574.11	60.46
577.485	78.9174
580.86	68.1266
584.235	12.7036
587.61	76.3241
590.985	230.109
594.359	370.279
597.734	617.411
601.109	870.987
604.484	1037.03
607.859	1066.58
611.233	997.059
614.608	945.571
617.983	783.418
621.358	665.734
624.733	724.793
628.107	920.907
631.482	1101.86
634.857	1160.05
638.232	919.216
641.607	394.487
644.982	31.0786
648.356	156.578
651.731	153.33
655.106	980.942
658.481	2436.02
661.856	4505.34
665.231	6271.18
668.605	5756.65
671.98	3888.14
675.355	2482.5
678.73	1683.69
682.105	1366.65
685.479	1439.11
688.854	1823.97
692.229	2660.57
695.604	4253.58
698.979	7003.15
702.354	11198.2
705.728	17247.5
709.103	24127.4
712.478	26758
715.853	21380.1
719.227	13990
722.602	9681.37
725.977	7175.64
729.352	5429.84
732.727	4502.08
736.102	4106.45
739.476	4471.69
742.851	5237.01
746.226	6065.01
749.601	5937.96
752.976	4262.63
756.351	2159.42
759.725	842.002
763.1	275.733
766.475	46.9804
769.85	53.1406
773.225	93.496
776.599	103.625
779.974	84.4208
783.349	56.2985
786.724	7.11182
790.099	37.5884
793.473	74.582
796.848	122.092
800.223	148.327
803.598	193.449
806.973	224.955
810.348	282.091
813.722	350.05
817.097	392.215
820.472	370.676
823.847	377.046
827.222	393.702
830.597	379.174
833.971	352.478
837.346	310.498
840.721	262.561
844.096	229.655
847.471	201.643
850.846	186.649
854.22	169.962
857.595	155.491
860.97	145.09
864.345	127.21
867.72	121.1
871.094	112.686
874.469	107.631
877.844	92.447
881.219	80.538
884.594	65.1019
887.968	59.8896
891.343	41.2937
894.718	26.9796
898.093	18.3181
901.468	15.3422
904.842	13.2246
908.217	9.46573
911.592	12.7478
914.967	11.413
918.342	9.99146
921.717	10.9443
925.091	9.66278
928.466	8.66266
931.841	4.88892
935.216	7.28717
938.591	19.4311
941.966	38.5773
945.34	61.126
948.715	117.121
952.09	247.538
955.465	533.554
958.84	1007.95
962.214	1953.71
965.589	2842.35
968.964	1431.54
972.339	461.092
975.714	178.559
979.088	81.053
982.463	31.8157
985.838	12.0788
989.213	5.56256
992.588	9.01337
995.963	14.6155
999.337	14.2335
1002.71	5.91864
1006.09	0.255676
1009.46	12.4951
1012.84	40.1813
1016.21	57.278
1019.59	90.6985
1022.96	101.087
1026.34	101.93
1029.71	90.5207
1033.09	76.5207
1036.46	51.443
1039.84	36.8577
1043.21	24.8597
1046.59	22.559
1049.96	23.1316
1053.33	29.1183
1056.71	38.8275
1060.08	59.2089
1063.46	75.24
1066.83	93.2078
1070.21	102.403
1073.58	103.638
1076.96	92.7075
1080.33	84.6049
1083.71	67.6284
1087.08	52.595
1090.46	34.842
1093.83	32.6094
1097.21	35.2142
1100.58	46.4691
1103.96	62.121
1107.33	87.968
1110.71	112.353
1114.08	145.437
1117.46	170.173
1120.83	181.122
1124.21	175.965
1127.58	163.595
1130.95	143.651
1134.33	121.554
1137.7	98.4246
1141.08	68.3453
1144.45	40.7151
1147.83	23.2889
1151.2	11.5715
1154.58	10.5458
1157.95	2.48889
1161.33	5.04324
1164.7	0.073639
1168.08	5.20935
1171.45	1.66351
1174.83	3.28915
1178.2	2.83984
1181.58	4.71429
1184.95	2.22138
1188.33	0.465668
1191.7	0.501678
1195.08	0.080078
1198.45	2.3627
1201.83	7.17569
1205.2	1.06711
1208.58	8.64597
1211.95	1.74005
1215.33	16.7839
1218.7	16.3096
1222.08	22.3327
1225.45	18.4915
1228.83	18.0582
1232.2	16.8921
1235.58	10.744
1238.95	14.7702
1242.32	12.6818
1245.7	13.6427
1249.07	4.67715
1252.45	7.60385
1255.82	4.97079
1259.2	11.1007
1262.57	9.64267
1265.95	8.80606
1269.32	11.0406
1272.7	2.96435
1276.07	6.19067
1279.45	6.60837
1282.82	1.85043
1286.2	3.81821
1289.57	3.67056
1292.95	4.17081
1296.32	3.7569
1299.7	1.49963
