Measurement: Raman, 780 nm, unoriented, Raman Data Processed
Mineral: Fairbankite
Rruff sample: R140375
Ideal chemistry: Pb^2+^_12_(Te^4+^O_3_)_11_(S^6+^O_4_)
Locality: Near Tombstone, Tombstone District, Tombstone Hills, Cochise County, Arizona, USA
Source: Rock Currier
Description: Vitreous-clear tabular crystals, associated with cerussite.
Raman shift (cm-1)	intensity
87.582	0
90.9569	572.303
94.3317	656.7
97.7065	99.6025
101.081	2.08398
104.456	54.1602
107.831	226.272
111.206	461.563
114.581	596.455
117.955	532.697
121.33	621.189
124.705	661.231
128.08	513.459
131.455	337.316
134.829	352.461
138.204	353.209
141.579	92.793
144.954	19.1389
148.329	14.8894
151.704	0.181885
155.078	28.3638
158.453	89.4973
161.828	242.615
165.203	418.765
168.578	506.808
171.952	354.904
175.327	151.105
178.702	69.5845
182.077	114.542
185.452	230.089
188.827	334.957
192.201	340.063
195.576	336.897
198.951	367.885
202.326	411.263
205.701	397.637
209.076	404.81
212.45	377.672
215.825	313.956
219.2	257.581
222.575	220.685
225.95	210.73
229.324	159.606
232.699	88.6985
236.074	19.3118
239.449	17.4002
242.824	24.8645
246.198	13.0195
249.573	8.10596
252.948	7.53296
256.323	11.3328
259.698	20.8887
263.073	19.5951
266.447	30.5127
269.822	25.432
273.197	3.95349
276.572	5.19543
279.947	13.2738
283.322	1.63281
286.696	41.4862
290.071	91.3638
293.446	137.155
296.821	177.325
300.196	205.367
303.57	255.717
306.945	315.178
310.32	395.979
313.695	433.92
317.07	388.57
320.445	298.941
323.819	245.314
327.194	212.481
330.569	184.163
333.944	179.647
337.319	197.12
340.693	220.667
344.068	274.265
347.443	342.617
350.818	414.108
354.193	535.309
357.567	655.858
360.942	838.208
364.317	1002.63
367.692	1055.26
371.067	903.313
374.442	724.458
377.816	597.526
381.191	529.886
384.566	497.022
387.941	491.536
391.316	475.152
394.69	466.559
398.065	436.072
401.44	396.59
404.815	343.059
408.19	262.421
411.565	199.358
414.939	147.34
418.314	128.34
421.689	96.9199
425.064	83.9993
428.439	80.6934
431.813	56.9952
435.188	36.3055
438.563	5.91516
441.938	15.7424
445.313	17.9169
448.688	21.4139
452.062	8.9469
455.437	3.52905
458.812	6.94067
462.187	4.25256
465.562	5.79248
468.937	17.648
472.311	12.2838
475.686	18.8119
479.061	32.6973
482.436	31.7135
485.81	32.797
489.185	38.1273
492.56	57.3557
495.935	61.6462
499.31	76.6486
502.685	65.4228
506.059	76.489
509.434	81.4603
512.809	87.8522
516.184	108.67
519.559	119.201
522.933	118.71
526.308	120.817
529.683	104.659
533.058	104.103
536.433	92.4695
539.808	73.9552
543.182	66.8693
546.557	51.5667
549.932	44.1891
553.307	37.8383
556.682	21.7841
560.057	15.1487
563.431	1.31848
566.806	9.02026
570.181	1.81665
573.556	12.4701
576.931	0.334351
580.305	8.66577
583.68	26.4952
587.055	47.1907
590.43	89.9746
593.805	118.89
597.18	171.175
600.554	238.18
603.929	270.185
607.304	281.742
610.679	296.384
614.054	299.749
617.428	276.501
620.803	303.713
624.178	325.503
627.553	344.969
630.928	332.851
634.303	278.181
637.677	204.616
641.052	87.9335
644.427	19.0064
647.802	22.2564
651.177	18.1614
654.552	38.9692
657.926	162.202
661.301	338.908
664.676	522.322
668.051	578.903
671.426	482.253
674.8	375.463
678.175	286.978
681.55	260.604
684.925	286.599
688.3	354.877
691.674	481.092
695.049	732.874
698.424	1173.63
701.799	1721.92
705.174	2472.19
708.548	3397.03
711.923	4081.72
715.298	3571.54
718.673	2343.8
722.048	1527.59
725.423	1062.78
728.797	810.19
732.172	660.803
735.547	605.318
738.922	623.819
742.297	697.289
745.672	778.369
749.046	814.207
752.421	741.645
755.796	478.59
759.171	214.123
762.546	71.5037
765.92	22.8145
769.295	0.191895
772.67	10.9673
776.045	7.96301
779.42	16.4072
782.795	9.4342
786.169	9.78369
789.544	3.10498
792.919	7.44678
796.294	14.847
799.669	23.8728
803.043	29.3484
806.418	30.5432
809.793	34.0941
813.168	43.9176
816.543	55.7473
819.918	50.3787
823.292	60.3143
826.667	63.6029
830.042	59.3837
833.417	54.5132
836.792	56.7981
840.166	46.2131
843.541	41.526
846.916	40.0626
850.291	33.657
853.666	27.7738
857.04	28.6178
860.415	31.7075
863.79	24.2559
867.165	25.8983
870.54	26.2205
873.915	23.5261
877.289	19.7462
880.664	24.6136
884.039	16.3625
887.414	11.4966
890.789	13.0963
894.163	5.29492
897.538	6.83398
900.913	2.11414
904.288	0.297119
907.663	7.32068
911.038	2.82678
914.412	8.98279
917.787	8.88525
921.162	3.31299
924.537	9.15784
927.912	4.13403
931.287	6.59058
934.661	11.0481
938.036	6.96948
941.411	10.0689
944.786	12.2036
948.161	18.8672
951.535	43.1255
954.91	60.7437
958.285	101.233
961.66	168.934
965.035	239.146
968.409	159.423
971.784	45.4971
975.159	11.7609
978.534	11.4149
981.909	11.2822
985.284	8.6189
988.658	4.61029
992.033	4.89227
995.408	6.24371
998.783	1.2439
1002.16	1.17462
1005.53	5.97955
1008.91	1.36676
1012.28	7.52405
1015.66	9.68073
1019.03	4.71564
1022.41	14.1265
1025.78	9.67139
1029.16	14.6434
1032.53	22.5966
1035.91	13.6491
1039.28	6.49194
1042.66	3.56061
1046.03	3.60754
1049.4	5.32471
1052.78	0.126221
1056.15	1.98114
1059.53	7.24481
1062.9	6.51325
1066.28	6.08881
1069.65	10.2596
1073.03	10.4108
1076.4	7.58691
1079.78	4.39807
1083.15	1.32611
1086.53	10.4935
1089.9	3.8407
1093.28	5.88556
1096.65	6.84021
1100.03	16.1211
1103.4	6.82538
1106.78	16.6383
1110.15	19.2707
1113.53	23.4183
1116.9	24.9662
1120.28	41.0592
1123.65	28.8901
1127.03	30.9125
1130.4	33.0018
1133.78	25.1342
1137.15	32.5943
1140.53	36.4045
1143.9	34.9118
1147.28	31.4128
1150.65	35.1158
1154.03	36.7083
1157.4	41.5886
1160.77	43.39
1164.15	51.7201
1167.52	64.7339
1170.9	80.7849
1174.27	78.2322
1177.65	85.4316
1181.02	77.407
1184.4	75.9684
1187.77	75.5636
1191.15	71.6044
1194.52	65.4003
1197.9	62.7025
1201.27	45.6329
1204.65	44.2523
1208.02	39.7753
1211.4	34.3962
1214.77	24.7843
1218.15	0.628296
1221.52	7.43506
1224.9	5.68457
1228.27	10.8901
1231.64	11.3058
1235.02	15.8001
1238.39	33.6423
1241.77	46.7446
1245.14	55.3076
1248.52	60.9608
1251.89	64.5205
1255.27	53.3198
1258.64	52.6776
1262.02	42.9053
1265.39	45.3565
1268.77	27.9629
1272.14	10.3643
1275.52	11.1472
1278.89	8.60181
1282.27	0
