Measurement: Raman, 785 nm, unoriented, Raman Data RAW
Mineral: Fe2SiO4 spinel
Rruff sample: X050109
Ideal chemistry: Fe_2_SiO_4_
Locality: Synthesized by Takehiko Yagi in 1974 at the Institute for Solid State Physics, Tokyo University
Source: G.R. Rossman
Description: small single crystal
Raman shift (cm-1)	intensity
200.76	0
204.02	0.196
207.28	15.949
210.54	46.09
213.8	34.988
217.06	14.638
220.32	0.692
223.58	50.168
226.84	63.002
230.1	68.229
233.36	74.435
236.62	45.507
239.88	87.676
243.14	17.818
246.4	31.764
249.66	30.209
252.92	82.922
256.18	108.913
259.44	75.231
262.7	39.368
265.96	47.498
269.22	70.549
272.48	114.243
275.74	120.262
279	44.362
282.26	35.201
285.51	83.883
288.77	53.497
292.03	67.639
295.29	51.593
298.55	90.416
301.81	95.983
305.07	79.111
308.33	103.614
311.59	43.968
314.85	168.49
318.11	66.657
321.37	154.202
324.63	192.534
327.89	201.043
331.15	289.056
334.41	448.883
337.67	394.623
340.93	268.917
344.19	120.293
347.45	111.141
350.71	168.574
353.97	63.117
357.23	55.838
360.49	188.166
363.75	120.52
367.01	91.989
370.27	132.574
373.53	45.014
376.79	58.28
380.05	63.257
383.31	6.225
386.57	99.446
389.83	12.976
393.09	69
396.35	54.441
399.61	99.862
402.87	46.291
406.13	62.764
409.39	16.668
412.65	6.969
415.91	140.098
419.17	28.289
422.43	71.472
425.69	111.227
428.95	71.12
432.21	3.707
435.47	95.964
438.73	19.041
441.99	85.226
445.25	73.816
448.51	71.649
451.77	120.176
455.03	108.412
458.29	84.827
461.55	127.593
464.81	162.181
468.07	93.671
471.33	86.154
474.59	111.1
477.84	64.019
481.1	72.362
484.36	15.3
487.62	147.136
490.88	33.67
494.14	68.038
497.4	5.743
500.66	7.165
503.92	64.616
507.18	41.347
510.44	64.856
513.7	140.896
516.96	137.345
520.22	106.883
523.48	223.849
526.74	181.693
530	75.74
533.26	106.701
536.52	150.638
539.78	204.742
543.04	149.183
546.3	121.249
549.56	153.064
552.82	176.518
556.08	127.596
559.34	118.462
562.6	147.273
565.86	140.449
569.12	181.341
572.38	174.308
575.64	201.391
578.9	106.468
582.16	104.869
585.42	72.015
588.68	36.006
591.94	47.804
595.2	89.511
598.46	30.53
601.72	40.62
604.98	57.75
608.24	77.2
611.5	4.815
614.76	38.263
618.02	11.784
621.28	42.241
624.54	34.746
627.8	51.897
631.06	83.025
634.32	162.619
637.58	248.597
640.84	295.792
644.1	386.103
647.36	495.391
650.62	663.385
653.88	781.962
657.14	959.506
660.4	981.147
663.66	1184.88
666.92	1276.44
670.17	1273.85
673.43	1327.14
676.69	1135.5
679.95	961.54
683.21	713.536
686.47	513.08
689.73	435.94
692.99	264.143
696.25	221.387
699.51	125.765
702.77	123.342
706.03	58.137
709.29	78.315
712.55	54.814
715.81	71.772
719.07	34.862
722.33	42.505
725.59	29.384
728.85	23.381
732.11	44.077
735.37	32.301
738.63	32.303
741.89	33
745.15	33.022
748.41	59.792
751.67	65.161
754.93	71.368
758.19	130.523
761.45	121.187
764.71	285.78
767.97	308.77
771.23	362.549
774.49	568.39
777.75	670.332
781.01	695.55
784.27	718.84
787.53	671.26
790.79	618.338
794.05	403.238
797.31	345.917
800.57	167.917
803.83	221.624
807.09	140.793
810.35	82.769
813.61	66.618
816.87	41.029
820.13	103.407
823.39	104.134
826.65	57.622
829.91	93.568
833.17	260.228
836.43	373.358
839.69	964.427
842.95	1550.97
846.21	1437.08
849.47	797.258
852.73	437.892
855.99	210.041
859.24	124.104
862.5	134.534
865.76	103.311
869.02	68.854
872.28	78.363
875.54	12.829
878.8	103.012
882.06	183.644
885.32	82.597
888.58	90.188
891.84	191.845
895.1	97.497
898.36	217.097
901.62	179.228
904.88	264.362
908.14	263.863
911.4	273.619
914.66	288.758
917.92	201.057
921.18	312.398
924.44	333.184
927.7	300.759
930.96	226.86
934.22	255.011
937.48	242.836
940.74	259.881
944	269.401
947.26	197.926
950.52	183.915
953.78	150.19
957.04	146.438
960.3	164.832
963.56	73.589
966.82	59.961
970.08	120.627
973.34	48.793
976.6	129.057
979.86	122.753
983.12	94.414
986.38	80.156
989.64	61.654
992.9	56.809
996.16	96.045
999.42	29.274
1002.68	77.325
1005.94	7.203
1009.2	37.972
1012.46	132.352
1015.72	19.756
1018.98	24.746
1022.24	65.411
1025.5	1.548
1028.76	17.03
1032.02	108.254
1035.28	61.522
1038.54	20.116
1041.8	36.809
1045.06	45.491
1048.32	83.552
1051.58	34.572
1054.84	101.404
1058.09	37.576
1061.35	89.191
1064.61	52.359
1067.87	90.439
1071.13	127.134
1074.39	27.361
1077.65	11.569
1080.91	47.67
1084.17	170.721
1087.43	51.144
1090.69	6.448
1093.95	88.226
1097.21	6.404
1100.47	107.137
1103.73	84.449
1106.99	70.966
1110.25	62.309
1113.51	59.586
1116.77	52.475
1120.03	51.566
1123.29	89.517
1126.55	100.939
1129.81	52.333
1133.07	46.963
1136.33	61.991
1139.59	144.007
1142.85	69.425
1146.11	114.67
1149.37	44.882
1152.63	48.521
1155.89	57.101
1159.15	93.491
1162.41	33.766
1165.67	108.796
1168.93	18.852
1172.19	98.656
1175.45	10.702
1178.71	71.228
1181.97	2.251
1185.23	62.445
1188.49	19.264
1191.75	129.583
1195.01	4.805
1198.27	50.229
1201.53	119.04
1204.79	42.3
1208.05	46.238
1211.31	86.463
1214.57	16.341
1217.83	83.417
1221.09	112.383
1224.35	50.18
1227.61	55.747
1230.87	66.758
1234.13	10.924
1237.39	50.016
1240.65	8.318
1243.91	24.958
1247.17	34.355
1250.42	9.286
1253.68	97.127
1256.94	30.635
1260.2	123.134
1263.46	47.806
1266.72	123.487
1269.98	0.98
1273.24	179.385
1276.5	126.153
1279.76	92.735
1283.02	122.882
1286.28	69.331
1289.54	38.28
1292.8	56.867
1296.06	65.885
1299.32	4.768
1302.58	47.241
1305.84	172.197
1309.1	63.917
1312.36	55.227
1315.62	118.717
1318.88	134.495
1322.14	216.315
1325.4	200.369
1328.66	146.969
1331.92	111.378
1335.18	120.592
1338.44	259.136
1341.7	212.163
1344.96	134.905
1348.22	251.501
1351.48	142.204
1354.74	173.958
1358	81.017
1361.26	67.001
1364.52	121.234
1367.78	74.752
1371.04	49.298
1374.3	131.357
1377.56	10.804
1380.82	105.383
1384.08	135.528
1387.34	27.022
1390.6	4.839
1393.86	93.172
1397.12	0.224
