Measurement: Raman, 532 nm, unoriented, Raman Data Processed
Mineral: Feklichevite
Rruff sample: R120046
Ideal chemistry: Na_11_Ca_9_(Fe^3+^,Fe^2+^)_2_Zr^4+^_3_Nb^5+^(Si_25_O_73_)(OH,H_2_O,Cl,O)_5_
Locality: Kovdor Massif, Kola Peninsula, Murmanskaja Oblast', Northern Region, Russia
Source: Donald Doell
Description: Massive reddish-brown crystals, associated with orthoclase
Raman shift (cm-1)	intensity
196.558	0
199.451	4.25412
202.343	13.2634
205.236	20.8572
208.129	31.8158
211.021	35.9105
213.914	37.8445
216.807	34.7908
219.699	30.2419
222.592	29.7123
225.485	28.5924
228.377	23.6966
231.27	18.1273
234.163	14.0164
237.056	7.002
239.948	3.80324
242.841	0.496033
245.734	1.01271
248.626	1.4249
251.519	1.90413
254.412	1.58404
257.305	0.982895
260.197	3.76613
263.09	2.65071
265.983	6.74265
268.875	10.8681
271.768	13.8173
274.661	14.936
277.553	19.8053
280.446	22.6437
283.339	20.966
286.232	24.4983
289.124	25.283
292.017	31.6117
294.91	33.0264
297.802	37.8742
300.695	41.7699
303.588	44.5581
306.481	44.4267
309.373	43.2516
312.266	41.6275
315.159	36.8163
318.051	32.8747
320.944	29.2979
323.837	23.718
326.729	22.299
329.622	21.9787
332.515	26.3405
335.408	28.4606
338.3	34.1845
341.193	36.1411
344.086	34.199
346.978	32.2929
349.871	27.9408
352.764	23.5292
355.656	16.3724
358.549	10.2786
361.442	5.36375
364.334	1.26357
367.227	1.63786
370.12	0.087936
373.012	0.416626
375.905	1.16599
378.798	0.387131
381.691	0.287857
384.583	4.4454
387.476	5.98479
390.369	11.8174
393.261	15.9128
396.154	18.654
399.047	19.2097
401.94	18.6922
404.832	15.3992
407.725	12.0247
410.618	9.96686
413.51	9.8528
416.403	9.29143
419.296	7.57765
422.188	7.93011
425.081	8.12999
427.974	8.75568
430.866	11.2809
433.759	12.116
436.652	12.5043
439.545	15.1394
442.437	19.6223
445.33	22.0697
448.223	23.9027
451.115	26.2916
454.008	29.3639
456.901	30.0822
459.793	31.2457
462.686	27.7073
465.579	23.1431
468.472	16.234
471.364	12.4401
474.257	4.6676
477.15	1.32388
480.042	2.5347
482.935	0.487732
485.828	1.59479
488.721	0.146851
491.613	2.5179
494.506	6.57632
497.399	11.3356
500.291	16.5638
503.184	20.8858
506.077	25.646
508.969	27.0853
511.862	29.9822
514.755	28.6846
517.648	29.3642
520.54	27.5116
523.433	29.9319
526.326	32.4752
529.218	36.4205
532.111	43.1076
535.004	56.1961
537.896	70.5632
540.789	88.8769
543.682	108.824
546.575	124.49
549.467	144.133
552.36	164.818
555.253	180.046
558.145	187.723
561.038	186.962
563.931	182.082
566.823	175.303
569.716	156.33
572.609	121.545
575.502	89.027
578.394	63.6177
581.287	43.7847
584.18	30.8941
587.072	20.8589
589.965	11.8409
592.858	7.48553
595.75	1.83072
598.643	0.548889
601.536	2.28571
604.428	2.72725
607.321	1.17583
610.214	1.53589
613.107	2.07542
615.999	3.0744
618.892	3.69019
621.785	4.8374
624.677	6.32436
627.57	6.15579
630.463	6.03619
633.356	7.89862
636.248	9.17422
639.141	9.03761
642.034	10.259
644.926	13.4595
647.819	16.0462
650.712	19.0261
653.604	23.4413
656.497	26.9607
659.39	30.1146
662.283	31.4741
665.175	32.0202
668.068	35.4897
670.961	33.0656
673.853	34.477
676.746	34.5951
679.639	35.9305
682.531	35.0881
685.424	39.4571
688.317	41.7002
691.21	45.7149
694.102	52.9776
696.995	59.328
699.888	62.7644
702.78	66.9664
705.673	69.0933
708.566	66.5396
711.458	58.2601
714.351	44.5592
717.244	30.2158
720.136	14.4465
723.029	6.24001
725.922	0.994583
728.815	1.75128
731.707	1.81732
734.6	0.154022
737.493	1.04314
740.385	2.17854
743.278	4.12997
746.171	5.80643
749.063	10.418
751.956	10.3525
754.849	9.41884
757.742	9.76045
760.634	6.84625
763.527	5.43771
766.42	3.98438
769.312	3.42625
772.205	5.02058
775.098	4.3291
777.99	5.57439
780.883	6.85863
783.776	10.4193
786.669	12.311
789.561	12.5347
792.454	14.3394
795.347	14.4444
798.239	11.802
801.132	10.2377
804.025	8.56219
806.918	7.5356
809.81	3.47031
812.703	3.71098
815.596	1.65678
818.488	0.495377
821.381	1.23369
824.274	0.216858
827.166	1.65906
830.059	1.04404
832.952	1.00371
835.845	0.651306
838.737	0.650391
841.63	0.166794
844.523	0.261719
847.415	2.49536
850.308	3.86624
853.201	6.9893
856.093	8.8947
858.986	13.2147
861.879	14.8255
864.771	16.709
867.664	18.1352
870.557	18.785
873.45	19.6586
876.342	19.5294
879.235	18.5479
882.128	18.4154
885.02	21.2986
887.913	23.714
890.806	26.3011
893.698	30.267
896.591	31.7136
899.484	31.2862
902.377	31.4619
905.269	31.7843
908.162	30.8238
911.055	31.4502
913.947	30.2413
916.84	31.4837
919.733	30.9988
922.625	33.3517
925.518	33.4527
928.411	33.9029
931.304	32.2355
934.196	32.1435
937.089	28.1647
939.982	26.9878
942.875	24.4217
945.767	23.1291
948.66	18.258
951.553	17.0578
954.445	13.7478
957.338	11.4109
960.231	8.08382
963.123	5.92395
966.016	4.20509
968.909	5.51267
971.802	1.62471
974.694	1.69911
977.587	1.46281
980.48	2.98816
983.372	3.58748
986.265	3.26396
989.158	1.87292
992.05	2.09125
994.943	2.02095
997.836	1.65752
1000.73	1.81975
1003.62	1.85831
1006.51	0.549927
1009.41	0.651459
1012.3	2.13553
1015.19	1.12845
1018.09	4.82475
1020.98	10.068
1023.87	10.1961
1026.76	12.4727
1029.66	14.2
1032.55	13.7473
1035.44	17.2393
1038.33	16.5473
1041.23	16.4027
1044.12	19.0112
1047.01	19.6133
1049.9	21.8622
1052.8	25.769
1055.69	31.2529
1058.58	41.1534
1061.47	52.155
1064.37	68.5682
1067.26	73.7236
1070.15	77.5411
1073.05	78.6084
1075.94	82.1698
1078.83	81.7716
1081.72	77.7164
1084.62	68.5877
1087.51	60.6356
1090.4	52.9315
1093.3	46.5803
1096.19	39.6345
1099.08	32.4618
1101.97	24.1064
1104.87	17.3979
1107.76	11.3329
1110.65	9.37917
1113.54	7.1543
1116.44	4.48425
1119.33	3.07666
1122.22	2.12755
1125.12	0.301407
1128.01	0.796127
1130.9	0.265335
1133.79	0.124969
1136.68	0.047836
1139.58	0.605225
1142.47	0.78241
1145.36	0.813049
1148.26	0.382996
1151.15	0.432297
1154.04	1.06064
1156.93	0.010284
1159.83	1.02499
1162.72	3.31508
1165.61	2.0827
1168.51	1.36632
1171.4	2.16658
1174.29	1.30689
1177.18	1.62592
1180.08	3.56242
1182.97	1.81383
1185.86	3.15161
1188.75	2.22078
1191.65	3.86678
1194.54	2.53392
1197.43	1.22331
1200.33	3.44078
1203.22	1.02635
1206.11	3.18468
1209	3.75165
1211.9	3.43947
1214.79	4.01065
1217.68	2.31412
1220.57	1.20961
1223.47	3.60738
1226.36	3.2536
1229.25	0.712189
1232.14	1.08142
1235.04	1.64807
1237.93	1.88092
1240.82	1.59621
1243.71	1.59073
1246.61	1.67184
1249.5	0.450073
1252.39	0.696716
1255.29	0.634369
1258.18	0.973541
1261.07	1.50006
1263.96	1.19089
1266.86	1.89784
1269.75	2.00891
1272.64	0.27063
1275.54	2.40373
1278.43	1.41846
1281.32	0.957825
1284.21	0.939911
1287.11	0.74321
1290	0.060303
1292.89	0.338806
1295.78	0.998245
1298.68	2.06505
1301.57	0.171021
