Measurement: Raman, 780 nm, unoriented, Raman Data Processed
Mineral: Feklichevite
Rruff sample: R120046
Ideal chemistry: Na_11_Ca_9_(Fe^3+^,Fe^2+^)_2_Zr^4+^_3_Nb^5+^(Si_25_O_73_)(OH,H_2_O,Cl,O)_5_
Locality: Kovdor Massif, Kola Peninsula, Murmanskaja Oblast', Northern Region, Russia
Source: Donald Doell
Description: Massive reddish-brown crystals, associated with orthoclase
Raman shift (cm-1)	intensity
103.656	0
107.031	7.58188
110.406	0.303711
113.781	6.65552
117.156	17.8976
120.531	25.7143
123.905	39.3835
127.28	37.8041
130.655	43.6826
134.03	49.2833
137.405	57.9481
140.779	60.4212
144.154	49.4885
147.529	40.6638
150.904	25.4056
154.279	14.823
157.654	4.40756
161.028	1.65918
164.403	0.164703
167.778	1.38452
171.153	5.71335
174.528	13.4822
177.902	18.3095
181.277	28.581
184.652	39.825
188.027	52.6402
191.402	66.5642
194.776	77.7746
198.151	87.426
201.526	93.6706
204.901	94.305
208.276	91.1053
211.651	88.0051
215.025	74.795
218.4	64.2707
221.775	52.7516
225.15	42.0757
228.525	27.1081
231.899	19.886
235.274	9.91824
238.649	6.69229
242.024	0.77298
245.399	0.274597
248.774	1.647
252.148	1.98788
255.523	0.424164
258.898	1.50183
262.273	6.80933
265.648	10.9303
269.022	14.1158
272.397	20.037
275.772	26.2193
279.147	32.3248
282.522	38.5597
285.897	46.3018
289.271	56.7741
292.646	67.3776
296.021	76.3966
299.396	88.2351
302.771	95.94
306.145	99.7077
309.52	99.8743
312.895	93.7721
316.27	86.8914
319.645	77.7908
323.019	73.4926
326.394	72.1835
329.769	74.0286
333.144	83.4973
336.519	96.6768
339.894	104.358
343.269	100.421
346.643	91.157
350.018	73.8454
353.393	51.0688
356.768	33.1398
360.142	15.3831
363.517	8.03903
366.892	1.12817
370.267	0.550659
373.642	3.6998
377.017	0.635529
380.391	0.497009
383.766	1.1666
387.141	3.65277
390.516	10.6749
393.891	13.201
397.265	16.5089
400.64	16.6958
404.015	15.2047
407.39	12.6712
410.765	8.39581
414.14	8.93042
417.514	9.50864
420.889	11.7123
424.264	10.4604
427.639	12.7119
431.014	8.79184
434.389	9.72348
437.763	8.48724
441.138	10.7624
444.513	16.0999
447.888	19.1497
451.263	21.8275
454.637	26.3341
458.012	28.4782
461.387	26.7759
464.762	23.758
468.137	17.0008
471.512	12.552
474.886	5.39523
478.261	0.436676
481.636	2.6637
485.011	3.00214
488.386	1.14157
491.76	4.19663
495.135	12.4206
498.51	19.7401
501.885	30.6964
505.26	41.9269
508.635	47.956
512.009	50.6567
515.384	47.8203
518.759	49.2981
522.134	46.2801
525.509	45.5373
528.883	45.9321
532.258	54.7621
535.633	66.3633
539.008	94.5061
542.383	113.16
545.757	138.739
549.132	164.862
552.507	194.11
555.882	214.623
559.257	222.526
562.631	219.316
566.006	215.102
569.381	192.16
572.756	146.041
576.131	99.9396
579.506	63.3086
582.88	41.848
586.255	26.6173
589.63	15.0993
593.005	5.53146
596.38	0.201233
599.755	2.79745
603.129	2.8972
606.504	3.32982
609.879	1.31163
613.254	1.74989
616.629	7.27447
620.004	8.52975
623.378	10.2016
626.753	11.4416
630.128	9.85773
633.503	9.13675
636.878	9.30615
640.252	9.36603
643.627	11.8075
647.002	12.5799
650.377	20.4617
653.752	21.3423
657.126	24.9295
660.501	27.5683
663.876	29.2935
667.251	32.145
670.626	32.8099
674	32.3382
677.375	34.3796
680.75	35.9802
684.125	39.8765
687.5	45.0214
690.875	52.3492
694.25	61.7445
697.624	70.8894
700.999	85.1353
704.374	92.6381
707.749	95.8393
711.124	86.1658
714.498	64.6977
717.873	38.3875
721.248	19.6594
724.623	4.93115
727.998	1.83289
731.372	1.71964
734.747	0.961823
738.122	2.06197
741.497	3.23508
744.872	8.86334
748.246	9.6713
751.621	11.4486
754.996	11.3495
758.371	7.26298
761.746	3.86662
765.121	4.28545
768.495	3.23386
771.87	2.18425
775.245	3.54446
778.62	7.92514
781.995	12.9689
785.37	12.9503
788.744	16.4014
792.119	18.1515
795.494	17.0249
798.869	15.9392
802.244	12.7494
805.618	7.84609
808.993	5.61061
812.368	2.66191
815.743	1.61636
819.118	0.267426
822.492	0.797348
825.867	0.384171
829.242	0.862701
832.617	0.679718
835.992	1.69995
839.367	1.41046
842.741	1.02147
846.116	2.99985
849.491	8.22894
852.866	14.8408
856.241	19.5133
859.615	26.6343
862.99	30.4059
866.365	35.0437
869.74	36.6267
873.115	35.116
876.49	29.5289
879.864	27.6444
883.239	28.0015
886.614	33.9002
889.989	35.5988
893.364	43.4252
896.739	45.9739
900.113	51.6485
903.488	53.4268
906.863	60.2804
910.238	65.4919
913.612	69.5353
916.987	75.9252
920.362	86.7494
923.737	94.3928
927.112	98.1912
930.487	99.2823
933.861	97.5934
937.236	90.0127
940.611	81.254
943.986	72.0533
947.361	62.8951
950.736	51.4821
954.11	40.1446
957.485	30.3418
960.86	24.7923
964.235	12.5861
967.61	9.45514
970.984	5.48129
974.359	2.0744
977.734	2.32602
981.109	2.00198
984.484	1.91351
987.859	2.92874
991.233	0.060272
994.608	0.274231
997.983	2.0769
1001.36	1.52069
1004.73	0.113342
1008.11	0.245697
1011.48	5.31454
1014.86	7.15295
1018.23	14.1111
1021.61	13.9616
1024.98	18.6693
1028.36	21.762
1031.73	22.8809
1035.11	21.4568
1038.48	25.626
1041.86	20.994
1045.23	24.1383
1048.61	22.7928
1051.98	25.8584
1055.36	34.1272
1058.73	40.5881
1062.1	57.971
1065.48	78.1313
1068.85	84.7882
1072.23	88.1685
1075.6	97.4201
1078.98	96.5208
1082.35	88.4487
1085.73	71.4781
1089.1	64.9647
1092.48	51.1425
1095.85	41.8117
1099.23	33.848
1102.6	26.2377
1105.98	16.3917
1109.35	9.90027
1112.73	4.41498
1116.1	3.56717
1119.48	0.151093
1122.85	3.38928
1126.23	2.83194
1129.6	4.3205
1132.98	1.58823
1136.35	3.5816
1139.72	3.0394
1143.1	1.33337
1146.47	3.99765
1149.85	0.985504
1153.22	0.433777
1156.6	0.683685
1159.97	1.33224
1163.35	0.439911
1166.72	0.097046
1170.1	0.253601
1173.47	0.032623
1176.85	2.06049
1180.22	1.84811
1183.6	2.01144
1186.97	4.19937
1190.35	6.8504
1193.72	7.97238
1197.1	10.673
1200.47	17.0383
1203.85	17.3771
1207.22	22.1837
1210.6	26.597
1213.97	32.084
1217.35	35.1614
1220.72	40.6974
1224.1	47.3593
1227.47	51.9566
1230.85	58.0654
1234.22	62.4479
1237.6	69.624
1240.97	68.8011
1244.35	72.4406
1247.72	68.1942
1251.09	69.86
1254.47	65.9374
1257.84	60.6195
1261.22	56.2885
1264.59	44.5739
1267.97	37.0115
1271.34	26.9513
1274.72	16.1359
1278.09	5.93411
1281.47	2.51154
1284.84	0.919464
