Measurement: Raman, 785 nm, unoriented, Raman Data RAW
Mineral: Fergusonite-(Ce)-beta
Rruff sample: R070300
Ideal chemistry: Ce^3+^Nb^5+^O_4_
Locality: Amherst County, Virginia, USA
Source: Michael Scott
Description: Dark brown vitreous amorphous fragments, a portion of the sample was heated and is reported in R080102
Raman shift (cm-1)	intensity
168.749	18213.5
171.642	18607.8
174.534	18856.4
177.427	19164
180.32	19218.4
183.212	19488.4
186.105	19663.3
188.998	19700.8
191.891	19892.7
194.783	20107.6
197.676	20267.9
200.569	20356.9
203.461	20402.3
206.354	20427.3
209.247	20534.4
212.139	20469.8
215.032	20541.6
217.925	20719.7
220.818	20965.8
223.71	21028
226.603	21087.6
229.496	21154.5
232.388	21224.4
235.281	21406.8
238.174	21535.2
241.066	21638.5
243.959	21796.1
246.852	21822.6
249.745	21753
252.637	22041.8
255.53	22094.4
258.423	22201.3
261.315	22352.9
264.208	22493.5
267.101	22474.2
269.993	22569.8
272.886	22694.2
275.779	22740.9
278.672	22868.5
281.564	22981.9
284.457	23101.8
287.35	23184.6
290.242	23262.8
293.135	23254.4
296.028	23323.1
298.921	23262.1
301.813	23503.5
304.706	23662
307.599	23646.7
310.491	23724.3
313.384	23716.8
316.277	23776.7
319.169	23759.5
322.062	23795
324.955	23831.4
327.847	23940.9
330.74	24096.3
333.633	24053.4
336.526	23883.9
339.418	23877
342.311	23985.6
345.204	24014.1
348.096	23974.2
350.989	23917.5
353.882	24058.5
356.774	23949.9
359.667	24017.9
362.56	23819.1
365.452	23746
368.345	23839.8
371.238	23782.7
374.131	23864.2
377.023	23868.7
379.916	23760
382.809	23712.5
385.701	23556.7
388.594	23415.6
391.487	23494.8
394.38	23495.2
397.272	23437.5
400.165	23316.5
403.058	23349
405.95	23143.2
408.843	23103
411.736	23057.6
414.628	22906.8
417.521	22955.5
420.414	22856.8
423.307	22718.5
426.199	22586.3
429.092	22571.8
431.985	22429.6
434.877	22270.7
437.77	22189.7
440.663	22184
443.555	21977.1
446.448	21945.6
449.341	21859.9
452.234	21825.8
455.126	21667.7
458.019	21526.5
460.912	21441.4
463.804	21287
466.697	21327.6
469.59	21225.6
472.483	21032.3
475.375	20860
478.268	20791.1
481.161	20676.7
484.053	20618.2
486.946	20513.1
489.839	20477.3
492.731	20357.5
495.624	20245.7
498.517	19979.8
501.409	19997.8
504.302	19801.9
507.195	19763.3
510.088	19778.4
512.98	19570.5
515.873	19622.3
518.766	19483.5
521.658	19321.8
524.551	19194.9
527.444	19111.3
530.337	19160
533.229	19040.6
536.122	18975.9
539.015	18942.1
541.907	18779.2
544.8	18764
547.693	18693.8
550.585	18645.1
553.478	18454.1
556.371	18468.4
559.263	18490.2
562.156	18488
565.049	18388.6
567.942	18308.5
570.834	18260.1
573.727	18181.1
576.62	17987.3
579.512	17974.2
582.405	18015.7
585.298	17911.4
588.19	17924.2
591.083	17785.2
593.976	17776.7
596.869	17718.1
599.761	17675.5
602.654	17667
605.547	17735.8
608.439	17581.9
611.332	17485.2
614.225	17424.7
617.117	17427.8
620.01	17329.3
622.903	17287.8
625.795	17273.5
628.688	17253.6
631.581	17197.3
634.474	17069.4
637.366	17000
640.259	17027.3
643.152	16990.7
646.044	16977.2
648.937	16769.6
651.83	16845.7
654.722	16846.7
657.615	16734.2
660.508	16722
663.401	16633.7
666.293	16575.3
669.186	16558.7
672.079	16503.6
674.971	16473.8
677.864	16513.5
680.757	16452.1
683.649	16421.8
686.542	16394.1
689.435	16338.2
692.328	16388.5
695.22	16411
698.113	16374
701.006	16313.7
703.898	16289
706.791	16459.5
709.684	16348.3
712.577	16329.7
715.469	16330
718.362	16390.8
721.255	16369.6
724.147	16399.4
727.04	16407.3
729.933	16375.8
732.825	16346.9
735.718	16512.5
738.611	16484
741.504	16442.8
744.396	16629
747.289	16593.5
750.182	16696.9
753.074	16683.3
755.967	16833.7
758.86	16805.7
761.752	16864.6
764.645	16912.4
767.538	17026.4
770.431	17134.4
773.323	17217.4
776.216	17177.6
779.109	17263.3
782.001	17299.2
784.894	17330
787.787	17382.9
790.679	17438
793.572	17341.3
796.465	17478.8
799.357	17353.3
802.25	17336.4
805.143	17289.7
808.036	17202.3
810.928	17185.6
813.821	17197
816.714	17056
819.606	16895.1
822.499	16852.5
825.392	16678.4
828.284	16609.8
831.177	16398.3
834.07	16299.8
836.963	16190.9
839.855	15932.9
842.748	15985.7
845.641	15766.8
848.533	15591.1
851.426	15389.7
854.319	15237.8
857.212	15005.1
860.104	14896
862.997	14721.2
865.89	14563.9
868.782	14411.5
871.675	14279
874.568	14049
877.46	13851.3
880.353	13778.8
883.246	13630.5
886.139	13513.6
889.031	13353.1
891.924	13179.3
894.817	13065.8
897.709	13029.7
900.602	12853.4
903.495	12779.4
906.388	12588.3
909.28	12560.2
912.173	12505.8
915.066	12413.9
917.958	12248.6
920.851	12248
923.744	12140.2
926.636	12005.3
929.529	12019
932.422	11950.5
935.314	11948
938.207	11896.1
941.1	11811.4
943.993	11786.9
946.885	11690.2
949.778	11721.6
952.671	11687.9
955.563	11612.8
958.456	11587.9
961.349	11574.6
964.241	11590.5
967.134	11505.1
970.027	11459.5
972.92	11427.1
975.812	11400.2
978.705	11460.4
981.598	11462.6
984.49	11450.4
987.383	11427.1
990.276	11416.9
993.168	11454.6
996.061	11421
998.954	11298.9
1001.85	11393.4
1004.74	11432.2
1007.63	11341.1
1010.52	11345.2
1013.42	11401.4
1016.31	11431
1019.2	11384.2
1022.1	11398.1
1024.99	11535.1
1027.88	11518.7
1030.77	11508.8
1033.67	11521.4
1036.56	11550.9
1039.45	11672.6
1042.34	11615.4
1045.24	11687.6
1048.13	11734.8
1051.02	11774.9
1053.91	11803.2
1056.81	11869.4
1059.7	11962.6
1062.59	12060.1
1065.49	12132.3
1068.38	12131.1
1071.27	12303.2
1074.16	12347.4
1077.06	12444.4
1079.95	12560.6
1082.84	12650.8
1085.73	12761.8
1088.63	12912.3
1091.52	13101.5
1094.41	13163.1
1097.31	13360.6
1100.2	13502.2
1103.09	13689.7
1105.98	13845.4
1108.88	14096.2
1111.77	14245.7
1114.66	14427
1117.56	14707.9
1120.45	14851.5
1123.34	15058.7
1126.23	15400.7
1129.12	15671.6
1132.02	15861.7
1134.91	16134.5
1137.8	16410.6
1140.7	16701.3
1143.59	16996.1
1146.48	17266
1149.37	17639.2
1152.27	17959.3
1155.16	18210.8
1158.05	18464.4
1160.94	18930.6
1163.84	19342.2
1166.73	19592.8
1169.62	19947.4
1172.52	20287.8
1175.41	20670
1178.3	21058.6
1181.19	21399.4
1184.09	21693.6
1186.98	22110
1189.87	22493
1192.77	22718.9
1195.66	22989.3
1198.55	23325.8
1201.44	23635.6
1204.34	23901.4
1207.23	24162.5
1210.12	24383.3
1213.01	24489.9
1215.91	24810
1218.8	24893.7
1221.69	25147.2
1224.58	25245.5
1227.48	25188.8
1230.37	25506
1233.26	25611.5
