Measurement: Raman, 532 nm, unoriented, Raman Data RAW
Mineral: Fergusonite-(Ce)-beta
Rruff sample: R070225
Ideal chemistry: Ce^3+^Nb^5+^O_4_
Locality: Hongcheon, Kangwon-Do Province, Korea
Source: Michael Scott
Description: Reddish brown subhedral crystal; associated with manganotantalite, siderite, pyrite in a polished grain mount
Raman shift (cm-1)	intensity
176.178	5359.05
179.071	5293
181.964	5344.18
184.856	5345.73
187.749	5329.34
190.642	5335.76
193.535	5306.37
196.427	5364.14
199.32	5426.98
202.213	5445.23
205.105	5552.24
207.998	5616.63
210.891	5547.68
213.783	5443.19
216.676	5268.71
219.569	5355.99
222.462	5282.77
225.354	5209.9
228.247	5239.51
231.14	5261.08
234.032	5318.39
236.925	5339.88
239.818	5440.26
242.71	5620.24
245.603	5707.26
248.496	5696.77
251.388	5660.75
254.281	5644.86
257.174	5615.95
260.067	5690.52
262.959	5739.78
265.852	5810.57
268.745	5882.05
271.637	5916.43
274.53	6030.05
277.423	6248.54
280.315	6244.06
283.208	6336.11
286.101	6430.38
288.994	6629.83
291.886	6731.5
294.779	6948.94
297.672	7078.15
300.564	7399.79
303.457	7669.79
306.35	7986.7
309.243	8386.38
312.135	8784.16
315.028	9280.8
317.921	9676.91
320.813	9960.57
323.706	9915.74
326.599	9791.46
329.491	9638.43
332.384	9343.22
335.277	9114.09
338.17	8823.88
341.062	8674.73
343.955	8554.9
346.848	8489.24
349.74	8406.92
352.633	8358.12
355.526	8333.14
358.418	8356.48
361.311	8346.47
364.204	8395.34
367.097	8305.41
369.989	8395.18
372.882	8427.44
375.775	8383.48
378.667	8461.35
381.56	8595.8
384.453	8784.77
387.346	9052.96
390.238	9277.14
393.131	9490.3
396.024	9701.66
398.916	9713.87
401.809	9466.24
404.702	9001.7
407.594	8483.38
410.487	8047.6
413.38	7798.05
416.272	7467.66
419.165	7356.65
422.058	7260.9
424.951	7122.02
427.843	6991.68
430.736	6919.31
433.629	6841.76
436.521	6723.56
439.414	6739.03
442.307	6568.07
445.2	6453.21
448.092	6408.57
450.985	6358.02
453.878	6324.85
456.77	6216.28
459.663	6244.23
462.556	6194.18
465.448	6147.33
468.341	6113.06
471.234	6097.03
474.127	6092.09
477.019	6076.16
479.912	6085.86
482.805	5975.78
485.697	5911.41
488.59	5831.34
491.483	5782.59
494.375	5651.72
497.268	5503.95
500.161	5503.48
503.053	5419.15
505.946	5471.47
508.839	5466.43
511.732	5638.32
514.624	5813.15
517.517	6057.65
520.41	6359.45
523.302	6591.53
526.195	6702.6
529.088	6660.41
531.981	6304.85
534.873	5902.45
537.766	5566.21
540.659	5150.58
543.551	4924.78
546.444	4737.46
549.337	4586.64
552.229	4445.77
555.122	4388.79
558.015	4273.53
560.908	4291.39
563.8	4236.6
566.693	4180.53
569.586	4137.11
572.478	4100.91
575.371	4062.79
578.264	4061.49
581.156	4010.49
584.049	4004.16
586.942	4019.92
589.835	4036.99
592.727	4051.12
595.62	4061.39
598.513	4080.59
601.405	4103.24
604.298	4065.01
607.191	4085.72
610.083	4056.7
612.976	4061.94
615.869	3975.84
618.762	4031.16
621.654	4003.98
624.547	3986.12
627.44	4022.63
630.332	3977.12
633.225	4014.32
636.118	4065.04
639.01	4016.29
641.903	4007.48
644.796	3962.7
647.689	3957.32
650.581	3963.02
653.474	3914.89
656.367	3876.28
659.259	3931.94
662.152	3932.66
665.045	3896.92
667.938	3884.45
670.83	3851.59
673.723	3811.53
676.616	3714.86
679.508	3650.5
682.401	3638.93
685.294	3556.24
688.186	3529.57
691.079	3503.04
693.972	3448.05
696.865	3433.6
699.757	3444.39
702.65	3501.64
705.543	3501.32
708.435	3497.39
711.328	3531.01
714.221	3541.89
717.113	3578.06
720.006	3560.62
722.899	3654.35
725.792	3718.14
728.684	3720.51
731.577	3835.65
734.47	3887.45
737.362	4021.18
740.255	4075.98
743.148	4165.61
746.04	4353.57
748.933	4501.1
751.826	4643.27
754.719	4781.55
757.611	5019.95
760.504	5208.3
763.397	5366.81
766.289	5636.44
769.182	5849.16
772.075	6152.56
774.967	6424.36
777.86	6730.81
780.753	7046.31
783.646	7476.94
786.538	7907.06
789.431	8279.14
792.324	8679.56
795.216	8942.67
798.109	9228.92
801.002	9275.64
803.894	9117.25
806.787	8890.97
809.68	8522.11
812.573	8214.23
815.465	7831.26
818.358	7646.2
821.251	7318.01
824.143	6929.27
827.036	6626.51
829.929	6230.62
832.822	5840.75
835.714	5511.98
838.607	5289.55
841.5	5165.17
844.392	5090.52
847.285	5073.78
850.178	5231.26
853.07	5577.78
855.963	6153.09
858.856	6957.19
861.749	8047.88
864.641	9582.52
867.534	11633.4
870.427	13969.8
873.319	16187.9
876.212	17608.4
879.105	17427.1
881.997	15609.4
884.89	12742.8
887.783	9671.08
890.676	7053.89
893.568	5183.76
896.461	3934.12
899.354	3120.71
902.246	2691.95
905.139	2302.89
908.032	2139.19
910.924	2027.66
913.817	1901.16
916.71	1807.15
919.602	1751.23
922.495	1684.03
925.388	1612.64
928.281	1599.52
931.173	1553.62
934.066	1519.65
936.959	1495.67
939.851	1451.53
942.744	1447.57
945.637	1398.14
948.529	1385.63
951.422	1391.43
954.315	1338.62
957.208	1343.19
960.1	1343.23
962.993	1316.21
965.886	1307.35
968.778	1290.44
971.671	1281.82
974.564	1294.28
977.457	1307.58
980.349	1257.7
983.242	1262.48
986.135	1289.74
989.027	1238.14
991.92	1252.29
994.813	1251.78
997.705	1251.98
1000.6	1219.93
1003.49	1212.27
1006.38	1201.62
1009.28	1172.06
1012.17	1216.26
1015.06	1210.16
1017.95	1191.16
1020.85	1195.47
1023.74	1192.49
1026.63	1180.16
1029.53	1201.6
1032.42	1178.59
1035.31	1185.06
1038.2	1202.88
1041.1	1198.85
1043.99	1212.46
1046.88	1196.2
1049.77	1222.4
1052.67	1180.87
1055.56	1185.26
1058.45	1202.76
1061.35	1217.22
1064.24	1223.58
1067.13	1190.17
1070.02	1199.05
1072.92	1188.75
1075.81	1225.53
1078.7	1177.59
1081.59	1169.72
1084.49	1198.51
1087.38	1180.08
1090.27	1170.7
1093.16	1191.47
1096.06	1157.25
1098.95	1154.28
1101.84	1192.4
1104.73	1185.6
1107.63	1196.36
1110.52	1187.91
1113.41	1178.38
1116.31	1172.5
1119.2	1201.5
1122.09	1185.93
1124.98	1180.88
1127.88	1174.73
1130.77	1208.3
1133.66	1205.91
1136.56	1191.62
1139.45	1170.63
1142.34	1193.33
1145.23	1172.29
1148.13	1196.67
1151.02	1217.46
1153.91	1190.73
1156.8	1224.68
1159.7	1192.05
1162.59	1183.17
1165.48	1185.76
1168.38	1232.89
1171.27	1183.32
1174.16	1216.79
1177.05	1195.62
1179.95	1238.74
1182.84	1223.92
1185.73	1222.46
1188.62	1261.88
1191.52	1241.2
1194.41	1268.85
1197.3	1257.56
1200.19	1271.88
1203.09	1283.89
1205.98	1296.77
1208.87	1324.22
1211.77	1320.75
1214.66	1317.22
1217.55	1317.29
