Measurement: Raman, 785 nm, unoriented, Raman Data RAW
Mineral: Fergusonite-(Ce)-beta
Rruff sample: R070225
Ideal chemistry: Ce^3+^Nb^5+^O_4_
Locality: Hongcheon, Kangwon-Do Province, Korea
Source: Michael Scott
Description: Reddish brown subhedral crystal; associated with manganotantalite, siderite, pyrite in a polished grain mount
Raman shift (cm-1)	intensity
122.466	1026.08
125.359	1566.53
128.251	2213.75
131.144	2995.02
134.037	3887.88
136.929	4452.78
139.822	5110.43
142.715	5621.3
145.607	6213.77
148.5	6731.15
151.393	6840.76
154.286	6518.97
157.178	6032.74
160.071	6311.68
162.964	6838.7
165.856	7331.85
168.749	7778.3
171.642	8135.68
174.534	8414.68
177.427	8844.22
180.32	9292.79
183.212	9724.71
186.105	9996.89
188.998	10173.6
191.891	10479.3
194.783	10976.9
197.676	11674.6
200.569	12362.9
203.461	13225.4
206.354	14143.1
209.247	14953.9
212.139	15300.3
215.032	14937.8
217.925	14440.8
220.818	14430.7
223.71	14748
226.603	15243.9
229.496	15926.5
232.388	16765.2
235.281	17441.8
238.174	18353.5
241.066	19091.1
243.959	19536.8
246.852	19927.8
249.745	19694.5
252.637	19192
255.53	18652.5
258.423	18279.5
261.315	18320.3
264.208	18347.6
267.101	18321.5
269.993	18115.9
272.886	18312.2
275.779	19036.5
278.672	19945.1
281.564	20071.8
284.457	19830.8
287.35	20180
290.242	20788.6
293.135	21683.2
296.028	22494.8
298.921	23744.5
301.813	25156.1
304.706	26422.5
307.599	27589.2
310.491	28736.5
313.384	29821.1
316.277	30917.4
319.169	31721
322.062	32100.8
324.955	32037.5
327.847	32005.1
330.74	32278.6
333.633	33116.1
336.526	34098.8
339.418	35300.6
342.311	36786.2
345.204	38153
348.096	39350.6
350.989	40050.9
353.882	40262.6
356.774	40036.8
359.667	39561
362.56	38681.8
365.452	37608.4
368.345	36495.6
371.238	35341.7
374.131	34326.5
377.023	33456.1
379.916	32799.2
382.809	32693.8
385.701	32644.4
388.594	33121.1
391.487	33975.2
394.38	35122.2
397.272	36388.7
400.165	36954.5
403.058	36157.9
405.95	33646.4
408.843	30985.2
411.736	29270
414.628	28221.9
417.521	27516.4
420.414	27101.9
423.307	26722.1
426.199	26451.9
429.092	26384.3
431.985	26320.5
434.877	26446.3
437.77	26573.2
440.663	26798.9
443.555	27089.3
446.448	27264
449.341	27527
452.234	27765.3
455.126	28317.5
458.019	28770.6
460.912	29293
463.804	29781.9
466.697	29954.9
469.59	30191.8
472.483	30267.7
475.375	29902.8
478.268	29633.7
481.161	29185.2
484.053	28529.3
486.946	27736.2
489.839	26911.9
492.731	25992.2
495.624	25285.7
498.517	24532
501.409	24116.8
504.302	23824.6
507.195	23703.5
510.088	23860.5
512.98	24230.7
515.873	25036.7
518.766	26009.7
521.658	27377.8
524.551	28728.6
527.444	29458.2
530.337	28895.3
533.229	27009.4
536.122	24451.5
539.015	22142.5
541.907	20674.5
544.8	19162.5
547.693	18187.4
550.585	17454.9
553.478	16783.8
556.371	16327.4
559.263	15962.8
562.156	15569.1
565.049	15357.9
567.942	14942.9
570.834	14598.5
573.727	14318.8
576.62	14045.6
579.512	13799.3
582.405	13677.5
585.298	13476.5
588.19	13479.9
591.083	13423.4
593.976	13447.7
596.869	13565.7
599.761	13595.1
602.654	13559
605.547	13418.1
608.439	13077.2
611.332	12700.2
614.225	12215.3
617.117	11862.9
620.01	11644.5
622.903	11394.1
625.795	11340.3
628.688	11172.6
631.581	11035
634.474	10968.2
637.366	10908.6
640.259	10811.8
643.152	10633
646.044	10485.2
648.937	10327.8
651.83	10053.5
654.722	9964.14
657.615	9859.63
660.508	9709.6
663.401	9490.31
666.293	9515.34
669.186	9475.72
672.079	9399.42
674.971	9367.43
677.864	9220.08
680.757	9197.2
683.649	9102.1
686.542	9165.6
689.435	9102.12
692.328	9095.4
695.22	9189.26
698.113	9298.48
701.006	9343.18
703.898	9387.61
706.791	9517.75
709.684	9562.9
712.577	9599.13
715.469	9736.05
718.362	9782.4
721.255	9917.03
724.147	9904.24
727.04	10012.1
729.933	10174.6
732.825	10205.5
735.718	10279.2
738.611	10356
741.504	10429.4
744.396	10471.8
747.289	10515.4
750.182	10620
753.074	10611.9
755.967	10564.5
758.86	10616.4
761.752	10668.5
764.645	10669.2
767.538	10634.9
770.431	10640.1
773.323	10648.2
776.216	10858.7
779.109	10946.9
782.001	11018.2
784.894	11168.4
787.787	11411.7
790.679	11606.7
793.572	11732.7
796.465	12003.6
799.357	12176.6
802.25	12204.5
805.143	12317.3
808.036	12142.3
810.928	12047.9
813.821	12055.1
816.714	12136.1
819.606	12216.6
822.499	12319.7
825.392	12374.9
828.284	12263.2
831.177	12168.9
834.07	11883.6
836.963	11826.6
839.855	11609.6
842.748	11690.7
845.641	11817.2
848.533	12195.2
851.426	12849.2
854.319	13624.1
857.212	14874.5
860.104	16862.6
862.997	19391.4
865.89	23152.9
868.782	28414.8
871.675	34837.8
874.568	41812.5
877.46	46662.1
880.353	47336
883.246	43205.1
886.139	35680.3
889.031	27437.9
891.924	20605.1
894.817	15507.3
897.709	12354
900.602	10352.7
903.495	9216.66
906.388	8548.26
909.28	8025.62
912.173	7741.06
915.066	7581.85
917.958	7335.2
920.851	7190.52
923.744	7108.33
926.636	7014.38
929.529	6926.49
932.422	6886.48
935.314	6784.03
938.207	6780.18
941.1	6740.07
943.993	6710.23
946.885	6695.81
949.778	6658.02
952.671	6672.26
955.563	6637.6
958.456	6667.43
961.349	6705.88
964.241	6716.12
967.134	6685.06
970.027	6734.63
972.92	6806.67
975.812	6767.24
978.705	6870.62
981.598	6885.07
984.49	6957.05
987.383	6971.31
990.276	7031.51
993.168	7101.22
996.061	7142.46
998.954	7223
1001.85	7247.28
1004.74	7381.39
1007.63	7502.58
1010.52	7585.04
1013.42	7636.43
1016.31	7748.8
1019.2	7912.79
1022.1	8042.96
1024.99	8086.32
1027.88	8256.48
1030.77	8438.6
1033.67	8611.34
1036.56	8779.75
1039.45	8958.84
1042.34	9191.68
1045.24	9442.37
1048.13	9593.64
1051.02	9897.06
1053.91	10089.1
1056.81	10376.3
1059.7	10595.7
1062.59	10899
1065.49	11158.7
1068.38	11543.9
1071.27	11933.7
1074.16	12234.4
1077.06	12510
1079.95	12947.1
1082.84	13394.9
1085.73	13909.8
1088.63	14399
1091.52	14958
1094.41	15565.7
1097.31	16172.2
1100.2	16917.3
1103.09	17579.5
1105.98	18426.9
1108.88	19238.4
1111.77	20200.7
1114.66	21295.2
1117.56	22418
1120.45	23682.9
1123.34	25065.9
1126.23	26489.3
1129.12	28401.9
1132.02	30260.5
1134.91	32440.1
1137.8	34863.9
1140.7	37433.5
1143.59	40223.8
1146.48	42986.3
1149.37	45364.7
1152.27	47001.3
1155.16	47599.3
1158.05	47415.3
1160.94	47410.3
1163.84	47901.8
1166.73	49165.4
1169.62	50930.7
1172.52	53482.2
1175.41	56101.3
1178.3	58776.8
1181.19	61050.9
1184.09	63169
1186.98	65065.2
1189.87	67062.6
1192.77	69159.9
1195.66	71544.8
1198.55	73986.6
1201.44	76887.4
1204.34	79727.6
1207.23	83133.7
1210.12	86582.6
1213.01	90176.5
1215.91	94306.4
1218.8	98937.4
1221.69	103536
1224.58	108948
1227.48	114720
1230.37	120995
1233.26	127928
1236.15	135466
1239.05	143802
1241.94	153019
