Measurement: Raman, 532 nm, unoriented, Raman Data RAW
Mineral: Fergusonite-(Y)-beta
Rruff sample: R080103
Ideal chemistry: Y^3+^Nb^5+^O_4_
Locality: Arendal, Aust-Agder, Norway
Source: James Shigley
Description: Olive green fragment from metamict sample R070600, after heating at T = 1000 C for 20 hours
Raman shift (cm-1)	intensity
91.0078	1617.46
94.3826	1976.49
97.7575	3659.91
101.132	7066.3
104.507	13072.5
107.882	23132.3
111.257	32993.7
114.632	41482.1
118.006	53371.1
121.381	63270.7
124.756	67785.4
128.131	69533.7
131.506	72498.2
134.88	71501.8
138.255	69441.6
141.63	66873.1
145.005	64470.4
148.38	62522.3
151.755	61401.3
155.129	60282
158.504	58765.3
161.879	57723.6
165.254	56894.2
168.629	56459.4
172.003	56242.3
175.378	56139.8
178.753	56562.5
182.128	57283.5
185.503	58751.5
188.877	60811.8
192.252	62670.5
195.627	64485
199.002	66066.1
202.377	67418.4
205.752	68968.5
209.126	70044.4
212.501	71639.5
215.876	73210.6
219.251	75663.2
222.626	78289.5
226	81290.2
229.375	84106.8
232.75	86444.7
236.125	88536.6
239.5	88621
242.875	85688
246.249	80409.9
249.624	74748.8
252.999	70743.6
256.374	68542.7
259.749	68207
263.123	69202.2
266.498	70871.4
269.873	72627.4
273.248	74541.4
276.623	76975.5
279.998	79815.9
283.372	82083.7
286.747	84093
290.122	85202.4
293.497	85376.5
296.872	83776.5
300.247	82052.8
303.621	81223.2
306.996	80287.9
310.371	80296.8
313.746	81075.7
317.12	82915.5
320.495	85629.2
323.87	88988.4
327.245	91103.6
330.62	92231.5
333.995	92896.2
337.369	94069.7
340.744	94894.6
344.119	97505.8
347.494	102943
350.869	112170
354.243	125416
357.618	145173
360.993	171490
364.368	204619
367.743	243331
371.118	284228
374.492	317150
377.867	322998
381.242	300342
384.617	270234
387.992	254138
391.366	253186
394.741	246402
398.116	216515
401.491	179078
404.866	151674
408.241	139912
411.615	142845
414.99	158462
418.365	187002
421.74	227805
425.115	260932
428.49	254290
431.864	215435
435.239	174218
438.614	148499
441.989	143067
445.364	151047
448.738	153600
452.113	136118
455.488	118397
458.863	110285
462.238	111090
465.613	120646
468.987	137397
472.362	160995
475.737	183824
479.112	192028
482.486	177303
485.861	154161
489.236	141206
492.611	139453
495.986	140082
499.361	134339
502.735	122976
506.11	111683
509.485	102293
512.86	95131.8
516.235	89676.1
519.61	85706
522.984	83288.8
526.359	81838.5
529.734	80926.5
533.109	79602.6
536.484	77759.4
539.859	76035.9
543.233	74485.1
546.608	72403.4
549.983	70426.5
553.358	68948
556.732	68213.1
560.107	68065
563.482	68187.7
566.857	67616.3
570.232	67431.8
573.607	66657.1
576.981	66372.1
580.356	66355
583.731	66715.6
587.106	67715.5
590.481	68764.7
593.856	70064.5
597.23	71575.9
600.605	73247.4
603.98	74767.3
607.355	76137.6
610.73	77288.5
614.104	77903
617.479	77868.6
620.854	77830.6
624.229	77679.6
627.604	77907.9
630.979	78728.9
634.353	80013.1
637.728	82220
641.103	84845.1
644.478	87704.5
647.852	90494.1
651.227	93910
654.602	98220.3
657.977	103408
661.352	108974
664.727	115231
668.101	122662
671.476	131296
674.851	139566
678.226	148769
681.601	157188
684.976	164552
688.35	170387
691.725	175744
695.1	182422
698.475	193073
701.85	209094
705.224	232693
708.599	262612
711.974	296367
715.349	329782
718.724	358568
722.098	377444
725.473	384338
728.848	380830
732.223	374328
735.598	370759
738.973	369248
742.347	362926
745.722	349697
749.097	330249
752.472	317038
755.847	315099
759.221	328496
762.596	354700
765.971	388985
769.346	423756
772.721	450155
776.096	458695
779.47	440276
782.845	401442
786.22	359198
789.595	329811
792.97	317910
796.345	315858
799.719	313216
803.094	308539
806.469	300950
809.844	294268
813.219	286535
816.593	278788
819.968	266520
823.343	248714
826.718	226601
830.093	202616
833.467	179438
836.842	158397
840.217	139936
843.592	124184
846.967	111205
850.342	100130
853.716	91276.4
857.091	83536.2
860.466	77105.5
863.841	71594.7
867.216	66735.2
870.591	62684.4
873.965	58985.8
877.34	55957
880.715	53424.8
884.09	51353
887.465	49308.7
890.839	47701.5
894.214	46105.3
897.589	44810.5
900.964	43571.6
904.339	42354.8
907.713	41341.9
911.088	40346.8
914.463	39241.8
917.838	38157.8
921.213	37024.8
924.587	35665.5
927.962	34253.2
931.337	32859.7
934.712	31483.7
938.087	30201.7
941.462	28938.5
944.836	27641.6
948.211	26388.9
951.586	25196.2
954.961	24248.5
958.336	23244.6
961.711	22327.4
965.085	21464.3
968.46	20673.3
971.835	20056.1
975.21	19541.3
978.585	18916.9
981.959	18511
985.334	18091.9
988.709	17530.7
992.084	16944.4
995.459	16629.5
998.833	16333.2
1002.21	16021
1005.58	15663.6
1008.96	15426.6
1012.33	15111.1
1015.71	14640.5
1019.08	14412
1022.46	14160
1025.83	13805.9
1029.21	13551.3
1032.58	13350.1
1035.96	13166
1039.33	12967.5
1042.71	12667.6
1046.08	12512.2
1049.46	12280.7
1052.83	12066
1056.2	11777.5
1059.58	11665.1
1062.95	11425.2
1066.33	11224.2
1069.7	11079.7
1073.08	10983.1
1076.45	10874
1079.83	10776.4
1083.2	10634.5
1086.58	10652.9
1089.95	10517.1
1093.33	10444.4
1096.7	10450.4
1100.08	10477.8
1103.45	10390.3
1106.83	10226.6
1110.2	10214.2
1113.58	10134.8
1116.95	10125.6
1120.33	10082.3
1123.7	10034
1127.08	9949.68
1130.45	9874.97
1133.83	9752.33
1137.2	9552.43
1140.58	9260.44
1143.95	9055.12
1147.33	8803.6
1150.7	8650.16
1154.08	8373.31
1157.45	8012.86
1160.83	7818.03
1164.2	7644.43
1167.57	7519.62
1170.95	7360.7
1174.32	7071.41
1177.7	7135.97
1181.07	6950.32
1184.45	6795.14
1187.82	6649.49
1191.2	6492.23
1194.57	6471.31
1197.95	6356.68
1201.32	6283.7
1204.7	6112.03
1208.07	6066.57
1211.45	6027.99
1214.82	5923.27
1218.2	5945.09
1221.57	5809.48
1224.95	5768.65
1228.32	5754.41
1231.7	5673.05
1235.07	5651.38
1238.44	5533.54
1241.82	5510.09
1245.19	5505.16
1248.57	5511.88
1251.94	5474.18
1255.32	5392.65
1258.69	5356.31
1262.07	5258.69
1265.44	5220.96
1268.82	5132.85
1272.19	5122.29
1275.57	5016.11
1278.94	5010.89
1282.32	4992.1
1285.69	4911.82
1289.07	4796.06
1292.44	4786.18
1295.82	4807.34
1299.19	4779.01
1302.57	4672.77
