Measurement: Raman, 532 nm, unoriented, Raman Data RAW
Mineral: Fergusonite-(Y)-beta
Rruff sample: R070600
Ideal chemistry: Y^3+^Nb^5+^O_4_
Locality: Arendal, Aust-Agder, Norway
Source: James Shigley
Description: Gray-brown to black vitreous, results for the heated sample are given in R080103
Raman shift (cm-1)	intensity
108.39	2161.61
111.764	3552.95
115.139	6040.93
118.514	9863.88
121.889	15697.9
125.264	22889.2
128.639	30042.9
132.013	36903.5
135.388	42434.4
138.763	45669.5
142.138	48355.9
145.513	49215.3
148.887	49531.9
152.262	49340.7
155.637	48842.7
159.012	47824.9
162.387	47229.4
165.762	46990.9
169.136	46935.2
172.511	46844.8
175.886	46364.7
179.261	46314.3
182.636	46242.6
186.01	45657.4
189.385	45444.5
192.76	45344
196.135	45413.9
199.51	45586.1
202.885	45360.8
206.259	45046.5
209.634	44837.7
213.009	45266
216.384	45509.2
219.759	45655.1
223.133	45831.8
226.508	46296.4
229.883	46281.4
233.258	46256.7
236.633	46450.3
240.007	46562.9
243.382	46847.9
246.757	46864.6
250.132	46817.1
253.507	46455.8
256.882	46426.5
260.256	46290.8
263.631	46018.1
267.006	45936.8
270.381	46042.9
273.756	46390.9
277.13	46861.9
280.505	47086.2
283.88	47417.7
287.255	47886.1
290.63	48256.3
294.005	48646.8
297.379	47882.4
300.754	47318.1
304.129	47196
307.504	46713
310.879	46562.9
314.253	46533.6
317.628	46304.9
321.003	46328.6
324.378	46361.6
327.753	46385.9
331.127	46735.4
334.502	46676.6
337.877	46167.1
341.252	46245.1
344.627	46879.2
348.002	47365.3
351.376	48475.6
354.751	49510.4
358.126	51304
361.501	53284.4
364.876	55435.2
368.25	57872.9
371.625	59710.8
375	58835.1
378.375	56088.4
381.75	53216.2
385.125	51419.1
388.499	50848.3
391.874	50787.1
395.249	51188.1
398.624	51854.4
401.999	53005.5
405.373	53676.2
408.748	54453.8
412.123	54444.1
415.498	55722.1
418.873	57904.9
422.247	61199.5
425.622	62449.9
428.997	58499.7
432.372	54038.8
435.747	51353.7
439.122	49699.7
442.496	49594.9
445.871	50208.9
449.246	51006.8
452.621	52310
455.996	54350.5
459.37	55862.2
462.745	56541.4
466.12	58620.5
469.495	62181.7
472.87	65677.4
476.245	67671.3
479.619	65843.8
482.994	61581.1
486.369	57644.4
489.744	55403.2
493.119	54499.4
496.493	54998.5
499.868	56226.6
503.243	58094
506.618	61276.5
509.993	64267.9
513.367	66881.4
516.742	67883.3
520.117	66448.7
523.492	63117.4
526.867	58839.9
530.241	55213.8
533.616	52528.9
536.991	50408.6
540.366	49154.5
543.741	48286.4
547.116	47861.8
550.49	47834.2
553.865	48128.4
557.24	48585.7
560.615	49532.4
563.99	50756.3
567.365	51844.1
570.739	52658.8
574.114	52854.6
577.489	52838.8
580.864	52811.4
584.239	53400.9
587.613	54806.7
590.988	56992.8
594.363	59001.1
597.738	61122
601.113	62074.9
604.487	62587.8
607.862	62041.8
611.237	60702.2
614.612	58869.9
617.987	57377.5
621.361	55650.5
624.736	54206.4
628.111	53043.2
631.486	52634.4
634.861	52361.4
638.236	52438.5
641.61	53109.5
644.985	53948.8
648.36	55003.8
651.735	55223.6
655.11	55748.8
658.485	55890.7
661.859	55448.1
665.234	54986
668.609	53736.3
671.984	52300.8
675.359	50879.9
678.733	49647.8
682.108	48645
685.483	47616.4
688.858	46933.4
692.233	46687.4
695.607	46269.8
698.982	45775.8
702.357	45013.2
705.732	44568.7
709.107	44379.1
712.481	44124.6
715.856	43938.9
719.231	43642.8
722.606	43327.7
725.981	43202.4
729.356	43095.1
732.73	43019.7
736.105	42934.3
739.48	43267.9
742.855	42953.1
746.23	42966.4
749.604	43103.5
752.979	43238.7
756.354	43619
759.729	43746.5
763.104	44103
766.479	44421.6
769.853	44568.5
773.228	45000.7
776.603	45264.3
779.978	45706.9
783.353	45904.9
786.727	46060.5
790.102	46270.1
793.477	46644.9
796.852	46798
800.227	46824.4
803.601	46714.1
806.976	46887.4
810.351	46859.9
813.726	46727.8
817.101	46467.7
820.476	46271.6
823.85	45923.5
827.225	45520.2
830.6	45191.9
833.975	44655.3
837.35	44330.1
840.724	43627.2
844.099	43095.7
847.474	42454
850.849	41713.8
854.224	41025.9
857.598	40391.7
860.973	39547.1
864.348	38915.3
867.723	38102.8
871.098	37606.5
874.473	36523.6
877.847	35770.1
881.222	35213.9
884.597	34447.5
887.972	33619.5
891.347	32872.4
894.721	32152.5
898.096	31339.5
901.471	30497
904.846	29974.5
908.221	29245
911.596	28631.1
914.97	28083.9
918.345	27342.8
921.72	26746.7
925.095	26090.4
928.47	25733.9
931.844	25403.9
935.219	24961.5
938.594	24558
941.969	24362
945.344	24101
948.718	23767.9
952.093	23847.7
955.468	23539.7
958.843	23525.5
962.218	23308.6
965.593	23267.2
968.967	23380
972.342	23253.6
975.717	23313.3
979.092	23511
982.467	23932.8
985.841	24723.7
989.216	25804.6
992.591	27316
995.966	29322
999.341	28953.8
1002.72	25499.4
1006.09	24473
1009.47	24401.9
1012.84	24784.7
1016.22	24852.6
1019.59	25247.4
1022.96	25562.9
1026.34	25458.9
1029.71	25200.7
1033.09	24984.1
1036.46	24911
1039.84	24857.7
1043.21	25099.2
1046.59	25202.2
1049.96	25721.1
1053.34	26620.3
1056.71	26540.3
1060.09	24473.7
1063.46	23568.8
1066.84	23105
1070.21	22890.6
1073.59	22683.2
1076.96	22489.6
1080.34	22430.7
1083.71	22219
1087.09	22221.6
1090.46	22123.7
1093.84	21927.2
1097.21	21865.2
1100.59	21773.9
1103.96	21623.1
1107.34	21703.7
1110.71	21553.5
1114.08	21473.7
1117.46	21473.7
1120.83	21386.8
1124.21	21501
1127.58	21361.6
1130.96	21423.6
1134.33	21484.2
1137.71	21517.7
1141.08	21457.8
1144.46	21311.2
1147.83	21464.8
1151.21	21387.8
1154.58	21359.3
1157.96	21442.4
1161.33	21439.7
1164.71	21331.8
1168.08	21408.9
1171.46	21272.1
1174.83	21174.8
1178.21	21165.5
1181.58	21046
1184.96	20996.7
1188.33	20966.9
1191.7	20938.7
1195.08	20990.5
1198.45	20936.1
1201.83	20885.8
1205.2	20799.6
1208.58	20680.9
1211.95	20773.3
1215.33	20823.2
1218.7	20751.1
1222.08	20545.8
1225.45	20547.2
1228.83	20435
1232.2	20441.6
1235.58	20401.3
1238.95	20395
1242.33	20416.9
1245.7	20428.1
1249.08	20395.7
1252.45	20444.8
1255.83	20387.1
1259.2	20496.9
1262.58	20488.5
