Measurement: Raman, 532 nm, unoriented, Raman Data RAW
Mineral: Fergusonite-(Ce)-beta
Rruff sample: R080102
Ideal chemistry: Ce^3+^Nb^5+^O_4_
Locality: Amherst County, Virginia, USA
Source: Michael Scott
Description: Tan to light brown colored fragment from metamict sample R070300, after heating at T = 1000 C for 20 hours
Raman shift (cm-1)	intensity
90.5257	0
93.9005	935.742
97.2753	1911.82
100.65	3782.86
104.025	7137.79
107.4	12281.8
110.775	16700.1
114.149	19771.4
117.524	24508.7
120.899	28702
124.274	29953.1
127.649	29910.5
131.024	30549.2
134.398	30029.6
137.773	28939.5
141.148	27613.9
144.523	26202.5
147.898	25064.5
151.272	24293
154.647	23680.1
158.022	22951.1
161.397	22280.5
164.772	21897.9
168.147	21608.4
171.521	21410.9
174.896	21306
178.271	21276.2
181.646	21354
185.021	21604.2
188.395	21882.9
191.77	22203.4
195.145	22501.9
198.52	22837.9
201.895	23070.4
205.269	23208.4
208.644	23342.6
212.019	23489.5
215.394	23917.8
218.769	24549.2
222.143	25251.6
225.518	26012.9
228.893	26719.8
232.268	27306.7
235.643	27656.9
239.018	27703.2
242.392	27262.6
245.767	26331.5
249.142	25175
252.517	24138
255.892	23367.5
259.267	23010.1
262.641	22994.1
266.016	23273
269.391	23732.2
272.766	24198.1
276.141	24769.7
279.515	25489.4
282.89	26110.2
286.265	26603.3
289.64	26927.3
293.015	27029.7
296.389	26814.4
299.764	26498.6
303.139	26176.2
306.514	25964.2
309.889	26094.4
313.264	26319.2
316.638	26817.1
320.013	27402
323.388	27937.6
326.763	28280
330.138	28453.2
333.512	28429.2
336.887	28424.9
340.262	28442.3
343.637	28907.2
347.012	30109.5
350.387	32089.7
353.761	34993.3
357.136	39384.4
360.511	45119.3
363.886	52715.8
367.261	61985.4
370.635	72186.1
374.01	82159.2
377.385	89332.7
380.76	91873.7
384.135	89457.6
387.51	84468.2
390.884	79277.9
394.259	74664.7
397.634	69290.1
401.009	62223.6
404.384	55063.6
407.759	49954.4
411.133	47964.8
414.508	49602.8
417.883	54429.8
421.258	62243.3
424.632	70630.3
428.007	73269.7
431.382	67624.1
434.757	58392.7
438.132	50595.5
441.507	46721.4
444.881	46659.6
448.256	47660.3
451.631	45743.6
455.006	41437.8
458.381	38318.9
461.755	37993.1
465.13	40378.7
468.505	44617.9
471.88	49590.5
475.255	53396.4
478.63	53678.6
482.004	50204.7
485.379	45257.3
488.754	41874.2
492.129	40580.5
495.504	40017.7
498.878	38700.6
502.253	36400
505.628	33684.1
509.003	31204.6
512.378	29047.1
515.753	27401.8
519.127	26191.5
522.502	25414.9
525.877	24859.7
529.252	24309.6
532.627	23746.8
536.001	23139.1
539.376	22680
542.751	22241.7
546.126	21772
549.501	21362.7
552.876	21149.6
556.25	21008.7
559.625	21006.6
563	20993.4
566.375	20835
569.75	20793.3
573.125	20697.3
576.499	20658.2
579.874	20683.2
583.249	20816.4
586.624	21055.9
589.999	21447.4
593.373	21772
596.748	22200.4
600.123	22626.6
603.498	22981
606.873	23237.3
610.247	23474.9
613.622	23638
616.997	23638.8
620.372	23624.6
623.747	23735.6
627.121	23972.5
630.496	24344.4
633.871	24835.7
637.246	25508.7
640.621	26223.3
643.996	26954.5
647.37	27855.2
650.745	28929.4
654.12	30319.8
657.495	31896.9
660.87	33582.4
664.245	35463.4
667.619	37677.6
670.994	40055.7
674.369	42399.2
677.744	44783.5
681.119	47014.4
684.493	49201.7
687.868	51259.5
691.243	53647.4
694.618	56804.4
697.993	61357.6
701.367	67303.4
704.742	74672.8
708.117	82852
711.492	90654.8
714.867	97120.6
718.242	101466
721.616	103447
724.991	103775
728.366	103172
731.741	102643
735.116	102288
738.49	101370
741.865	99704.9
745.24	97638.4
748.615	96556.1
751.99	97928.9
755.365	102153
758.739	108722
762.114	115603
765.489	121312
768.864	123618
772.239	121748
775.614	115751
778.988	106772
782.363	98271.3
785.738	91985
789.113	88205.8
792.487	86650.3
795.862	85574.3
799.237	83971.4
802.612	82162.9
805.987	80057.7
809.362	77670.6
812.736	74075.1
816.111	69802.8
819.486	64480.5
822.861	58599.6
826.236	52612.9
829.611	47227.6
832.985	42336.5
836.36	38107.5
839.735	34480.8
843.11	31488.6
846.485	28716.7
849.859	26352.4
853.234	24384.6
856.609	22677.9
859.984	21195.4
863.359	19885.5
866.734	18748.5
870.108	17743.8
873.483	16941
876.858	16204.8
880.233	15596.9
883.608	15021.3
886.982	14536.3
890.357	14135
893.732	13677.9
897.107	13279.2
900.482	12904.6
903.856	12592.1
907.231	12223.3
910.606	11871.5
913.981	11524.7
917.356	11137.4
920.731	10760.8
924.105	10369.5
927.48	9902.3
930.855	9521.19
934.23	9084.58
937.605	8683.78
940.98	8323.13
944.354	7967.33
947.729	7654.86
951.104	7313.52
954.479	7076.62
957.854	6800.65
961.228	6538.27
964.603	6307.05
967.978	6112.75
971.353	5936.43
974.728	5756.91
978.102	5619.91
981.477	5473.15
984.852	5343.67
988.227	5198.9
991.602	5070.97
994.977	4970.18
998.351	4876.63
1001.73	4753.94
1005.1	4660.65
1008.48	4558.24
1011.85	4479.66
1015.23	4395.51
1018.6	4291.74
1021.98	4232.78
1025.35	4144.28
1028.72	4061.14
1032.1	3975.12
1035.47	3918.73
1038.85	3830.76
1042.22	3752.27
1045.6	3717.51
1048.97	3640.47
1052.35	3559.12
1055.72	3524.23
1059.1	3470.26
1062.47	3417.95
1065.85	3362.97
1069.22	3335.04
1072.6	3305.54
1075.97	3284.13
1079.35	3235.7
1082.72	3215.39
1086.1	3200.21
1089.47	3156.48
1092.85	3141.5
1096.22	3130.98
1099.6	3101.22
1102.97	3088.54
1106.35	3059.79
1109.72	3048.03
1113.1	3017.66
1116.47	2989.66
1119.85	2964.14
1123.22	2945.56
1126.59	2888.37
1129.97	2850.43
1133.34	2828.43
1136.72	2769.75
1140.09	2700.82
1143.47	2634.82
1146.84	2587.14
1150.22	2517.1
1153.59	2472.91
1156.97	2417.47
1160.34	2366.2
1163.72	2305.82
1167.09	2274.94
1170.47	2222.62
1173.84	2190.1
1177.22	2151.64
1180.59	2099.74
1183.97	2063.92
1187.34	2038.68
1190.72	2113.02
1194.09	2004.7
1197.47	1947.95
1200.84	1942.36
1204.21	1916.01
1207.59	1887.43
1210.96	1878.46
1214.34	1849.54
1217.71	1826.27
1221.09	1821.85
1224.46	1804.26
1227.84	1784.81
1231.21	1769.91
1234.59	1759.27
1237.96	1754.01
1241.34	1728.22
1244.71	1712.33
1248.09	1699.83
1251.46	1692.3
1254.84	1662.64
1258.21	1647.29
1261.59	1643.78
1264.96	1623.39
1268.34	1618.87
1271.71	1601.72
1275.09	1582.08
1278.46	1571.95
1281.84	1573.41
1285.21	1574.07
1288.59	1553.07
1291.96	1548.38
1295.34	1555.76
1298.71	1540.47
1302.09	1549.82
