Measurement: Raman, 780 nm, unoriented, Raman Data RAW
Mineral: Fergusonite-(Ce)-beta
Rruff sample: R080102
Ideal chemistry: Ce^3+^Nb^5+^O_4_
Locality: Amherst County, Virginia, USA
Source: Michael Scott
Description: Tan to light brown colored fragment from metamict sample R070300, after heating at T = 1000 C for 20 hours
Raman shift (cm-1)	intensity
93.3011	0
96.6759	4996.38
100.051	5060.24
103.425	5082.24
106.8	5241.29
110.175	5447.74
113.55	5710.54
116.925	5965.92
120.3	6187.76
123.674	6368.42
127.049	6536.21
130.424	6707.19
133.799	6871.18
137.174	7048.26
140.549	7266.54
143.923	7526.61
147.298	7786.39
150.673	7999.39
154.048	8131.52
157.423	8154.22
160.798	8083.11
164.172	7933.01
167.547	7764.9
170.922	7603.19
174.297	7479.02
177.672	7397.02
181.046	7385.56
184.421	7426.53
187.796	7528.69
191.171	7679.21
194.546	7863.94
197.921	8055.17
201.295	8222.87
204.67	8363.58
208.045	8440.17
211.42	8452.52
214.795	8396.81
218.169	8330.21
221.544	8234.26
224.919	8129.89
228.294	8002.84
231.669	7830.26
235.043	7626.02
238.418	7365.17
241.793	7113.62
245.168	6904.2
248.543	6743.4
251.918	6634.34
255.292	6558.41
258.667	6529.77
262.042	6520.41
265.417	6544.88
268.792	6552.74
272.166	6602.31
275.541	6645.8
278.916	6715.19
282.291	6781.99
285.666	6863.61
289.041	6940.16
292.415	7025.64
295.79	7134.27
299.165	7294.4
302.54	7505.17
305.915	7748.3
309.289	8063.01
312.664	8441.6
316.039	8844.89
319.414	9247.94
322.789	9580.7
326.164	9762.76
329.538	9791.56
332.913	9686.78
336.288	9482.86
339.663	9216.98
343.038	8980.63
346.413	8828.95
349.787	8791.25
353.162	8799.22
356.537	8797.03
359.912	8801.93
363.287	8795.36
366.661	8765.81
370.036	8708.32
373.411	8643.54
376.786	8522.03
380.161	8414.99
383.536	8257.22
386.91	8112.31
390.285	7957.49
393.66	7846.62
397.035	7763.21
400.41	7701.52
403.784	7648.97
407.159	7603.52
410.534	7569.15
413.909	7506.25
417.284	7423.94
420.659	7323.02
424.033	7267.99
427.408	7236.57
430.783	7266.91
434.158	7359.61
437.533	7467.8
440.907	7557.06
444.282	7599.06
447.657	7566.94
451.032	7429.33
454.407	7207.61
457.781	6908.99
461.156	6606.04
464.531	6319.11
467.906	6059.15
471.281	5845.23
474.656	5691.86
478.03	5563.56
481.405	5501.08
484.78	5459.75
488.155	5429.74
491.53	5430.45
494.904	5429.39
498.279	5465.17
501.654	5532.06
505.029	5589.14
508.404	5665.63
511.779	5735.39
515.153	5805.01
518.528	5875.19
521.903	5959.93
525.278	6049.2
528.653	6123.86
532.028	6183.51
535.402	6213.39
538.777	6260.9
542.152	6314.17
545.527	6378.27
548.902	6441.08
552.276	6508.12
555.651	6585.77
559.026	6639.93
562.401	6673.64
565.776	6694.53
569.15	6690.37
572.525	6630.44
575.9	6542.14
579.275	6433
582.65	6281.17
586.025	6126.01
589.399	5995.48
592.774	5872.09
596.149	5762.75
599.524	5680.05
602.899	5583.92
606.274	5499.42
609.648	5383.48
613.023	5275.41
616.398	5136.73
619.773	5000.94
623.148	4870.07
626.523	4737.57
629.897	4609.28
633.272	4477.43
636.647	4388.83
640.022	4270.45
643.396	4167.06
646.771	4057.82
650.146	3951.18
653.521	3839.17
656.896	3714.88
660.271	3589.74
663.645	3467.34
667.02	3344.82
670.395	3233.09
673.77	3113.34
677.145	2996.4
680.519	2881.98
683.894	2754.66
687.269	2641.09
690.644	2521.68
694.019	2402.71
697.394	2298.45
700.769	2192.3
704.143	2100.46
707.518	2004.12
710.893	1912.99
714.268	1826.7
717.643	1748.84
721.017	1671.98
724.392	1601.19
727.767	1535.87
731.142	1477.13
734.517	1421.97
737.891	1374.69
741.266	1333.27
744.641	1301.09
748.016	1266.87
751.391	1245.13
754.766	1227.03
758.14	1208.68
761.515	1199.54
764.89	1199.57
768.265	1202.31
771.64	1213.32
775.014	1234.26
778.389	1262.31
781.764	1302.67
785.139	1358.94
788.514	1433.86
791.889	1529.35
795.263	1628.18
798.638	1740.05
802.013	1835.41
805.388	1893.27
808.763	1920.11
812.138	1847.88
815.512	1737.3
818.887	1615.84
822.262	1501.53
825.637	1411.18
829.012	1335.54
832.386	1273.98
835.761	1213.84
839.136	1166.34
842.511	1122.45
845.886	1077.02
849.26	1035.3
852.635	1001.32
856.01	974.345
859.385	957.587
862.76	951.309
866.135	951.124
869.509	943.932
872.884	940.471
876.259	938.999
879.634	929.344
883.009	927.11
886.384	918.7
889.758	907.352
893.133	896.837
896.508	881.094
899.883	872.79
903.258	866.266
906.632	853.851
910.007	852.932
913.382	851.528
916.757	842.756
920.132	835.496
923.506	819.361
926.881	789.281
930.256	761.775
933.631	724.202
937.006	679.955
940.381	642.303
943.755	604.057
947.13	570.464
950.505	541.749
953.88	523.42
957.255	505.915
960.63	493.862
964.004	489.247
967.379	484.733
970.754	486.889
974.129	490.248
977.504	497.292
980.878	505.437
984.253	519.794
987.628	534.305
991.003	557.285
994.378	577.878
997.753	598.962
1001.13	626.193
1004.5	644.207
1007.88	664.226
1011.25	681.656
1014.63	688.418
1018	693.92
1021.38	694.371
1024.75	690.75
1028.13	683.641
1031.5	674.607
1034.88	668.376
1038.25	660.319
1041.62	650.24
1045	639.282
1048.38	626.322
1051.75	611.357
1055.12	592.317
1058.5	567.904
1061.87	541.376
1065.25	514.385
1068.62	485.005
1072	460.543
1075.37	440.293
1078.75	421.544
1082.12	406.127
1085.5	396.446
1088.87	387.022
1092.25	381.661
1095.62	377.719
1099	375.031
1102.37	375.472
1105.75	376.085
1109.12	373.626
1112.5	376.391
1115.87	375.705
1119.25	376.492
1122.62	377.681
1126	379.472
1129.37	380.983
1132.74	382.667
1136.12	385.868
1139.49	387.277
1142.87	392.391
1146.24	395.207
1149.62	397.067
1152.99	404.546
1156.37	407.529
1159.74	412.323
1163.12	417.616
1166.49	423.935
1169.87	430.251
1173.24	436.261
1176.62	442.399
1179.99	448.863
1183.37	454.31
1186.74	461.497
1190.12	467.99
1193.49	474.071
1196.87	482.953
1200.24	491.228
1203.62	502.742
1206.99	513.609
1210.37	521.298
1213.74	535.229
1217.12	543.38
1220.49	553.008
1223.87	566.282
1227.24	578.195
1230.62	591.255
1233.99	603.079
1237.37	615.223
1240.74	632.583
1244.11	659.021
1247.49	659.815
1250.86	675.602
1254.24	692.537
1257.61	714.061
1260.99	735.581
1264.36	760.375
1267.74	789.542
1271.11	818.207
1274.49	855.04
1277.86	889.167
1281.24	932.948
1284.61	981.202
