Measurement: Raman, 532 nm, unoriented, Raman Data RAW
Mineral: Fergusonite-(Ce)-beta
Rruff sample: R070300
Ideal chemistry: Ce^3+^Nb^5+^O_4_
Locality: Amherst County, Virginia, USA
Source: Michael Scott
Description: Dark brown vitreous amorphous fragments, a portion of the sample was heated and is reported in R080102
Raman shift (cm-1)	intensity
144.841	1976.06
148.215	2028.47
151.59	2154.21
154.965	2279.52
158.34	2316.18
161.715	2330.63
165.09	2335.34
168.464	2383.58
171.839	2408.72
175.214	2361.04
178.589	2380.66
181.964	2370.42
185.339	2391.24
188.713	2382.24
192.088	2367.66
195.463	2370.35
198.838	2374.08
202.213	2341.54
205.587	2310.94
208.962	2303.99
212.337	2293.32
215.712	2287.5
219.087	2312.97
222.462	2280.76
225.836	2321.15
229.211	2283.23
232.586	2291.11
235.961	2300.11
239.336	2304.75
242.71	2294.58
246.085	2303.9
249.46	2317.59
252.835	2277.73
256.21	2317.03
259.584	2298.84
262.959	2306.58
266.334	2343.17
269.709	2342.81
273.084	2357.99
276.459	2334.6
279.833	2383.16
283.208	2406.13
286.583	2420.78
289.958	2436.58
293.333	2467.55
296.707	2477.75
300.082	2474.85
303.457	2526.71
306.832	2536.94
310.207	2562.7
313.582	2584.12
316.956	2629.55
320.331	2646.63
323.706	2701.57
327.081	2726.2
330.456	2762.43
333.83	2749.25
337.205	2813.32
340.58	2818.76
343.955	2812.42
347.33	2874.28
350.705	2895.15
354.079	2939.93
357.454	2969.98
360.829	2964.29
364.204	2992.81
367.579	3019.81
370.954	3033.27
374.328	3072.02
377.703	3063.61
381.078	3092.38
384.453	3143.03
387.828	3128.22
391.202	3145.57
394.577	3151.97
397.952	3172.63
401.327	3149.81
404.702	3170.29
408.077	3163.13
411.451	3194.97
414.826	3195.4
418.201	3222.13
421.576	3211.46
424.951	3226.89
428.325	3230.38
431.7	3216.87
435.075	3224.86
438.45	3255
441.825	3251.85
445.2	3271.16
448.574	3269.32
451.949	3262.61
455.324	3288.12
458.699	3266.22
462.074	3325.9
465.448	3322.35
468.823	3324.13
472.198	3269.43
475.573	3329.11
478.948	3319.51
482.322	3361.18
485.697	3346.37
489.072	3344.47
492.447	3348.66
495.822	3381.35
499.197	3372.58
502.571	3349.49
505.946	3387.15
509.321	3370.2
512.696	3347.82
516.071	3389.76
519.446	3362.3
522.82	3326.61
526.195	3373.94
529.57	3354.24
532.945	3346.62
536.32	3346.67
539.694	3324.6
543.069	3345.67
546.444	3345.08
549.819	3333.57
553.194	3293.7
556.568	3315.18
559.943	3299.31
563.318	3331.38
566.693	3318.38
570.068	3343.32
573.443	3340.92
576.817	3300.43
580.192	3354.57
583.567	3290.12
586.942	3283.64
590.317	3305.6
593.692	3249.41
597.066	3305.73
600.441	3290.48
603.816	3261.36
607.191	3287.14
610.566	3290.77
613.94	3235.28
617.315	3259.25
620.69	3233.51
624.065	3236.87
627.44	3211.06
630.814	3235.65
634.189	3203.76
637.564	3183.95
640.939	3188.93
644.314	3195.55
647.689	3159.27
651.063	3160.27
654.438	3157.87
657.813	3157.27
661.188	3126.71
664.563	3174.55
667.938	3157.12
671.312	3174.28
674.687	3152.68
678.062	3173.79
681.437	3158.72
684.812	3147.34
688.186	3164.49
691.561	3209.74
694.936	3184.5
698.311	3213.59
701.686	3224.15
705.061	3250.87
708.435	3266.28
711.81	3289.31
715.185	3275.49
718.56	3314.19
721.935	3323.13
725.309	3342.51
728.684	3382.76
732.059	3413.7
735.434	3463.77
738.809	3505.48
742.183	3522.72
745.558	3526.6
748.933	3580.48
752.308	3636.89
755.683	3640.34
759.058	3685.2
762.432	3737.59
765.807	3720.01
769.182	3775.95
772.557	3850.69
775.932	3890.26
779.307	3929.19
782.681	3928.83
786.056	3944.84
789.431	3939.14
792.806	3965.09
796.181	3951.24
799.555	3974.89
802.93	4006.9
806.305	3955.35
809.68	3919.31
813.055	3873.08
816.429	3844.27
819.804	3864.42
823.179	3790.36
826.554	3759.43
829.929	3671.18
833.304	3589.19
836.678	3581.11
840.053	3493.61
843.428	3392.86
846.803	3344.95
850.178	3290.42
853.553	3185.64
856.927	3080.45
860.302	3038.67
863.677	2937.81
867.052	2894.95
870.427	2812.17
873.801	2718.32
877.176	2689.42
880.551	2580.74
883.926	2529.42
887.301	2462.29
890.676	2395.77
894.05	2323.02
897.425	2273.59
900.8	2212.48
904.175	2122.81
907.55	2107.27
910.924	2057.53
914.299	1984.2
917.674	1952.65
921.049	1894.22
924.424	1845.1
927.798	1816.99
931.173	1764.31
934.548	1718.54
937.923	1672.1
941.298	1632.08
944.673	1624.41
948.047	1576.08
951.422	1582.64
954.797	1538.56
958.172	1509.58
961.547	1486.67
964.922	1446.83
968.296	1431.12
971.671	1423.27
975.046	1357.51
978.421	1346.99
981.796	1329.12
985.17	1328.73
988.545	1285.29
991.92	1286.25
995.295	1256.23
998.67	1254.36
1002.04	1216.62
1005.42	1195.29
1008.79	1194.29
1012.17	1159.87
1015.54	1130.26
1018.92	1131.74
1022.29	1119.49
1025.67	1116.53
1029.04	1106.39
1032.42	1100.06
1035.79	1077.14
1039.17	1065.1
1042.54	1051.89
1045.92	1045.69
1049.29	1016.68
1052.67	1007.09
1056.04	1020.47
1059.42	979.816
1062.79	989.101
1066.17	995.234
1069.54	974.698
1072.92	978.729
1076.29	972.331
1079.66	953.473
1083.04	964.228
1086.41	952.598
1089.79	926.308
1093.16	933.789
1096.54	927.334
1099.91	956.418
1103.29	936.383
1106.66	928.495
1110.04	929.331
1113.41	915.344
1116.79	918.396
1120.16	907.99
1123.54	894.711
1126.91	892.428
1130.29	905.149
1133.66	888.54
1137.04	893.45
1140.41	876.455
1143.79	880.76
1147.16	867.917
1150.54	896.981
1153.91	879.824
1157.29	897.571
1160.66	865.978
1164.04	882.675
1167.41	889.693
1170.79	878.795
1174.16	889.829
1177.54	885.286
1180.91	884.194
1184.29	861.529
1187.66	880.581
1191.03	861.435
1194.41	881.089
1197.78	846.118
1201.16	860.023
1204.53	852.585
1207.91	873.171
1211.28	884.026
1214.66	883.692
1218.03	880.904
1221.41	890.36
1224.78	870.915
1228.16	878.298
1231.53	887.509
1234.91	906.27
1238.28	906.315
1241.66	880.122
1245.03	875.879
1248.41	866.994
1251.78	877.841
1255.16	892.819
1258.53	893.561
1261.91	905.946
1265.28	897.248
1268.65	916.369
1272.03	902.335
1275.4	912.615
1278.78	918.303
1282.15	933.764
1285.53	912.788
1288.9	948.801
1292.28	901.974
1295.65	920.669
1299.03	939.326
1302.4	932.664
1305.78	927.402
1309.15	933.096
