Measurement: Raman, 780 nm, unoriented, Raman Data RAW
Mineral: Fergusonite-(Y)-beta
Rruff sample: R070600
Ideal chemistry: Y^3+^Nb^5+^O_4_
Locality: Arendal, Aust-Agder, Norway
Source: James Shigley
Description: Gray-brown to black vitreous, results for the heated sample are given in R080103
Raman shift (cm-1)	intensity
88.4108	12465.3
91.3035	20280.5
94.1962	32754
97.0889	50117.1
99.9816	70074
102.874	85197.7
105.767	85868.3
108.66	86192
111.552	87809.3
114.445	90215.2
117.338	92486.6
120.231	94773.6
123.123	97203.6
126.016	99610.5
128.909	101909
131.801	104212
134.694	106351
137.587	108860
140.479	110892
143.372	112803
146.265	114922
149.157	117231
152.05	119315
154.943	120944
157.836	122880
160.728	124570
163.621	126250
166.514	127980
169.406	128392
172.299	129529
175.192	130045
178.084	130474
180.977	130142
183.87	129529
186.763	129003
189.655	129515
192.548	130101
195.441	131462
198.333	133199
201.226	135636
204.119	138721
207.012	142520
209.904	147190
212.797	152664
215.69	159292
218.582	166706
221.475	174981
224.368	183336
227.261	192384
230.153	202000
233.046	211882
235.939	221576
238.831	230764
241.724	239827
244.617	246616
247.509	252123
250.402	255899
253.295	257593
256.187	257230
259.08	255177
261.973	251701
264.865	247067
267.758	242312
270.651	236997
273.544	232460
276.436	229216
279.329	226607
282.222	224884
285.114	224894
288.007	225852
290.9	226940
293.793	229451
296.685	231452
299.578	232348
302.471	234592
305.363	236524
308.256	237545
311.149	237839
314.041	237634
316.934	236343
319.827	233265
322.719	230270
325.612	226252
328.505	221747
331.398	216928
334.29	212389
337.183	207249
340.076	202412
342.969	198034
345.861	194124
348.754	190066
351.647	186111
354.539	182507
357.432	178237
360.325	174851
363.217	171229
366.11	167410
369.003	163694
371.896	159806
374.788	155944
377.681	152655
380.574	149822
383.466	146879
386.359	144348
389.252	142126
392.144	140079
395.037	138746
397.93	136782
400.822	135542
403.715	133923
406.608	132414
409.501	130571
412.393	128408
415.286	125773
418.179	122819
421.071	120075
423.964	117517
426.857	114664
429.75	111764
432.642	109417
435.535	106913
438.428	104415
441.32	102234
444.213	99684.8
447.106	97332.4
449.998	95205.2
452.891	92729.8
455.784	90783
458.676	88700.2
461.569	86523
464.462	84595.6
467.355	82889.1
470.247	81157.1
473.14	79596
476.033	78203.9
478.925	76716.2
481.818	75639.5
484.711	74091.7
487.603	72825.9
490.496	71446.3
493.389	70291.9
496.282	69096.9
499.174	67952.2
502.067	66933.3
504.96	66061.5
507.852	65598.1
510.745	64903
513.638	64221.2
516.53	63712.7
519.423	62790.4
522.316	61904.2
525.209	61461.5
528.101	60726.6
530.994	60027.9
533.887	59642.2
536.779	59239.3
539.672	59192.2
542.565	58741.4
545.457	58579
548.35	58637.8
551.243	59163.9
554.136	59335.4
557.028	59835.7
559.921	59971.4
562.814	60630.2
565.706	60832.6
568.599	61214.1
571.492	61208.9
574.385	61253.4
577.277	61653
580.17	61416
583.063	60938.5
585.955	60425.6
588.848	59903.2
591.741	59236.6
594.633	58568.5
597.526	57825.9
600.419	56358.8
603.312	55343.1
606.204	53895.2
609.097	52183.9
611.99	50559.8
614.882	48729.9
617.775	47095.6
620.668	45279.8
623.56	43472.7
626.453	41709.1
629.346	40240.7
632.239	38710.3
635.131	37032
638.024	35701.7
640.917	34880.7
643.809	33285.8
646.702	32210.4
649.595	31178.6
652.487	30016.7
655.38	29294.9
658.273	28536.2
661.165	27691.2
664.058	26873.2
666.951	26130.1
669.844	25320.5
672.736	24891.8
675.629	24317.8
678.522	24011.7
681.414	23409.1
684.307	23105.6
687.2	22655.4
690.092	22295
692.985	22013.2
695.878	21815.8
698.771	21457.8
701.663	21233.5
704.556	20972
707.449	20722.7
710.341	20466.8
713.234	20323.2
716.127	20198.8
719.019	19964
721.912	19789.2
724.805	19549.6
727.698	19411.9
730.59	19263.5
733.483	19032.3
736.376	18856.3
739.268	18548.2
742.161	18393.5
745.054	18192
747.947	17988.2
750.839	17850.9
753.732	17633.8
756.625	17450.5
759.517	17256.6
762.41	17083.2
765.303	17042
768.195	16912.2
771.088	16691.7
773.981	16551.9
776.874	16405.6
779.766	16253.7
782.659	16157.2
785.552	16042.9
788.444	15715.5
791.337	15455.6
794.23	15307.4
797.122	15098.9
800.015	14984.3
802.908	14578.6
805.801	14396.4
808.693	14208.6
811.586	13966.4
814.479	13620.6
817.371	13440.1
820.264	13289.9
823.157	13044.8
826.049	12790
828.942	12534.9
831.835	12221.7
834.727	11984
837.62	11834.3
840.513	11545.3
843.406	11299.9
846.298	11085.2
849.191	10938.2
852.084	10644.6
854.976	10444
857.869	10169.6
860.762	9945.65
863.654	9718.07
866.547	9583.78
869.44	9338.45
872.333	9109.23
875.225	8951.58
878.118	8674.17
881.011	8532.98
883.903	8267.94
886.796	8096.04
889.689	7911.6
892.582	7982.78
895.474	7518.97
898.367	7257.67
901.26	7162.11
904.152	7095.59
907.045	6740.89
909.938	6598.74
912.83	6477.56
915.723	6248.96
918.616	6054.85
921.509	5937.13
924.401	5794.58
927.294	5612.04
930.187	5533.22
933.079	5444.73
935.972	5307.75
938.865	5196.09
941.757	5157.8
944.65	5029.81
947.543	4969.07
950.436	4921.19
953.328	4846.25
956.221	4806.13
959.114	4736.41
962.006	4704.5
964.899	4624.5
967.792	4591.36
970.684	4592.83
973.577	4545.64
976.47	4557.91
979.362	4591.48
982.255	4640.44
985.148	4905.55
988.041	5322.32
990.933	6307.97
993.826	7951.86
996.719	9670.55
999.611	8313.69
1002.5	5711.56
1005.4	4666.33
1008.29	4242.9
1011.18	4105.82
1014.08	4081.3
1016.97	4153.25
1019.86	4317.99
1022.75	4395.95
1025.65	4210.35
1028.54	4029.33
1031.43	3844.7
1034.32	3824.09
1037.22	3839.26
1040.11	3844.55
1043	3997.39
1045.89	4457.22
1048.79	5280.57
1051.68	6653.52
1054.57	7876.84
1057.46	6946.96
1060.36	5276.35
1063.25	4379.96
1066.14	4028.93
1069.04	3849.73
1071.93	3787.05
1074.82	3746.86
1077.71	3709.22
1080.61	3687.87
1083.5	3686.97
1086.39	3654.67
1089.29	3722.13
1092.18	3699.27
1095.07	3639.84
1097.96	3738.57
1100.86	3672.33
1103.75	3636.49
1106.64	3679.84
1109.53	3651.53
1112.43	3687.5
1115.32	3553.36
1118.21	3685
1121.11	3682.81
1124	3688.91
1126.89	3684.01
1129.78	3658.72
1132.68	3904.54
1135.57	3779.17
1138.46	3771.26
1141.35	3983.14
1144.25	3878.64
1147.14	3970.57
1150.03	4019.91
1152.92	4044.84
1155.82	4168.37
1158.71	4194.98
1161.6	4280.73
