Measurement: Raman, 532 nm, unoriented, Raman Data Processed
Mineral: Ferronordite-(Ce)
Rruff sample: R130528
Ideal chemistry: Na_3_SrCe^3+^Fe^2+^Si_6_O_17_
Locality: Bolshoi Punkaruaiv Mt, Lovozero Massif, Kola Peninsula, Murmanskaja Oblast', Northern Region, Russia
Source: Rock Currier
Description: Colorless to pale brownish tabular or platy crystals in rosette-like aggregates, associated with ussingite.
Measured chemistry: Na_3.06_(Sr_0.90_Ca_0.08_Ba_0.02_)_Σ=1.00_(Ce_0.50_La_0.47_Nd_0.06_Pr_0.04_)_Σ=1.07_(Fe_0.34_Zn_0.30_Mn_0.27_Mg_0.06_)_Σ=0.97_Si_5.95_O_17_
Raman shift (cm-1)	intensity
118.028	0
121.403	14.4707
124.778	7.36517
128.152	33.1833
131.527	131.511
134.902	196.596
138.277	166.87
141.652	126.361
145.026	108.923
148.401	73.9692
151.776	44.0331
155.151	34.237
158.526	27.5482
161.901	15.9327
165.275	18.2113
168.65	34.7607
172.025	36.0479
175.4	2.34045
178.775	8.52606
182.149	1.28528
185.524	19.3091
188.899	36.9607
192.274	31.205
195.649	33.5196
199.024	50.7877
202.398	65.972
205.773	84.3016
209.148	110.705
212.523	118.936
215.898	87.5684
219.273	63.8871
222.647	48.101
226.022	24.6381
229.397	2.91467
232.772	4.53442
236.147	7.04822
239.521	2.27295
242.896	20.5746
246.271	46.9753
249.646	48.9825
253.021	23.9596
256.396	12.0479
259.77	26.9503
263.145	43.8727
266.52	65.9399
269.895	95.9815
273.27	135.977
276.644	174.112
280.019	224.497
283.394	278.435
286.769	291.791
290.144	249.269
293.519	236.429
296.893	254.388
300.268	266.034
303.643	269.687
307.018	271.64
310.392	246.344
313.767	208.807
317.142	169.335
320.517	141.812
323.892	125.835
327.267	106.422
330.641	90.7091
334.016	83.0922
337.391	64.7367
340.766	51.0195
344.141	37.3635
347.516	24.5508
350.89	9.00067
354.265	1.76892
357.64	2.44257
361.015	0.305359
364.39	4.133
367.764	17.1059
371.139	15.5704
374.514	4.12634
377.889	4.24713
381.264	3.98529
384.639	8.80243
388.013	25.0273
391.388	44.2992
394.763	40.1794
398.138	30.0459
401.513	37.471
404.887	55.9434
408.262	60.5891
411.637	64.5805
415.012	69.5476
418.387	67.6086
421.762	78.9202
425.136	66.8661
428.511	28.453
431.886	9.24323
435.261	0.687439
438.636	2.3031
442.01	0.27301
445.385	16.2845
448.76	34.1835
452.135	63.4057
455.51	100.159
458.885	125.148
462.259	108.73
465.634	90.3948
469.009	71.0835
472.384	57.7882
475.759	40.5166
479.133	27.7439
482.508	19.8656
485.883	8.94873
489.258	12.7744
492.633	18.9586
496.007	24.1464
499.382	30.527
502.757	30.6965
506.132	30.0905
509.507	23.1213
512.882	15.4741
516.256	5.57117
519.631	6.3335
523.006	8.98315
526.381	7.14636
529.756	2.81848
533.13	1.78149
536.505	5.33679
539.88	2.02124
543.255	0.240112
546.63	5.81311
550.005	15.8485
553.379	29.2463
556.754	40.2349
560.129	36.092
563.504	40.3066
566.879	52.8213
570.254	52.6009
573.628	42.2356
577.003	25.5826
580.378	17.6513
583.753	11.9355
587.128	6.80981
590.502	3.95862
593.877	2.22571
597.252	2.20422
600.627	0.366089
604.002	1.17065
607.376	10.6151
610.751	26.3174
614.126	39.9647
617.501	60.3402
620.876	96.9
624.251	167.464
627.625	313.523
631	599.736
634.375	1014.38
637.75	1432.3
641.125	1695.28
644.5	1254.71
647.874	857.273
651.249	797.554
654.624	777.73
657.999	498.347
661.374	263.121
664.748	135.963
668.123	85.3054
671.498	58.1752
674.873	37.0569
678.248	17.2469
681.622	10.6506
684.997	9.08557
688.372	7.04944
691.747	2.78748
695.122	1.27576
698.497	0.106689
701.871	4.52893
705.246	3.30749
708.621	2.16614
711.996	1.49939
715.371	0.049316
718.745	0.66394
722.12	7.05164
725.495	8.66882
728.87	11.8063
732.245	16.598
735.62	21.1465
738.994	25.1726
742.369	22.7334
745.744	21.8165
749.119	31.1913
752.494	38.3464
755.869	48.2165
759.243	69.4985
762.618	103.869
765.993	149.996
769.368	202.649
772.743	239.323
776.117	199.972
779.492	123.678
782.867	72.6028
786.242	42.109
789.617	20.3967
792.991	14.3844
796.366	12.3695
799.741	10.8929
803.116	4.51331
806.491	3.23364
809.865	2.11426
813.24	3.23511
816.615	2.8794
819.99	0.661499
823.365	2.69043
826.74	1.74829
830.114	1.37573
833.489	4.82996
836.864	1.19214
840.239	7.05347
843.614	9.11096
846.989	0.499878
850.363	1.79468
853.738	1.42139
857.113	4.63672
860.488	2.78088
863.863	4.06921
867.237	5.60315
870.612	4.6427
873.987	4.09595
877.362	6.87366
880.737	5.0459
884.111	11.979
887.486	24.2682
890.861	29.8604
894.236	40.4766
897.611	41.3844
900.986	25.851
904.36	13.2014
907.735	7.66931
911.11	0.204712
914.485	2.14978
917.86	3.46594
921.235	8.51331
924.609	22.9051
927.984	52.9772
931.359	99.7588
934.734	164.325
938.109	205.959
941.484	199.455
944.858	159.946
948.233	109.499
951.608	56.286
954.983	17.3461
958.357	2.25525
961.732	4.224
965.107	4.98523
968.482	3.00806
971.857	14.0645
975.232	36.9678
978.606	63.5951
981.981	82.9638
985.356	89.9054
988.731	119.79
992.106	175.293
995.481	295.56
998.855	471.308
1002.23	637.872
1005.61	630.232
1008.98	410.67
1012.36	259.49
1015.73	211.4
1019.1	199.36
1022.48	190.075
1025.85	197.424
1029.23	243.062
1032.6	343.203
1035.98	472.904
1039.35	488.816
1042.73	309.19
1046.1	176.202
1049.48	125.148
1052.85	102.358
1056.23	75.9436
1059.6	42.3828
1062.98	23.4926
1066.35	8.59949
1069.73	4.00952
1073.1	2.94531
1076.48	2.0686
1079.85	1.13806
1083.23	0.297729
1086.6	0.295654
1089.97	4.23401
1093.35	5.42346
1096.72	0.42627
1100.1	7.37439
1103.47	10.2827
1106.85	3.7323
1110.22	8.28308
1113.6	1.203
1116.97	9.78125
1120.35	21.9273
1123.72	22.5421
1127.1	20.5883
1130.47	30.1121
1133.85	31.359
1137.22	37.2019
1140.6	39.696
1143.97	41.3717
1147.35	49.9292
1150.72	47.0429
1154.1	55.1189
1157.47	61.2454
1160.85	63.5702
1164.22	60.8335
1167.6	62.3273
1170.97	71.1514
1174.35	83.9171
1177.72	93.7439
1181.1	93.0529
1184.47	103.728
1187.85	117.451
1191.22	127.799
1194.6	131.362
1197.97	131.456
1201.34	131.412
1204.72	128.75
1208.09	125.77
1211.47	125.922
1214.84	120.09
1218.22	113.846
1221.59	93.1411
1224.97	77.3286
1228.34	45.8402
1231.72	25.4661
1235.09	0.101074
1238.47	6.69788
1241.84	10.0537
1245.22	3.02405
1248.59	18.9279
1251.97	35.0148
1255.34	51.3971
1258.72	70.2051
1262.09	82.8946
1265.47	90.579
1268.84	93.1864
1272.22	72.4133
1275.59	59.8667
1278.96	56.16
1282.34	47.5154
1285.71	35.7744
1289.09	23.5422
1292.46	14.5225
1295.84	7.2301
1299.21	6.40527
