Measurement: Raman, 532 nm, unoriented, Raman Data Processed
Mineral: Ferricopiapite
Rruff sample: R060721
Ideal chemistry: Fe^3+^_2/3_Fe^3+^_4_(S^6+^O_4_)_6_(OH)_2_20H_2_O
Locality: Alcaparrosa mine, near Cerritos Bayos, El Loa Province, Chile
Source: University of Arizona Mineral Museum
Description: Yellow platy crystals associated with parabutlerite
Raman shift (cm-1)	intensity
88.1367	0
91.5115	23.2757
94.8863	23.1968
98.2612	18.9769
101.636	7.05075
105.011	2.74735
108.386	8.15164
111.76	10.1392
115.135	20.8124
118.51	20.4759
121.885	9.62869
125.26	2.51636
128.635	1.0542
132.009	18.1925
135.384	44.3443
138.759	84.3989
142.134	106.475
145.509	124.202
148.883	140.951
152.258	178.352
155.633	212.589
159.008	199.946
162.383	136.965
165.757	77.1415
169.132	42.9235
172.507	18.9557
175.882	4.77582
179.257	11.6157
182.632	5.53668
186.006	34.3971
189.381	75.634
192.756	104.881
196.131	95.7575
199.506	51.8621
202.881	9.72089
206.255	14.6149
209.63	3.26367
213.005	35.8118
216.38	86.0723
219.755	145.214
223.129	197.231
226.504	271.741
229.879	371.748
233.254	496.214
236.629	625.383
240.004	714.218
243.378	770.894
246.753	800.369
250.128	830.081
253.503	887.001
256.878	979.82
260.252	1112.76
263.627	1250.19
267.002	1311.99
270.377	1188.88
273.752	936.458
277.127	691.057
280.501	528.489
283.876	458.644
287.251	457.815
290.626	496.702
294.001	552.539
297.375	602.206
300.75	612.903
304.125	542.342
307.5	414.59
310.875	288.015
314.25	190.114
317.624	123.214
320.999	79.5203
324.374	44.7734
327.749	23.7693
331.124	10.5218
334.498	0.74469
337.873	9.40955
341.248	11.5449
344.623	12.2997
347.998	12.9325
351.373	11.1481
354.747	7.44223
358.122	4.26965
361.497	0.644287
364.872	6.80408
368.247	13.1311
371.621	22.191
374.996	30.5764
378.371	41.9621
381.746	52.7091
385.121	66.0334
388.495	83.2197
391.87	98.0309
395.245	107.537
398.62	114.2
401.995	116.031
405.37	116.881
408.744	118.967
412.119	123.237
415.494	131.516
418.869	141.691
422.244	154.208
425.618	171.386
428.993	198.75
432.368	242.381
435.743	299.047
439.118	375.742
442.493	454.468
445.867	535.914
449.242	586.651
452.617	617.058
455.992	647.591
459.367	722.048
462.741	863.677
466.116	1056.51
469.491	1269.85
472.866	1445.74
476.241	1552.08
479.615	1550.48
482.99	1382.02
486.365	1075.73
489.74	749.653
493.115	498.728
496.49	326.056
499.864	209.894
503.239	137.805
506.614	86.5424
509.989	56.2889
513.364	32.2069
516.739	19.2474
520.113	8.98746
523.488	1.58768
526.863	8.46417
530.238	10.2258
533.613	11.5707
536.987	10.5482
540.362	4.43872
543.737	0.94873
547.112	7.34769
550.487	12.4019
553.861	11.1421
557.236	14.382
560.611	4.65518
563.986	0.323822
567.361	1.13034
570.736	0.590668
574.11	2.40396
577.485	12.591
580.86	31.4072
584.235	49.1978
587.61	76.0955
590.985	106.239
594.359	142.212
597.734	176.108
601.109	199.255
604.484	223.022
607.859	268.658
611.233	315.655
614.608	303.572
617.983	221.371
621.358	145.106
624.733	102.375
628.107	82.9274
631.482	70.0873
634.857	61.6337
638.232	51.2303
641.607	41.0696
644.982	29.8855
648.356	17.8211
651.731	10.6058
655.106	4.98746
658.481	3.60467
661.856	2.51279
665.231	0.496582
668.605	1.89194
671.98	0.685059
675.355	0.436142
678.73	0.649567
682.105	0.664963
685.479	1.30631
688.854	2.29433
692.229	1.2251
695.604	3.54922
698.979	2.57512
702.354	2.36851
705.728	3.04067
709.103	4.86954
712.478	4.70259
715.853	6.80597
719.227	6.51816
722.602	9.20931
725.977	11.8129
729.352	13.5494
732.727	15.3387
736.102	19.9339
739.476	20.4129
742.851	21.3227
746.226	21.2472
749.601	21.9992
752.976	19.177
756.351	18.4274
759.725	17.0791
763.1	14.5211
766.475	12.5483
769.85	10.2376
773.225	7.28502
776.599	5.343
779.974	3.59975
783.349	1.9465
786.724	0.48909
790.099	0.397995
793.473	1.52402
796.848	0.275833
800.223	0.652069
803.598	0.389999
806.973	1.43771
810.348	3.21693
813.722	5.29938
817.097	7.00809
820.472	9.62955
823.847	11.9251
827.222	12.4147
830.597	14.7375
833.971	14.4217
837.346	15.1598
840.721	14.1033
844.096	12.1131
847.471	12.087
850.846	9.35501
854.22	6.46916
857.595	7.22833
860.97	6.65436
864.345	6.6044
867.72	4.85045
871.094	4.7014
874.469	4.40959
877.844	4.29106
881.219	3.31421
884.594	3.6826
887.968	1.96184
891.343	2.49451
894.718	1.34767
898.093	1.87695
901.468	1.28023
904.842	1.33475
908.217	0.171204
911.592	0.445282
914.967	0.123093
918.342	0.418076
921.717	1.68538
925.091	0.336746
928.466	1.29384
931.841	0.596619
935.216	0.014572
938.591	2.0865
941.966	4.05839
945.34	7.63033
948.715	12.937
952.09	19.4747
955.465	29.0286
958.84	42.4606
962.214	61.4695
965.589	88.2866
968.964	128.316
972.339	191.477
975.714	285.548
979.088	415.877
982.463	580.301
985.838	751.81
989.213	890.674
992.588	963.245
995.963	985.447
999.337	951.386
1002.71	917.114
1006.09	925.149
1009.46	898.608
1012.84	953.233
1016.21	1114.34
1019.59	1149.71
1022.96	838.803
1026.34	509.781
1029.71	300.894
1033.09	179.316
1036.46	103.406
1039.84	61.6878
1043.21	34.2193
1046.59	15.2313
1049.96	4.97212
1053.33	3.86269
1056.71	7.82994
1060.08	8.06204
1063.46	3.83485
1066.83	0.536606
1070.21	8.83601
1073.58	23.4965
1076.96	41.8244
1080.33	66.4801
1083.71	97.8876
1087.08	146.937
1090.46	206.794
1093.83	283.588
1097.21	373.544
1100.58	467.412
1103.96	544.666
1107.33	594.315
1110.71	610.605
1114.08	605.347
1117.46	593.929
1120.83	577.254
1124.21	529.234
1127.58	440.555
1130.95	338.509
1134.33	261.376
1137.7	216.1
1141.08	192.318
1144.45	175.517
1147.83	157.351
1151.2	132.775
1154.58	103.525
1157.95	74.1546
1161.33	53.0499
1164.7	39.8006
1168.08	28.3705
1171.45	18.7685
1174.83	10.8984
1178.2	3.85628
1181.58	2.60968
1184.95	2.25978
1188.33	4.20732
1191.7	7.98413
1195.08	10.8754
1198.45	10.4239
1201.83	12.3857
1205.2	11.9115
1208.58	13.2989
1211.95	12.0583
1215.33	10.4675
1218.7	13.9386
1222.08	6.29716
1225.45	4.95729
1228.83	1.67323
1232.2	0.114014
1235.58	1.54143
1238.95	3.56753
1242.32	4.75952
1245.7	2.2832
1249.07	3.54906
1252.45	2.62677
1255.82	6.85208
1259.2	9.80771
1262.57	13.4287
1265.95	17.8947
1269.32	20.1533
1272.7	14.9615
1276.07	12.9916
1279.45	11.1695
1282.82	9.53622
1286.2	7.49505
1289.57	4.57501
1292.95	3.56809
1296.32	1.11861
1299.7	0.836166
