Measurement: Raman, 780 nm, unoriented, Raman Data Processed
Mineral: Ferrobobfergusonite
Rruff sample: R140993
Ideal chemistry: Na_2_Fe^2+^_5_Fe^3+^Al(PO_4_)_6_
Locality: Victory mine, Custer, Custer District, Custer County, South Dakota, USA
Source: Rock Currier
Description: Dark green aggregates of blocky crystals, associated with quartz and muscovite. Four different dark green minerals are found: schorl, fillowite, ferrobobfergusonite, and ferrowyllieite. Light green crystals are arrojadite. This is the type sample
Measured chemistry: (Na_1.73_Ca_0.13_)(Fe^2+^_3.51_Mn_0.89_Mg_0.43_)(Fe^3+^_0.77_Al_0.23_)Al(P_1.01_O_4_)_6_
Raman shift (cm-1)	intensity
208.594	-0.0696668
211.486	0.0699198
214.379	0.410763
217.272	0.881103
220.164	1.49972
223.057	2.18944
225.95	3.08283
228.843	5.71457
231.735	4.75281
234.628	6.90674
237.521	7.61856
240.413	8.8902
243.306	8.96573
246.199	7.55405
249.091	8.58023
251.984	5.74524
254.877	5.15454
257.769	5.31531
260.662	4.01257
263.555	3.08084
266.448	1.63928
269.34	0.755005
272.233	0.34726
275.126	0.629761
278.018	1.01779
280.911	1.56007
283.804	1.40901
286.697	0.348999
289.589	0.739288
292.482	1.50711
295.375	0.786301
298.267	1.55496
301.16	1.42864
304.053	1.80951
306.945	1.90373
309.838	1.38971
312.731	1.7972
315.623	1.49141
318.516	1.48679
321.409	1.68401
324.302	1.70779
327.194	1.48477
330.087	1.65819
332.98	1.40765
335.873	1.85661
338.765	2.05667
341.658	1.15254
344.551	1.7211
347.443	2.43928
350.336	2.13817
353.229	3.23663
356.121	2.84346
359.014	3.13876
361.907	3.39742
364.8	2.78619
367.692	3.91484
370.585	2.9707
373.478	3.1411
376.37	2.69261
379.263	1.62563
382.156	1.77502
385.048	1.21555
387.941	1.29192
390.834	0.559067
393.726	1.34183
396.619	0.156815
399.512	0.031921
402.405	1.40095
405.297	0.297119
408.19	0.709427
411.083	0.902756
413.975	0.418243
416.868	0.0544058
419.761	0.541483
422.654	1.07893
425.546	1.00501
428.439	0.917811
431.332	1.50331
434.224	1.22103
437.117	1.98252
440.01	2.78961
442.902	3.04306
445.795	3.28448
448.688	4.1351
451.58	4.37755
454.473	4.70348
457.366	5.8979
460.259	5.82606
463.151	6.91386
466.044	7.29793
468.937	8.21876
471.829	8.73206
474.722	8.77234
477.615	9.09645
480.507	8.82269
483.4	7.98247
486.293	7.77246
489.186	7.43097
492.078	7.18407
494.971	5.77257
497.864	5.58702
500.756	5.10023
503.649	5.14684
506.542	3.86585
509.435	3.30662
512.327	2.6424
515.22	2.16409
518.112	1.35451
521.005	0.510321
523.898	0.755838
526.791	1.01936
529.683	0.701617
532.576	0.344232
535.469	0.568439
538.361	0.156866
541.254	0.138351
544.147	1.14961
547.04	1.94286
549.932	2.43236
552.825	2.10878
555.718	3.04002
558.61	3.56543
561.503	4.79056
564.396	4.4687
567.288	3.24922
570.181	3.74383
573.074	4.47412
575.967	5.11464
578.859	5.03375
581.752	5.31728
584.645	6.22981
587.537	6.72832
590.43	6.46088
593.323	7.45079
596.216	7.60393
599.108	8.30908
602.001	8.22147
604.894	8.40855
607.786	7.96495
610.679	7.49219
613.572	8.3102
616.464	7.49326
619.357	7.42918
622.25	6.95415
625.143	6.34609
628.035	5.93944
630.928	5.09584
633.821	4.56247
636.713	4.00221
639.606	4.27907
642.499	2.53458
645.391	2.10698
648.284	1.83897
651.177	2.15324
654.069	1.88121
656.962	1.86276
659.855	1.88225
662.748	0.629532
665.64	1.4283
668.533	1.06657
671.426	0.139145
674.318	0.352936
677.211	1.15662
680.104	1.19717
682.996	0.055756
685.889	0.918015
688.782	0.300583
691.675	0.405029
694.567	0.233032
697.46	0.694748
700.353	0.00322
703.245	0.864456
706.138	0.631622
709.031	0.280899
711.923	1.13234
714.816	0.875717
717.709	1.04022
720.602	0.624222
723.494	0.891968
726.387	0.851425
729.28	0.002533
732.172	1.35236
735.065	0.312637
737.958	1.00327
740.851	1.05147
743.743	1.23027
746.636	1.20461
749.529	1.65559
752.421	0.788406
755.314	1.07333
758.207	0.562592
761.099	0.996689
763.992	0.589279
766.885	1.00798
769.778	1.30295
772.67	0.493866
775.563	0.625687
778.456	0.915558
781.348	0.918686
784.241	0.477692
787.134	0.879974
790.026	0.800644
792.919	1.09264
795.812	0.792068
798.705	0.523315
801.597	0.775635
804.49	1.51495
807.383	0.328598
810.275	0.585022
813.168	0.799759
816.061	0.875565
818.953	0.117249
821.846	0.794525
824.739	1.23412
827.631	0.77449
830.524	0.08844
833.417	1.11008
836.31	1.14647
839.202	1.46983
842.095	1.73407
844.988	1.31453
847.88	1.02989
850.773	1.08472
853.666	1.77617
856.558	1.04367
859.451	0.562607
862.344	0.936386
865.237	0.698013
868.129	0.563753
871.022	0.682695
873.915	0.830145
876.807	0.337723
879.7	0.340347
882.593	0.064743
885.486	0.329018
888.378	0.577988
891.271	1.01901
894.164	0.610619
897.056	0.199951
899.949	0.947006
902.842	0.7827
905.734	0.488617
908.627	0.774231
911.52	0.695694
914.413	1.2399
917.305	1.07242
920.198	0.860962
923.091	1.23802
925.983	1.75749
928.876	1.44275
931.769	0.479156
934.661	2.02974
937.554	2.6266
940.447	2.02773
943.34	1.95123
946.232	2.5796
949.125	2.02739
952.018	2.60672
954.91	3.21683
957.803	3.69524
960.696	4.77072
963.588	6.10931
966.481	5.86346
969.374	7.25334
972.266	8.41684
975.159	9.22378
978.052	10.79
980.945	11.5931
983.837	11.6773
986.73	11.6961
989.623	10.66
992.515	10.0118
995.408	8.89507
998.301	9.03972
1001.19	6.63559
1004.09	6.24077
1006.98	4.93854
1009.87	3.82796
1012.76	3.89226
1015.66	2.43546
1018.55	1.78667
1021.44	1.65613
1024.34	1.1826
1027.23	1.16402
1030.12	0.344589
1033.01	0.888351
1035.91	0.577133
1038.8	0.305786
1041.69	0.174927
1044.58	0.154678
1047.48	0.110703
1050.37	0.081573
1053.26	0.41217
1056.15	0.223801
1059.05	0.416275
1061.94	0.710907
1064.83	1.59672
1067.73	1.31766
1070.62	2.11339
1073.51	2.46494
1076.4	2.37529
1079.3	3.80371
1082.19	3.8205
1085.08	3.96342
1087.97	3.77339
1090.87	4.26416
1093.76	3.69498
1096.65	3.44365
1099.55	3.57846
1102.44	3.41826
1105.33	2.77965
1108.22	2.843
1111.12	3.03926
1114.01	2.61691
1116.9	2.15642
1119.79	2.40601
1122.69	2.20783
1125.58	2.40945
1128.47	1.47765
1131.37	2.0796
1134.26	1.20734
1137.15	1.25908
1140.04	1.21036
1142.94	0.793145
1145.83	1.11785
1148.72	1.10212
1151.61	1.07948
1154.51	0.825741
1157.4	0.895185
1160.29	0.629685
1163.18	0.846561
1166.08	0.950805
1168.97	1.16592
1171.86	0.521118
1174.76	0.821129
1177.65	0.82354
1180.54	0.527458
1183.43	0.399803
1186.33	0.21402
1189.22	0.454308
1192.11	0.494301
1195.01	0.150864
1197.9	0.180687
1200.79	0.513123
1203.68	0.718376
1206.58	0.572716
1209.47	0.483131
1212.36	0.487315
1215.25	0.773486
1218.15	0.575847
1221.04	0.665833
1223.93	0.661751
1226.82	0.478821
1229.72	0.570221
1232.61	1.37345
1235.5	0.825752
1238.39	1.54486
1241.29	1.7295
1244.18	1.28361
1247.07	0.245506
1249.97	0.381126
1252.86	1.08111
1255.75	1.39296
1258.64	0.785561
1261.54	1.05605
1264.43	0.929741
1267.32	0.996468
1270.21	1.29187
1273.11	0.591347
1276	0.900597
1278.89	0.263908
1281.79	0.091843
