Measurement: Raman, 785 nm, unoriented, Raman Data RAW
Mineral: Ferriallanite-(Ce)
Rruff sample: R060813
Ideal chemistry: CaCe^3+^Fe^2+^Fe^3+^Al(SiO_4_)(Si_2_O_7_)O(OH)
Locality: Bastnas, Sweden
Source: Michael Scott
Description: Black glassy massive associated with green brochantite and blue osarizawaite
Raman shift (cm-1)	intensity
122.01	811.568
124.902	1413.76
127.795	2461.03
130.688	3378.15
133.581	4001.36
136.473	3880.65
139.366	4296.86
142.259	5538.22
145.151	7428.76
148.044	9143.44
150.937	10075.5
153.829	10337.3
156.722	10197.4
159.615	10533.2
162.508	11212.6
165.4	12176.6
168.293	13086.1
171.186	13562.8
174.078	13944.3
176.971	14135.3
179.864	14340.4
182.757	14802.4
185.649	15265.5
188.542	15747.1
191.435	16059.5
194.327	16532.3
197.22	17045.1
200.113	17419.6
203.005	17779.1
205.898	18042.2
208.791	18112.2
211.684	18325.3
214.576	18421
217.469	18465.4
220.362	18671.5
223.254	18770
226.147	18748.5
229.04	18830.8
231.932	18941.1
234.825	19055.3
237.718	19326.6
240.611	19392.6
243.503	19643.5
246.396	19775.9
249.289	20117.7
252.181	20390.8
255.074	20986.1
257.967	21509.9
260.859	22122.2
263.752	23085.7
266.645	23550.4
269.538	23949.9
272.43	24459.1
275.323	25118
278.216	25904.3
281.108	26949.1
284.001	27579.4
286.894	28213.6
289.786	28812.5
292.679	29166
295.572	29571.5
298.465	30120
301.357	30830.8
304.25	31425
307.143	31920.8
310.035	32322.7
312.928	32608.4
315.821	32799.1
318.713	32937.1
321.606	33130.9
324.499	33408.2
327.392	33635.5
330.284	33580.1
333.177	33463.9
336.07	33185.2
338.962	32836.9
341.855	32511.2
344.748	32320.8
347.64	32315.4
350.533	32078.2
353.426	31902.2
356.319	31479.2
359.211	30997.1
362.104	30468.3
364.997	30105.5
367.889	29770
370.782	29629.8
373.675	29460.9
376.567	29306.9
379.46	28993.1
382.353	28507.6
385.246	28333.1
388.138	28071.4
391.031	27980.6
393.924	28036.7
396.816	28189
399.709	28195.8
402.602	28086.9
405.494	27949.9
408.387	27840.9
411.28	27842.2
414.172	27726.8
417.065	27794.6
419.958	27737.7
422.851	27511.9
425.743	27243.8
428.636	27137
431.529	26854.4
434.421	26605.6
437.314	26368.6
440.207	26014.8
443.099	25925.7
445.992	25667.6
448.885	25679.9
451.778	25217.4
454.67	24931.1
457.563	24691.5
460.456	24705
463.348	24518.5
466.241	24221.7
469.134	24144.8
472.026	24035.4
474.919	23703.5
477.812	23590
480.705	23224.1
483.597	23223.4
486.49	23043.9
489.383	22952.9
492.275	22976.4
495.168	22793.9
498.061	22539.5
500.953	22476
503.846	22087.6
506.739	22036.5
509.632	21911.6
512.524	21811.4
515.417	21696.3
518.31	21536.9
521.202	21452
524.095	21283.5
526.988	21194
529.88	20941.2
532.773	20674.4
535.666	20663.2
538.559	20512.4
541.451	20440.2
544.344	20233.4
547.237	19946.5
550.129	19800.4
553.022	19649.1
555.915	19470.5
558.807	19412.8
561.7	19263.4
564.593	19096.7
567.486	18919.8
570.378	18706
573.271	18567.6
576.164	18386.4
579.056	18314.6
581.949	18210.8
584.842	17991.6
587.734	17891.9
590.627	17723.7
593.52	17444.5
596.413	17248.7
599.305	17223.5
602.198	17007.5
605.091	16811.6
607.983	16732.6
610.876	16569.6
613.769	16341.4
616.661	16212.3
619.554	16039.7
622.447	15904.4
625.34	15735.5
628.232	15592.2
631.125	15451.1
634.018	15216.5
636.91	15113
639.803	14935
642.696	14576.7
645.589	14553.1
648.481	14323.6
651.374	14177
654.267	13980.9
657.159	13862.5
660.052	13623
662.945	13395.8
665.837	13179.5
668.73	12994.2
671.623	12849.5
674.516	12650
677.408	12479.3
680.301	12402
683.194	12130.2
686.086	11989.5
688.979	11746.3
691.872	11583
694.764	11507.9
697.657	11310.6
700.55	11092.4
703.443	11015.7
706.335	10717.9
709.228	10651.8
712.121	10416.5
715.013	10316.1
717.906	10251.8
720.799	10101.9
723.691	9926.73
726.584	9815.4
729.477	9650.75
732.37	9592.14
735.262	9465.85
738.155	9343.87
741.048	9328.72
743.94	9234.08
746.833	9108.1
749.726	9092.99
752.618	9030.66
755.511	8909.73
758.404	8861.31
761.297	8849.28
764.189	8679.08
767.082	8722.32
769.975	8705.68
772.867	8552.84
775.76	8552.48
778.653	8442.27
781.545	8412.97
784.438	8333.29
787.331	8346.35
790.224	8262.35
793.116	8211.6
796.009	8108.1
798.902	8060.17
801.794	8026.59
804.687	7942.46
807.58	7837.05
810.472	7817.14
813.365	7729.76
816.258	7767.49
819.151	7665.44
822.043	7572.6
824.936	7583.15
827.829	7502.25
830.721	7471
833.614	7428.24
836.507	7492.56
839.399	7482.98
842.292	7484.98
845.185	7480.67
848.078	7492.43
850.97	7569.27
853.863	7638.65
856.756	7676.24
859.648	7706.69
862.541	7756.43
865.434	7765.41
868.326	7614.88
871.219	7539.92
874.112	7399
877.005	7370
879.897	7317.13
882.79	7264.3
885.683	7232.56
888.575	7248.13
891.468	7264.15
894.361	7255.47
897.253	7256.99
900.146	7281.2
903.039	7316.52
905.932	7340.63
908.824	7374.04
911.717	7381.3
914.61	7448.15
917.502	7452.12
920.395	7518.72
923.288	7516.95
926.18	7577.26
929.073	7615.8
931.966	7639.61
934.859	7732.59
937.751	7767.97
940.644	7770.81
943.537	7891.96
946.429	7888.77
949.322	8010.17
952.215	8102.23
955.107	8217.19
958	8325.89
960.893	8372.54
963.786	8521.19
966.678	8677.48
969.571	8818.54
972.464	8943.44
975.356	9020.5
978.249	9215.38
981.142	9393.98
984.034	9558.09
986.927	9741.86
989.82	9977.02
992.713	10223.1
995.605	10376.1
998.498	10723.4
1001.39	11046.5
1004.28	11291.9
1007.18	11732.2
1010.07	11870.8
1012.96	12306.1
1015.85	12629.5
1018.75	13036.3
1021.64	13488.5
1024.53	13891.5
1027.42	14457.6
1030.32	14971.7
1033.21	15524.7
1036.1	16204.5
1039	16775.5
1041.89	17549.6
1044.78	18397.3
1047.67	19077.7
1050.57	19924.3
1053.46	20921.8
1056.35	21938.4
1059.24	23045.5
1062.14	24107.3
1065.03	25260.5
1067.92	26636
1070.82	27958.1
1073.71	29538.1
1076.6	31111.5
1079.49	32596.7
1082.39	34151.5
1085.28	35822.9
1088.17	37773.8
1091.06	39687.4
1093.96	41848.2
1096.85	43962.5
1099.74	46074.2
1102.63	48358.7
1105.53	50829.5
1108.42	53766.5
1111.31	56771.9
1114.21	60143.6
1117.1	63834.8
1119.99	67483.3
1122.88	71746.2
1125.78	76307.7
1128.67	81648.8
1131.56	87492.4
1134.45	93982.2
1137.35	102003
1140.24	111305
1143.13	122322
1146.03	134739
1148.92	148066
1151.81	160022
1154.7	167674
1157.6	170325
1160.49	169408
1163.38	168468
1166.27	170101
1169.17	174898
1172.06	183330
1174.95	193536
1177.85	202772
1180.74	208184
1183.63	208331
1186.52	203830
1189.42	197370
1192.31	189546
1195.2	183674
1198.09	179456
1200.99	175907
1203.88	173224
1206.77	170927
1209.66	169629
1212.56	168670
1215.45	167894
1218.34	167818
1221.24	166781
1224.13	166363
1227.02	165216
1229.91	163312
1232.81	160668
1235.7	157674
1238.59	155146
1241.48	152035
1244.38	148943
1247.27	145559
1250.16	143160
1253.06	140688
1255.95	138817
1258.84	137238
1261.73	136807
1264.63	136158
