Measurement: Raman, 532 nm, unoriented, Raman Data RAW
Mineral: Ferrobustamite
Rruff sample: R140843
Ideal chemistry: CaFe^2+^Si_2_O_6_
Locality: Horado mine, Gifu Prefecture, Chubu Region, Honshu Island, Japan
Source: Michael Scott
Description: Brown translucent massive. embedded in matrix
Raman shift (cm-1)	intensity
124.013	232150
127.388	234416
130.763	235617
134.138	237240
137.513	238808
140.888	240890
144.262	242580
147.637	244081
151.012	245332
154.387	247043
157.762	248102
161.137	249786
164.511	252056
167.886	254056
171.261	255399
174.636	256607
178.011	258404
181.385	259463
184.76	261625
188.135	263366
191.51	265505
194.885	266900
198.26	268357
201.634	269718
205.009	270838
208.384	272191
211.759	273516
215.133	275776
218.508	277505
221.883	278639
225.258	280196
228.633	281791
232.008	282465
235.382	284462
238.757	286811
242.132	289015
245.507	290040
248.882	290990
252.256	292072
255.631	293909
259.006	296270
262.381	297903
265.756	299652
269.131	301133
272.505	303751
275.88	305623
279.255	307287
282.63	307986
286.005	309355
289.38	311990
292.754	313153
296.129	314349
299.504	315113
302.879	316623
306.254	318621
309.628	320753
313.003	322416
316.378	323739
319.753	324452
323.128	326691
326.502	328513
329.877	329580
333.252	330734
336.627	332482
340.002	334491
343.377	336219
346.751	337232
350.126	338609
353.501	340132
356.876	341656
360.251	343607
363.625	345676
367	347267
370.375	348109
373.75	349329
377.125	351809
380.5	353314
383.874	355116
387.249	356624
390.624	357397
393.999	357963
397.374	359886
400.748	361834
404.123	364436
407.498	364776
410.873	365831
414.248	367905
417.623	370629
420.997	372932
424.372	373438
427.747	374411
431.122	374919
434.497	376619
437.871	377740
441.246	380143
444.621	381063
447.996	382491
451.371	383684
454.745	385335
458.12	388284
461.495	389511
464.87	391255
468.245	392706
471.62	394354
474.994	394724
478.369	395551
481.744	397470
485.119	400139
488.494	402906
491.868	403767
495.243	404854
498.618	405923
501.993	406987
505.368	408270
508.743	410062
512.117	411941
515.492	413194
518.867	414276
522.242	415813
525.617	417533
528.991	418034
532.366	419958
535.741	421477
539.116	422255
542.491	423753
545.866	425863
549.24	427979
552.615	429187
555.99	429337
559.365	431320
562.74	433787
566.115	434614
569.489	435811
572.864	437175
576.239	438743
579.614	440614
582.989	441950
586.363	444215
589.738	444549
593.113	445628
596.488	446479
599.863	447960
603.237	449009
606.612	451169
609.987	453564
613.362	454929
616.737	456108
620.111	456938
623.486	458218
626.861	459744
630.236	461636
633.611	463128
636.986	464760
640.36	466151
643.735	468056
647.11	469713
650.485	470900
653.86	473634
657.235	473798
660.609	475192
663.984	477270
667.359	478629
670.734	480104
674.109	481399
677.483	482464
680.858	484885
684.233	486578
687.608	488001
690.983	490108
694.357	490443
697.732	492835
701.107	494374
704.482	496345
707.857	498353
711.232	500136
714.606	502008
717.981	503321
721.356	504811
724.731	506875
728.106	509594
731.481	509331
734.855	510631
738.23	512590
741.605	513929
744.98	515850
748.355	517556
751.729	519540
755.104	519624
758.479	519907
761.854	520981
765.229	522034
768.604	523190
771.978	524536
775.353	525315
778.728	526235
782.103	527168
785.477	529095
788.852	529436
792.227	530022
795.602	530444
798.977	531256
802.352	532973
805.726	535053
809.101	536516
812.476	536386
815.851	537744
819.226	539907
822.601	540638
825.975	539645
829.35	539902
832.725	540474
836.1	541667
839.475	543258
842.849	544740
846.224	546311
849.599	546442
852.974	546779
856.349	548846
859.723	550429
863.098	551229
866.473	550293
869.848	552300
873.223	553496
876.598	553830
879.972	554732
883.347	554748
886.722	555560
890.097	557886
893.472	559839
896.846	561002
900.221	562226
903.596	562552
906.971	563015
910.346	563816
913.721	564894
917.095	565748
920.47	566305
923.845	567719
927.22	568750
930.595	568935
933.97	570463
937.344	570688
940.719	571427
944.094	574099
947.469	575758
950.844	576533
954.218	577073
957.593	577053
960.968	578453
964.343	581586
967.718	583654
971.092	583716
974.467	585055
977.842	586242
981.217	587222
984.592	588712
987.967	589939
991.341	590846
994.716	591792
998.091	592299
1001.47	594570
1004.84	595392
1008.22	595777
1011.59	597682
1014.97	599318
1018.34	599514
1021.72	599899
1025.09	600472
1028.46	602900
1031.84	602318
1035.21	604289
1038.59	605708
1041.96	607437
1045.34	607997
1048.71	608575
1052.09	610146
1055.46	610655
1058.84	610890
1062.21	612044
1065.59	612654
1068.96	615331
1072.34	615438
1075.71	615824
1079.09	617819
1082.46	619577
1085.84	620988
1089.21	621767
1092.59	622717
1095.96	623362
1099.34	625370
1102.71	626215
1106.09	627993
1109.46	629132
1112.84	630739
1116.21	631981
1119.58	633768
1122.96	634664
1126.33	635456
1129.71	635115
1133.08	636857
1136.46	639075
1139.83	640329
1143.21	642891
1146.58	643173
1149.96	644425
1153.33	647256
1156.71	649149
1160.08	649594
1163.46	650535
1166.83	651939
1170.21	653186
1173.58	654790
1176.96	656220
1180.33	658256
1183.71	659307
1187.08	661761
1190.46	662686
1193.83	663862
1197.2	664954
1200.58	665408
1203.95	666322
1207.33	667987
1210.7	668896
1214.08	670176
1217.45	671063
1220.83	672712
1224.2	673933
1227.58	673529
1230.95	675417
1234.33	676712
1237.7	677638
1241.08	679781
1244.45	681298
1247.83	683705
1251.2	685329
1254.58	685869
1257.95	687438
1261.33	687725
1264.7	687798
1268.08	689608
1271.45	690552
1274.83	692344
1278.2	693035
1281.58	694673
1284.95	694982
1288.33	696859
1291.7	696862
1295.08	698869
1298.45	699574
1301.82	700260
