Measurement: Raman, 532 nm, unoriented, Raman Data Processed
Mineral: Ferrowyllieite
Rruff sample: R160068
Ideal chemistry: NaNaFe^2+^(Fe^2+^Al)(PO_4_)_3_
Locality: Victory mine, near Custer, Custer County, South Dakota, USA
Source: James Shigley
Description: Dark green aggregates of blocky crystals, associated with quartz, muscovite, and arrojadite-(BaNa) (R160077)..
Measured chemistry: (Na_1.05_Ca_0.07_Mn^2+^_0.29_ â–¡_0.58_)(Fe^2+^_1.87_Mg_0.16_)(Al^3+^_0.72_Fe^3+^_0.28_)(P_1.01_O_4_)_3_   ; Grey phase. Bright phase is arrojadite-(BaNa).
Raman shift (cm-1)	intensity
169.045	0
171.938	4.45003
174.83	0.66684
177.723	0.256119
180.616	2.08304
183.508	1.70001
186.401	2.89874
189.294	3.66159
192.187	2.95802
195.079	3.71092
197.972	4.10828
200.865	3.45038
203.757	5.80235
206.65	5.26935
209.543	7.41205
212.435	7.5572
215.328	8.94733
218.221	8.71542
221.114	8.77226
224.006	7.4617
226.899	8.50885
229.792	8.5992
232.684	7.00598
235.577	5.90013
238.47	6.26057
241.363	6.45341
244.255	5.43936
247.148	4.71925
250.041	4.87341
252.933	3.54311
255.826	4.23193
258.719	3.69359
261.611	2.83986
264.504	2.19986
267.397	2.17398
270.29	0.101395
273.182	1.16614
276.075	1.27837
278.968	0.19693
281.86	0.557495
284.753	0.817917
287.646	0.50145
290.538	0.506393
293.431	0.348206
296.324	0.432892
299.217	0.149216
302.109	0.025284
305.002	0.754364
307.895	0.414215
310.787	0.941986
313.68	0.988251
316.573	1.19208
319.466	0.636703
322.358	1.57779
325.251	1.97073
328.144	3.26254
331.036	2.50288
333.929	2.37355
336.822	2.7715
339.714	3.70068
342.607	3.9585
345.5	4.27165
348.392	4.86824
351.285	4.1994
354.178	4.62349
357.07	6.24785
359.963	6.59901
362.856	7.62863
365.749	9.87015
368.641	10.4563
371.534	9.94981
374.427	8.80644
377.319	9.17985
380.212	7.86942
383.105	6.91425
385.998	5.31763
388.89	2.97215
391.783	1.32652
394.676	0.347473
397.568	0.47171
400.461	0.516968
403.354	0.304871
406.246	0.447586
409.139	0.211121
412.032	0.828003
414.925	0.402252
417.817	0.440826
420.71	0.899384
423.603	0.743073
426.495	0.304703
429.388	0.599976
432.281	1.01016
435.173	2.2399
438.066	3.66016
440.959	6.42133
443.851	7.22125
446.744	10.2979
449.637	13.431
452.53	15.0979
455.422	17.6707
458.315	18.1267
461.208	18.2673
464.1	18.1444
466.993	18.9431
469.886	20.0594
472.779	21.5967
475.671	22.5821
478.564	23.8314
481.457	24.5526
484.349	24.3891
487.242	23.0786
490.135	21.8892
493.027	20.9321
495.92	19.1458
498.813	17.1031
501.705	15.5694
504.598	13.688
507.491	11.1307
510.384	9.69324
513.276	8.0375
516.169	7.03593
519.062	4.81164
521.955	3.24722
524.847	3.4033
527.74	0.039581
530.633	0.240494
533.525	1.077
536.418	1.42837
539.311	0.887421
542.203	0.017517
545.096	3.20006
547.989	5.99505
550.881	9.66466
553.774	13.5639
556.667	17.3405
559.56	22.0015
562.452	26.367
565.345	26.3167
568.238	25.1711
571.13	22.943
574.023	19.2308
576.916	17.4112
579.808	15.7842
582.701	15.051
585.594	16.3494
588.486	16.2423
591.379	17.8076
594.272	19.2427
597.165	20.3429
600.057	22.5199
602.95	23.1562
605.843	22.8646
608.735	23.7849
611.628	25.1921
614.521	26.6891
617.413	27.4912
620.306	29.0187
623.199	29.0677
626.092	26.7826
628.984	24.132
631.877	20.1355
634.77	16.2115
637.662	12.918
640.555	10.4895
643.448	8.04734
646.341	8.38019
649.233	6.27484
652.126	6.59901
655.019	4.34177
657.911	2.48947
660.804	2.50349
663.697	3.68077
666.589	1.4939
669.482	1.56841
672.375	0.67308
675.268	0.99115
678.16	0.920242
681.053	0.678314
683.946	0.523102
686.838	0.127182
689.731	0.51622
692.624	1.0278
695.516	0.192123
698.409	1.35821
701.302	0.985031
704.194	0.750565
707.087	0.235687
709.98	0.995468
712.873	0.124146
715.765	0.009781
718.658	0.583099
721.551	0.068771
724.443	0.310181
727.336	1.46825
730.229	0.565399
733.121	3.76573
736.014	2.51003
738.907	2.6163
741.8	2.8093
744.692	3.85757
747.585	2.94986
750.478	3.94403
753.37	4.48294
756.263	3.71108
759.156	2.36191
762.048	2.73195
764.941	2.82747
767.834	3.61987
770.727	4.19362
773.619	4.61986
776.512	4.77667
779.405	4.42349
782.297	5.317
785.19	7.39566
788.083	6.93854
790.976	7.13953
793.868	7.91303
796.761	9.04504
799.654	9.71284
802.546	10.5503
805.439	11.6207
808.332	12.4423
811.224	12.5555
814.117	14.3531
817.01	13.5893
819.903	15.8855
822.795	15.7721
825.688	15.6608
828.581	16.4958
831.473	17.633
834.366	17.6434
837.259	18.0233
840.151	19.3368
843.044	20.5307
845.937	20.3078
848.83	21.2416
851.722	21.1662
854.615	21.2376
857.508	22.39
860.4	22.0104
863.293	21.3605
866.186	20.9007
869.078	19.429
871.971	18.65
874.864	15.4588
877.756	14.0855
880.649	11.62
883.542	9.98924
886.435	8.1062
889.327	6.9077
892.22	5.12396
895.113	3.33691
898.005	1.85373
900.898	0.694702
903.791	0.543655
906.683	0.067856
909.576	1.4019
912.469	2.36917
915.362	1.85821
918.254	0.556519
921.147	0.872757
924.04	0.073029
926.932	0.758636
929.825	3.1015
932.718	4.61961
935.611	6.05264
938.503	9.56401
941.396	11.7169
944.289	14.4143
947.181	18.9434
950.074	22.4807
952.967	26.5727
955.859	30.8578
958.752	36.2927
961.645	41.6175
964.538	48.5551
967.43	58.3785
970.323	68.5801
973.216	81.8336
976.108	97.1236
979.001	114.207
981.894	128.654
984.786	138.269
987.679	139.737
990.572	133.361
993.465	119.512
996.357	103.596
999.25	88.8171
1002.14	74.5837
1005.03	60.2287
1007.93	50.4089
1010.82	41.8568
1013.71	35.8902
1016.61	30.5376
1019.5	26.9271
1022.39	22.9614
1025.28	21.1097
1028.18	18.3815
1031.07	17.1439
1033.96	16.434
1036.86	15.6291
1039.75	14.2902
1042.64	13.5077
1045.53	11.0882
1048.43	8.43649
1051.32	7.6142
1054.21	4.49867
1057.1	4.21129
1060	0.863098
1062.89	0.670731
1065.78	0.904312
1068.67	1.42512
1071.57	1.22888
1074.46	0.478134
1077.35	1.71642
1080.24	0.916595
1083.14	2.19203
1086.03	3.99347
1088.92	5.14635
1091.82	6.33988
1094.71	6.02677
1097.6	7.63202
1100.49	8.31416
1103.39	7.72946
1106.28	8.76526
1109.17	8.78773
1112.07	9.50009
1114.96	9.62611
1117.85	10.8766
1120.74	10.6643
1123.64	10.8436
1126.53	11.2997
1129.42	11.2319
1132.31	11.1908
1135.21	11.3411
1138.1	11.962
1140.99	11.3011
1143.88	11.0941
1146.78	10.1231
1149.67	10.2701
1152.56	9.91285
1155.46	9.62331
1158.35	10.3587
1161.24	10.2256
1164.13	9.98434
1167.03	10.3386
1169.92	9.73496
1172.81	9.29623
1175.7	10.0295
1178.6	8.63863
1181.49	7.28335
1184.38	6.9177
1187.28	5.32402
1190.17	4.13727
1193.06	3.08566
1195.95	2.08929
1198.85	1.02087
1201.74	0.023575
1204.63	0.365646
1207.52	0.045868
1210.42	0.826378
1213.31	0.726425
1216.2	0.242378
1219.1	0.204102
1221.99	0.266151
1224.88	0.200073
1227.77	0.782616
1230.67	0.92601
1233.56	0.867302
1236.45	1.98254
1239.34	1.80425
1242.24	2.07906
1245.13	2.20878
1248.02	2.77563
1250.91	3.01993
1253.81	3.57384
1256.7	2.95768
1259.59	2.04322
1262.49	1.93763
1265.38	1.27657
1268.27	2.56277
1271.16	1.18918
1274.06	1.56275
1276.95	1.82514
1279.84	1.3798
1282.73	0.465607
1285.63	0.610634
1288.52	0.73304
1291.41	0.294891
1294.31	0.474503
1297.2	0.091965
1300.09	0.777382
