Measurement: Raman, 532 nm, unoriented, Raman Data Processed
Mineral: Ferrobobfergusonite
Rruff sample: R140993
Ideal chemistry: Na_2_Fe^2+^_5_Fe^3+^Al(PO_4_)_6_
Locality: Victory mine, Custer, Custer District, Custer County, South Dakota, USA
Source: Rock Currier
Description: Dark green aggregates of blocky crystals, associated with quartz and muscovite. Four different dark green minerals are found: schorl, fillowite, ferrobobfergusonite, and ferrowyllieite. Light green crystals are arrojadite. This is the type sample
Measured chemistry: (Na_1.73_Ca_0.13_)(Fe^2+^_3.51_Mn_0.89_Mg_0.43_)(Fe^3+^_0.77_Al_0.23_)Al(P_1.01_O_4_)_6_
Raman shift (cm-1)	intensity
196.131	0
199.024	0.628601
201.916	2.64258
204.809	3.89728
207.702	6.50153
210.594	5.23517
213.487	4.91156
216.38	9.10614
219.273	7.09998
222.165	11.5844
225.058	7.77576
227.951	6.51349
230.843	6.21124
233.736	5.80939
236.629	4.81488
239.521	3.58405
242.414	1.38873
245.307	2.78052
248.2	4.14484
251.092	1.85529
253.985	4.42487
256.878	4.90112
259.77	6.0014
262.663	2.86639
265.556	3.15308
268.448	1.58612
271.341	1.33453
274.234	2.02783
277.127	1.56366
280.019	1.39587
282.912	2.04279
285.805	1.9458
288.697	2.13388
291.59	0.026886
294.483	1.32761
297.375	0.750671
300.268	2.41742
303.161	1.95548
306.053	3.6683
308.946	2.41687
311.839	2.41482
314.732	0.653351
317.624	3.24127
320.517	1.35635
323.41	0.219788
326.302	0.543182
329.195	2.61179
332.088	0.393311
334.981	0.1633
337.873	1.04648
340.766	0.541473
343.659	1.96448
346.551	1.5495
349.444	3.23599
352.337	3.39945
355.229	8.51498
358.122	8.34134
361.015	9.19141
363.908	12.21
366.8	15.5317
369.693	15.5358
372.586	14.5077
375.478	13.7958
378.371	11.9573
381.264	9.25449
384.156	8.26312
387.049	5.81097
389.942	3.79114
392.834	1.80792
395.727	2.98947
398.62	1.44559
401.513	0.560852
404.405	0.819061
407.298	1.52161
410.191	1.33008
413.083	0.106842
415.976	0.513184
418.869	1.77637
421.762	0.020294
424.654	2.49033
427.547	4.55631
430.44	5.58414
433.332	8.26862
436.225	8.32019
439.118	11.7799
442.01	18.2784
444.903	23.4908
447.796	29.6296
450.688	36.407
453.581	40.6176
456.474	43.1903
459.367	42.5727
462.259	39.4043
465.152	31.5776
468.045	31.2887
470.937	28.9164
473.83	30.3726
476.723	28.1747
479.615	26.5948
482.508	24.5497
485.401	23.3333
488.294	25.0482
491.186	23.9142
494.079	23.6816
496.972	23.5438
499.864	22.638
502.757	20.5432
505.65	17.0145
508.543	14.9617
511.435	11.993
514.328	10.4382
517.221	7.62769
520.113	6.10346
523.006	1.48447
525.899	1.41934
528.791	0.454041
531.684	0.060608
534.577	1.7576
537.47	2.12076
540.362	0.793182
543.255	1.70209
546.148	5.32565
549.04	11.2795
551.933	15.9013
554.826	21.3267
557.718	24.9309
560.611	26.0074
563.504	24.7158
566.396	21.308
569.289	17.4641
572.182	16.1058
575.075	17.0647
577.967	16.3682
580.86	18.0164
583.753	20.7058
586.645	20.2162
589.538	24.5339
592.431	27.4473
595.323	29.2256
598.216	30.5745
601.109	30.9378
604.002	30.7463
606.894	30.4515
609.787	32.7751
612.68	33.6966
615.572	36.1559
618.465	35.8193
621.358	40.4815
624.25	35.7621
627.143	33.8349
630.036	29.0486
632.929	25.5344
635.821	24.1566
638.714	19.1683
641.607	16.1759
644.5	18.4349
647.392	13.35
650.285	11.9885
653.178	10.8442
656.07	8.38644
658.963	6.8533
661.856	5.17575
664.748	3.56296
667.641	5.61252
670.534	3.07904
673.427	3.57071
676.319	2.27713
679.212	1.87433
682.105	0.167206
684.997	0.593109
687.89	1.01913
690.783	0.147491
693.675	1.19266
696.568	1.20138
699.461	1.23734
702.354	0.967102
705.246	0.392944
708.139	0.462738
711.032	0.370483
713.924	0.823059
716.817	0.264832
719.71	0.761017
722.602	0.396973
725.495	1.26495
728.388	1.72977
731.28	0.933807
734.173	1.56555
737.066	4.35806
739.959	2.32803
742.851	1.06293
745.744	2.35455
748.637	5.86847
751.529	4.15595
754.422	1.5618
757.315	1.19162
760.207	2.3837
763.1	3.74014
765.993	1.93622
768.886	1.44156
771.778	0.951324
774.671	3.55487
777.564	4.12445
780.456	3.15543
783.349	2.85245
786.242	2.0419
789.135	2.05594
792.027	1.9892
794.92	2.10232
797.813	2.45493
800.705	2.36542
803.598	2.72156
806.491	3.2084
809.383	2.19107
812.276	3.0842
815.169	2.26096
818.062	4.66495
820.954	7.61923
823.847	7.10629
826.74	7.2496
829.632	8.33841
832.525	8.79889
835.418	8.92361
838.31	8.34909
841.203	8.31702
844.096	7.65338
846.989	7.51288
849.881	6.00174
852.774	5.99667
855.667	4.31104
858.559	3.5582
861.452	4.18567
864.345	3.52008
867.237	3.13458
870.13	2.87674
873.023	0.331848
875.915	1.17679
878.808	1.25513
881.701	1.7565
884.594	1.8689
887.486	1.03195
890.379	2.24689
893.272	0.2117
896.164	0.109772
899.057	3.48538
901.95	3.27298
904.842	2.19006
907.735	5.91675
910.628	5.8873
913.521	10.9497
916.413	13.19
919.306	17.158
922.199	15.9
925.091	20.5796
927.984	23.3623
930.877	24.4306
933.769	27.9143
936.662	28.3499
939.555	31.2933
942.448	34.4055
945.34	37.723
948.233	38.8109
951.126	41.9601
954.018	47.4899
956.911	55.4329
959.804	68.3512
962.697	75.639
965.589	83.7805
968.482	93.2998
971.375	105.385
974.267	115.938
977.16	125.893
980.053	134.096
982.945	139.8
985.838	138.663
988.731	130.025
991.624	117.867
994.516	102.243
997.409	86.4854
1000.3	67.6957
1003.19	54.3128
1006.09	41.9945
1008.98	34.5753
1011.87	26.3952
1014.76	21.9554
1017.66	16.4837
1020.55	12.8839
1023.44	10.7794
1026.34	10.1653
1029.23	8.49774
1032.12	9.10986
1035.01	9.60315
1037.91	7.80322
1040.8	7.66162
1043.69	8.47864
1046.59	4.81168
1049.48	3.38882
1052.37	1.73105
1055.26	0.408142
1058.16	2.45615
1061.05	1.35254
1063.94	2.10809
1066.83	3.28732
1069.73	0.093597
1072.62	2.36655
1075.51	3.85956
1078.4	7.97907
1081.3	8.40384
1084.19	11.0619
1087.08	12.5528
1089.97	12.5809
1092.87	12.1453
1095.76	12.9662
1098.65	11.2386
1101.55	9.42953
1104.44	7.6658
1107.33	8.27084
1110.22	8.24207
1113.12	9.15982
1116.01	9.89807
1118.9	10.7256
1121.8	8.48666
1124.69	9.50714
1127.58	9.78744
1130.47	8.65897
1133.37	7.52481
1136.26	8.91183
1139.15	9.97797
1142.04	10.0264
1144.94	7.52298
1147.83	7.29837
1150.72	7.3634
1153.62	8.19794
1156.51	8.50537
1159.4	8.50049
1162.29	7.79324
1165.19	8.71579
1168.08	7.77823
1170.97	8.07028
1173.86	7.47693
1176.76	7.66992
1179.65	7.82266
1182.54	4.42007
1185.43	5.83194
1188.33	3.16568
1191.22	2.20172
1194.11	2.36691
1197.01	1.96677
1199.9	1.48013
1202.79	0.715973
1205.68	1.7059
1208.58	0.932434
1211.47	0.614075
1214.36	1.4577
1217.25	1.03534
1220.15	1.30368
1223.04	2.01514
1225.93	1.61685
1228.83	2.88388
1231.72	2.39148
1234.61	2.15436
1237.5	2.93408
1240.4	0.680725
1243.29	2.73227
1246.18	3.50012
1249.07	3.7951
1251.97	3.25678
1254.86	4.59894
1257.75	5.09143
1260.64	4.61053
1263.54	3.5083
1266.43	5.23361
1269.32	2.82153
1272.21	3.88281
1275.11	2.97726
1278	3.13446
1280.89	1.60617
1283.79	0.019745
1286.68	2.81238
1289.57	3.51617
1292.46	2.65378
1295.36	1.8602
1298.25	1.02084
