Measurement: Raman, 780 nm, unoriented, Raman Data Processed
Mineral: Ferronordite-(Ce)
Rruff sample: R130528
Ideal chemistry: Na_3_SrCe^3+^Fe^2+^Si_6_O_17_
Locality: Bolshoi Punkaruaiv Mt, Lovozero Massif, Kola Peninsula, Murmanskaja Oblast', Northern Region, Russia
Source: Rock Currier
Description: Colorless to pale brownish tabular or platy crystals in rosette-like aggregates, associated with ussingite.
Measured chemistry: Na_3.06_(Sr_0.90_Ca_0.08_Ba_0.02_)_Σ=1.00_(Ce_0.50_La_0.47_Nd_0.06_Pr_0.04_)_Σ=1.07_(Fe_0.34_Zn_0.30_Mn_0.27_Mg_0.06_)_Σ=0.97_Si_5.95_O_17_
Raman shift (cm-1)	intensity
87.582	0
90.9569	383.129
94.3317	470.188
97.7065	131.262
101.081	132.359
104.456	68.9346
107.831	0.64502
111.206	16.1997
114.581	132.927
117.955	211.441
121.33	249.221
124.705	163.742
128.08	266.793
131.455	383.634
134.829	338.539
138.204	169.041
141.579	109.227
144.954	56.4592
148.329	2.62866
151.704	11.0652
155.078	8.62476
158.453	5.30054
161.828	3.28565
165.203	45.5967
168.578	86.8123
171.952	18.647
175.327	37.3115
178.702	31.5874
182.077	2.53125
185.452	34.501
188.827	33.4844
192.201	22.8686
195.576	43.2478
198.951	91.3689
202.326	154.018
205.701	239.08
209.076	312.748
212.45	324.084
215.825	304.153
219.2	341.312
222.575	396.945
225.95	490.658
229.324	619.426
232.699	783.86
236.074	961.406
239.449	1117.03
242.824	1253.15
246.198	1297.28
249.573	1202.5
252.948	1003.34
256.323	837.885
259.698	733.618
263.073	655.959
266.447	614.74
269.822	561.213
273.197	548.862
276.572	619.78
279.947	742.805
283.322	875.985
286.696	938.079
290.071	968.613
293.446	1019.41
296.821	997.619
300.196	882.526
303.57	736.768
306.945	619.987
310.32	465.989
313.695	338.16
317.07	227.449
320.445	153.787
323.819	64.1084
327.194	23.602
330.569	28.0967
333.944	49.4951
337.319	45.1829
340.693	19.6921
344.068	30.9365
347.443	76.8164
350.818	161.368
354.193	272.394
357.567	392.756
360.942	548.241
364.317	780.562
367.692	1016.04
371.067	1265.62
374.442	1513.6
377.816	1714.2
381.191	1847.63
384.566	1866.75
387.941	1816.45
391.316	1652.06
394.69	1443.28
398.065	1200.65
401.44	1092.48
404.815	1001.64
408.19	871.755
411.565	795.767
414.939	718.874
418.314	667.75
421.689	594.936
425.064	503.386
428.439	423.394
431.813	312.695
435.188	215.745
438.563	147.855
441.938	86.9204
445.313	55.7974
448.688	25.9097
452.062	34.6148
455.437	62.7927
458.812	98.5286
462.187	75.5947
465.562	69.5754
468.937	59.2781
472.311	19.427
475.686	10.959
479.061	5.7644
482.436	32.2954
485.81	12.9736
489.185	16.8704
492.56	69.9998
495.935	107.034
499.31	166.162
502.685	206.974
506.059	252.345
509.434	309.29
512.809	333.902
516.184	366.397
519.559	393.452
522.933	405.851
526.308	387.686
529.683	336.464
533.058	316.281
536.433	264.449
539.808	226.578
543.182	157.997
546.557	113.934
549.932	127.648
553.307	101.55
556.682	57.8765
560.057	8.07007
563.431	3.57251
566.806	17.8191
570.181	5.95776
573.556	6.43311
576.931	4.43189
580.305	14.855
583.68	43.4614
587.055	67.7559
590.43	90.9673
593.805	140.747
597.18	194.758
600.554	255.236
603.929	334.269
607.304	426.357
610.679	523.623
614.054	600.454
617.428	727.508
620.803	859.632
624.178	1021.82
627.553	1307.11
630.928	1717.23
634.303	2451.8
637.677	3549.77
641.052	3660.32
644.427	2291.72
647.802	1756.71
651.177	1852.69
654.552	1597.05
657.926	880.615
661.301	451.138
664.676	251.508
668.051	145.347
671.426	61.9988
674.8	18.3599
678.175	4.30322
681.55	15.2766
684.925	9.58301
688.3	4.75391
691.674	21.8506
695.049	21.4185
698.424	86.8972
701.799	110.013
705.174	144.265
708.548	192.866
711.923	223.029
715.298	229.554
718.673	217.535
722.048	212.272
725.423	178.245
728.797	136.02
732.172	119.583
735.547	55.072
738.922	41.9534
742.297	26.916
745.672	26.5847
749.046	58.7095
752.421	91.7454
755.796	130.406
759.171	185.282
762.546	264.447
765.92	345.775
769.295	468.245
772.67	483.108
776.045	376.43
779.42	233.37
782.795	141.714
786.169	105.017
789.544	41.7701
792.919	4.06714
796.294	11.4363
799.669	12.4238
803.043	3.50378
806.418	10.4731
809.793	2.03857
813.168	2.13489
816.543	0.292725
819.918	18.723
823.292	23.6776
826.667	21.0233
830.042	35.9861
833.417	57.2133
836.792	63.7441
840.166	83.0581
843.541	99.0884
846.916	103.761
850.291	116.881
853.666	127.022
857.04	126.428
860.415	112.874
863.79	112.686
867.165	92.7855
870.54	80.6818
873.915	69.0389
877.289	49.304
880.664	36.1945
884.039	36.4399
887.414	29.1693
890.789	28.3124
894.163	36.4769
897.538	30.6886
900.913	15.0093
904.288	0.028687
907.663	1.4696
911.038	9.32873
914.412	9.72937
917.787	0.303711
921.162	18.9205
924.537	43.3077
927.912	84.7125
931.287	166.938
934.661	260.955
938.036	301.592
941.411	252.649
944.786	178.498
948.161	104.354
951.535	29.8009
954.91	15.1024
958.285	11.5027
961.66	3.17566
965.035	6.23389
968.409	6.7251
971.784	24.2616
975.159	67.5796
978.534	85.7786
981.909	125.125
985.284	153.365
988.658	171.899
992.033	253.289
995.408	401.776
998.783	667.833
1002.16	953.858
1005.53	841.063
1008.91	513.388
1012.28	378.857
1015.66	348.582
1019.03	334.656
1022.41	326.685
1025.78	347.548
1029.16	437.484
1032.53	592.914
1035.91	851.193
1039.28	767.895
1042.66	506.716
1046.03	385.45
1049.4	335.26
1052.78	309.043
1056.15	250.933
1059.53	233.587
1062.9	182.53
1066.28	156.021
1069.65	136.019
1073.03	106.58
1076.4	99.6277
1079.78	76.3394
1083.15	63.8328
1086.53	25.6211
1089.9	14.7981
1093.28	0.584473
1096.65	21.238
1100.03	25.1448
1103.4	46.6484
1106.78	36.5808
1110.15	30.9695
1113.53	49.6968
1116.9	33.437
1120.28	1.28101
1123.65	23.1314
1127.03	66.1006
1130.4	122.76
1133.78	223.316
1137.15	387.85
1140.53	586.216
1143.9	854.002
1147.28	1237.86
1150.65	1745.44
1154.03	2478.33
1157.4	3407.23
1160.77	4664.61
1164.15	6289.77
1167.52	8237.33
1170.9	10489.5
1174.27	12726.3
1177.65	14662.8
1181.02	15971.5
1184.4	16437.9
1187.77	16006.3
1191.15	14813.6
1194.52	13312.8
1197.9	11627.2
1201.27	10081
1204.65	8695.15
1208.02	7497.86
1211.4	6352.22
1214.77	5466.24
1218.15	4672.67
1221.52	3984.71
1224.9	3351.39
1228.27	2755.9
1231.64	2230.02
1235.02	1812.27
1238.39	1426.33
1241.77	1105.34
1245.14	827.48
1248.52	563.445
1251.89	392.075
1255.27	217.118
1258.64	58.7178
1262.02	24.7734
1265.39	17.231
1268.77	38.791
1272.14	36.6807
1275.52	131.159
1278.89	55.8345
1282.27	0
