Measurement: Raman, 780 nm, unoriented, Raman Data Processed
Mineral: Ferricopiapite
Rruff sample: R060721
Ideal chemistry: Fe^3+^_2/3_Fe^3+^_4_(S^6+^O_4_)_6_(OH)_2_20H_2_O
Locality: Alcaparrosa mine, near Cerritos Bayos, El Loa Province, Chile
Source: University of Arizona Mineral Museum
Description: Yellow platy crystals associated with parabutlerite
Raman shift (cm-1)	intensity
95.7783	0
99.1531	13.4493
102.528	5.57636
105.903	30.198
109.278	22.4553
112.652	37.2075
116.027	60.3786
119.402	50.7014
122.777	33.0331
126.152	10.2285
129.526	0.365417
132.901	8.65155
136.276	5.95694
139.651	10.9916
143.026	23.4036
146.401	38.2087
149.775	57.0785
153.15	91.9606
156.525	119.282
159.9	109.608
163.275	81.6627
166.649	58.4227
170.024	43.6371
173.399	30.2664
176.774	13.8454
180.149	7.64072
183.524	17.3295
186.898	35.7642
190.273	57.8723
193.648	66.6226
197.023	48.0797
200.398	10.9451
203.773	5.61844
207.147	1.52936
210.522	18.2281
213.897	49.6185
217.272	76.0044
220.647	91.4075
224.021	105.021
227.396	128.844
230.771	165.095
234.146	210.179
237.521	253.185
240.895	288.121
244.27	304.901
247.645	304.887
251.02	304.429
254.395	317.801
257.769	357.263
261.144	415.449
264.519	479.95
267.894	503.939
271.269	446.793
274.644	346.744
278.018	255.821
281.393	204.091
284.768	183.126
288.143	188.595
291.518	209.887
294.892	236.32
298.267	255.537
301.642	246.954
305.017	202.657
308.392	146.009
311.767	95.6179
315.141	57.9286
318.516	34.5849
321.891	17.9139
325.266	6.13643
328.641	5.75311
332.015	1.38933
335.39	5.43375
338.765	8.25868
342.14	7.53955
345.515	7.4366
348.89	4.92545
352.264	3.1227
355.639	0.233566
359.014	2.14943
362.389	5.782
365.764	7.94202
369.139	12.2692
372.513	16.7249
375.888	21.2302
379.263	26.6907
382.638	31.6249
386.013	37.5302
389.387	44.2207
392.762	50.0119
396.137	49.176
399.512	50.5316
402.887	49.3697
406.262	48.6236
409.636	49.6303
413.011	54.6842
416.386	61.1855
419.761	78.3772
423.136	83.1484
426.51	95.9078
429.885	113.251
433.26	135.965
436.635	168.36
440.01	208.637
443.385	246.277
446.759	279.167
450.134	290.686
453.509	279.13
456.884	264
460.259	266.228
463.633	295.034
467.008	346.138
470.383	400.269
473.758	444.706
477.133	470.306
480.507	460.713
483.882	398.92
487.257	303.17
490.632	209.495
494.007	137.766
497.382	89.7065
500.756	57.3143
504.131	35.016
507.506	19.1441
510.881	9.44617
514.256	4.99652
517.63	0.841461
521.005	2.85162
524.38	5.2608
527.755	5.41684
531.13	4.77799
534.505	4.00246
537.879	1.32436
541.254	6.8571
544.629	11.7231
548.004	14.2194
551.379	15.7693
554.753	14.6802
558.128	10.9173
561.503	4.54205
564.878	2.48119
568.253	0.719444
571.628	0.3433
575.002	4.58141
578.377	7.88502
581.752	16.5215
585.127	26.5539
588.502	41.8514
591.876	60.9612
595.251	83.1761
598.626	94.9446
602.001	89.9959
605.376	84.5795
608.75	93.5956
612.125	105.637
615.5	94.6074
618.875	66.7824
622.25	50.6501
625.625	41.2469
629	40.9366
632.374	45.4157
635.749	48.0917
639.124	47.2581
642.499	41.6602
645.874	33.8982
649.248	25.3846
652.623	17.6675
655.998	13.764
659.373	10.6401
662.748	8.72311
666.122	6.81974
669.497	5.30701
672.872	2.58211
676.247	2.73975
679.622	1.53736
682.996	0.58857
686.371	0.493301
689.746	0.250717
693.121	0.295937
696.496	0.031708
699.871	0.893661
703.245	0.155563
706.62	0.552589
709.995	0.547859
713.37	0.561722
716.745	0.021172
720.12	0.704414
723.494	1.0071
726.869	0.158722
730.244	1.01931
733.619	1.93908
736.994	2.82053
740.368	2.76183
743.743	4.39495
747.118	4.17802
750.493	4.37951
753.868	4.23939
757.242	4.52818
760.617	3.29276
763.992	3.49429
767.367	3.5257
770.742	2.28875
774.117	1.65778
777.491	1.88201
780.866	0.973495
784.241	0.570885
787.616	0.822182
790.991	0.547646
794.365	0.041924
797.74	0.505363
801.115	0.316582
804.49	1.48225
807.865	1.33545
811.24	2.0069
814.614	2.64892
817.989	3.32238
821.364	4.77895
824.739	4.28789
828.114	3.53761
831.489	4.41221
834.863	5.06205
838.238	4.83378
841.613	5.07635
844.988	4.17684
848.362	6.45774
851.737	4.03434
855.112	3.27449
858.487	3.13201
861.862	2.61007
865.237	2.99774
868.611	3.39516
871.986	3.51896
875.361	2.72291
878.736	3.07479
882.111	2.07221
885.486	2.20972
888.86	2.46135
892.235	1.38515
895.61	1.76973
898.985	1.40723
902.36	0.981724
905.734	0.552784
909.109	0.395359
912.484	0.132786
915.859	0.310284
919.234	0.202003
922.609	0.495998
925.983	0.950329
929.358	0.124615
932.733	0.626541
936.108	0.018509
939.483	1.35267
942.857	1.74011
946.232	2.94652
949.607	4.33942
952.982	6.32067
956.357	10.5852
959.731	14.595
963.106	21.5169
966.481	32.4895
969.856	46.9285
973.231	70.1445
976.606	106.423
979.98	152.841
983.355	213.22
986.73	269.848
990.105	308.206
993.48	324.137
996.855	329.507
1000.23	324.718
1003.6	336.013
1006.98	347.05
1010.35	356.836
1013.73	431.131
1017.1	563.52
1020.48	584.078
1023.85	401.978
1027.23	237.019
1030.6	140.572
1033.98	84.88
1037.35	52.9613
1040.73	33.2615
1044.1	19.4897
1047.48	11.3037
1050.85	5.64285
1054.23	0.979515
1057.6	1.14874
1060.98	3.15993
1064.35	2.53625
1067.73	2.30346
1071.1	0.611954
1074.47	0.897186
1077.85	5.45886
1081.22	10.6034
1084.6	18.2339
1087.97	28.7832
1091.35	41.4814
1094.72	58.2771
1098.1	76.9697
1101.47	95.5172
1104.85	108.738
1108.22	116.679
1111.6	118.179
1114.97	121.182
1118.35	123.755
1121.72	127.442
1125.1	121.114
1128.47	109.625
1131.85	98.3113
1135.22	95.029
1138.6	97.9792
1141.97	102.533
1145.35	104.409
1148.72	100.277
1152.1	88.4982
1155.47	71.9061
1158.85	55.6888
1162.22	43.1743
1165.6	35.864
1168.97	29.927
1172.35	23.7751
1175.72	17.9859
1179.1	13.3962
1182.47	9.72404
1185.84	6.78885
1189.22	6.10027
1192.59	5.18633
1195.97	4.11504
1199.34	4.51414
1202.72	4.11905
1206.09	3.20319
1209.47	3.12183
1212.84	2.34778
1216.22	2.01405
1219.59	1.18795
1222.97	0.616489
1226.34	0.030033
1229.72	0.953876
1233.09	0.591667
1236.47	0.993145
1239.84	0.758232
1243.22	0.186634
1246.59	0.582489
1249.97	1.43276
1253.34	2.71417
1256.71	3.6494
1260.09	4.357
1263.46	4.06089
1266.84	3.39228
1270.21	2.07267
1273.59	1.76689
1276.96	0.750736
1280.34	0.744354
