Measurement: Raman, 514 nm, unoriented, Raman Data RAW
Mineral: Ferrowyllieite
Rruff sample: X050078
Ideal chemistry: NaNaFe^2+^(Fe^2+^Al)(PO_4_)_3_
Source: Caltech
Raman shift (cm-1)	intensity
99.4777	130
104.386	289.087
109.294	477.164
114.203	773.908
119.111	1112.92
124.019	1381.25
128.928	1797.79
133.836	2282.28
138.744	2618.96
143.652	2844.53
148.561	3173.3
153.469	3464.74
158.377	3476.86
163.286	3653.92
168.194	3790.5
173.102	4053.61
178.011	4217.94
182.919	4371.26
187.827	4521.17
192.735	4538.04
197.644	4502.6
202.552	4459.76
207.46	4471.96
212.369	4503.23
217.277	4690.45
222.185	4888.86
227.094	5169.89
232.002	5538.59
236.91	5558.76
241.818	5303.22
246.727	5179.28
251.635	5231.11
256.543	5473.86
261.452	5910.39
266.36	6286.91
271.268	6476.3
276.176	6302
281.085	5946.85
285.993	5366.31
290.901	5031.59
295.81	4885.8
300.718	4847.97
305.626	4767.06
310.535	4688.02
315.443	4650.82
320.351	4588.28
325.26	4536.57
330.168	4484.98
335.076	4500.54
339.984	4392.31
344.893	4376.35
349.801	4473.32
354.709	4808.47
359.618	5456.17
364.526	5737.04
369.434	5565.43
374.342	5209.32
379.251	5167.18
384.159	5267.03
389.067	5557.24
393.976	5649.4
398.884	5634.87
403.792	5499.66
408.701	5307.43
413.609	5114.27
418.517	5131.25
423.425	5257.26
428.334	5536.03
433.242	5662.86
438.15	5609.04
443.059	5680.01
447.967	5521.03
452.875	5308.04
457.784	5044.78
462.692	4800.44
467.6	4701.31
472.509	4632.75
477.417	4418.82
482.325	4210.06
487.233	4118.55
492.142	4052.26
497.05	3971.68
501.958	3854.32
506.867	3759.01
511.775	3713.12
516.683	3650.84
521.591	3661.44
526.5	3672.3
531.408	3711.4
536.316	3742.86
541.225	3716.78
546.133	3738.15
551.041	3798.95
555.949	3771.58
560.858	3791.26
565.766	3747.82
570.674	3855.76
575.583	3830.33
580.491	3858.22
585.399	4006.3
590.308	4018.83
595.216	4092.5
600.124	4135.24
605.033	4209.91
609.941	4270.96
614.849	4490.28
619.758	4597.03
624.666	4772.85
629.574	4962.13
634.482	4901.73
639.391	4797.1
644.299	4591.82
649.207	4560.03
654.115	4501.16
659.024	4485.83
663.932	4526.5
668.84	4495.38
673.749	4532.96
678.657	4336
683.565	4265.15
688.474	4388.31
693.382	4613.41
698.29	4573.19
703.198	4319.81
708.107	4130.02
713.015	4019.39
717.923	3940.37
722.832	3937.2
727.74	3879.94
732.648	3942.88
737.557	4065.74
742.465	4099.11
747.373	4152.86
752.282	4180.06
757.19	4122.05
762.098	4180.26
767.006	4167.09
771.915	4123.95
776.823	4222.34
781.731	4270.39
786.64	4194.65
791.548	4096.11
796.456	4005.12
801.365	3885.59
806.273	3928.65
811.181	3915
816.089	3921.51
820.998	3908.9
825.906	3973.32
830.814	3887.6
835.723	3948.51
840.631	3989.21
845.539	3924.88
850.447	3998.62
855.356	4026.41
860.264	4038.42
865.172	4104.09
870.081	4123.97
874.989	4107.06
879.897	4124.48
884.806	4099.95
889.714	4241.1
894.622	4202.98
899.53	4230.72
904.439	4270.86
909.347	4374.23
914.255	4489.2
919.164	4522.21
924.072	4551.16
928.98	4724
933.889	4718.16
938.797	4901.17
943.705	4993.64
948.614	5048.91
953.522	5417.63
958.43	5740.71
963.338	6088.82
968.247	6026.81
973.155	5682.01
978.063	5672.99
982.972	5612.99
987.88	5571.77
992.788	5500.53
997.697	5525.45
1002.6	5549.45
1007.51	5803.65
1012.42	6096.8
1017.33	6562.21
1022.24	7061.04
1027.15	7831.47
1032.05	8533.87
1036.96	8118.13
1041.87	7215.95
1046.78	6590.89
1051.69	6171.93
1056.6	5926.1
1061.5	5725.75
1066.41	5584.12
1071.32	5487.26
1076.23	5351.73
1081.14	5296.13
1086.05	5207.63
1090.95	5225.73
1095.86	5288.72
1100.77	5293.77
1105.68	5317.84
1110.59	5317.68
1115.5	5384.71
1120.4	5399.56
1125.31	5396.76
1130.22	5331.92
1135.13	5397.45
1140.04	5426.83
1144.95	5397.78
1149.85	5446.69
1154.76	5496.73
1159.67	5545.04
1164.58	5563.63
1169.49	5537.97
1174.4	5612
1179.3	5925.21
1184.21	5886.19
1189.12	5742.02
1194.03	5618.1
1198.94	5519.5
1203.85	5522.72
1208.75	5492.69
1213.66	5546.83
1218.57	5509.84
1223.48	5625.21
1228.39	5671.44
1233.29	5682.6
1238.2	5698.14
1243.11	5735.44
1248.02	5766.02
1252.93	5800.89
1257.84	5749.73
1262.74	5749.47
1267.65	5772.66
1272.56	5815.89
1277.47	5841.82
1282.38	5828.93
1287.29	5885.7
1292.19	5938.74
1297.1	5891.13
1302.01	5924.34
1306.92	5982.43
1311.83	6028.33
1316.74	6008.35
1321.64	5990.5
1326.55	6142.12
1331.46	6099.06
1336.37	6087.14
1341.28	6133.82
1346.19	6142.08
1351.09	6196.61
1356	6143.81
1360.91	6172.8
1365.82	6207.59
1370.73	6262.07
1375.64	6240.18
1380.54	6223.46
1385.45	6309.44
1390.36	6248.93
1395.27	6249.85
1400.18	6313.33
1405.09	6457.55
1409.99	6401.41
1414.9	6377.08
1419.81	6502.39
1424.72	6414.13
1429.63	6590.05
1434.54	6534.88
1439.44	6624.19
1444.35	6612.51
1449.26	6596.3
1454.17	6753.37
1459.08	6596.9
1463.98	6728.67
1468.89	6756.83
1473.8	6803.59
1478.71	6849.64
1483.62	6851.07
1488.53	6969.13
1493.43	6862.75
1498.34	6935.56
1503.25	6876.53
1508.16	6917.06
1513.07	7051.94
1517.98	6924.78
1522.88	7001.84
1527.79	6979.15
1532.7	6992.75
1537.61	7013.37
1542.52	7063.07
1547.43	7165.5
1552.33	7274.47
1557.24	7198.29
1562.15	7322.3
1567.06	7293.27
1571.97	7388.68
1576.88	7288.3
1581.78	7370.66
1586.69	7408.01
1591.6	7416.06
1596.51	7480.24
1601.42	7519.17
1606.33	7555.24
1611.23	7534.89
1616.14	7609.76
1621.05	7630.53
1625.96	7668.94
1630.87	7685.06
1635.78	7738.99
1640.68	7755.24
1645.59	7758.03
1650.5	7787.2
1655.41	7842.93
1660.32	7802.75
1665.23	7815.57
1670.13	7819.2
1675.04	7871.86
1679.95	7857.01
1684.86	7868
1689.77	7822.22
1694.67	7862.95
1699.58	7879.23
1704.49	7769.71
1709.4	7920.87
1714.31	7837.14
1719.22	7773.45
1724.12	7845.52
1729.03	7868.94
1733.94	7984.45
1738.85	8033.45
1743.76	7932.06
1748.67	7976.02
1753.57	7884.56
1758.48	8003.18
1763.39	7992.98
1768.3	8066.71
1773.21	8107.49
1778.12	8004.45
1783.02	8061.78
1787.93	8043.91
1792.84	8221.03
1797.75	8196.11
1802.66	8105.86
1807.57	8156.3
1812.47	8217.87
1817.38	8213.98
1822.29	8253.88
1827.2	8219.59
1832.11	8214
1837.02	8298.93
1841.92	8347.15
1846.83	8344.88
1851.74	8414.86
1856.65	8460.51
1861.56	8457.2
1866.47	8334.47
1871.37	8395.66
1876.28	8463.89
1881.19	8555.97
1886.1	8459.63
1891.01	8565.85
1895.92	8587.49
1900.82	8501.58
1905.73	8714.6
1910.64	8699.76
1915.55	8642.41
1920.46	8569.45
1925.37	8657.45
1930.27	8728.2
1935.18	8739.11
1940.09	8760.41
1945	8832.85
1949.91	8818.58
1954.81	8773.56
1959.72	8879.36
1964.63	8927.26
1969.54	8966.2
1974.45	8998.41
1979.36	8906.36
1984.26	8968.97
1989.17	8988.88
1994.08	9053.65
1998.99	9070
