Measurement: Raman, 514 nm, unoriented, Raman Data RAW
Mineral: Ferrosilite
Rruff sample: X050187
Ideal chemistry: Fe^2+^_2_Si_2_O_6_
Locality: unknown
Source: Caltech
Description: var. Eulite
Raman shift (cm-1)	intensity
100.292	70
105.43	123.166
110.567	180.294
115.705	222.031
120.842	282.113
125.98	361.91
131.117	407.564
136.255	479.671
141.392	576.986
146.53	592.906
151.667	561.015
156.805	528.416
161.942	509.477
167.08	483.938
172.218	480.405
177.355	495.702
182.493	520.439
187.63	530.648
192.768	551.811
197.905	579.065
203.043	538.263
208.18	589.168
213.318	612.711
218.455	636.574
223.593	675.754
228.73	680.562
233.868	669.697
239.005	696.386
244.143	723.959
249.28	713.581
254.418	721.929
259.555	719.648
264.693	680.543
269.83	655.645
274.968	640.081
280.106	659.592
285.243	650.913
290.38	697.772
295.518	723.847
300.656	808.506
305.793	950.109
310.931	1181.23
316.068	1501.69
321.206	1607.83
326.343	1510.41
331.481	1413.53
336.618	1309.77
341.756	1147.18
346.893	1035.11
352.031	1023.8
357.168	1140.6
362.306	1217.68
367.443	1254.09
372.581	1170.11
377.718	1211.99
382.856	1054.04
387.993	937.864
393.131	811.159
398.269	780.959
403.406	765.226
408.543	757.822
413.681	693.478
418.818	629.103
423.956	587.932
429.094	566.213
434.231	560.21
439.369	557.935
444.506	571.944
449.644	581.171
454.781	565.214
459.919	550.395
465.056	587.468
470.194	575.901
475.331	535.511
480.469	523.401
485.606	531.607
490.744	537.15
495.881	552.258
501.019	628.059
506.156	724.095
511.294	756.167
516.432	737.206
521.569	835.044
526.707	920.628
531.844	902.385
536.982	845.164
542.119	771.785
547.257	790.858
552.394	826
557.532	777.958
562.669	672.313
567.807	612.904
572.944	615.604
578.082	567.45
583.219	561.538
588.357	587.195
593.494	562.725
598.632	550.161
603.769	580.624
608.907	580.725
614.044	600.967
619.182	612.034
624.319	659.966
629.457	698.119
634.595	850.184
639.732	1072.45
644.87	1404.35
650.007	1477.65
655.144	1679.21
660.282	2435.3
665.42	3214.35
670.557	2590.25
675.695	1735.47
680.832	1203.49
685.97	915.378
691.107	753.237
696.245	690.518
701.382	674.957
706.52	624
711.657	605.467
716.795	626.102
721.932	624.579
727.07	684.949
732.207	623.693
737.345	665.002
742.482	644.455
747.62	619.461
752.758	610.154
757.895	587.289
763.033	579.476
768.17	571.802
773.308	560.406
778.445	584.647
783.583	571.52
788.72	610.756
793.858	598.105
798.995	580.689
804.133	569.065
809.27	574
814.408	578.675
819.545	552.699
824.683	588.761
829.82	568.161
834.958	561.26
840.095	583.609
845.233	585.795
850.37	564
855.508	572.636
860.645	596.133
865.783	592.48
870.92	610.656
876.058	619.658
881.196	661.073
886.333	661.091
891.471	652.023
896.608	655.624
901.746	686.176
906.883	687.667
912.021	698.412
917.158	738.87
922.296	729.37
927.433	767.04
932.571	786.044
937.708	840.152
942.846	979.157
947.983	1201.3
953.121	1224.29
958.258	1058.49
963.396	940.436
968.533	934.372
973.671	1098.74
978.808	1358.65
983.946	2116.17
989.083	3677.02
994.221	5394.16
999.359	4551.62
1004.5	2962.6
1009.63	2021.35
1014.77	1461.94
1019.91	1110.86
1025.05	952.001
1030.18	874.992
1035.32	809.414
1040.46	762.776
1045.6	722.982
1050.73	689.601
1055.87	686.559
1061.01	665.867
1066.15	666.122
1071.28	633.262
1076.42	653.409
1081.56	629.458
1086.7	650.803
1091.83	634.51
1096.97	646.34
1102.11	645.906
1107.25	612.066
1112.38	598.835
1117.52	589.067
1122.66	604.514
1127.8	599.955
1132.93	598.916
1138.07	586.65
1143.21	582.904
1148.35	573.474
1153.48	598.683
1158.62	582.698
1163.76	567.615
1168.9	554.729
1174.03	573.269
1179.17	552.255
1184.31	585.14
1189.45	588.515
1194.58	574.122
