Measurement: Raman, 780 nm, unoriented, Raman Data RAW
Mineral: Ferrobustamite
Rruff sample: R140843
Ideal chemistry: CaFe^2+^Si_2_O_6_
Locality: Horado mine, Gifu Prefecture, Chubu Region, Honshu Island, Japan
Source: Michael Scott
Description: Brown translucent massive. embedded in matrix
Raman shift (cm-1)	intensity
139.772	55374.6
142.664	55490.3
145.557	55516.9
148.45	55476.7
151.342	55449.4
154.235	55453.9
157.128	55399.7
160.02	55336.3
162.913	55423.7
165.806	55334.5
168.698	55294.1
171.591	55315.3
174.484	55140
177.377	55115.6
180.269	55066.3
183.162	55013.8
186.055	55037.8
188.947	54969.3
191.84	54810
194.733	54734
197.625	54771.2
200.518	54657.9
203.411	54575.3
206.304	54563.8
209.196	54412.3
212.089	54293.6
214.982	54292.5
217.874	54201.7
220.767	54082.5
223.66	54018.4
226.553	53917.8
229.445	53822.2
232.338	53695.6
235.231	53595.2
238.123	53506.9
241.016	53371.9
243.909	53295.9
246.801	53329.5
249.694	53151.3
252.587	52981.9
255.48	52767.1
258.372	52639.6
261.265	52602.6
264.158	52499.7
267.05	52429.9
269.943	52378.8
272.836	52280.6
275.728	52210.8
278.621	52078.9
281.514	52054.8
284.406	51808.8
287.299	51623.8
290.192	51571.3
293.085	51416.7
295.977	51358.5
298.87	51295.2
301.763	51124.2
304.655	50998.4
307.548	50850.4
310.441	50698.1
313.334	50576.6
316.226	50512.5
319.119	50395.1
322.012	50263.5
324.904	50093.2
327.797	49925.4
330.69	49762.6
333.582	49649.8
336.475	49618.5
339.368	49534.8
342.26	49366
345.153	49333.6
348.046	49167.9
350.938	48904.3
353.831	48740.8
356.724	48737.5
359.617	48563.9
362.509	48482.6
365.402	48261.5
368.295	48281.9
371.187	48087.8
374.08	47942.3
376.973	47753.6
379.865	47684.3
382.758	47467.8
385.651	47359.9
388.544	47242
391.436	47114.1
394.329	47031.5
397.222	46847.6
400.114	46634.8
403.007	46497.3
405.9	46477.5
408.793	46263.3
411.685	46176.5
414.578	46009.7
417.471	45882
420.363	45803
423.256	45752.2
426.149	45624
429.041	45510.5
431.934	45407
434.827	45248.3
437.719	45135.1
440.612	44937.7
443.505	44852.4
446.398	44709.5
449.29	44622
452.183	44515.8
455.076	44439.9
457.968	44368.3
460.861	44205.8
463.754	44031.6
466.647	43931.1
469.539	43793.8
472.432	43651.4
475.325	43451.8
478.217	43261.8
481.11	43150.9
484.003	43067.4
486.895	42889.7
489.788	42740.7
492.681	42533.5
495.573	42403.5
498.466	42215.1
501.359	41963.8
504.252	41888.2
507.144	41726.7
510.037	41641
512.93	41464.2
515.822	41324.6
518.715	41171.3
521.608	41014.3
524.5	40837.5
527.393	40717.3
530.286	40533.2
533.178	40407
536.071	40203.3
538.964	40126
541.857	39965.1
544.749	39783.8
547.642	39629.6
550.535	39563.2
553.427	39464.9
556.32	39275.6
559.213	39185.7
562.106	38991.4
564.998	38876.5
567.891	38784.8
570.784	38654.8
573.676	38500.3
576.569	38488.4
579.462	38277
582.354	38104.6
585.247	38056.3
588.14	37844.7
591.033	37762.8
593.925	37628.1
596.818	37572.1
599.711	37398.1
602.603	37284.3
605.496	37204
608.389	37020.9
611.281	36936.4
614.174	36802.3
617.067	36661.8
619.96	36580
622.852	36501.9
625.745	36314.7
628.638	36222.5
631.53	36097.3
634.423	36103.8
637.316	35926.4
640.208	35884.1
643.101	35717.4
645.994	35590.7
648.886	35435.6
651.779	35281.6
654.672	35072.1
657.564	35039.4
660.457	34959.7
663.35	34780
666.243	34666
669.135	34530.9
672.028	34379.8
674.921	34360.6
677.813	34201.8
680.706	34088.9
683.599	34020.7
686.491	33869.6
689.384	33726
692.277	33635.2
695.17	33501.7
698.062	33380.5
700.955	33298.5
703.848	33196.9
706.74	33061.9
709.633	33033
712.526	32906.7
715.418	32832.2
718.311	32697.8
721.204	32479.5
724.097	32409.9
726.989	32291.6
729.882	32175.6
732.775	32037.2
735.667	32021.2
738.56	31905.9
741.453	31718.6
744.346	31641.4
747.238	31484.7
750.131	31442
753.024	31299.1
755.916	31188.6
758.809	31068
761.702	30918.9
764.594	30743.9
767.487	30697.5
770.38	30645.8
773.273	30511.2
776.165	30426.3
779.058	30343.5
781.951	30221.9
784.843	30124.4
787.736	30033.7
790.629	29947.1
793.521	29897.8
796.414	29824.2
799.307	29644.3
802.199	29599.5
805.092	29576
807.985	29461.5
810.878	29351.4
813.77	29168.8
816.663	29172.2
819.556	29102.8
822.448	29005.5
825.341	28874.6
828.234	28836.3
831.126	28712.8
834.019	28553.2
836.912	28500.8
839.804	28403.8
842.697	28303.6
845.59	28275.1
848.483	28178.6
851.375	28070
854.268	27899.2
857.161	27831.4
860.053	27770.7
862.946	27709.7
865.839	27559.6
868.731	27452.7
871.624	27352
874.517	27290.8
877.409	27152.7
880.302	27097
883.195	27051.6
886.088	26947.8
888.98	26837.6
891.873	26781.8
894.766	26660.3
897.658	26545.7
900.551	26491.2
903.444	26369.5
906.337	26344.9
909.229	26264.3
912.122	26234.4
915.015	26107.4
917.907	26050.9
920.8	25966.2
923.693	25916.7
926.585	25780.7
929.478	25690.9
932.371	25647
935.264	25546
938.156	25527.1
941.049	25434.4
943.942	25363
946.834	25234.3
949.727	25188.7
952.62	25118.8
955.512	25113.1
958.405	25061.7
961.298	24998.8
964.191	24917.8
967.083	24886.2
969.976	24750.5
972.869	24607.4
975.761	24505.9
978.654	24464
981.547	24390
984.439	24349.6
987.332	24255.5
990.225	24277
993.117	24202.4
996.01	24106
998.903	24078
1001.8	24049.1
1004.69	23986.8
1007.58	23864.9
1010.47	23861.2
1013.37	23789.3
1016.26	23730.4
1019.15	23614.7
1022.04	23551.6
1024.94	23491.4
1027.83	23387.7
1030.72	23345.5
1033.62	23327.9
1036.51	23306.9
1039.4	23278.5
1042.29	23207
1045.19	23052.5
1048.08	23003.8
1050.97	22978.2
1053.86	22915.3
1056.76	22856.1
1059.65	22812.7
1062.54	22745.6
1065.43	22699.8
1068.33	22653.8
1071.22	22547.4
1074.11	22472.1
1077.01	22401.1
1079.9	22282.3
1082.79	22275
1085.68	22265.8
1088.58	22196.7
1091.47	22078
1094.36	22005.8
1097.26	21928.6
1100.15	21868.3
1103.04	21849
1105.93	21758.1
1108.83	21743.3
1111.72	21671
1114.61	21558.7
1117.5	21522.1
1120.4	21445.4
1123.29	21395.6
1126.18	21356.1
1129.07	21326
1131.97	21262.5
1134.86	21271
1137.75	21198.8
1140.64	21214
1143.54	21128.3
1146.43	21094.4
1149.32	21042.2
1152.22	21004.8
1155.11	20959.8
1158	20915
1160.89	20851.7
1163.79	20793.4
1166.68	20803.9
1169.57	20812.1
1172.46	20749.8
1175.36	20713.5
1178.25	20654.7
1181.14	20612.3
1184.04	20545.6
1186.93	20501.5
1189.82	20472.1
1192.71	20419.1
1195.61	20360.2
1198.5	20337.5
1201.39	20328.5
1204.28	20188.3
1207.18	20109.9
1210.07	20137.3
1212.96	20042
1215.86	20009.3
1218.75	19908.3
1221.64	19826.5
1224.53	19817.7
1227.43	19823.6
1230.32	19745.8
1233.21	19719.8
1236.1	19641
1239	19582.3
1241.89	19504.2
1244.78	19458.9
1247.67	19401
1250.57	19437.2
1253.46	19357.6
1256.35	19358.3
1259.25	19340.5
1262.14	19256.1
1265.03	19305
1267.92	19245.1
1270.82	19192.8
1273.71	19167.8
1276.6	19186.2
1279.49	19119.7
1282.39	19172.3
