Measurement: Raman, 780 nm, unoriented, Raman Data Processed
Mineral: Ferrowyllieite
Rruff sample: R160068
Ideal chemistry: NaNaFe^2+^(Fe^2+^Al)(PO_4_)_3_
Locality: Victory mine, near Custer, Custer County, South Dakota, USA
Source: James Shigley
Description: Dark green aggregates of blocky crystals, associated with quartz, muscovite, and arrojadite-(BaNa) (R160077)..
Measured chemistry: (Na_1.05_Ca_0.07_Mn^2+^_0.29_ â–¡_0.58_)(Fe^2+^_1.87_Mg_0.16_)(Al^3+^_0.72_Fe^3+^_0.28_)(P_1.01_O_4_)_3_   ; Grey phase. Bright phase is arrojadite-(BaNa).
Raman shift (cm-1)	intensity
147.283	0
150.176	0.171753
153.069	0.706757
155.961	3.62172
158.854	1.91739
161.747	3.29787
164.639	3.14491
167.532	2.26738
170.425	4.98409
173.317	2.55455
176.21	3.01543
179.103	3.01364
181.995	1.3549
184.888	0.6922
187.781	0.839355
190.674	0.46228
193.566	0.072113
196.459	0.221207
199.352	0.93985
202.244	0.687531
205.137	1.4407
208.03	3.43095
210.923	3.97453
213.815	5.44
216.708	6.2275
219.601	6.17042
222.493	7.16165
225.386	7.6426
228.279	8.79041
231.171	8.88034
234.064	10.0626
236.957	10.0074
239.85	10.0543
242.742	10.0044
245.635	10.7386
248.528	8.50613
251.42	6.81034
254.313	6.19033
257.206	5.05266
260.098	4.1338
262.991	4.46593
265.884	2.46651
268.776	1.17911
271.669	0.258865
274.562	0.694954
277.455	0.425865
280.347	0.362915
283.24	0.434776
286.133	0.520599
289.025	0.269623
291.918	0.618599
294.811	0.355286
297.704	0.982742
300.596	1.07603
303.489	0.94915
306.382	1.11583
309.274	0.790802
312.167	1.1125
315.06	1.10223
317.952	2.11879
320.845	1.68578
323.738	1.74441
326.63	1.73738
329.523	2.09263
332.416	2.13625
335.309	2.10939
338.201	2.68459
341.094	2.58507
343.987	2.20235
346.879	2.80367
349.772	2.48877
352.665	2.06258
355.558	2.71218
358.45	2.50414
361.343	1.97282
364.236	2.93247
367.128	3.15267
370.021	2.51105
372.914	2.45751
375.806	2.45482
378.699	1.62092
381.592	1.28093
384.485	0.821785
387.377	0.739876
390.27	0.193932
393.163	0.379066
396.055	0.090736
398.948	0.394196
401.841	0.570255
404.733	0.172913
407.626	0.686573
410.519	0.461407
413.411	0.963818
416.304	0.318573
419.197	1.11354
422.09	1.26344
424.982	1.21182
427.875	1.84447
430.768	1.26683
433.66	1.62841
436.553	1.01812
439.446	1.55276
442.339	1.12503
445.231	1.15532
448.124	1.50324
451.017	1.79913
453.909	1.59318
456.802	2.026
459.695	1.79865
462.587	2.23375
465.48	2.18405
468.373	3.14602
471.265	3.91538
474.158	3.90697
477.051	4.37549
479.944	4.34702
482.836	4.48408
485.729	4.21497
488.622	4.47396
491.514	4.32343
494.407	3.94335
497.3	3.31422
500.192	2.69239
503.085	2.93278
505.978	2.70016
508.871	2.86591
511.763	2.37733
514.656	2.12105
517.549	2.57386
520.441	1.20558
523.334	1.00509
526.227	0.142715
529.12	0.111725
532.012	0.270641
534.905	0.16267
537.798	0.445309
540.69	0.522522
543.583	0.104546
546.476	0.62442
549.368	0.703629
552.261	0.670712
555.154	1.50532
558.047	1.88714
560.939	2.27775
563.832	2.22634
566.725	2.8195
569.617	3.33245
572.51	3.3676
575.403	2.92802
578.295	3.25471
581.188	3.55279
584.081	3.63363
586.974	3.19273
589.866	3.7738
592.759	4.11398
595.652	4.28454
598.544	4.22518
601.437	4.88326
604.33	4.47751
607.222	4.6316
610.115	4.94341
613.008	4.80872
615.901	5.00016
618.793	4.92174
621.686	5.19192
624.579	5.31499
627.471	4.71423
630.364	3.78367
633.257	3.79155
636.149	3.75236
639.042	2.7862
641.935	2.20475
644.828	2.20174
647.72	1.85661
650.613	1.62143
653.506	1.4288
656.398	1.1889
659.291	0.994499
662.184	0.533806
665.077	0.895668
667.969	0.535477
670.862	0.258408
673.755	0.72924
676.647	0.443237
679.54	0.557663
682.433	0.091862
685.325	0.056297
688.218	0.286949
691.111	0.092972
694.004	0.158092
696.896	0.023914
699.789	0.213402
702.682	0.044399
705.574	0.011803
708.467	0.051544
711.36	0.296371
714.252	0.784283
717.145	0.110767
720.038	0.330738
722.931	0.048035
725.823	0.439079
728.716	0.145737
731.609	0.265152
734.501	0.013451
737.394	0.386559
740.287	0.114223
743.179	0.456211
746.072	0.166931
748.965	0.17802
751.857	0.342529
754.75	0.092415
757.643	0.11068
760.536	0.260818
763.428	0.404785
766.321	0.245762
769.214	0.782642
772.106	0.2715
774.999	0.33952
777.892	0.704742
780.784	0.865997
783.677	0.227234
786.57	0.935627
789.463	0.82151
792.355	0.918003
795.248	1.00911
798.141	1.00895
801.033	1.47305
803.926	1.57661
806.819	1.93346
809.712	1.27938
812.604	1.487
815.497	1.8097
818.39	1.51594
821.282	2.05656
824.175	1.99373
827.068	2.40095
829.96	2.59713
832.853	2.34115
835.746	2.66763
838.639	2.70602
841.531	2.80881
844.424	3.25278
847.317	2.74371
850.209	3.08659
853.102	2.9738
855.995	3.02497
858.887	3.02838
861.78	3.55088
864.673	3.12951
867.566	2.84579
870.458	2.91925
873.351	3.12219
876.244	2.51254
879.136	1.99845
882.029	1.99181
884.922	1.49804
887.814	1.53943
890.707	1.08139
893.6	0.937004
896.492	0.830509
899.385	0.499802
902.278	0.608536
905.171	0.436905
908.063	0.05872
910.956	0.384094
913.849	0.073677
916.741	0.137596
919.634	0.277412
922.527	0.046902
925.419	0.025951
928.312	0.001274
931.205	0.054718
934.098	0.336231
936.99	0.199944
939.883	0.025925
942.776	0.653259
945.668	0.367775
948.561	0.939793
951.454	1.24872
954.346	1.20117
957.239	2.38098
960.132	2.0857
963.025	2.06896
965.917	3.10531
968.81	3.28077
971.703	4.69499
974.595	5.11434
977.488	6.23309
980.381	7.32412
983.274	8.19896
986.166	8.24069
989.059	8.17605
991.952	8.16467
994.844	7.279
997.737	6.74724
1000.63	5.88182
1003.52	4.65257
1006.41	4.32944
1009.31	3.98261
1012.2	3.18648
1015.09	2.84747
1017.99	2.30674
1020.88	2.09787
1023.77	1.72046
1026.66	1.39647
1029.56	1.10295
1032.45	1.05999
1035.34	1.1251
1038.23	0.289989
1041.13	0.638821
1044.02	0.290409
1046.91	0.097866
1049.81	0.216415
1052.7	0.189545
1055.59	0.325035
1058.48	0.107845
1061.38	0.093502
1064.27	0.27409
1067.16	0.102631
1070.05	1.00998
1072.95	1.03742
1075.84	1.50431
1078.73	1.66099
1081.62	2.15795
1084.52	2.26199
1087.41	2.49339
1090.3	2.73746
1093.2	2.43882
1096.09	2.79783
1098.98	2.53985
1101.87	2.98804
1104.77	2.84001
1107.66	2.54895
1110.55	2.36103
1113.44	2.44295
1116.34	2.34409
1119.23	2.44745
1122.12	1.87499
1125.02	1.44085
1127.91	2.09888
1130.8	1.24705
1133.69	1.47959
1136.59	0.865612
1139.48	0.80434
1142.37	0.374264
1145.27	0.327358
1148.16	0.469765
1151.05	0.452179
1153.94	0.188072
1156.84	0.194305
1159.73	0.345108
1162.62	0.186012
1165.51	0.40551
1168.41	0.574707
1171.3	0.368771
1174.19	1.62529
1177.08	0.319176
1179.98	0.505455
1182.87	0.639332
1185.76	0.164619
1188.65	0.184002
1191.55	0.436466
1194.44	0.278774
1197.33	0.359211
1200.23	0.012497
1203.12	1.05425
1206.01	0.529831
1208.9	0.136829
1211.8	0.05949
1214.69	0.164604
1217.58	0.409908
1220.47	0.125984
1223.37	0.517368
1226.26	0.637766
1229.15	0.569977
1232.05	0.918295
1234.94	0.770374
1237.83	0.767338
1240.72	0.816452
1243.62	1.30581
1246.51	0.744421
1249.4	0.516249
1252.3	0.391613
1255.19	0.361469
1258.08	0.794146
1260.97	0.708027
1263.87	0.064047
1266.76	0.276276
1269.65	0.202971
1272.54	0.357597
1275.44	0.233452
1278.33	0.380459
1281.22	0.004169
