Measurement: Raman, 514.5, unoriented, Raman Data Processed
Mineral: Flamite
Rruff sample: R150148
Ideal chemistry: (Ca,Na,K)_2_(Si,P)O_4_
Locality: The southern Hatrurim Basin, the Negev Desert, Israel
Source: S.V. Goryainov
Description: Type sample. Lamellar intergrowths with partially hydrated larnite, gehlenite, rankinite and Ti-rich andradite. Data from Sokol et al (2015)
Measured chemistry: Ca_1.82_Na_0.09_K_0.06_Mg_0.01_(Si_0.82_P_0.18_)O_4_
Raman shift (cm-1)	intensity
76.3066	0
81.3489	18.3008
86.3911	0.090424
91.4333	7.1216
96.4756	33.2552
101.518	56.4229
106.56	51.1225
111.602	53.843
116.644	6.2355
121.687	12.5696
126.729	77.1209
131.771	14.5929
136.813	7.0693
141.856	11.6552
146.898	41.9034
151.94	61.9899
156.982	118.633
162.025	179.488
167.067	230.939
172.109	232.785
177.151	202.38
182.194	172.834
187.236	181.407
192.278	183.584
197.32	174.776
202.362	156.489
207.405	129.075
212.447	77.0612
217.489	44.3054
222.531	0.462036
227.574	10.3818
232.616	1.07599
237.658	59.7817
242.7	103.088
247.743	165.044
252.785	255.502
257.827	275.262
262.869	275.107
267.911	237.163
272.954	182.74
277.996	111.108
283.038	93.3174
288.08	81.59
293.123	90.4511
298.165	71.6626
303.207	64.824
308.249	69.868
313.291	64.1385
318.334	54.4336
323.376	34.0632
328.418	16.1821
333.46	16.3991
338.503	5.86165
343.545	6.17725
348.587	6.25981
353.629	21.4862
358.672	68.2803
363.714	89.6574
368.756	116.513
373.798	170.721
378.841	218.209
383.883	279.055
388.925	298.63
393.967	303.007
399.01	285.283
404.052	267.83
409.094	240.915
414.136	224.281
419.178	217.76
424.221	236.141
429.263	244.578
434.305	238.697
439.347	224.362
444.39	196.496
449.432	162.972
454.474	116.996
459.516	52.3954
464.558	15.6529
469.601	16.206
474.643	27.0627
479.685	6.04693
484.727	31.6263
489.77	62.4905
494.812	158.249
499.854	214.311
504.896	220.729
509.939	270.818
514.981	384.943
520.023	418.309
525.065	382.458
530.107	384.832
535.15	426.356
540.192	414.352
545.234	367.856
550.276	340.999
555.319	288.647
560.361	231.827
565.403	158.595
570.445	147.408
575.488	160.499
580.53	153.362
585.572	157.328
590.614	151.134
595.657	118.823
600.699	62.9752
605.741	29.6159
610.783	2.30381
615.825	15.483
620.868	9.22702
625.91	19.3017
630.952	7.61617
635.994	4.55119
641.037	49.3648
646.079	65.4016
651.121	83.3642
656.163	94.9391
661.206	131.54
666.248	126.76
671.29	114.55
676.332	102.06
681.375	100.573
686.417	66.9214
691.459	95.7622
696.501	77.977
701.543	93.4935
706.586	91.0686
711.628	94.2737
716.67	117.032
721.712	116.197
726.755	123.081
731.797	95.5325
736.839	105.144
741.881	92.6859
746.923	72.3715
751.966	55.8896
757.008	52.0313
762.05	43.6884
767.092	18.9464
772.135	19.1951
777.177	8.44029
782.219	4.96306
787.261	23.5799
792.303	6.7267
797.346	14.0619
802.388	22.7497
807.43	40.3703
812.472	126.744
817.515	266.147
822.557	607.812
827.599	1201.61
832.641	1913.66
837.684	2648.92
842.726	3541.56
847.768	4717.72
852.81	4622.92
857.853	3965.2
862.895	4066.16
867.937	3449.5
872.979	2243.37
878.021	1627.84
883.064	1246.6
888.106	1001.26
893.148	731.949
898.19	445.791
903.233	267.749
908.275	102.115
913.317	21.0182
918.359	25.3605
923.402	48.928
928.444	46.1476
933.486	266.257
938.528	733.056
943.571	1354.24
948.613	2114.2
953.655	2361.47
958.697	1882.15
963.739	1221.8
968.782	721.118
973.824	383.297
978.866	310.335
983.908	63.8461
988.951	7.48761
993.993	19.1808
999.035	35.6025
1004.08	25.2274
1009.12	44.0074
1014.16	17.7733
1019.2	13.5342
1024.25	1.03863
1029.29	24.9413
1034.33	3.20834
1039.37	20.6808
1044.41	27.1718
1049.46	32.4184
1054.5	37.7859
1059.54	13.9487
1064.58	44.9354
1069.63	47.1974
1074.67	45.91
1079.71	51.2624
1084.75	24.5685
1089.8	27.0568
1094.84	7.52274
1099.88	7.7478
1104.92	10.4571
1109.96	26.4074
1115.01	50.4534
1120.05	17.2255
1125.09	14.4287
1130.13	4.19382
1135.17	12.3934
1140.22	22.9785
1145.26	21.763
1150.3	28.243
1155.34	37.9532
1160.39	12.4043
1165.43	12.2925
1170.47	14.5168
1175.51	19.7422
1180.56	22.296
1185.6	4.40025
1190.64	44.4806
1195.68	40.378
1200.72	31.1347
1205.77	26.847
1210.81	23.0339
1215.85	38.3866
1220.89	11.6399
1225.94	11.7205
1230.98	7.30916
1236.02	23.3725
1241.06	1.49255
1246.1	2.50291
1251.15	9.23724
1256.19	9.83435
1261.23	10.2485
1266.27	16.5243
1271.32	16.7267
1276.36	33.7285
1281.4	48.4839
1286.44	30.5991
1291.48	33.483
1296.53	65.3268
1301.57	9.09439
1306.61	35.5063
1311.65	35.6173
1316.7	22.1314
1321.74	8.87518
1326.78	19.998
1331.82	11.8463
1336.87	10.3914
1341.91	0.590057
1346.95	14.9419
1351.99	24.8014
1357.03	25.6443
1362.08	23.8678
1367.12	28.6383
1372.16	12.478
1377.2	20.6639
1382.24	21.7058
1387.29	18.838
1392.33	10.864
1397.37	12.1306
1402.41	22.0586
1407.46	4.51947
1412.5	19.862
1417.54	10.548
1422.58	13.231
1427.62	22.7946
1432.67	7.88132
1437.71	13.5407
1442.75	6.25668
1447.79	9.92596
1452.84	1.43018
1457.88	18.1722
1462.92	28.7276
1467.96	2.9321
1473.01	20.546
1478.05	14.9539
1483.09	33.5968
1488.13	6.36465
1493.17	14.1166
1498.22	50.8663
1503.26	18.5478
1508.3	21.8778
1513.34	42.346
1518.38	17.0693
1523.43	37.8325
1528.47	24.5255
1533.51	24.3755
1538.55	21.1488
1543.6	23.0373
1548.64	21.9151
1553.68	41.6493
1558.72	21.9114
1563.77	5.44511
1568.81	0.912354
1573.85	23.7879
1578.89	6.1162
1583.93	4.7392
1588.98	26.9226
1594.02	7.56209
1599.06	10.4425
1604.1	7.65951
1609.14	26.7199
1614.19	29.68
1619.23	18.0986
1624.27	38.339
1629.31	22.0351
1634.36	21.6136
1639.4	44.7408
1644.44	52.8506
1649.48	38.4993
1654.53	9.10448
1659.57	27.7999
1664.61	39.5808
1669.65	44.1065
1674.69	44.6614
1679.74	40.8546
1684.78	40.4395
1689.82	37.7431
1694.86	18.2054
1699.9	44.5151
1704.95	53.6817
1709.99	33.8336
1715.03	36.3433
1720.07	16.8576
1725.12	18.0967
1730.16	26.2046
1735.2	10.042
1740.24	16.7576
1745.29	17.6427
1750.33	9.11461
1755.37	1.23334
1760.41	9.98756
1765.45	24.6709
1770.5	23.6259
1775.54	22.1803
1780.58	17.608
1785.62	30.0451
1790.67	8.04401
1795.71	28.3635
1800.75	47.741
1805.79	23.6362
1810.83	40.5256
1815.88	65.8322
1820.92	28.3165
1825.96	27.8368
1831	39.2119
1836.05	30.2701
1841.09	38.7006
1846.13	35.9963
1851.17	29.3109
1856.21	34.0861
1861.26	29.8559
1866.3	22.1874
1871.34	23.7845
1876.38	1.37791
1881.43	24.6472
1886.47	22.4931
1891.51	22.1111
1896.55	17.1121
1901.6	10.7868
1906.64	24.3772
1911.68	19.6605
1916.72	29.6833
1921.76	1.05753
1926.81	38.0453
1931.85	14.1634
1936.89	8.06137
1941.93	13.0206
1946.97	10.3952
