Measurement: Raman, 780 nm, unoriented, Raman Data Processed
Mineral: Florkeite
Rruff sample: R141068
Ideal chemistry: (K_3_Ca_2_Na)[Al_8_Si_8_O_32_]12H_2_O
Locality: Seekante, Mayener Feld, Southern lava flow, Bellerberg volcano, Ettringen, Mayen, Eifel, Rhineland-Palatinate, Germany
Source: Ch. and H. Sch√§fer
Description: Colorless bladed to prismatic crystals, associated with gismondine and white tobermorite
Raman shift (cm-1)	intensity
114.099	0
117.473	0.174866
120.848	8.56213
124.223	7.1814
127.598	13.5454
130.972	4.56262
134.347	3.31934
137.722	10.2752
141.097	6.79358
144.472	4.32837
147.847	1.79688
151.221	1.50287
154.596	0.684937
157.971	1.2738
161.346	8.84711
164.721	7.25787
168.096	5.63782
171.47	4.37042
174.845	5.29846
178.22	6.47205
181.595	8.14337
184.97	5.00055
188.345	5.70081
191.719	3.57172
195.094	1.07947
198.469	0.24939
201.844	1.74713
205.219	5.43744
208.593	2.6839
211.968	1.92718
215.343	3.00958
218.718	5.31543
222.093	2.71826
225.468	0.293274
228.842	2.12006
232.217	3.30524
235.592	5.94727
238.967	0.533691
242.341	1.83148
245.716	4.50006
249.091	3.19263
252.466	3.36639
255.841	0.848145
259.216	5.75848
262.591	1.99658
265.965	5.07898
269.34	0.873779
272.715	2.39484
276.09	0.602112
279.464	5.05151
282.839	3.00354
286.214	6.59381
289.589	5.51685
292.964	7.34845
296.339	4.93091
299.713	3.92108
303.088	2.16376
306.463	4.42261
309.838	7.31543
313.213	5.54773
316.587	5.11633
319.962	2.47186
323.337	2.7464
326.712	2.56549
330.087	2.06458
333.462	4.70142
336.837	2.08392
340.211	1.16199
343.586	2.76593
346.961	3.07526
350.336	0.685852
353.711	0.987671
357.085	0.625854
360.46	3.06848
363.835	0.810852
367.21	2.75012
370.585	2.57996
373.959	1.58527
377.334	5.40588
380.709	4.20654
384.084	4.94928
387.459	6.67859
390.834	9.65698
394.208	9.77307
397.583	11.4674
400.958	9.88593
404.333	15.3113
407.708	20.1111
411.082	24.365
414.457	22.0324
417.832	24.1722
421.207	18.9295
424.582	19.6123
427.957	19.4762
431.331	21.3543
434.706	25.7494
438.081	28.6055
441.456	28.0089
444.831	26.6122
448.205	25.0571
451.58	29.5383
454.955	30.6431
458.33	35.4932
461.705	40.5955
465.079	42.1011
468.454	45.6621
471.829	39.5176
475.204	35.1888
478.579	34.8066
481.954	27.7809
485.328	29.4912
488.703	23.7152
492.078	20.4966
495.453	16.6199
498.828	13.2518
502.202	11.0862
505.577	5.75464
508.952	1.23315
512.327	1.99262
515.702	1.117
519.077	0.164185
522.451	2.14563
525.826	1.79169
529.201	0.285217
532.576	1.86932
535.951	5.04919
539.326	3.12024
542.7	7.35583
546.075	7.40888
549.45	7.60297
552.825	9.97705
556.2	9.23218
559.574	5.40356
562.949	6.79181
566.324	4.67615
569.699	4.40967
573.074	3.45416
576.448	4.4198
579.823	5.42725
583.198	5.5011
586.573	3.67798
589.948	1.37054
593.323	2.99548
596.697	5.15405
600.072	3.22156
603.447	0.809021
606.822	0.800964
610.197	2.05249
613.572	0.620361
616.946	3.18463
620.321	4.57562
623.696	3.90332
627.071	4.31195
630.446	5.81897
633.82	5.08545
637.195	4.30627
640.57	4.82385
643.945	3.22467
647.32	0.83136
650.694	3.2724
654.069	5.97138
657.444	1.11755
660.819	1.21783
664.194	2.67407
667.569	4.71643
670.943	1.97833
674.318	0.057251
677.693	0.955261
681.068	3.5058
684.443	5.4043
687.817	2.96521
691.192	1.78241
694.567	0.391174
697.942	2.6629
701.317	1.15655
704.692	3.64856
708.066	0.765808
711.441	0.231628
714.816	2.84503
718.191	3.75275
721.566	6.26477
724.941	5.49579
728.315	5.02759
731.69	3.08789
735.065	1.23187
738.44	1.12518
741.815	5.61261
745.189	2.87427
748.564	2.00226
751.939	0.294983
755.314	2.1073
758.689	1.04962
762.063	2.5003
765.438	1.2146
768.813	2.94379
772.188	0.649902
775.563	1.61487
778.938	2.19739
782.312	3.43622
785.687	2.91296
789.062	1.59949
792.437	6.35449
795.812	3.15008
799.187	7.02161
802.561	6.86804
805.936	3.14551
809.311	2.45996
812.686	5.24469
816.061	3.61218
819.435	4.4704
822.81	4.09509
826.185	5.46204
829.56	2.1167
832.935	3.34515
836.309	6.2724
839.684	6.58411
843.059	5.67896
846.434	5.92877
849.809	7.61743
853.184	6.88312
856.558	3.77777
859.933	3.60565
863.308	7.06781
866.683	6.64471
870.058	2.92145
873.433	5.09766
876.807	3.70026
880.182	7.15125
883.557	2.53693
886.932	8.02173
890.307	8.03815
893.681	2.85736
897.056	4.00476
900.431	5.14697
903.806	3.80963
907.181	0.459412
910.556	0.183655
913.93	0.668518
917.305	0.297363
920.68	3.00195
924.055	2.72382
927.43	2.94733
930.804	3.03522
934.179	5.72327
937.554	6.75617
940.929	3.24219
944.304	2.95056
947.678	0.015442
951.053	2.36054
954.428	3.68597
957.803	4.91321
961.178	8.12799
964.553	8.50372
967.927	7.65228
971.302	3.71295
974.677	4.86401
978.052	5.98144
981.427	10.0445
984.802	7.27533
988.176	3.03302
991.551	10.1333
994.926	2.47974
998.301	5.04059
1001.68	5.14252
1005.05	3.43323
1008.42	0.710632
1011.8	5.8078
1015.17	5.41962
1018.55	3.31256
1021.92	6.97992
1025.3	5.35822
1028.67	0.898376
1032.05	3.12994
1035.42	5.65674
1038.8	0.801453
1042.17	5.172
1045.55	0.157166
1048.92	5.15655
1052.3	0.438965
1055.67	1.95563
1059.05	3.52563
1062.42	4.0697
1065.8	3.28558
1069.17	5.60675
1072.55	5.16351
1075.92	8.71124
1079.3	14.8502
1082.67	12.7857
1086.05	17.8804
1089.42	18.2341
1092.8	23.8125
1096.17	24.6379
1099.55	20.568
1102.92	17.5461
1106.3	11.2872
1109.67	10.8026
1113.05	3.48395
1116.42	3.25964
1119.79	2.43506
1123.17	3.83014
1126.54	1.33032
1129.92	0.518005
1133.29	2.52191
1136.67	11.1849
1140.04	15.3148
1143.42	16.3192
1146.79	21.2308
1150.17	20.9415
1153.54	16.3457
1156.92	11.6274
1160.29	9.10297
1163.67	6.20862
1167.04	7.01355
1170.42	8.32111
1173.79	3.30804
1177.17	1.8432
1180.54	2.40295
1183.92	2.29022
1187.29	2.98236
1190.66	3.59705
1194.04	1.47846
1197.41	0.849731
1200.79	1.9776
1204.16	4.43024
1207.54	4.87665
1210.91	10.2675
1214.29	11.6887
1217.66	12.3014
1221.04	16.3373
1224.41	16.4858
1227.79	10.6516
1231.16	5.47412
1234.54	10.8209
1237.91	9.97595
1241.29	7.12561
1244.66	7.96765
1248.04	2.79297
1251.41	6.92688
1254.79	7.41406
1258.16	5.10767
1261.54	6.56262
1264.91	0.950928
1268.29	1.55652
1271.66	1.12036
1275.04	10.4171
1278.41	6.28308
1281.79	0.011719
