Measurement: Raman, 532 nm, unoriented, Raman Data Processed
Mineral: Florkeite
Rruff sample: R141068
Ideal chemistry: (K_3_Ca_2_Na)[Al_8_Si_8_O_32_]12H_2_O
Locality: Seekante, Mayener Feld, Southern lava flow, Bellerberg volcano, Ettringen, Mayen, Eifel, Rhineland-Palatinate, Germany
Source: Ch. and H. Sch√§fer
Description: Colorless bladed to prismatic crystals, associated with gismondine and white tobermorite
Raman shift (cm-1)	intensity
98.2612	0
101.636	2.10019
105.011	1.60699
108.386	24.0943
111.76	26.1405
115.135	46.144
118.51	63.6478
121.885	71.8464
125.26	86.7931
128.635	89.8885
132.009	104.571
135.384	113.631
138.759	124.6
142.134	124.83
145.509	117.719
148.883	110.593
152.258	106.644
155.633	104.097
159.008	102.397
162.383	106.054
165.757	106.977
169.132	103.845
172.507	93.8138
175.882	83.0241
179.257	71.7215
182.632	60.8296
186.006	51.3658
189.381	40.6042
192.756	34.0654
196.131	29.7342
199.506	28.0044
202.881	28.5381
206.255	28.9218
209.63	33.2978
213.005	33.3734
216.38	30.604
219.755	25.1334
223.129	17.2803
226.504	9.71027
229.879	5.55576
233.254	4.11002
236.629	1.71542
240.004	0.404846
243.378	1.4025
246.753	0.030823
250.128	1.03018
253.503	2.40396
256.878	4.38367
260.252	2.82394
263.627	1.37134
267.002	1.5184
270.377	2.35077
273.752	2.595
277.127	0.456024
280.501	1.93689
283.876	1.13074
287.251	3.41418
290.626	4.45459
294.001	5.26208
297.375	2.50198
300.75	3.41284
304.125	1.81549
307.5	3.97272
310.875	4.29758
314.25	8.01056
317.624	8.27936
320.999	9.37589
324.374	9.89798
327.749	9.59427
331.124	7.71237
334.498	6.53799
337.873	8.4985
341.248	6.94659
344.623	9.49963
347.998	8.93014
351.373	8.54877
354.747	6.02237
358.122	3.9118
361.497	0.575165
364.872	1.37827
368.247	0.822662
371.621	1.63058
374.996	0.745758
378.371	1.10052
381.746	2.92145
385.121	4.48517
388.495	4.95224
391.87	5.90829
395.245	7.54956
398.62	8.42191
401.995	9.73407
405.37	11.2519
408.744	13.2832
412.119	17.2407
415.494	17.757
418.869	13.089
422.244	14.3619
425.618	15.8664
428.993	19.4944
432.368	22.1569
435.743	27.1002
439.118	32.6696
442.493	35.8541
445.867	40.656
449.242	46.7787
452.617	51.693
455.992	63.4124
459.367	79.0269
462.741	99.6363
466.116	113.85
469.491	119.412
472.866	114.022
476.241	103.355
479.615	91.4697
482.99	81.5393
486.365	66.1307
489.74	54.0516
493.115	42.1392
496.49	31.5462
499.864	23.2021
503.239	12.9285
506.614	8.61322
509.989	2.66513
513.364	0.590485
516.739	3.18649
520.113	2.79553
523.488	0.880035
526.863	2.94855
530.238	5.06302
533.613	7.19223
536.987	10.9508
540.362	14.2824
543.737	17.3037
547.112	20.0574
550.487	22.9441
553.861	24.5371
557.236	24.4765
560.611	25.4097
563.986	25.5708
567.361	24.4793
570.736	22.9886
574.11	21.1669
577.485	16.8286
580.86	15.4345
584.235	16.4681
587.61	15.4423
590.985	12.4417
594.359	12.6533
597.734	10.1263
601.109	8.85245
604.484	7.57126
607.859	8.89398
611.233	9.6138
614.608	6.73318
617.983	7.60898
621.358	6.9819
624.733	5.50617
628.107	3.7327
631.482	5.8822
634.857	3.43591
638.232	3.25534
641.607	1.79089
644.982	1.30588
648.356	0.7771
651.731	0.352386
655.106	1.9801
658.481	0.963959
661.856	0.475128
665.231	0.370331
668.605	3.85101
671.98	3.02228
675.355	2.2811
678.73	1.37561
682.105	2.40878
685.479	3.88159
688.854	4.00391
692.229	5.75223
695.604	6.48178
698.979	5.35608
702.354	3.97653
705.728	5.41864
709.103	4.22781
712.478	2.36115
715.853	0.749878
719.227	0.665649
722.602	0.983002
725.977	0.359222
729.352	0.389648
732.727	1.32379
736.102	0.526978
739.476	0.027985
742.851	2.78677
746.226	1.8913
749.601	2.62262
752.976	2.93024
756.351	3.88315
759.725	5.36865
763.1	5.2688
766.475	4.81921
769.85	6.98361
773.225	7.68393
776.599	7.4064
779.974	7.24854
783.349	8.70267
786.724	8.85034
790.099	9.01776
793.473	10.9026
796.848	10.3614
800.223	14.3445
803.598	9.33029
806.973	9.33655
810.348	9.43817
813.722	11.3056
817.097	10.9913
820.472	12.5048
823.847	12.7597
827.222	9.09946
830.597	9.94095
833.971	10.7406
837.346	8.77478
840.721	7.29453
844.096	7.57895
847.471	9.55518
850.846	9.45825
854.22	8.78674
857.595	9.59808
860.97	8.38855
864.345	10.1609
867.72	8.57498
871.094	6.81543
874.469	6.30136
877.844	7.21683
881.219	7.41684
884.594	6.74823
887.968	7.1149
891.343	6.42743
894.718	5.6918
898.093	2.93747
901.468	2.54355
904.842	0.984924
908.217	1.07489
911.592	1.37936
914.967	1.15897
918.342	0.193359
921.717	0.862732
925.091	0.43338
928.466	2.9433
931.841	3.50442
935.216	3.21329
938.591	2.56537
941.966	2.97418
945.34	2.69299
948.715	4.91379
952.09	5.74875
955.465	6.75897
958.84	6.14795
962.214	5.56869
965.589	6.77316
968.964	6.31827
972.339	9.0224
975.714	9.48477
979.088	14.0721
982.463	13.4484
985.838	9.88577
989.213	9.48987
992.588	7.62711
995.963	6.13684
999.337	3.76324
1002.71	0.778992
1006.09	0.44455
1009.46	0.06842
1012.84	0.146332
1016.21	0.483673
1019.59	0.369019
1022.96	1.59427
1026.34	0.8703
1029.71	1.5199
1033.09	4.43356
1036.46	4.05389
1039.84	3.07425
1043.21	3.7164
1046.59	4.40146
1049.96	3.9006
1053.33	5.99063
1056.71	6.13687
1060.08	8.48856
1063.46	11.3111
1066.83	12.6115
1070.21	19.3355
1073.58	23.9924
1076.96	29.2248
1080.33	32.3551
1083.71	35.6903
1087.08	37.9517
1090.46	38.3953
1093.83	38.9715
1097.21	39.3717
1100.58	41.085
1103.96	38.8192
1107.33	34.9933
1110.71	30.1388
1114.08	26.639
1117.46	25.6667
1120.83	22.8183
1124.21	17.846
1127.58	14.9385
1130.95	11.7209
1134.33	13.4872
1137.7	11.7994
1141.08	12.922
1144.45	12.5476
1147.83	10.8324
1151.2	12.0422
1154.58	8.54459
1157.95	6.02637
1161.33	5.00101
1164.7	2.76544
1168.08	0.040741
1171.45	1.55542
1174.83	2.23248
1178.2	2.13794
1181.58	0.256409
1184.95	1.85315
1188.33	1.08865
1191.7	1.66385
1195.08	1.42419
1198.45	0.721191
1201.83	0.995361
1205.2	0.396271
1208.58	0.018494
1211.95	0.917542
1215.33	1.91379
1218.7	3.92758
1222.08	3.67389
1225.45	3.72238
1228.83	2.91479
1232.2	2.88403
1235.58	3.49908
1238.95	2.6579
1242.32	3.92053
1245.7	5.99988
1249.07	7.04572
1252.45	5.59595
1255.82	6.02576
1259.2	6.05417
1262.57	5.52942
1265.95	1.44879
1269.32	2.86371
1272.7	0.293304
1276.07	0.474091
1279.45	3.03329
1282.82	6.16415
1286.2	7.57501
1289.57	3.94598
1292.95	3.21295
1296.32	4.59793
1299.7	0.732697
