Measurement: Raman, 514 nm, unoriented, Raman Data RAW
Mineral: Fluorapatite
Rruff sample: X050079
Ideal chemistry: Ca_5_(PO_4_)_3_F
Locality: Durango, Mexico
Source: Caltech
Description: Single crystal
Raman shift (cm-1)	intensity
88.608	3017
92.793	3131
96.976	3385
101.157	3566
105.336	3603
109.513	3690
113.688	3707
117.861	3687
122.032	3592
126.201	3679
130.367	3807
134.532	4147
138.695	4844
142.856	4374
147.014	3726
151.171	3584
155.325	3905
159.478	3998
163.629	3570
167.777	3423
171.924	3371
176.068	3189
180.211	3049
184.351	3085
188.49	3048
192.626	3045
196.761	3023
200.893	3124
205.024	3084
209.152	3040
213.279	3072
217.403	3110
221.526	3030
225.646	3004
229.765	3266
233.881	3416
237.996	3322
242.108	3179
246.219	3230
250.328	3179
254.434	3147
258.539	3360
262.641	3931
266.742	4276
270.84	3803
274.937	3472
279.032	3546
283.125	3383
287.215	3274
291.304	3399
295.391	3383.91
299.476	3502
303.558	3571
307.639	3842
311.718	3904
315.795	3578
319.87	3382
323.943	3464
328.014	3475
332.083	3280
336.15	3310
340.215	3459
344.279	3524
348.34	3402
352.399	3429
356.457	3536
360.512	3599
364.565	3426
368.617	3509
372.666	3650
376.714	3678
380.76	3579
384.803	3534
388.845	3729
392.885	3768
396.923	3793
400.959	3729
404.993	3896
409.025	3979
413.055	4005
417.084	3960
421.11	4235
425.134	4517
429.157	4646
433.177	4721
437.196	5048
441.213	5799
445.227	6111
449.24	5888
453.251	5521
457.26	5326
461.267	4943
465.272	4620
469.276	4533
473.277	4715
477.276	4725
481.274	4567
485.27	4497
489.263	4659
493.255	4763
497.245	4711
501.233	4628
505.219	4788
509.203	4958
513.186	4954
517.166	4791
521.145	4923
525.121	5148
529.096	5140
533.069	5062
537.04	4986
541.009	5174
544.976	5413
548.941	5287
552.905	5236
556.866	5324
560.826	5606
564.784	5822
568.74	5799
572.694	5776
576.646	6774
580.596	8039.85
584.544	6958
588.491	6411
592.435	6287
596.378	6126
600.319	6354
604.258	7298
608.195	7644
612.131	6433
616.064	6821
619.995	6484
623.925	6176
627.853	5892
631.779	5885
635.703	6174
639.625	6231
643.546	6046
647.464	6117
651.381	6327
655.296	6572
659.209	6615
663.12	6417
667.029	6409
670.937	6522
674.842	6785
678.746	6668
682.648	6486
686.548	6446
690.447	6748
694.343	7031
698.238	7026
702.13	6860
706.021	6708
709.91	6945
713.798	7255
717.683	7286
721.567	7086
725.448	7016
729.328	7230
733.206	7447
737.083	7521
740.957	7478
744.83	7378
748.701	7518
752.57	7639
756.437	7869
760.302	7806
764.166	7649
768.027	7780
771.887	8016
775.745	8314
779.602	8342
783.456	7988
787.309	8023
791.16	8167
795.009	8623
798.856	8645
802.702	8470
806.545	8258
810.387	8486
814.227	8762
818.065	8940
821.902	8744
825.737	8642
829.569	8819
833.401	8877
837.23	9390
841.057	9427
844.883	9302
848.707	9132
852.529	9323
856.35	9796
860.168	10180
863.985	9904
867.8	9678
871.613	9526
875.425	9718
879.234	10000
883.042	10520
886.848	10450
890.653	10180
894.455	10010
898.256	10160
902.055	10620
905.852	10750
909.648	10840
913.442	10650
917.233	10450
921.024	10830
924.812	11360
928.599	11600
932.384	11620
936.167	11400
939.948	11480
943.728	12080
947.506	13060
951.282	14430
955.056	17050
958.829	26910
962.6	60510
966.369	45920
970.136	23240
973.902	16920
977.666	14020
981.428	12850
985.188	12350
988.947	12370
992.704	12780
996.459	13190
1000.21	13430
1003.96	13280
1007.71	13570
1011.46	13340
1015.21	13080
1018.95	13430
1022.7	13860
1026.44	14290
1030.18	14910
1033.91	14830
1037.65	14180
1041.39	14430
1045.12	14520
1048.85	15000
1052.58	14960
1056.31	14920
1060.03	15030
1063.76	14190
1067.48	14520
1071.2	14910
1074.92	15440
1078.63	15850
1082.35	15140
1086.06	14520
1089.78	14350
1093.49	14910
1097.19	15430
1100.9	15640
1104.61	15660
1108.31	15450
1112.01	15220
1115.71	15040
1119.41	15340
1123.11	15810
1126.8	16420
1130.5	16540
1134.19	16270
1137.88	15870
1141.57	15660
1145.25	15830
1148.94	16160
1152.62	16870
1156.3	17150
1159.98	17140
1163.66	16960
1167.34	16450
1171.01	16280
1174.68	17150
1178.36	17310
1182.02	17890
1185.69	18130
1189.36	17840
1193.02	17450
1196.69	17340
1200.35	17110
1204.01	17260
1207.66	17830
1211.32	18600
1214.98	19120
1218.63	19480
1222.28	18690
1225.93	18060
1229.58	18150
1233.22	17890
1236.87	18510
1240.51	19380
1244.15	19760
1247.79	19950
1251.43	19390
1255.07	18960
1258.7	18730
1262.33	18890
1265.96	19020
1269.59	19940
1273.22	20520
1276.85	21000
1280.47	20820
1284.1	20520
1287.72	19820
1291.34	19840
1294.95	19660
1298.57	19990
1302.19	20610
1305.8	21320
1309.41	21980
1313.02	21670
1316.63	21750
1320.23	21150
1323.84	20700
1327.44	20600
1331.05	21220
1334.64	21820
1338.24	22740
1341.84	23250
1345.43	23100
1349.03	23070
1352.62	22920
1356.21	22360
1359.8	22050
1363.39	22250
1366.97	22710
1370.56	23110
1374.14	23930
1377.72	24670
1381.3	25160
1384.87	24850
1388.45	24230
1392.02	24030
1395.6	23560
1399.17	23340
1402.74	24000
1406.3	24620
1409.87	25780
1413.43	26780
1417	27010
1420.56	26610
1424.12	26500
1427.67	25710
1431.23	25630
1434.79	25120
1438.34	25100
1441.89	25660
1445.44	26430
1448.99	27310
1452.54	28240
1456.08	29010
1459.62	28970
1463.17	28630
1466.71	28240
1470.24	27580
1473.78	27230
1477.32	26870
1480.85	26990
1484.38	27610
1487.91	28470
1491.44	29560
1494.97	30240
1498.5	31130
1502.02	31300
1505.54	30850
1509.07	30170
1512.59	29770
1516.1	29260
1519.62	28760
