Measurement: Raman, 532 nm, unoriented, Raman Data RAW
Mineral: Fluorcalciomicrolite
Rruff sample: R090008
Ideal chemistry: (Ca,Na)_2_Ta^5+^_2_O_6_F
Locality: Shigar Valley, Skardu District, Baltistan, Northern areas, Pakistan
Source: Herb Obodda
Description: Dark yellowish brown octahedra on orthoclase
Measured chemistry: (Ca_0.99_Na_0.99_Pb_0.02_Mn^2+^_0.01_)_Σ2.01_(Ta_1.63_Nb_0.35_Sn_0.02_Ti_0.01_)_Σ2.01_O_6_(F_0.99_O_0.01_)
Raman shift (cm-1)	intensity
90.9261	0
94.3009	49.4201
97.6757	52.6796
101.05	59.3078
104.425	91.7733
107.8	179.378
111.175	349.669
114.55	725.968
117.925	1176.53
121.299	1466.05
124.674	1877.84
128.049	2413.68
131.424	2802.96
134.799	3022.71
138.173	3265.88
141.548	3581.79
144.923	3769.35
148.298	3737.99
151.673	3652.48
155.048	3623.8
158.422	3617.7
161.797	3625.6
165.172	3557.78
168.547	3483.85
171.922	3411.29
175.297	3351.32
178.671	3290.61
182.046	3209.22
185.421	3142.18
188.796	3075.54
192.171	3048.02
195.545	3022.7
198.92	2987.56
202.295	2944.71
205.67	2893.11
209.045	2824.45
212.419	2664.09
215.794	2516.65
219.169	2482.83
222.544	2470.09
225.919	2475.12
229.293	2499.85
232.668	2532.45
236.043	2582.81
239.418	2631.39
242.793	2667.02
246.168	2685.78
249.542	2685.45
252.917	2688.01
256.292	2684.57
259.667	2710.5
263.042	2748.82
266.416	2841.2
269.791	2954.91
273.166	3088.64
276.541	3262.5
279.916	3449.72
283.291	3594.66
286.665	3699.88
290.04	3786.47
293.415	3859.49
296.79	3873.13
300.165	3841.01
303.539	3713.58
306.914	3476.88
310.289	3192.57
313.664	2911.03
317.039	2701.11
320.414	2564.82
323.788	2517.82
327.163	2549.2
330.538	2654.55
333.913	2755
337.288	2829.82
340.662	2785.59
344.037	2598.66
347.412	2369.74
350.787	2202.03
354.162	2059.61
357.536	1973.62
360.911	1898.6
364.286	1833.76
367.661	1781.74
371.036	1745.9
374.411	1715.59
377.785	1696.83
381.16	1681.36
384.535	1655.69
387.91	1640.11
391.285	1622.07
394.659	1613.72
398.034	1608.39
401.409	1606.84
404.784	1607.76
408.159	1608.42
411.534	1600.62
414.908	1592.13
418.283	1593.42
421.658	1598.04
425.033	1597.98
428.408	1596.58
431.783	1598
435.157	1589
438.532	1573.62
441.907	1569.57
445.282	1543.58
448.657	1523.31
452.031	1487.58
455.406	1450.45
458.781	1416.66
462.156	1403.21
465.531	1397.84
468.906	1391.65
472.28	1400.57
475.655	1416.26
479.03	1450.17
482.405	1499.37
485.779	1578.85
489.154	1732.49
492.529	1985.12
495.904	2390.75
499.279	2943.29
502.654	3637.68
506.028	4405.54
509.403	5003.79
512.778	5125.61
516.153	4761.56
519.528	4284.88
522.903	3909.09
526.277	3678.72
529.652	3537.36
533.027	3453.2
536.402	3439.57
539.777	3418.96
543.151	3387.24
546.526	3341.45
549.901	3277.72
553.276	3177.52
556.651	3054.04
560.025	2941.93
563.4	2826.96
566.775	2739.65
570.15	2669.17
573.525	2602.64
576.9	2560.28
580.274	2549.18
583.649	2550.86
587.024	2574.06
590.399	2606.66
593.774	2662.26
597.148	2712.1
600.523	2740.08
603.898	2758.01
607.273	2771.37
610.648	2771.44
614.023	2757.67
617.397	2731.45
620.772	2711.07
624.147	2684.63
627.522	2676.32
630.897	2668.86
634.271	2676.82
637.646	2692.31
641.021	2708.95
644.396	2723.2
647.771	2737.35
651.145	2748.75
654.52	2755.64
657.895	2733.57
661.27	2700.2
664.645	2642.74
668.02	2586.79
671.394	2524.45
674.769	2446.52
678.144	2357.6
681.519	2278.54
684.894	2192.25
688.269	2101.78
691.643	2006.4
695.018	1901.67
698.393	1804.47
701.768	1709.54
705.143	1611.6
708.517	1520.38
711.892	1436.04
715.267	1353.98
718.642	1287.9
722.017	1228.29
725.391	1170.81
728.766	1130.86
732.141	1094.9
735.516	1065.78
738.891	1038.62
742.266	1013.67
745.64	997.849
749.015	978.239
752.39	963.565
755.765	948.678
759.14	935.256
762.514	927.278
765.889	908.579
769.264	903.164
772.639	887.387
776.014	873.592
779.389	866.988
782.763	864.819
786.138	874.241
789.513	893.228
792.888	924.977
796.263	967.334
799.637	1016.85
803.012	1060.31
806.387	1095.6
809.762	1122.69
813.137	1136.55
816.511	1143.56
819.886	1142.61
823.261	1135.62
826.636	1126.31
830.011	1108.67
833.386	1088.03
836.76	1068.45
840.135	1050.84
843.51	1032.42
846.885	1007.12
850.26	990.944
853.635	982.422
857.009	980.072
860.384	987.795
863.759	1003.38
867.134	1029.38
870.509	1059.33
873.883	1090.67
877.258	1118.58
880.633	1147.38
884.008	1177.17
887.383	1212.86
890.757	1224.72
894.132	1243.9
897.507	1258.61
900.882	1283.19
904.257	1296.17
907.631	1307.54
911.006	1317.63
914.381	1324.34
917.756	1330.24
921.131	1317.34
924.506	1291.81
927.88	1244.7
931.255	1190.5
934.63	1126.81
938.005	1040.27
941.38	957.606
944.755	874.124
948.129	796.897
951.504	730.786
954.879	672.027
958.254	625.351
961.629	592.379
965.003	559.373
968.378	528.64
971.753	504.83
975.128	487.238
978.503	470.851
981.877	457.649
985.252	449.99
988.627	442.764
992.002	437.665
995.377	438.302
998.751	437.461
1002.13	438.201
1005.5	439.629
1008.88	432.175
1012.25	428.78
1015.63	420.142
1019	415.652
1022.38	407.853
1025.75	395.531
1029.12	389.412
1032.5	379.839
1035.88	375.865
1039.25	365.72
1042.62	360.927
1046	356.865
1049.37	350.888
1052.75	345.067
1056.12	340.776
1059.5	336.255
1062.87	333.918
1066.25	329.443
1069.62	326.727
1073	323.641
1076.37	316.183
1079.75	311.411
1083.12	305.315
1086.5	298.733
1089.87	290.441
1093.25	279.741
1096.62	274.148
1100	264.154
1103.37	255.916
1106.75	249.152
1110.12	237.975
1113.49	230.594
1116.87	222.72
1120.24	217.046
1123.62	211.205
1126.99	207.103
1130.37	201.812
1133.74	195.917
1137.12	192.623
1140.49	188.502
1143.87	184.689
1147.24	181.337
1150.62	179.652
1153.99	178.449
1157.37	177.99
1160.74	177.492
1164.12	179.154
1167.49	177.826
1170.87	177.796
1174.24	176.611
1177.62	177.049
1180.99	179.991
1184.37	180.71
1187.74	181.837
1191.12	182.656
1194.49	184.541
1197.87	185.042
1201.24	187.116
1204.62	188.434
1207.99	190.444
1211.37	190.985
1214.74	195.897
1218.12	195.86
1221.49	197.648
1224.86	200.518
1228.24	200.828
1231.61	201.547
1234.99	202.916
1238.36	202.141
1241.74	201.956
1245.11	200.873
1248.49	199.071
1251.86	207.964
1255.24	193.681
1258.61	194.917
1261.99	189.443
1265.36	187.556
1268.74	184.138
1272.11	183.385
1275.49	179.022
1278.86	173.309
1282.24	171.632
1285.61	168.059
1288.99	164.76
1292.36	164.99
1295.73	159.919
1299.11	158.201
1302.48	152.433
