Measurement: Raman, 785 nm, unoriented, Raman Data RAW
Mineral: Fluorapatite
Rruff sample: R060333
Ideal chemistry: Ca_5_(PO_4_)_3_F
Locality: Lovozero Massif, Kola Peninsula, U.S.S.R.
Source: Michael Scott
Description: Colorless fragment associated with red villiaumite
Measured chemistry: (Ca_4.29_Sr_0.47_Na_0.12_Ce_0.07_La_0.06_)_Σ=5_((P_0.99_Si_0.01_)_Σ=1_O_4_)_3_F_1.00_
Raman shift (cm-1)	intensity
54.4873	10.7063
57.8621	10.6645
61.2369	9.01584
64.6118	8.51489
67.9866	6.65947
71.3614	11.106
74.7362	10.1352
78.111	10.1448
81.4858	9.53367
84.8607	7.31949
88.2355	9.04309
91.6103	10.1529
94.9851	10.6125
98.3599	11.0331
101.735	12.3491
105.11	11.7308
108.484	12.2374
111.859	9.7397
115.234	11.4937
118.609	15.3599
121.984	25.0473
125.359	31.1846
128.733	37.4766
132.108	47.9252
135.483	62.5192
138.858	71.361
142.232	89.8715
145.607	126.706
148.982	155.306
152.357	187.27
155.732	200.749
159.107	219.665
162.481	252.22
165.856	283.086
169.231	320.772
172.606	335.693
175.981	358.096
179.356	368.097
182.73	371.154
186.105	393.747
189.48	400.416
192.855	422.987
196.23	470.692
199.604	496.21
202.979	543.549
206.354	582.4
209.729	620.592
213.104	692.332
216.478	748.096
219.853	824.314
223.228	907.007
226.603	1006.75
229.978	1064.69
233.353	1191.37
236.727	1297.75
240.102	1407.83
243.477	1518.61
246.852	1604.51
250.227	1690.63
253.601	1721.28
256.976	1757.66
260.351	1768.4
263.726	1780.43
267.101	1798.17
270.476	1844.1
273.85	1839.77
277.225	1922.26
280.6	1951.07
283.975	1952.98
287.35	1918.24
290.724	1920.07
294.099	1852.6
297.474	1857.03
300.849	1783.67
304.224	1744.43
307.599	1644.31
310.973	1619.64
314.348	1579.72
317.723	1546.3
321.098	1490.77
324.473	1492.77
327.847	1447.04
331.222	1440.6
334.597	1451.77
337.972	1445.63
341.347	1423.15
344.721	1399.25
348.096	1397.52
351.471	1369.76
354.846	1385.11
358.221	1363.58
361.596	1309.85
364.97	1312.94
368.345	1264.96
371.72	1270.23
375.095	1212.02
378.47	1193.89
381.844	1153.4
385.219	1090.33
388.594	1077.09
391.969	1051.56
395.344	1032.79
398.719	986.058
402.093	986.395
405.468	958.782
408.843	936.921
412.218	923.165
415.593	909.071
418.967	898.536
422.342	903.972
425.717	894.604
429.092	882.684
432.467	892.463
435.842	872.052
439.216	868.499
442.591	880.776
445.966	870.322
449.341	869.252
452.716	843.794
456.091	845.303
459.465	852.319
462.84	834.806
466.215	832.247
469.59	827.689
472.965	825.165
476.339	829.074
479.714	816.915
483.089	798.358
486.464	802.635
489.839	796.957
493.214	782.566
496.588	765.038
499.963	732.76
503.338	740.53
506.713	743.803
510.088	735.107
513.462	714.95
516.837	710.941
520.212	703.029
523.587	710.634
526.962	706.487
530.337	696.057
533.711	701.52
537.086	693.907
540.461	670.117
543.836	693.707
547.211	675.413
550.585	672.703
553.96	662.899
557.335	659.265
560.71	651.938
564.085	652.828
567.459	642.335
570.834	648.77
574.209	630.213
577.584	639.989
580.959	627.372
584.333	621.105
587.708	628.447
591.083	617.738
594.458	628.465
597.833	592.755
601.208	600.315
604.582	591.15
607.957	582.162
611.332	577.986
614.707	579.991
618.082	567.492
621.457	545.382
624.831	550.648
628.206	545.422
631.581	541.69
634.956	545.611
638.331	541.826
641.705	541.871
645.08	542.335
648.455	543.154
651.83	535.545
655.205	545.683
658.58	541.808
661.954	542.892
665.329	529.352
668.704	512.653
672.079	520.434
675.454	514.991
678.828	490.33
682.203	476.59
685.578	461.214
688.953	442.68
692.328	443.269
695.702	441.15
699.077	409.51
702.452	389.09
705.827	381.826
709.202	367.522
712.577	343.087
715.951	335.211
719.326	333.376
722.701	316.397
726.076	306.52
729.451	289.458
732.825	270.882
736.2	265.428
739.575	256.96
742.95	246.303
746.325	233.122
749.699	224.489
753.074	218.343
756.449	213.218
759.824	192.777
763.199	194.687
766.574	180.493
769.948	172.029
773.323	176.651
776.698	167.067
780.073	150.313
783.448	157.113
786.822	152.116
790.197	148.94
793.572	134.823
796.947	143.986
800.322	131.512
803.697	128.597
807.071	126.125
810.446	126.174
813.821	124.139
817.196	123.581
820.571	122.727
823.946	119.008
827.32	119.071
830.695	112.687
834.07	119.1
837.445	121.051
840.82	117.216
844.194	115.194
847.569	115.017
850.944	122.383
854.319	122.741
857.694	110.989
861.068	121.943
864.443	120.872
867.818	122.331
871.193	119.784
874.568	120.539
877.943	127.477
881.317	122.464
884.692	127.233
888.067	121.722
891.442	127.195
894.817	134.985
898.192	134.639
901.566	136.477
904.941	140.677
908.316	143.853
911.691	148.249
915.066	137.962
918.44	147.252
921.815	164.179
925.19	161.225
928.565	163.315
931.94	177.856
935.314	178.644
938.689	186.923
942.064	201.993
945.439	211.108
948.814	218.505
952.188	233.483
955.563	241.961
958.938	259.005
962.313	260.932
965.688	277.11
969.063	291.061
972.437	303.363
975.812	315.668
979.187	320.569
982.562	344.003
985.937	365.161
989.312	375.354
992.686	389.633
996.061	417.147
999.436	434.747
1002.81	456.616
1006.19	468.464
1009.56	490.829
1012.93	498.933
1016.31	535.738
1019.68	561.071
1023.06	599.01
1026.43	602.089
1029.81	652.081
1033.18	691.187
1036.56	721.672
1039.93	762.802
1043.31	793.693
1046.68	872.074
1050.06	917.892
1053.43	935.872
1056.81	986.821
1060.18	1011.07
1063.56	1060.82
1066.93	1089.29
1070.31	1122.19
1073.68	1152.36
1077.06	1180.64
1080.43	1253.76
1083.81	1292.89
1087.18	1378.09
1090.56	1420.53
1093.93	1522.13
1097.31	1577.29
1100.68	1679.98
1104.06	1784.14
1107.43	1848.56
1110.81	2007.24
1114.18	2087.1
1117.56	2251.46
1120.93	2366.44
1124.3	2471.92
1127.68	2647.62
1131.05	2781.16
1134.43	2957.34
1137.8	3106.34
1141.18	3333.98
1144.55	3537.1
1147.93	3774.55
1151.3	4040.58
1154.68	4394.12
1158.05	4681.82
1161.43	5177.08
1164.8	5590.94
1168.18	6085.39
1171.55	6787.86
1174.93	7447.65
1178.3	8291.72
1181.68	9222.83
1185.05	10339.8
1188.43	11491.1
1191.8	12791
1195.17	14228.1
1198.55	15937.2
1201.92	17554.4
1205.3	19496.1
1208.67	21352.1
1212.05	23097.7
1215.42	24393.9
1218.8	25316.3
1222.17	25392.7
1225.55	25005.1
1228.92	24250.6
1232.3	23262.6
1235.67	22312.8
1239.05	21922.2
1242.42	21989.1
