Measurement: Raman, 532 nm, unoriented, Raman Data Processed
Mineral: Fluoro-richterite
Rruff sample: R060290
Ideal chemistry: Na(NaCa)Mg_5_Si_8_O_22_F_2_
Locality: Koschka Valley, Badakshan Province, Afghanistan
Source: Herb Obodda
Description: Tan colored transparent prismatic crystal
Raman shift (cm-1)	intensity
93.6401	0
97.0149	192.56
100.39	602.525
103.765	1525.81
107.139	3093.98
110.514	4027.58
113.889	3448.45
117.264	2418.5
120.639	1446.07
124.013	995.055
127.388	564.139
130.763	299.652
134.138	151.43
137.513	3.77539
140.888	14.6621
144.262	69.9844
147.637	90.0918
151.012	56.4902
154.387	283.652
157.762	993.693
161.137	2130.3
164.511	1303.05
167.886	724.898
171.261	681.732
174.636	912.928
178.011	1404.7
181.385	1678.47
184.76	1305.73
188.135	797.621
191.51	744.768
194.885	686.984
198.26	969.119
201.634	1336.2
205.009	1914.19
208.384	2532.12
211.759	2969.96
215.133	3064.6
218.508	3637.99
221.883	4664.1
225.258	6348.72
228.633	8384.56
232.008	9500.93
235.382	7997.03
238.757	5594.6
242.132	4320.88
245.507	4024.62
248.882	3409.27
252.256	2072.37
255.631	1427.54
259.006	1055.26
262.381	928.707
265.756	648.076
269.131	263.742
272.505	88.4512
275.88	24.3027
279.255	82.5293
282.63	115.361
286.005	30.3164
289.38	108.9
292.754	44.7812
296.129	28.5254
299.504	35.334
302.879	16.2832
306.254	94.0254
309.628	190.262
313.003	180.59
316.378	180.125
319.753	318.418
323.128	483.945
326.502	820.885
329.877	1162.03
333.252	1397.42
336.627	1741.44
340.002	1640.29
343.377	1253.27
346.751	860.465
350.126	540.771
353.501	354.578
356.876	323.977
360.251	518.342
363.625	800.326
367	1251.21
370.375	1509.69
373.75	1663.14
377.125	1678.95
380.5	1678.92
383.874	1771.51
387.249	2302.85
390.624	2916.84
393.999	3904.54
397.374	5034.25
400.748	4882.77
404.123	3493.59
407.498	2171.92
410.873	1441.66
414.248	1081.86
417.623	1062.79
420.997	1164.79
424.372	863.414
427.747	704.43
431.122	528.543
434.497	446.637
437.872	204.887
441.246	159.34
444.621	25.625
447.996	69.5547
451.371	198.148
454.745	6.32031
458.12	29.3828
461.495	131.219
464.87	263.5
468.245	258.484
471.62	383.242
474.994	344.113
478.369	369.086
481.744	464.332
485.119	460.641
488.494	441.062
491.868	431.758
495.243	364.766
498.618	457.371
501.993	656.582
505.368	918.242
508.743	1108.52
512.117	1495.39
515.492	1623.16
518.867	1597.35
522.242	1637.4
525.617	1273.51
528.991	741.367
532.366	572.465
535.741	448.941
539.116	257.738
542.491	109.438
545.866	97.1172
549.24	161.391
552.615	33.4688
555.99	54.2227
559.365	3.20703
562.74	76.9805
566.115	85.3789
569.489	68.6914
572.864	250.734
576.239	439.859
579.614	642.379
582.989	713.547
586.363	948.84
589.738	965.254
593.113	819.852
596.488	561.004
599.863	553.473
603.237	420.195
606.612	385.531
609.987	467.602
613.362	311.641
616.737	204.973
620.112	159.394
623.486	62.7969
626.861	49.4023
630.236	28.668
633.611	43.5352
636.986	99.2383
640.361	75.0312
643.735	43.3828
647.11	141.957
650.485	478.016
653.86	686.141
657.235	954.039
660.609	1674.71
663.984	2766.85
667.359	4507.08
670.734	6884.48
674.109	10848.1
677.484	17338.5
680.858	25538.6
684.233	25673.1
687.608	15796.8
690.983	8048.3
694.357	3958.44
697.732	2092.95
701.107	1007.3
704.482	580.336
707.857	491.172
711.232	444.297
714.606	407.078
717.981	468.094
721.356	519.469
724.731	650.266
728.106	673.977
731.481	627.195
734.855	398.922
738.23	361.648
741.605	342.508
744.98	311.297
748.355	407.445
751.729	625.016
755.104	343.773
758.479	187.57
761.854	351.156
765.229	99.3516
768.604	85.7656
771.978	82.0078
775.353	8.375
778.728	48.7344
782.103	135.922
785.478	313.992
788.852	38.3281
792.227	61.7812
795.602	15.6641
798.977	90.4219
802.352	79.2891
805.726	321.117
809.101	407.984
812.476	355.031
815.851	431.891
819.226	493.484
822.601	636.258
825.975	161.656
829.35	207.117
832.725	85.9531
836.1	132.32
839.475	384.25
842.85	471.617
846.224	466.133
849.599	407.188
852.974	9.77344
856.349	298.359
859.724	592.289
863.098	370.906
866.473	281.156
869.848	281.344
873.223	307.656
876.598	188.641
879.972	10.2031
883.347	38.4688
886.722	39.9219
890.097	102.453
893.472	636.672
896.847	486.672
900.221	524.906
903.596	365.375
906.971	173.453
910.346	269.938
913.721	220.281
917.096	250.641
920.47	778.031
923.845	1143.88
927.22	1174.61
930.595	1060.27
933.97	1124.62
937.344	1002.08
940.719	702.516
944.094	309.359
947.469	565.172
950.844	1008.17
954.218	1422.83
957.593	1138.47
960.968	390.234
964.343	796.734
967.718	1054.28
971.092	479.797
974.467	419.719
977.842	268.484
981.217	211.281
984.592	443.516
987.967	318.953
991.341	319.328
994.716	113.828
998.091	258.828
1001.47	147.609
1004.84	124.953
1008.22	6.53125
1011.59	417.781
1014.97	468.641
1018.34	552.359
1021.72	486.25
1025.09	384.922
1028.46	810.125
1031.84	198.344
1035.21	643.547
1038.59	1004.44
1041.96	1247.72
1045.34	1740.38
1048.71	1686.34
1052.09	1806.27
1055.46	1528.94
1058.84	1355
1062.21	1891.39
1065.59	2138.25
1068.96	2967.06
1072.34	3131.2
1075.71	3193.23
1079.09	3229.52
1082.46	2763.72
1085.84	2331.12
1089.21	1829.34
1092.59	1188.03
1095.96	333.156
1099.34	340.312
1102.71	106.031
1106.09	70.25
1109.46	166.062
1112.84	416.25
1116.21	706.656
1119.58	625.469
1122.96	497.781
1126.33	287.469
1129.71	91.5312
1133.08	246.312
1136.46	380.375
1139.83	408.531
1143.21	1110.81
1146.58	716.344
1149.96	1014.12
1153.33	1816.09
1156.71	1715.5
1160.08	1266
1163.46	985.625
1166.83	1383.78
1170.21	1461.94
1173.58	1855.09
1176.96	2067.5
1180.33	2126.19
1183.71	1957.19
1187.08	2805.94
1190.46	2529.38
1193.83	2494.88
1197.2	2328.06
1200.58	1951.25
1203.95	2106.41
1207.33	2300.56
1210.7	2097.38
1214.08	1820.44
1217.45	2029.56
1220.83	2410.59
1224.2	2005.44
1227.58	1217.84
1230.95	1429.28
1234.33	1458.75
1237.7	1765.88
1241.08	1892.16
1244.45	1957.09
1247.83	2238.22
1251.2	2459.66
1254.58	1897.41
1257.95	2161.88
1261.33	1737.53
1264.7	361.562
1268.08	448.875
1271.45	111.125
1274.83	593.25
1278.2	255.281
1281.58	545.062
1284.95	247.219
1288.33	485.031
1291.7	224.625
1295.08	622.938
1298.45	434.562
1301.83	0
