Measurement: Raman, 532 nm, unoriented, Raman Data RAW
Mineral: Fluorcalciopyrochlore
Rruff sample: R060288
Ideal chemistry: (Ca,Na)_2_(Nb^5+^,Ti^4+^)_2_O_6_F
Locality: Tatarka River, Krasnoyarskiy Kray, Siberia, Russia
Source: Herb Obodda
Description: Brown fragment
Measured chemistry: (Ca_0.95_Na_0.90_Sr_0.06_Ce_0.01_)_Σ1.92_(Nb_1.96_Ti_0.04_)_Σ2_O_6_F_0.91_
Raman shift (cm-1)	intensity
90.4922	105.029
93.867	110.638
97.2418	109.832
100.617	115.805
103.992	115.964
107.366	124.671
110.741	118.507
114.116	122.765
117.491	122.354
120.865	120.803
124.24	141.628
127.615	163.578
130.99	251.893
134.365	428.536
137.74	842.048
141.114	1469.26
144.489	1966.23
147.864	2541.63
151.239	3391.1
154.614	4127.51
157.988	4671.17
161.363	5186.52
164.738	5822.27
168.113	6125.94
171.488	6257.98
174.863	6221.4
178.237	6163.72
181.612	6085.42
184.987	5989.94
188.362	5857.01
191.737	5699.16
195.112	5564.27
198.486	5429.24
201.861	5300.94
205.236	5162.72
208.611	5029.71
211.986	4891.32
215.36	4759.24
218.735	4658.09
222.11	4574.54
225.485	4511.27
228.86	4482.82
232.234	4449.51
235.609	4425.72
238.984	4400.84
242.359	4390.24
245.734	4362.28
249.109	4351.73
252.483	4319.49
255.858	4311.08
259.233	4301.7
262.608	4277.76
265.983	4284.91
269.358	4273.1
272.732	4250.39
276.107	4225.01
279.482	4205.53
282.857	4155.56
286.232	4133.44
289.606	4102.54
292.981	4062.93
296.356	3993.84
299.731	3944.49
303.106	3908.35
306.481	3855.96
309.855	3822.66
313.23	3779.07
316.605	3758.93
319.98	3721.93
323.355	3687.31
326.729	3665
330.104	3638.82
333.479	3622.14
336.854	3609.99
340.229	3594.8
343.603	3590.72
346.978	3576.12
350.353	3567.39
353.728	3551.38
357.103	3564.08
360.478	3557.88
363.852	3567.39
367.227	3532.64
370.602	3510.28
373.977	3497.52
377.352	3458.87
380.726	3452.87
384.101	3422.19
387.476	3399.14
390.851	3384.89
394.226	3354.34
397.601	3321.7
400.975	3300.42
404.35	3277.53
407.725	3259.83
411.1	3244.92
414.475	3223.74
417.849	3215.51
421.224	3188.76
424.599	3176.96
427.974	3153.53
431.349	3156.66
434.724	3128.72
438.098	3120.1
441.473	3101.77
444.848	3077.41
448.223	3063.53
451.598	3064.21
454.972	3059.95
458.347	3067.59
461.722	3073.99
465.097	3098.99
468.472	3125.62
471.846	3157.73
475.221	3201.73
478.596	3260.39
481.971	3319.26
485.346	3386.52
488.721	3430.28
492.095	3476.29
495.47	3506.32
498.845	3565.02
502.22	3604.48
505.595	3655.59
508.969	3689.6
512.344	3746.7
515.719	3798.52
519.094	3840.81
522.469	3878.98
525.844	3945.68
529.218	3993.95
532.593	4051.84
535.968	4103.75
539.343	4139.27
542.718	4183.89
546.092	4210.21
549.467	4250.56
552.842	4267.22
556.217	4287.97
559.592	4305.1
562.967	4337.53
566.341	4366.55
569.716	4413.53
573.091	4446.49
576.466	4500.78
579.841	4570.36
583.216	4663.12
586.59	4761.74
589.965	4839.12
593.34	4903.45
596.715	4972.1
600.09	5042.59
603.464	5091.06
606.839	5157.9
610.214	5191.3
613.589	5231.64
616.964	5234.01
620.338	5234.53
623.713	5237.08
627.088	5227
630.463	5200.94
633.838	5180.3
637.212	5127.37
640.587	5063.94
643.962	4990.38
647.337	4928.61
650.712	4848.93
654.087	4772.33
657.461	4660.43
660.836	4550.21
664.211	4441.9
667.586	4339.44
670.961	4225.32
674.335	4121.29
677.71	3996.75
681.085	3899.07
684.46	3786.54
687.835	3683.03
691.21	3578.85
694.584	3485.15
697.959	3410.91
701.334	3341.07
704.709	3256.59
708.084	3200.34
711.458	3151.45
714.833	3100.07
718.208	3038.67
721.583	2985.75
724.958	2953.36
728.332	2924.88
731.707	2877.71
735.082	2854.24
738.457	2830.36
741.832	2796.64
745.207	2778.25
748.581	2782.16
751.956	2752.63
755.331	2738.12
758.706	2726.45
762.081	2713.81
765.456	2723.23
768.83	2716.78
772.205	2711.96
775.58	2722.9
778.955	2726.3
782.33	2741.91
785.704	2755.74
789.079	2771.51
792.454	2810.52
795.829	2827.37
799.204	2850.67
802.578	2883.97
805.953	2903.67
809.328	2919.26
812.703	2917.59
816.078	2930.43
819.453	2925.04
822.827	2901
826.202	2865.88
829.577	2831.38
832.952	2800.71
836.327	2766.72
839.702	2723.28
843.076	2691.04
846.451	2653.12
849.826	2620.78
853.201	2576.67
856.576	2548.38
859.95	2516.09
863.325	2495.6
866.7	2468.61
870.075	2439.21
873.45	2418.82
876.824	2391.28
880.199	2371.3
883.574	2350.24
886.949	2318.2
890.324	2310.96
893.698	2282.05
897.073	2258.59
900.448	2233.84
903.823	2208.75
907.198	2175.42
910.573	2156.34
913.947	2119.1
917.322	2098.66
920.697	2080.15
924.072	2053.45
927.447	2028.52
930.822	2008.36
934.196	1989.66
937.571	1962.81
940.946	1953.04
944.321	1940.1
947.696	1931.54
951.07	1921.6
954.445	1917.42
957.82	1913.25
961.195	1893.17
964.57	1878.63
967.944	1876.61
971.319	1865.55
974.694	1865.87
978.069	1860.9
981.444	1859.75
984.819	1844.7
988.193	1853.02
991.568	1837.41
994.943	1833.91
998.318	1816.73
1001.69	1824.16
1005.07	1821.84
1008.44	1809.16
1011.82	1813.32
1015.19	1805.25
1018.57	1795.03
1021.94	1793.55
1025.32	1779.29
1028.69	1780.81
1032.07	1779.74
1035.44	1775.28
1038.82	1773.63
1042.19	1762.83
1045.57	1762.38
1048.94	1758.96
1052.32	1757
1055.69	1751.69
1059.07	1747.84
1062.44	1746.51
1065.81	1748.14
1069.19	1738.16
1072.56	1743.01
1075.94	1754.69
1079.31	1741.74
1082.69	1749.94
1086.06	1744.13
1089.44	1739.49
1092.81	1732.66
1096.19	1730.79
1099.56	1727.02
1102.94	1724.21
1106.31	1720.19
1109.69	1718.72
1113.06	1716.2
1116.44	1708.28
1119.81	1709.01
1123.19	1700.55
1126.56	1692.71
1129.94	1690.02
1133.31	1688.83
1136.68	1691.84
1140.06	1689.4
1143.43	1681.05
1146.81	1670.37
1150.18	1676.96
1153.56	1670.67
1156.93	1664.78
1160.31	1654.74
1163.68	1647.44
1167.06	1644.97
1170.43	1640.1
1173.81	1638.76
1177.18	1630.84
1180.56	1624.68
1183.93	1619.22
1187.31	1622.84
1190.68	1609.12
1194.06	1605.35
1197.43	1604.84
1200.81	1607.09
1204.18	1595.28
1207.56	1590.7
1210.93	1590.57
1214.31	1592.96
1217.68	1580.15
1221.06	1577.03
1224.43	1567.76
1227.81	1572.7
1231.18	1566.18
1234.56	1565.33
1237.93	1553.18
1241.31	1552.32
1244.68	1548.85
1248.05	1553.85
1251.43	1547.28
1254.8	1544.1
1258.18	1535.79
1261.55	1537.33
1264.93	1528.02
1268.3	1528.32
1271.68	1527.02
1275.05	1522.38
1278.43	1521.69
1281.8	1510.69
1285.18	1505.15
1288.55	1505.11
1291.93	1502.51
1295.3	1501.38
1298.68	1506.88
1302.05	1504.54
