Measurement: Raman, 785 nm, unoriented, Raman Data RAW
Mineral: Fluorapatite
Rruff sample: R040098
Ideal chemistry: Ca_5_(PO_4_)_3_F
Locality: Cerro de Mercado mine, Durango, Mexico
Source: Marcus Origlieri
Description: Pale yellow short hexagonal prism
Measured chemistry: Ca_5.00_((P_0.98_Si_0.01_S_0.01_)O_4_)_3_F_1.00_
Raman shift (cm-1)	intensity
86.917	139.169
90.2918	115.214
93.6666	168.781
97.0414	130.919
100.416	84.7689
103.791	108.33
107.166	106.434
110.541	128.738
113.915	164.782
117.29	107.635
120.665	196.954
124.04	267.813
127.415	396.594
130.79	601.026
134.164	667.971
137.539	695.118
140.914	943.193
144.289	1322.22
147.664	1620.79
151.038	1696.11
154.413	1691.37
157.788	1770.51
161.163	1897.73
164.538	2116.69
167.913	2234.47
171.287	2309.15
174.662	2428.79
178.037	2459.86
181.412	2507.78
184.787	2494.47
188.161	2574.04
191.536	2633.48
194.911	2804.09
198.286	2997.02
201.661	3150.08
205.036	3352.26
208.41	3591.09
211.785	3901.18
215.16	4242.23
218.535	4614.81
221.91	4974.95
225.285	5430.29
228.659	5862.71
232.034	6407.51
235.409	6956
238.784	7720.31
242.159	8446.84
245.533	9190.8
248.908	9864.48
252.283	10185.1
255.658	10427.9
259.033	10471.7
262.407	10517.7
265.782	10498.3
269.157	10462.3
272.532	10489
275.907	10388.9
279.281	10384
282.656	10282
286.031	10156.4
289.406	9958.12
292.781	9797.26
296.156	9532.19
299.53	9270.03
302.905	8961.03
306.28	8806.63
309.655	8563.04
313.03	8430.78
316.404	8407.39
319.779	8391.9
323.154	8442.17
326.529	8565.21
329.904	8703.31
333.279	8810.34
336.653	8837.21
340.028	8859.86
343.403	8755.66
346.778	8720.11
350.153	8552.98
353.527	8416.49
356.902	8304.09
360.277	7973.32
363.652	7818.03
367.027	7577.21
370.402	7465.5
373.776	7184.49
377.151	7055.09
380.526	6881
383.901	6787.69
387.276	6577.48
390.651	6457.85
394.025	6322.71
397.4	6205.68
400.775	6105.63
404.15	6050.47
407.524	5981.01
410.899	5890.69
414.274	5802.76
417.649	5777.04
421.024	5690.84
424.399	5684.95
427.773	5680.5
431.148	5637.19
434.523	5649.33
437.898	5641.78
441.273	5660.87
444.647	5571.12
448.022	5528.76
451.397	5492.4
454.772	5423.55
458.147	5357.11
461.522	5236.88
464.896	5196.05
468.271	5079.24
471.646	5040.6
475.021	5017.41
478.396	4944.02
481.771	4958.46
485.145	4928.57
488.52	4904.6
491.895	4847.43
495.27	4819.1
498.645	4807.42
502.019	4757.85
505.394	4721.6
508.769	4721.5
512.144	4680.25
515.519	4638.89
518.894	4611.12
522.268	4535.27
525.643	4562.71
529.018	4436.59
532.393	4423.62
535.768	4408.06
539.142	4394.86
542.517	4308.95
545.892	4286.74
549.267	4304.29
552.642	4232.24
556.016	4152.59
559.391	4140.56
562.766	4101.31
566.141	3975.1
569.516	3915.09
572.891	3953.04
576.265	3861.82
579.64	3808.35
583.015	3768.91
586.39	3677.23
589.765	3659.27
593.139	3626.22
596.514	3537.5
599.889	3511.92
603.264	3586.31
606.639	3494.76
610.014	3442.04
613.388	3399.74
616.763	3379.34
620.138	3369.85
623.513	3290.27
626.888	3273.26
630.262	3233.19
633.637	3143.72
637.012	3146.37
640.387	3080.24
643.762	3012.68
647.136	3004.53
650.511	3035.7
653.886	2980.85
657.261	2930.28
660.636	2935.28
664.011	2911.74
667.385	2880.94
670.76	2868.82
674.135	2836.97
677.51	2805.42
680.885	2777.37
684.26	2780.16
687.634	2778.03
691.009	2758.82
694.384	2667.75
697.759	2724.42
701.134	2652.01
704.508	2708.95
707.883	2564.46
711.258	2553.55
714.633	2542.05
718.008	2466.37
721.382	2480.4
724.757	2379.06
728.132	2310.7
731.507	2281.44
734.882	2253.6
738.256	2183.1
741.631	2169.12
745.006	2120.01
748.381	2130.38
751.756	2128.3
755.131	2122.62
758.505	2123.18
761.88	2055.8
765.255	2022.33
768.63	1883.81
772.005	1824.58
775.38	1730.54
778.754	1646.34
782.129	1535.05
785.504	1465.95
788.879	1361.07
792.254	1322.66
795.628	1235.68
799.003	1131.94
802.378	1096.99
805.753	1077.86
809.128	1053.12
812.503	1044.23
815.877	1004.18
819.252	962.101
822.627	964.168
826.002	927.377
829.377	936.187
832.751	893.412
836.126	908.37
839.501	895.861
842.876	893.021
846.251	892.027
849.625	904.149
853	895.995
856.375	879.716
859.75	905.343
863.125	865.97
866.5	881.941
869.874	903.05
873.249	904.506
876.624	902.111
879.999	902.33
883.374	902.423
886.749	880.277
890.123	904.005
893.498	943.024
896.873	948.574
900.248	965.76
903.623	979.977
906.997	968.549
910.372	991.618
913.747	968.391
917.122	1088.86
920.497	1132.49
923.871	1101.73
927.246	1150.06
930.621	1172.17
933.996	1160.15
937.371	1237.07
940.745	1256.74
944.12	1332.38
947.495	1314.71
950.87	1385.54
954.245	1485.98
957.62	1560.99
960.994	1690.44
964.369	1860.36
967.744	1766.77
971.119	1788.57
974.494	1843.41
977.869	1924.08
981.243	1990.31
984.618	2048.32
987.993	2083.18
991.368	2200.07
994.743	2322.44
998.117	2461.13
1001.49	2555.41
1004.87	2754.19
1008.24	2863.42
1011.62	2951.81
1014.99	3129.22
1018.37	3238.88
1021.74	3376.18
1025.12	3556.3
1028.49	3763.19
1031.87	3896.37
1035.24	4180.19
1038.62	4425.06
1041.99	4605.66
1045.37	4854.74
1048.74	5094.48
1052.12	5406.47
1055.49	5653.13
1058.86	5937.05
1062.24	6193.44
1065.61	6469.9
1068.99	6691.93
1072.36	6972.09
1075.74	7276.99
1079.11	7720.74
1082.49	8122.16
1085.86	8544.4
1089.24	9101.85
1092.61	9573.59
1095.99	10188.1
1099.36	10816.8
1102.74	11538.1
1106.11	12328.4
1109.49	13038.7
1112.86	13859
1116.24	14774.8
1119.61	15736.2
1122.99	16722.9
1126.36	17850.8
1129.73	18833.4
1133.11	19949.7
1136.48	21150.9
1139.86	22275.4
1143.23	23375.4
1146.61	24655.5
1149.98	26005.7
1153.36	27549.8
1156.73	29234.2
1160.11	31330.4
1163.48	34000.2
1166.86	37271.8
1170.23	41251.5
1173.61	45818.8
1176.98	50962.6
1180.36	56872.8
1183.73	63119.1
1187.11	69689.6
1190.48	76200.7
1193.86	82767
1197.23	89138.5
1200.61	95261.8
1203.98	102015
1207.36	110298
1210.73	119554
1214.11	130175
1217.48	140233
1220.86	147688
1224.23	148658
1227.61	142860
1230.98	132406
1234.35	122559
1237.73	114232
1241.1	109075
1244.48	106116
1247.85	105444
1251.23	107054
1254.6	108972
1257.98	109927
1261.35	109606
1264.73	108990
1268.1	108638
1271.48	110665
