Measurement: Raman, 785 nm, unoriented, Raman Data RAW
Mineral: Fluorcalciomicrolite
Rruff sample: R070365
Ideal chemistry: (Ca,Na)_2_Ta^5+^_2_O_6_F
Locality: Ponte da Raiz mine, Minas Gerais, Southeast Brazil
Source: Michael Scott
Description: Brown octahedron associated with albite
Measured chemistry: (Ca_0.80_Sr_0.07_Pb_0.02_Na_0.84_U_0.22_)(Ta_1.62_Nb_0.19_Ti_0.18_Sn_0.01_)_2_O_6_(F_0.46_O_0.42_) ; bright area, (Ca_0.84_Na_0.23_U_0.23_Sr_0.08_Pb_0.02_)(Ta_1.60_Ti_0.21_Nb_0.19_)_2_O_6_(F_0.32_O_0.25_) = dark area
Raman shift (cm-1)	intensity
130.662	668.129
133.554	880.906
136.447	1054.47
139.34	1175.11
142.232	1444.87
145.125	1819.06
148.018	2270.13
150.911	2609.68
153.803	2781.45
156.696	2831.6
159.589	2938.9
162.481	3069.7
165.374	3264.78
168.267	3477.64
171.16	3626.42
174.052	3729.34
176.945	3771.52
179.838	3783.78
182.73	3920.69
185.623	3965.61
188.516	4043.76
191.408	4115.49
194.301	4119.73
197.194	4183.11
200.087	4242.46
202.979	4227.74
205.872	4261.15
208.765	4298.62
211.657	4275.73
214.55	4330.63
217.443	4315.12
220.335	4304.05
223.228	4409.53
226.121	4381.19
229.013	4415.33
231.906	4354.13
234.799	4355.98
237.692	4368.64
240.584	4401.13
243.477	4412.4
246.37	4368.31
249.262	4400.88
252.155	4386.63
255.048	4383.07
257.941	4366.92
260.833	4405.65
263.726	4376.07
266.619	4376.21
269.511	4380.69
272.404	4362.15
275.297	4341.58
278.19	4328.48
281.082	4375.39
283.975	4314.04
286.868	4314.48
289.76	4285.11
292.653	4271.29
295.546	4256.79
298.438	4193.86
301.331	4214.09
304.224	4232.57
307.116	4130.36
310.009	4136.5
312.902	4103.54
315.795	4072.41
318.687	4043.84
321.58	4001.92
324.473	3999.49
327.365	3933.79
330.258	3924.5
333.151	3888.9
336.043	3845.02
338.936	3868.73
341.829	3799.74
344.721	3823.46
347.614	3732.77
350.507	3719.57
353.4	3692
356.292	3695.29
359.185	3651.42
362.078	3619.22
364.97	3595.23
367.863	3556.03
370.756	3548.3
373.649	3512.16
376.541	3521.76
379.434	3473.64
382.327	3460.95
385.219	3435.69
388.112	3377.43
391.005	3386.1
393.897	3352.05
396.79	3356.27
399.683	3300.37
402.575	3333.03
405.468	3305.3
408.361	3253.03
411.254	3219.06
414.146	3196.85
417.039	3176.37
419.932	3166.99
422.824	3146.89
425.717	3123.51
428.61	3113.39
431.502	3093.36
434.395	3104.2
437.288	3076.16
440.181	3054.01
443.073	2991.86
445.966	3036.04
448.859	2984.51
451.751	2942.64
454.644	2996.93
457.537	2898.06
460.43	2913.65
463.322	2938.19
466.215	2953.78
469.108	2860.26
472	2931.3
474.893	2866.86
477.786	2881.19
480.678	2871.34
483.571	2864.55
486.464	2881.11
489.356	2864.47
492.249	2854.83
495.142	2891.67
498.035	2865.08
500.927	2887.03
503.82	2882.6
506.713	2917.07
509.605	2875.16
512.498	2906.78
515.391	2935.21
518.284	2941.11
521.176	2907.8
524.069	2922.84
526.962	2906.34
529.854	2948.43
532.747	2924.08
535.64	2938.77
538.533	2956.1
541.425	2958.85
544.318	3013.24
547.211	3007.67
550.103	3035.8
552.996	3039.83
555.889	3085.8
558.781	3073.95
561.674	3099.72
564.567	3094.94
567.459	3116.42
570.352	3138.04
573.245	3149.09
576.138	3181.95
579.03	3201.51
581.923	3234.59
584.816	3259.47
587.708	3296.61
590.601	3285.85
593.494	3318.83
596.386	3389.41
599.279	3383.73
602.172	3362.43
605.064	3423.07
607.957	3433.83
610.85	3446.53
613.743	3485.75
616.635	3525.51
619.528	3517.33
622.421	3517.28
625.313	3525.48
628.206	3540.48
631.099	3594.88
633.991	3573.07
636.884	3580.67
639.777	3618.17
642.67	3583.72
645.562	3570.44
648.455	3545.42
651.348	3546.57
654.24	3575.04
657.133	3530.27
660.026	3520.25
662.918	3555.25
665.811	3514.38
668.704	3510.09
671.597	3431.67
674.489	3458.93
677.382	3431.14
680.275	3353.61
683.167	3345.52
686.06	3306.52
688.953	3325.09
691.846	3298.06
694.738	3249.61
697.631	3187.14
700.524	3223.21
703.416	3210.16
706.309	3192.6
709.202	3183.01
712.094	3156.77
714.987	3190.87
717.88	3189.22
720.773	3193.39
723.665	3202.16
726.558	3158.42
729.451	3193.78
732.343	3238.29
735.236	3234.64
738.129	3257.63
741.021	3293.82
743.914	3312.8
746.807	3425.61
749.699	3440.3
752.592	3421.53
755.485	3460.03
758.378	3510.1
761.27	3569.82
764.163	3592.31
767.056	3669.77
769.948	3643.3
772.841	3759.82
775.734	3803.31
778.626	3871.12
781.519	3917.43
784.412	3964.67
787.305	3966.75
790.197	4036.03
793.09	4039.7
795.983	4084.76
798.875	4059.1
801.768	4115.94
804.661	4085.08
807.553	4096.21
810.446	4068.26
813.339	4069.81
816.232	4010.96
819.124	3974.23
822.017	3968.44
824.91	3907.13
827.802	3847.19
830.695	3813
833.588	3702.05
836.481	3668.3
839.373	3648.78
842.266	3585.51
845.159	3517.3
848.051	3424.56
850.944	3373.13
853.837	3306.05
856.729	3188.04
859.622	3154.61
862.515	3085.17
865.408	3043.44
868.3	2942.27
871.193	2856.17
874.086	2808.58
876.978	2713.29
879.871	2631.62
882.764	2561.87
885.656	2468.48
888.549	2388.46
891.442	2316.24
894.335	2236.98
897.227	2143.15
900.12	2083.05
903.013	1995.48
905.905	1953.09
908.798	1881.72
911.691	1838.04
914.583	1768.25
917.476	1700.66
920.369	1661.19
923.261	1597.94
926.154	1551.4
929.047	1505.9
931.94	1478.3
934.832	1459.36
937.725	1428.77
940.618	1390.49
943.51	1366.73
946.403	1301.93
949.296	1303.11
952.188	1285.05
955.081	1273.99
957.974	1269.08
960.867	1231.08
963.759	1223.99
966.652	1223.58
969.545	1175.34
972.437	1190.8
975.33	1180.48
978.223	1198.55
981.115	1178.62
984.008	1160.12
986.901	1150.71
989.794	1161.82
992.686	1147.72
995.579	1150.53
998.472	1137.31
1001.36	1134.72
1004.26	1124.19
1007.15	1125.23
1010.04	1124.22
1012.93	1143.51
1015.83	1098.48
1018.72	1128.19
1021.61	1122.69
1024.51	1103.82
1027.4	1111.99
1030.29	1069.88
1033.18	1120.4
1036.08	1111.95
1038.97	1102.73
1041.86	1088.67
1044.76	1069.26
1047.65	1107.95
1050.54	1099.39
1053.43	1095.21
1056.33	1092.25
1059.22	1084.02
1062.11	1071.16
1065	1091.93
1067.9	1096.79
1070.79	1091.3
1073.68	1085.58
1076.58	1089.88
1079.47	1090.7
1082.36	1108.29
1085.25	1104.09
1088.14	1099.87
1091.04	1112.89
1093.93	1109.22
1096.82	1112.51
1099.72	1120.07
1102.61	1105.52
1105.5	1120.28
1108.39	1137.07
1111.29	1117.44
1114.18	1138.25
1117.07	1108.07
1119.96	1131.53
1122.86	1154.04
1125.75	1148.71
1128.64	1142.28
1131.54	1165.4
1134.43	1173.12
1137.32	1169.95
1140.21	1173.97
1143.11	1164.16
1146	1154.45
1148.89	1163.87
1151.79	1194.98
1154.68	1198.05
1157.57	1207.26
1160.46	1212.34
1163.36	1204.89
1166.25	1218.98
1169.14	1224.79
1172.03	1252.59
1174.93	1219.61
1177.82	1223.42
1180.71	1242.92
1183.6	1240.63
1186.5	1237.45
1189.39	1272.99
1192.28	1278.35
1195.17	1279.69
1198.07	1263.97
1200.96	1276.39
1203.85	1285.55
1206.75	1309.46
1209.64	1297.11
1212.53	1296.91
1215.42	1300.06
1218.32	1296.23
1221.21	1312.84
1224.1	1283.96
1226.99	1316.65
1229.89	1286.97
1232.78	1318.52
1235.67	1297.77
1238.57	1328.22
1241.46	1317.12
