Measurement: Raman, 785 nm, unoriented, Raman Data RAW
Mineral: Fluorcalciopyrochlore
Rruff sample: R061003
Ideal chemistry: (Ca,Na)_2_(Nb^5+^,Ti^4+^)_2_O_6_F
Locality: Verity property, Blue River, British Columbia, Canada
Source: Michael Scott
Description: Reddish-brown octahedron
Measured chemistry: (Ca_1.03_Na_0.88_Sr_0.03_Ce_0.01_)_Σ1.95_(Nb_1.87_Ti_0.09_Ta_0.04_)_Σ2_O_6_[F_0.93_(OH)_0.01_]_Σ0.94_
Raman shift (cm-1)	intensity
128.76	6880.21
131.653	9863.31
134.545	10763.9
137.438	10754
140.331	12785.4
143.223	17735
146.116	24236.9
149.009	29002.5
151.901	29931.6
154.794	28276.9
157.687	27071.2
160.579	27608.4
163.472	29270.3
166.365	30709.2
169.258	31370.5
172.15	30844.2
175.043	29900.1
177.936	29386.1
180.828	28841.5
183.721	28757.4
186.614	28975.2
189.506	29029.1
192.399	29257.6
195.292	29603.1
198.185	30225.4
201.077	30843.3
203.97	31554.7
206.863	32258.2
209.755	33234.4
212.648	34168.8
215.541	35768.1
218.433	37172.7
221.326	38283.6
224.219	39221.8
227.112	39255.9
230.004	39302.1
232.897	39221.2
235.79	39463.8
238.682	39657.9
241.575	39561.2
244.468	39594.4
247.36	39501
250.253	39389
253.146	39623.3
256.038	39984.2
258.931	40202.2
261.824	40554.5
264.717	40938.8
267.609	41391.1
270.502	42400
273.395	43551.1
276.287	45109.9
279.18	46940.4
282.073	48631.4
284.966	50011
287.858	51082.4
290.751	51718.2
293.644	52623.6
296.536	53281.7
299.429	54082
302.322	54810.1
305.214	55167.3
308.107	54972.3
311	54382.9
313.892	53472
316.785	52684.9
319.678	52032.5
322.571	51683.3
325.463	51676.8
328.356	51546.7
331.249	51490.3
334.141	51219
337.034	51174.9
339.927	51412.6
342.82	51504.8
345.712	51936.4
348.605	52203.3
351.498	52537.2
354.39	52095.5
357.283	51800
360.176	51380.9
363.068	51325.4
365.961	51309.4
368.854	51849.3
371.747	52493
374.639	53043.8
377.532	53635.5
380.425	53933.9
383.317	53920.3
386.21	54007.7
389.103	54509.1
391.995	54649.9
394.888	54845.9
397.781	54590.1
400.673	53844.5
403.566	53115.9
406.459	52149.8
409.351	51294.7
412.244	50332.5
415.137	49814.7
418.03	48949.5
420.922	47836.5
423.815	46684.5
426.708	45688
429.6	44609.6
432.493	43823.9
435.386	43260
438.279	42700.3
441.171	42301.2
444.064	42094.5
446.957	41987.7
449.849	42068.7
452.742	42213.8
455.635	42339.1
458.527	42809.1
461.42	43241.5
464.313	43465.7
467.205	43706.2
470.098	43987.4
472.991	43962.6
475.884	44010.6
478.776	43868.1
481.669	43822.2
484.562	43958
487.454	44119.5
490.347	44147.9
493.24	43973.1
496.132	43599.4
499.025	43260.3
501.918	43032.7
504.811	42956.9
507.703	42873.2
510.596	43083.1
513.489	43331.8
516.381	43468.1
519.274	43562.1
522.167	44004.4
525.059	44410.5
527.952	44678
530.845	45143.9
533.737	45422.9
536.63	45659.5
539.523	45818.2
542.416	45627
545.308	45396.1
548.201	44926.1
551.094	44414.2
553.986	43682.7
556.879	42938.3
559.772	42074.7
562.665	41245.8
565.557	40217
568.45	39121.8
571.343	37994.5
574.235	37116.3
577.128	36257.6
580.021	35615.1
582.913	34909.5
585.806	34321
588.699	33696.6
591.591	32920.3
594.484	32324
597.377	31892.5
600.27	31452.7
603.162	31086.7
606.055	30650
608.948	30292.8
611.84	29859.7
614.733	29442.4
617.626	29023.1
620.519	28615.9
623.411	28235.2
626.304	27819.3
629.197	27449.5
632.089	27077
634.982	26646.9
637.875	26365.7
640.767	26042
643.66	25598.7
646.553	25348.9
649.446	24803.3
652.338	24677.1
655.231	24383.5
658.124	24135.2
661.016	23790.2
663.909	23408.7
666.802	23048
669.694	22672.5
672.587	22564.3
675.48	22124.3
678.372	21787.5
681.265	21390.8
684.158	21011.8
687.051	20732.8
689.943	20430.5
692.836	20062
695.729	19966.4
698.621	19795.6
701.514	19583.4
704.407	19309.3
707.299	19256.4
710.192	19159.6
713.085	19114.2
715.977	19232.6
718.87	19177.7
721.763	19263.3
724.656	19281.6
727.548	19381.9
730.441	19567.7
733.334	19759.8
736.226	20074.7
739.119	20444.5
742.012	20789.3
744.904	20864.6
747.797	21433.8
750.69	21704.1
753.583	21831.6
756.475	21942.9
759.368	22073
762.261	22293.9
765.153	22606.8
768.046	22882.2
770.939	23193.6
773.832	23459
776.724	23895.1
779.617	24079.8
782.51	24488.4
785.402	24992.7
788.295	25504.3
791.188	25950.9
794.08	26268
796.973	26562.8
799.866	27220.4
802.759	27741.3
805.651	28085.2
808.544	28824
811.437	29430.8
814.329	30045.2
817.222	30490.2
820.115	30800.8
823.007	31365.5
825.9	31760.8
828.793	32073.8
831.686	32423.6
834.578	32901
837.471	33222
840.364	33425.3
843.256	34029.9
846.149	34355.3
849.042	34895.5
851.934	35345.1
854.827	35795.3
857.72	36260.5
860.612	36827.4
863.505	37272
866.398	37933.8
869.29	38580.8
872.183	39512.4
875.076	40256.4
877.969	41187.4
880.861	42126.3
883.754	43037.3
886.647	44025.7
889.539	45075.3
892.432	46178.8
895.325	47328.7
898.217	48609.1
901.11	49731.5
904.003	50923.2
906.896	52233.3
909.788	53517.5
912.681	54737.2
915.574	55537.9
918.466	56771.5
921.359	57667.5
924.252	58759.3
927.144	60098
930.037	61508.2
932.93	62918
935.823	64015.9
938.715	65187.7
941.608	66403.2
944.501	67702.7
947.393	68997.1
950.286	70642.9
953.179	72147.2
956.072	73525
958.964	75122
961.857	76606
964.75	78199.2
967.642	79895.1
970.535	81416.7
973.428	83294.4
976.32	85369.5
979.213	87048.5
982.106	88834.6
984.999	90573.2
987.891	92054.1
990.784	93429.9
993.677	94489.6
996.569	96136.8
999.462	97910.9
1002.36	99306.6
1005.25	100707
1008.14	102035
1011.03	103566
1013.92	105530
1016.82	107097
1019.71	108900
1022.6	110484
1025.5	112412
1028.39	114938
1031.28	116925
1034.17	119665
1037.07	122126
1039.96	125468
1042.85	128938
1045.74	132070
1048.64	135172
1051.53	139254
1054.42	143436
1057.32	147622
1060.21	152106
1063.1	156354
1065.99	161337
1068.89	166512
1071.78	172241
1074.67	177891
1077.57	183355
1080.46	189071
1083.35	194402
1086.24	199444
1089.14	205094
1092.03	210359
1094.92	215312
1097.81	219943
1100.71	224248
1103.6	227735
1106.49	232498
1109.38	238032
1112.28	243810
1115.17	250247
1118.06	257170
1120.95	264428
1123.85	273355
1126.74	283167
1129.63	294241
1132.53	305624
1135.42	318709
1138.31	333627
1141.2	348920
1144.1	365154
1146.99	382871
1149.88	399879
1152.78	419359
1155.67	437424
1158.56	452909
1161.45	462377
1164.35	464314
1167.24	459050
1170.13	450173
1173.02	438010
1175.92	426679
1178.81	416776
1181.7	409348
1184.6	404594
1187.49	402970
1190.38	403697
1193.27	406806
1196.16	412518
1199.06	420276
1201.95	429695
1204.84	439246
1207.74	449958
1210.63	460843
1213.52	473242
1216.41	487365
1219.31	499393
1222.2	512961
1225.09	527334
1227.98	541920
1230.88	557459
1233.77	573324
1236.66	588017
1239.56	603949
1242.45	618132
1245.34	628650
1248.23	640358
