Measurement: Raman, 532 nm, unoriented, Raman Data RAW
Mineral: Fluorcalciomicrolite
Rruff sample: R120163
Ideal chemistry: (Ca,Na)_2_Ta^5+^_2_O_6_F
Locality: Alto Ligonha, Mozambique
Source: Marcus Origlieri
Description: Reddish brown octahedral fragment
Measured chemistry: (Ca_1.16_Na_0.70_)_Σ1.86_(Ta_1.56_Nb_0.25_Ti_0.13_Sn_0.06_)_Σ2_(O_5.84_(OH)_0.16_)_Σ6_(F_0.82_(OH)_0.18_)
Raman shift (cm-1)	intensity
89.3616	0
92.7365	247.867
96.1113	231.492
99.4861	220.329
102.861	201.402
106.236	191.521
109.611	183.889
112.985	167.148
116.36	157.843
119.735	147.62
123.11	139.506
126.485	135.317
129.859	127.125
133.234	122.121
136.609	118.588
139.984	112.346
143.359	110.915
146.733	103.737
150.108	101.409
153.483	99.4754
156.858	95.7913
160.233	97.2035
163.608	102.154
166.982	117.325
170.357	171.292
173.732	282.713
177.107	453.334
180.482	632.342
183.857	774.113
187.231	906.518
190.606	1055.43
193.981	1242.93
197.356	1341.9
200.731	1393.39
204.105	1399.56
207.48	1384.89
210.855	1375.39
214.23	1383.42
217.605	1403.88
220.98	1407.29
224.354	1416.96
227.729	1433.51
231.104	1449.58
234.479	1478.99
237.854	1527.59
241.228	1567.75
244.603	1600.29
247.978	1619.43
251.353	1636.79
254.728	1661.43
258.103	1688.47
261.477	1715.25
264.852	1747.17
268.227	1796.42
271.602	1850.72
274.977	1924.79
278.351	1998.97
281.726	2082.38
285.101	2161.14
288.476	2225.97
291.851	2246.09
295.226	2229.61
298.6	2196.74
301.975	2132.46
305.35	2059.01
308.725	1979.33
312.099	1914.44
315.474	1855
318.849	1809.09
322.224	1790.8
325.599	1787.72
328.974	1794.57
332.348	1784.17
335.723	1769.24
339.098	1726.24
342.473	1667.3
345.848	1611.55
349.223	1556.76
352.597	1519.18
355.972	1475.71
359.347	1446.37
362.722	1419.65
366.097	1397
369.471	1369.97
372.846	1351.93
376.221	1336.98
379.596	1321.22
382.971	1298.85
386.346	1281.91
389.72	1267.02
393.095	1258.48
396.47	1243.89
399.845	1238.12
403.22	1229.13
406.594	1219.41
409.969	1205.13
413.344	1198.72
416.719	1193.9
420.094	1186.07
423.469	1183.29
426.843	1180.15
430.218	1179.24
433.593	1168.28
436.968	1166.55
440.343	1163.02
443.717	1161.97
447.092	1156.22
450.467	1155.13
453.842	1138.88
457.217	1128.6
460.591	1120.72
463.966	1118.78
467.341	1115.96
470.716	1122.94
474.091	1134.28
477.466	1155.23
480.84	1182
484.215	1227.89
487.59	1286.64
490.965	1389.76
494.34	1526.4
497.714	1703.82
501.089	1913.42
504.464	2101.11
507.839	2221.92
511.214	2244.01
514.589	2187.67
517.963	2095.97
521.338	1996.98
524.713	1929.51
528.088	1887.33
531.463	1854.51
534.837	1832.06
538.212	1804.34
541.587	1779.1
544.962	1741.4
548.337	1702.44
551.712	1653.58
555.086	1598.46
558.461	1539.29
561.836	1484.24
565.211	1430.07
568.586	1382.39
571.96	1349.62
575.335	1320.48
578.71	1300.24
582.085	1298.46
585.46	1303.42
588.835	1319.34
592.209	1347.67
595.584	1381.74
598.959	1425.43
602.334	1462.71
605.709	1499.68
609.083	1535.93
612.458	1562.73
615.833	1580.75
619.208	1594.2
622.583	1594.99
625.957	1591.41
629.332	1580.49
632.707	1574.55
636.082	1562.68
639.457	1545.86
642.832	1529.85
646.206	1524.36
649.581	1510.63
652.956	1499.4
656.331	1485.27
659.706	1471.91
663.081	1451.58
666.455	1430.21
669.83	1408.1
673.205	1385.65
676.58	1367.36
679.955	1340.41
683.329	1311.06
686.704	1284.38
690.079	1260.68
693.454	1230.97
696.829	1202.78
700.203	1174.14
703.578	1149.4
706.953	1127.82
710.328	1106.28
713.703	1086.51
717.078	1072.67
720.452	1055.87
723.827	1044.63
727.202	1032.99
730.577	1019.55
733.952	1008.25
737.327	997.791
740.701	993.437
744.076	987.233
747.451	989.937
750.826	982.02
754.201	982.507
757.575	984.788
760.95	992.304
764.325	1004.78
767.7	1020.95
771.075	1037.16
774.449	1060.86
777.824	1077.76
781.199	1098.7
784.574	1115.91
787.949	1135.7
791.323	1159.17
794.698	1178.96
798.073	1192.37
801.448	1203.18
804.823	1198.59
808.198	1196.45
811.572	1182.89
814.947	1162.81
818.322	1139.3
821.697	1117.78
825.072	1091.34
828.447	1059.06
831.821	1032.72
835.196	1007.54
838.571	982.438
841.946	961.736
845.321	937.156
848.695	912.453
852.07	897.803
855.445	882.315
858.82	869.861
862.195	862.206
865.569	853.848
868.944	844.293
872.319	842.525
875.694	838.661
879.069	834.441
882.444	828.768
885.818	826.476
889.193	826.16
892.568	820.835
895.943	815.8
899.318	808.091
902.692	799.85
906.067	791.852
909.442	781.392
912.817	770.659
916.192	755.613
919.567	744.058
922.941	727.845
926.316	705.152
929.691	685.105
933.066	664.636
936.441	642.659
939.816	618.385
943.19	597.626
946.565	583.698
949.94	565.315
953.315	551.215
956.69	538.736
960.064	529.417
963.439	525.389
966.814	516.311
970.189	512.308
973.564	507.163
976.938	505.121
980.313	501.558
983.688	500.773
987.063	502.469
990.438	498.759
993.813	497.642
997.187	495.03
1000.56	498.812
1003.94	496.927
1007.31	498.97
1010.69	504.506
1014.06	508.431
1017.44	512.417
1020.81	518.716
1024.19	523.828
1027.56	529.419
1030.94	534.26
1034.31	542.36
1037.68	550.54
1041.06	555.307
1044.43	564.5
1047.81	573.148
1051.18	578.334
1054.56	585.473
1057.93	595.478
1061.31	599.809
1064.68	611.164
1068.06	619.121
1071.43	625.903
1074.81	632.564
1078.18	639.91
1081.56	646.933
1084.93	652.331
1088.31	654.724
1091.68	659.616
1095.06	660.429
1098.43	660
1101.81	658.324
1105.18	658.82
1108.56	656.509
1111.93	659.148
1115.31	660.227
1118.68	666.907
1122.06	671.472
1125.43	676.864
1128.81	682.663
1132.18	681.923
1135.56	681.065
1138.93	676.714
1142.3	675.828
1145.68	658.683
1149.05	650.533
1152.43	638.855
1155.8	631.13
1159.18	622.087
1162.55	619.998
1165.93	614.019
1169.3	608.358
1172.68	608.576
1176.05	607.154
1179.43	606.049
1182.8	605.734
1186.18	607.374
1189.55	607.643
1192.93	612.854
1196.3	618.109
1199.68	622.203
1203.05	624.461
1206.43	628.854
1209.8	632.264
1213.18	636.72
1216.55	643.448
1219.92	651.619
1223.3	659.456
1226.67	670.185
1230.05	685.253
1233.42	700.05
1236.8	716.843
1240.17	735.552
1243.55	762.116
1246.92	791.293
1250.3	822.594
1253.67	860.596
1257.05	902.304
1260.42	952.723
1263.8	1001.93
1267.17	1052.47
1270.55	1103.07
1273.92	1138.6
1277.3	1166.12
1280.67	1179.49
1284.05	1166.41
1287.42	1134.47
1290.8	1087.78
1294.17	1028.63
1297.55	965.27
1300.92	900.906
