Measurement: Raman, 532 nm, unoriented, Raman Data RAW
Mineral: Fluorcalciomicrolite
Rruff sample: R070365
Ideal chemistry: (Ca,Na)_2_Ta^5+^_2_O_6_F
Locality: Ponte da Raiz mine, Minas Gerais, Southeast Brazil
Source: Michael Scott
Description: Brown octahedron associated with albite
Measured chemistry: (Ca_0.80_Sr_0.07_Pb_0.02_Na_0.84_U_0.22_)(Ta_1.62_Nb_0.19_Ti_0.18_Sn_0.01_)_2_O_6_(F_0.46_O_0.42_) ; bright area, (Ca_0.84_Na_0.23_U_0.23_Sr_0.08_Pb_0.02_)(Ta_1.60_Ti_0.21_Nb_0.19_)_2_O_6_(F_0.32_O_0.25_) = dark area
Raman shift (cm-1)	intensity
124.592	2398.32
127.967	3666.01
131.341	5345.66
134.716	7140.48
138.091	9229.09
141.466	10786.8
144.841	11940.5
148.215	12786.8
151.59	13693.8
154.965	14672
158.34	15507.6
161.715	15885.5
165.09	16137.5
168.464	16574.9
171.839	16905
175.214	17116.7
178.589	17259.1
181.964	17387.1
185.339	17514.8
188.713	17666.1
192.088	17754.5
195.463	17805.5
198.838	17988.8
202.213	17936.7
205.587	18045.4
208.962	18065.7
212.337	18101.8
215.712	18196.7
219.087	18141.5
222.462	18251.3
225.836	18273.2
229.211	18276.3
232.586	18448.9
235.961	18437.5
239.336	18377
242.71	18449.2
246.085	18565.5
249.46	18631.9
252.835	18577.6
256.21	18652.9
259.584	18673.6
262.959	18704.4
266.334	18796.3
269.709	18790.6
273.084	18677.6
276.459	18729.3
279.833	18639.3
283.208	18768.9
286.583	18696.9
289.958	18665.3
293.333	18730.9
296.707	18562.1
300.082	18463.1
303.457	18279.4
306.832	18274.4
310.207	18052
313.582	17893.2
316.956	17894.1
320.331	17756.3
323.706	17548.2
327.081	17444.3
330.456	17392.1
333.83	17370.7
337.205	17307.3
340.58	17174.7
343.955	17031
347.33	17002.2
350.705	16868.2
354.079	16839.4
357.454	16850.1
360.829	16698.5
364.204	16677.3
367.579	16627.9
370.954	16606
374.328	16420
377.703	16434.2
381.078	16345.8
384.453	16294.3
387.828	16202.8
391.202	16288.9
394.577	16172.3
397.952	16162.6
401.327	16057.6
404.702	16022.4
408.077	16026.5
411.451	15933.8
414.826	15881.1
418.201	15945.6
421.576	15825.8
424.951	15734.6
428.325	15718.1
431.7	15683.8
435.075	15620.7
438.45	15604.4
441.825	15605.7
445.2	15605.1
448.574	15483.5
451.949	15490.7
455.324	15549.9
458.699	15502
462.074	15471.4
465.448	15537.5
468.823	15599.9
472.198	15566.9
475.573	15608.5
478.948	15665.5
482.322	15702
485.697	15876
489.072	15858.4
492.447	15956.1
495.822	16059
499.197	16144.8
502.571	16238.9
505.946	16226.1
509.321	16399.3
512.696	16430.6
516.071	16490.1
519.446	16457.3
522.82	16558.3
526.195	16646.3
529.57	16741.1
532.945	16719.1
536.32	16900.6
539.694	16924.9
543.069	16983.1
546.444	17049.2
549.819	17060.4
553.194	17212.4
556.568	17297.2
559.943	17469.5
563.318	17500.7
566.693	17639.6
570.068	17739
573.443	17872.6
576.817	17951.7
580.192	18090.7
583.567	18307.9
586.942	18395
590.317	18581.7
593.692	18673.3
597.066	18893.1
600.441	19021.1
603.816	19117.3
607.191	19315.6
610.566	19440
613.94	19591.9
617.315	19778.6
620.69	19816.7
624.065	19873.4
627.44	20045.3
630.814	20091.9
634.189	20091.9
637.564	20236.2
640.939	20175.2
644.314	20219.1
647.689	20128.2
651.063	20204.9
654.438	20152
657.813	20070.5
661.188	19965
664.563	19848.4
667.938	19708.4
671.312	19488.8
674.687	19423.5
678.062	19273.5
681.437	19164.3
684.812	19003.4
688.186	18853.6
691.561	18749.1
694.936	18680
698.311	18496.8
701.686	18446.6
705.061	18322.8
708.435	18240.3
711.81	18329.7
715.185	18256.1
718.56	18262.2
721.935	18277.5
725.309	18318.9
728.684	18351.1
732.059	18483.7
735.434	18596.2
738.809	18697.9
742.183	18854.6
745.558	18909.5
748.933	19148.8
752.308	19212.6
755.683	19306.4
759.058	19475.1
762.432	19662.8
765.807	19873.8
769.182	19988.8
772.557	20140.7
775.932	20303.2
779.307	20462.6
782.681	20481.2
786.056	20463.4
789.431	20487.7
792.806	20596.6
796.181	20705.8
799.555	20391.7
802.93	20286.2
806.305	20199.1
809.68	20025.8
813.055	19851.4
816.429	19757.2
819.804	19518.7
823.179	19345.5
826.554	19112.7
829.929	18908
833.304	18666.7
836.678	18406.8
840.053	18158.9
843.428	17949.6
846.803	17610.6
850.178	17414.3
853.553	17066.5
856.927	16958.2
860.302	16620.2
863.677	16365.5
867.052	16103.7
870.427	15855.4
873.801	15582.3
877.176	15283.9
880.551	15053.9
883.926	14714.3
887.301	14516
890.676	14273.5
894.05	13886.1
897.425	13658.9
900.8	13289
904.175	13103.8
907.55	12796.2
910.924	12547.2
914.299	12424.8
917.674	12140.8
921.049	11898.8
924.424	11676.7
927.798	11448.4
931.173	11352
934.548	11084.9
937.923	10973.2
941.298	10823.4
944.673	10725
948.047	10635.2
951.422	10495.8
954.797	10380.4
958.172	10254.4
961.547	10164.1
964.922	10036.7
968.296	10028.6
971.671	9967.94
975.046	9907.1
978.421	9927.52
981.796	9838.27
985.17	9728.18
988.545	9775.96
991.92	9608.18
995.295	9674.24
998.67	9585.99
1002.04	9576.8
1005.42	9579.69
1008.79	9500.17
1012.17	9512.12
1015.54	9484.3
1018.92	9429.61
1022.29	9445.92
1025.67	9403.12
1029.04	9332.54
1032.42	9350.35
1035.79	9396.96
1039.17	9285.27
1042.54	9251.04
1045.92	9187.11
1049.29	9189.77
1052.67	9186.83
1056.04	9153.67
1059.42	9231.87
1062.79	9142.64
1066.17	9207.95
1069.54	9065.88
1072.92	9114.43
1076.29	9107.81
1079.66	9063.04
1083.04	8982.57
1086.41	9090.72
1089.79	9000.57
1093.16	8985.12
1096.54	9003.15
1099.91	8946.37
1103.29	8999.31
1106.66	8954.21
1110.04	8962.09
1113.41	9007.11
1116.79	8925.78
1120.16	8894.51
1123.54	8931.07
1126.91	8903.82
1130.29	8840.23
1133.66	8911.83
1137.04	8855.64
1140.41	8871.38
1143.79	8857.58
1147.16	8832.22
1150.54	8831.28
1153.91	8847.82
1157.29	8879.32
1160.66	8793.88
1164.04	8859.89
1167.41	8724.34
1170.79	8777.2
1174.16	8776.74
1177.54	8747.47
1180.91	8681.45
1184.29	8698.64
1187.66	8650.48
1191.03	8732.66
1194.41	8701.17
1197.78	8679.78
1201.16	8677.32
1204.53	8729.25
1207.91	8628.97
1211.28	8678.32
1214.66	8625.03
1218.03	8676.96
1221.41	8633.26
1224.78	8633.46
1228.16	8683.53
1231.53	8552.51
1234.91	8633.75
1238.28	8602
1241.66	8634.45
1245.03	8574.75
1248.41	8616.04
1251.78	8663.99
1255.16	8560.77
1258.53	8571.49
1261.91	8549.76
1265.28	8557.88
1268.65	8570.99
1272.03	8519.85
1275.4	8554.05
1278.78	8548.2
1282.15	8513.27
1285.53	8557.01
1288.9	8568.37
1292.28	8503.14
1295.65	8515.41
1299.03	8463.61
1302.4	8520.59
1305.78	8504.86
1309.15	8508.98
1312.53	8482.12
