Measurement: Raman, 780 nm, unoriented, Raman Data RAW
Mineral: Fluorapatite
Rruff sample: R050274
Ideal chemistry: Ca_5_(PO_4_)_3_F
Locality: Minas Gerais, Brazil
Source: Marcus Origlieri
Description: Aggregate of blue crystal fragments separated by veins of quartz
Measured chemistry: Ca_5.00_((P_0.97_Si_0.02_S_0.01_)O_4_)_3_(F_0.90_Cl_0.10_)
Raman shift (cm-1)	intensity
92.6728	749.063
96.0477	825.685
99.4225	809.213
102.797	773.65
106.172	744.742
109.547	790.295
112.922	789.359
116.297	802.147
119.671	836.902
123.046	868.374
126.421	885.191
129.796	936.246
133.171	960.94
136.546	986.855
139.92	1012.02
143.295	1046.32
146.67	1057.16
150.045	1095.5
153.419	1130.5
156.794	1126.43
160.169	1177.6
163.544	1207.24
166.919	1222.36
170.294	1284.96
173.668	1297.93
177.043	1318.66
180.418	1374.99
183.793	1432.58
187.168	1467.3
190.542	1501.06
193.917	1598.6
197.292	1656.01
200.667	1677.88
204.042	1750.28
207.417	1824.3
210.791	1877.97
214.166	1967.57
217.541	2017.16
220.916	2073.9
224.291	2128.58
227.666	2249.69
231.04	2331.31
234.415	2421.03
237.79	2505.53
241.165	2635.83
244.54	2713.44
247.914	2781.8
251.289	2901.77
254.664	2967.02
258.039	2957.16
261.414	3024.63
264.788	3105.8
268.163	3181.57
271.538	3279.38
274.913	3379.28
278.288	3515.76
281.663	3641.29
285.037	3866.67
288.412	4112.67
291.787	4397.68
295.162	4612.69
298.537	4974
301.911	5214.7
305.286	5553.29
308.661	5856.9
312.036	6170.6
315.411	6518.93
318.786	6885.76
322.16	7252.16
325.535	7587.16
328.91	7919.49
332.285	8162.11
335.66	8314.98
339.034	8549.25
342.409	8705.89
345.784	8728.12
349.159	8782.34
352.534	8675.91
355.909	8558.62
359.283	8433.1
362.658	8235.47
366.033	8065.2
369.408	7916.15
372.783	7766.45
376.157	7628.11
379.532	7576.69
382.907	7553.01
386.282	7572.33
389.657	7629.36
393.031	7727.47
396.406	7895.62
399.781	8019.57
403.156	8285.1
406.531	8618.92
409.906	8907.08
413.28	9190.86
416.655	9590.11
420.03	9961.75
423.405	10119.1
426.78	10187.5
430.154	10012
433.529	9615.47
436.904	9137.19
440.279	8630.36
443.654	8244.02
447.029	7862.75
450.403	7518.73
453.778	7318.66
457.153	7135.61
460.528	6964.85
463.903	6794.32
467.277	6600.14
470.652	6457.89
474.027	6308.45
477.402	6170.75
480.777	6087.65
484.152	5951.74
487.526	5815.08
490.901	5680.1
494.276	5476.24
497.651	5347.3
501.026	5257.48
504.4	5165.44
507.775	5071.52
511.15	4947.53
514.525	4896.62
517.9	4797.69
521.274	4756.73
524.649	4651.13
528.024	4642.14
531.399	4551.39
534.774	4469.06
538.149	4391.4
541.523	4354.55
544.898	4357.19
548.273	4325.01
551.648	4286.29
555.023	4236.85
558.398	4253.13
561.772	4171.29
565.147	4160.04
568.522	4163.74
571.897	4159.8
575.272	4124.32
578.646	4157.71
582.021	4127.05
585.396	4113.32
588.771	4099.9
592.146	4062.72
595.52	4014.2
598.895	3973.73
602.27	3985.68
605.645	4002.85
609.02	3973.95
612.394	3955.05
615.769	3907.71
619.144	3901.2
622.519	3831.05
625.894	3862.64
629.269	3863.8
632.643	3752.9
636.018	3791.96
639.393	3741.07
642.768	3750.2
646.143	3719.42
649.518	3691.01
652.892	3712.22
656.267	3697.93
659.642	3711.93
663.017	3700.35
666.392	3710.64
669.766	3710.48
673.141	3640.84
676.516	3653.96
679.891	3618.22
683.266	3602.78
686.64	3581.84
690.015	3598.52
693.39	3490.21
696.765	3491.41
700.14	3447.19
703.515	3446.58
706.889	3362.29
710.264	3327.57
713.639	3315.59
717.014	3288.46
720.389	3294.13
723.764	3236.61
727.138	3224.61
730.513	3254.59
733.888	3218.9
737.263	3182.56
740.638	3222.43
744.012	3200.42
747.387	3252.22
750.762	3236.21
754.137	3200.06
757.512	3231.48
760.886	3214.27
764.261	3222.03
767.636	3249.09
771.011	3221.77
774.386	3216.39
777.761	3206.39
781.135	3211.97
784.51	3170.98
787.885	3166.97
791.26	3116.99
794.635	3147.22
798.01	3125.67
801.384	3071.19
804.759	3039.73
808.134	3053.25
811.509	3004.8
814.884	2984.27
818.258	3017.53
821.633	2988.34
825.008	2935.73
828.383	2910.6
831.758	2857.82
835.132	2813.93
838.507	2797.15
841.882	2734.86
845.257	2716.45
848.632	2679.39
852.006	2619.65
855.381	2576.28
858.756	2544.41
862.131	2447.14
865.506	2429.35
868.881	2405.05
872.255	2344.29
875.63	2324.43
879.005	2251.94
882.38	2232.93
885.755	2172.74
889.13	2161.26
892.504	2139.45
895.879	2103.99
899.254	2059.34
902.629	2079.77
906.004	2076.82
909.378	2067.56
912.753	2047.56
916.128	2074.9
919.503	2084
922.878	2106.4
926.252	2089.15
929.627	2106.88
933.002	2139.9
936.377	2148.45
939.752	2177.53
943.126	2205.89
946.501	2287.76
949.876	2391.58
953.251	2533.67
956.626	2811.77
960.001	3188.89
963.375	3299.45
966.75	2737.49
970.125	2409.73
973.5	2279.51
976.875	2190.01
980.25	2187.27
983.624	2211.99
986.999	2217.76
990.374	2224.11
993.749	2271.62
997.124	2252.82
1000.5	2314.41
1003.87	2368.55
1007.25	2355.8
1010.62	2398.47
1014	2459.3
1017.37	2480.85
1020.75	2570.81
1024.12	2567.74
1027.5	2629.7
1030.87	2663.22
1034.25	2738.96
1037.62	2785.54
1041	2833.32
1044.37	2909.02
1047.75	2977.13
1051.12	3048.44
1054.49	3130.41
1057.87	3197.28
1061.24	3313.21
1064.62	3414.76
1067.99	3528.99
1071.37	3666.16
1074.74	3879.48
1078.12	4040.86
1081.49	4286.8
1084.87	4499.8
1088.24	4677.18
1091.62	4877.78
1094.99	5207.54
1098.37	5367.06
1101.74	5580.11
1105.12	5899.06
1108.49	6300.83
1111.87	6862.29
1115.24	7615.61
1118.62	8496.94
1121.99	9636.23
1125.37	10838.6
1128.74	12365.4
1132.12	13856.1
1135.49	15121.3
1138.87	15812.6
1142.24	15576.2
1145.62	14650.7
1148.99	13472.1
1152.37	12882.5
1155.74	12494.4
1159.12	12486.4
1162.49	12664.9
1165.86	12909.3
1169.24	13222.2
1172.61	13544.5
1175.99	13936.9
1179.36	14296.1
1182.74	14796.7
1186.11	15198
1189.49	15719.8
1192.86	16439.2
1196.24	17197.7
1199.61	17936.2
1202.99	18903.2
1206.36	19806.7
1209.74	20683.9
1213.11	21867.6
1216.49	23002.2
1219.86	24019.1
1223.24	25226
1226.61	26515
1229.99	27928.2
1233.36	29475.3
1236.74	31203.1
1240.11	33490.3
1243.48	35783.8
1246.86	38385.8
1250.23	41282.5
1253.61	44233.7
1256.98	47497.8
1260.36	50388.8
1263.73	53413.9
1267.11	56043.4
1270.48	58446.5
1273.86	59909.9
1277.23	61188.5
1280.61	62143.7
1283.98	62855.5
