Measurement: Raman, 780 nm, unoriented, Raman Data RAW
Mineral: Fluorapatite
Rruff sample: R050192
Ideal chemistry: Ca_5_(PO_4_)_3_F
Locality: Fulford, Eagle County, Colorado, USA
Source: Dave Bunk Minerals
Description: Pale green hexagonal prism
Measured chemistry: Ca_5.00_(P_1.00_O_4_)_3_(F_0.86_Cl_0.13_)
Raman shift (cm-1)	intensity
92.9658	153.863
96.3406	150.904
99.7155	152.454
103.09	149.39
106.465	162.409
109.84	161.165
113.215	154.954
116.59	177.525
119.964	175.069
123.339	184.988
126.714	201.008
130.089	200.608
133.464	221.277
136.838	244.234
140.213	243.063
143.588	224.559
146.963	212.24
150.338	222.475
153.713	231.722
157.087	222.154
160.462	225.767
163.837	230.082
167.212	228.562
170.587	238.62
173.961	243.703
177.336	256.447
180.711	260.697
184.086	275.396
187.461	298.5
190.835	309.839
194.21	330.132
197.585	355.205
200.96	378.88
204.335	375.808
207.709	389.502
211.084	399.369
214.459	413.332
217.834	412.977
221.209	435.503
224.584	444.32
227.958	485.679
231.333	492.323
234.708	529.446
238.083	560.406
241.458	599.685
244.833	633.291
248.207	651.769
251.582	696.294
254.957	714.021
258.332	732.504
261.707	770.206
265.081	779.586
268.456	800.303
271.831	847.472
275.206	919.693
278.581	973.64
281.955	1069.87
285.33	1139.07
288.705	1273.43
292.08	1376.3
295.455	1507.42
298.83	1683.31
302.204	1822.45
305.579	1994.69
308.954	2144.99
312.329	2292.11
315.704	2483.81
319.079	2722.89
322.453	2901.63
325.828	3086.51
329.203	3109.94
332.578	3090.96
335.952	3023.21
339.327	2944.61
342.702	2840.5
346.077	2763.91
349.452	2673.97
352.827	2632.95
356.201	2541.89
359.576	2483.74
362.951	2438.28
366.326	2391.23
369.701	2347.87
373.075	2273.06
376.45	2238.08
379.825	2251.1
383.2	2208.65
386.575	2194.4
389.95	2202.49
393.324	2269.3
396.699	2285
400.074	2348.18
403.449	2416.74
406.824	2528.11
410.199	2608.5
413.573	2676.91
416.948	2765.07
420.323	2753.13
423.698	2782.55
427.072	2736.71
430.447	2682.82
433.822	2588.88
437.197	2530.29
440.572	2436.97
443.947	2370.91
447.321	2285.39
450.696	2224.89
454.071	2121.17
457.446	2057.01
460.821	2004.02
464.195	1923.58
467.57	1879.77
470.945	1817.43
474.32	1728.14
477.695	1675.35
481.07	1621.44
484.444	1595.97
487.819	1541.8
491.194	1510.28
494.569	1455.71
497.944	1413.14
501.318	1362.2
504.693	1360.59
508.068	1327.35
511.443	1287.41
514.818	1263.65
518.193	1212.6
521.567	1213.75
524.942	1193.37
528.317	1163.88
531.692	1142.14
535.067	1111.67
538.442	1107.89
541.816	1056.13
545.191	1055.46
548.566	1029.27
551.941	1045.53
555.316	1015.22
558.69	1025.93
562.065	1032.96
565.44	1028.85
568.815	1026.2
572.19	1035.92
575.564	1034.62
578.939	1074.52
582.314	1027.46
585.689	990.235
589.064	981.568
592.438	968.278
595.813	957.548
599.188	946.102
602.563	950.995
605.938	970.309
609.313	950.07
612.687	927.433
616.062	933.592
619.437	925.304
622.812	902.807
626.187	894.144
629.562	895.817
632.936	892.755
636.311	871.172
639.686	899.605
643.061	879.698
646.436	868.356
649.81	878.735
653.185	857.343
656.56	857.25
659.935	867.208
663.31	866.345
666.684	861.545
670.059	854.946
673.434	865.764
676.809	845.228
680.184	850.432
683.558	845.325
686.933	837.699
690.308	836.773
693.683	812.464
697.058	802.148
700.433	806.858
703.807	804.988
707.182	784.032
710.557	782.264
713.932	774.872
717.307	780.132
720.682	768.068
724.056	767.031
727.431	756.483
730.806	770.176
734.181	766.955
737.556	768.679
740.93	764.563
744.305	762.133
747.68	783.717
751.055	763.902
754.43	796.954
757.804	786.87
761.179	802.024
764.554	802.742
767.929	827.191
771.304	825.246
774.678	848.647
778.053	833.636
781.428	840.922
784.803	808.729
788.178	823.869
791.553	796.083
794.927	804.637
798.302	769.888
801.677	768.394
805.052	718.932
808.427	726.36
811.802	690.034
815.176	658.67
818.551	654.334
821.926	644.85
825.301	638.909
828.676	615.695
832.05	596.12
835.425	609.557
838.8	581.165
842.175	579.933
845.55	567.956
848.924	531.05
852.299	506.872
855.674	478.81
859.049	457.778
862.424	435.446
865.799	410.565
869.173	413.901
872.548	387.937
875.923	378.626
879.298	359.682
882.673	353.722
886.047	330.731
889.422	338.866
892.797	316.044
896.172	319.186
899.547	322.087
902.922	304.069
906.296	303.56
909.671	296.622
913.046	303.826
916.421	308.05
919.796	298.103
923.17	303.014
926.545	290.617
929.92	299.464
933.295	305.077
936.67	302.314
940.044	305.074
943.419	302.089
946.794	344.691
950.169	391.618
953.544	428.38
956.919	525.911
960.293	762.558
963.668	895.144
967.043	539.568
970.418	421.875
973.793	350.632
977.168	333.792
980.542	333.03
983.917	343.917
987.292	341.254
990.667	336.924
994.042	357.921
997.416	341.736
1000.79	359.418
1004.17	373.462
1007.54	383.182
1010.92	380.451
1014.29	392.84
1017.66	412.945
1021.04	430.544
1024.41	443.896
1027.79	465.781
1031.16	484.23
1034.54	490.154
1037.91	498.915
1041.29	510.334
1044.66	545.175
1048.04	549.916
1051.41	553.308
1054.79	612.512
1058.16	626.066
1061.54	641.063
1064.91	653.996
1068.29	690.445
1071.66	704.207
1075.04	738.665
1078.41	765.508
1081.79	810.666
1085.16	859.885
1088.54	873.195
1091.91	913.165
1095.29	978.709
1098.66	1024.56
1102.04	1062.76
1105.41	1132.82
1108.79	1180.56
1112.16	1270.23
1115.54	1333.8
1118.91	1410.37
1122.29	1464.22
1125.66	1569.9
1129.03	1671.41
1132.41	1741.83
1135.78	1827.76
1139.16	1879.62
1142.53	1957.85
1145.91	1998.29
1149.28	2078.99
1152.66	2192.24
1156.03	2279.3
1159.41	2414.21
1162.78	2490.25
1166.16	2638.38
1169.53	2778.06
1172.91	2915.17
1176.28	3089.38
1179.66	3234.78
1183.03	3402.96
1186.41	3628.83
1189.78	3878.77
1193.16	4060.62
1196.53	4355.12
1199.9	4591.03
1203.28	4908.47
1206.65	5260.46
1210.03	5642.55
1213.4	6021.5
1216.78	6436.6
1220.15	6899.45
1223.53	7440.89
1226.9	7968.12
1230.28	8791.58
1233.65	9647.2
1237.03	10795.5
1240.4	11970.9
1243.78	13440.8
1247.15	15283.1
1250.53	17311.5
1253.9	19666.4
1257.28	22231.4
1260.65	24938.9
1264.03	27453.9
1267.4	29714
1270.78	31584
1274.15	32827.8
1277.53	33768.9
1280.9	34118.3
1284.28	34807.3
