Measurement: Raman, 532 nm, unoriented, Raman Data Processed
Mineral: Fluorcalciobritholite
Rruff sample: R141089
Ideal chemistry: (Ca,Ce^3+^)_5_(SiO_4_,PO_4_)_3_F
Locality: In den Dellen, Laach lake volcano, Mendig, Eifel, Germany
Source: Ch. and H. Sch√§fer
Description: Light pinkish, hexagonal prismatic crystals, associated with black prismatic augite and volcanic glass.
Raman shift (cm-1)	intensity
127.67	0
131.045	20.9326
134.42	19.0422
137.795	54.8251
141.17	85.837
144.544	64.7446
147.919	60.6835
151.294	51.2545
154.669	43.5162
158.044	6.70874
161.418	3.83069
164.793	1.59668
168.168	13.4517
171.543	1.75366
174.918	0.361206
178.293	3.03516
181.667	16.5678
185.042	30.9484
188.417	43.2324
191.792	45.7159
195.167	57.7323
198.542	51.7405
201.916	62.1421
205.291	55.7662
208.666	69.5738
212.041	76.2478
215.416	89.9305
218.79	89.2063
222.165	73.9882
225.54	49.0796
228.915	52.0573
232.29	54.3267
235.664	59.6301
239.039	66.6726
242.414	66.6481
245.789	59.0398
249.164	48.1882
252.538	54.1473
255.913	54.5747
259.288	64.2228
262.663	66.846
266.038	72.4703
269.413	83.2408
272.787	104.075
276.162	122.086
279.537	140.441
282.912	156.546
286.287	175.172
289.661	188.093
293.036	181.707
296.411	172.309
299.786	161.306
303.161	141.94
306.536	122.335
309.91	108.147
313.285	82.9625
316.66	67.7229
320.035	57.5665
323.41	39.0627
326.784	27.134
330.159	15.4855
333.534	7.77966
336.909	0.857788
340.284	6.1427
343.659	13.3873
347.033	5.89746
350.408	1.08887
353.783	14.4874
357.158	29.9255
360.533	59.7216
363.908	76.6952
367.282	108.849
370.657	138.325
374.032	170.253
377.407	193.669
380.782	196.916
384.156	186.643
387.531	178.98
390.906	174.527
394.281	176.566
397.656	193.554
401.031	211.127
404.405	220.412
407.78	227.299
411.155	233.39
414.53	232.127
417.905	202.166
421.279	183.401
424.654	148.053
428.029	116.732
431.404	90.6935
434.779	60.6338
438.154	42.7753
441.528	25.3079
444.903	9.6062
448.278	6.5802
451.653	3.38293
455.028	6.26135
458.402	10.0881
461.777	4.29309
465.152	1.01587
468.527	19.1868
471.902	35.8403
475.276	58.0037
478.651	79.7341
482.026	95.1024
485.401	112.713
488.776	113.842
492.151	98.1793
495.525	86.2449
498.9	80.6503
502.275	82.7331
505.65	90.6561
509.025	91.6178
512.399	111.819
515.774	135.522
519.149	140.985
522.524	149.598
525.899	165.994
529.274	183.571
532.648	184.358
536.023	168.436
539.398	126.379
542.773	94.1504
546.148	78.4349
549.523	66.9771
552.897	69.3731
556.272	66.9562
559.647	69.1372
563.022	64.5651
566.396	69.0531
569.771	75.5881
573.146	95.2915
576.521	106.092
579.896	122.734
583.271	142.093
586.645	157.488
590.02	165.482
593.395	159.307
596.77	133.131
600.145	116.039
603.519	99.3999
606.894	79.8452
610.269	65.1984
613.644	41.1692
617.019	24.8712
620.394	16.3954
623.768	10.4778
627.143	4.55396
630.518	1.24353
633.893	5.22644
637.268	6.30615
640.643	4.05359
644.017	5.64832
647.392	0.057251
650.767	0.188599
654.142	0.700073
657.517	5.19458
660.891	3.61231
664.266	5.50977
667.641	8.28955
671.016	9.92285
674.391	11.4817
677.765	17.4335
681.14	18.1513
684.515	17.9545
687.89	20.6973
691.265	19.1421
694.64	22.2419
698.014	22.3374
701.389	22.0638
704.764	20.9657
708.139	20.2443
711.514	14.6671
714.889	16.488
718.263	13.0187
721.638	13.4246
725.013	17.6154
728.388	16.9557
731.763	20.9592
735.137	17.2033
738.512	18.9804
741.887	17.5569
745.262	20.765
748.637	16.3192
752.011	15.0856
755.386	7.0918
758.761	11.2847
762.136	3.68018
765.511	5.08569
768.886	3.69263
772.26	7.84595
775.635	4.88623
779.01	0.697021
782.385	2.30359
785.76	3.90747
789.135	3.00562
792.509	1.57117
795.884	2.99231
799.259	0.392212
802.634	1.94153
806.009	14.2288
809.383	9.72253
812.758	21.6121
816.133	28.4681
819.508	48.4753
822.883	68.4788
826.257	96.0547
829.632	141.584
833.007	206.569
836.382	309.688
839.757	407.021
843.132	523.128
846.506	620.534
849.881	680.296
853.256	682.573
856.631	644.022
860.006	574.854
863.38	483.737
866.755	398.957
870.13	313.285
873.505	232.524
876.88	171.328
880.255	116.758
883.629	79.5915
887.004	54.6254
890.379	24.8016
893.754	15.1459
897.129	6.62683
900.504	4.32251
903.878	2.2749
907.253	1.4895
910.628	7.22754
914.003	12.7747
917.378	23.911
920.752	25.7938
924.127	37.8732
927.502	48.6921
930.877	53.025
934.252	66.3873
937.626	77.9995
941.001	111.717
944.376	154.113
947.751	198.206
951.126	224.957
954.5	246.084
957.875	247.516
961.25	245.017
964.625	227.849
968	179.357
971.375	95.6482
974.75	51.0969
978.124	18.8682
981.499	2.15784
984.874	1.80188
988.249	1.54858
991.624	6.80859
994.998	15.2827
998.373	26.5773
1001.75	29.5841
1005.12	24.495
1008.5	17.4591
1011.87	6.03723
1015.25	0.384399
1018.62	1.94165
1022	4.35059
1025.37	1.53503
1028.75	5.43982
1032.12	13.1685
1035.5	6.79846
1038.87	16.627
1042.25	25.6843
1045.62	29.3517
1048.99	24.8739
1052.37	20.5571
1055.74	17.1578
1059.12	12.3318
1062.49	14.668
1065.87	12.3184
1069.24	13.5233
1072.62	15.8213
1075.99	7.8595
1079.37	3.80164
1082.74	6.11011
1086.12	9.19312
1089.49	3.83106
1092.87	5.85461
1096.24	2.66235
1099.62	3.05115
1102.99	3.07043
1106.37	4.96057
1109.74	9.71826
1113.12	13.5754
1116.49	9.23035
1119.87	5.25378
1123.24	1.23132
1126.62	0.910156
1129.99	1.85962
1133.37	0.009644
1136.74	2.57202
1140.12	0.053345
1143.49	1.3988
1146.87	5.28931
1150.24	3.23364
1153.62	8.33789
1156.99	7.23816
1160.36	3.44788
1163.74	2.82666
1167.11	7.0885
1170.49	4.67529
1173.86	4.85583
1177.24	8.99658
1180.61	11.2018
1183.99	3.78626
1187.36	7.05786
1190.74	7.94897
1194.11	7.39002
1197.49	5.95654
1200.86	4.96753
1204.24	6.79077
1207.61	7.55676
1210.99	6.63354
1214.36	8.0874
1217.74	10.975
1221.11	7.44897
1224.49	4.41736
1227.86	3.16504
1231.24	4.37415
1234.61	6.3761
1237.98	10.7745
1241.36	2.44373
1244.73	8.22729
1248.11	10.5662
1251.48	8.59705
1254.86	7.68921
1258.23	4.60339
1261.61	3.04578
1264.98	2.45532
1268.36	8.39563
1271.73	1.11536
1275.11	1.67236
1278.48	0.057251
1281.86	2.97888
1285.23	4.72095
1288.61	1.53162
1291.98	5.15198
1295.36	1.10522
1298.73	1.0271
