Measurement: Raman, 780 nm, unoriented, Raman Data Processed
Mineral: Fluorcalciobritholite
Rruff sample: R141089
Ideal chemistry: (Ca,Ce^3+^)_5_(SiO_4_,PO_4_)_3_F
Locality: In den Dellen, Laach lake volcano, Mendig, Eifel, Germany
Source: Ch. and H. Sch√§fer
Description: Light pinkish, hexagonal prismatic crystals, associated with black prismatic augite and volcanic glass.
Raman shift (cm-1)	intensity
99.1531	0
102.528	21.271
105.903	11.3084
109.278	20.648
112.652	8.11304
116.027	8.60962
119.402	23.7935
122.777	35.677
126.152	34.4016
129.526	33.9207
132.901	35.8577
136.276	47.4597
139.651	54.3613
143.026	59.6614
146.401	69.5232
149.775	50.1428
153.15	46.3499
156.525	50.5549
159.9	47.0278
163.275	50.0127
166.649	50.2947
170.024	57.7022
173.399	54.6833
176.774	52.6035
180.149	62.9988
183.524	73.4856
186.898	70.4888
190.273	69.3816
193.648	87.4844
197.023	82.6416
200.398	84.3398
203.773	91.7532
207.147	97.8306
210.522	91.0845
213.897	105.278
217.272	87.2158
220.647	99.5317
224.021	101.836
227.396	96.8987
230.771	97.6812
234.146	95.6038
237.521	118.479
240.895	102.107
244.27	90.8191
247.645	91.7144
251.02	79.0342
254.395	59.0203
257.769	37.9438
261.144	58.7705
264.519	36.8718
267.894	31.1169
271.269	29.8921
274.644	16.1572
278.018	18.7776
281.393	2.22974
284.768	9.47681
288.143	12.981
291.518	2.09473
294.892	15.2681
298.267	4.50781
301.642	6.79688
305.017	17.3301
308.392	30.8496
311.767	5.25928
315.141	24.1919
318.516	68.0576
321.891	146.917
325.266	245.523
328.641	401.372
332.015	546.122
335.39	704.363
338.765	902.004
342.14	1076.41
345.515	1279.79
348.89	1484.05
352.264	1637.17
355.639	1751.21
359.014	1863.36
362.389	1972.35
365.764	2044.93
369.139	2057.51
372.513	2073.92
375.888	2048.73
379.263	1978.26
382.638	1872.53
386.013	1737.93
389.387	1595.97
392.762	1443.95
396.137	1330.13
399.512	1124.17
402.887	992.784
406.262	854.839
409.636	676.285
413.011	545.833
416.386	428.808
419.761	316.094
423.136	233.815
426.51	151.142
429.885	73.0102
433.26	14.2334
436.635	10.1148
440.01	19.0239
443.385	3.49853
446.759	15.9492
450.134	44.5889
453.509	63.2363
456.884	138.369
460.259	162.966
463.633	181.258
467.008	190.546
470.383	196.605
473.758	234.804
477.133	229.617
480.507	207.457
483.882	217.846
487.257	175.754
490.632	183.269
494.007	154.96
497.382	116.248
500.756	87.0322
504.131	70.6113
507.506	66.2451
510.881	36.4009
514.256	25.9287
517.63	15.8462
521.005	19.5405
524.38	25.0249
527.755	9.82764
531.13	24.0561
534.505	16.4546
537.879	10.0366
541.254	5.53857
544.629	10.3521
548.004	11.4199
551.379	22.0762
554.753	28.7207
558.128	31.8184
561.503	64.0454
564.878	70.8086
568.253	97.9736
571.628	129.589
575.002	164.399
578.377	182.261
581.752	191.291
585.127	201.349
588.502	223.857
591.876	237.06
595.251	228.965
598.626	206.044
602.001	207.261
605.376	192.246
608.75	167.426
612.125	162.812
615.5	179.859
618.875	159.879
622.25	163.173
625.625	146.977
629	148.135
632.374	148.639
635.749	142.981
639.124	146.143
642.499	117.335
645.874	117.029
649.248	126.282
652.623	103.283
655.998	108.369
659.373	94.8457
662.748	94.3889
666.122	106.274
669.497	70.4744
672.872	64.5391
676.247	58.6191
679.622	42.3342
682.996	17.6043
686.371	13.676
689.746	37.436
693.121	0.775391
696.496	14.7712
699.871	6.38061
703.245	7.87817
706.62	1.55689
709.995	0.188477
713.37	36.2227
716.745	20.9778
720.12	2.32642
723.494	22.3227
726.869	11.4675
730.244	22.3787
733.619	27.7127
736.994	46.3735
740.368	43.294
743.743	33.2676
747.118	37.6221
750.493	31.8596
753.868	37.3176
757.242	22.3572
760.617	38.2349
763.992	26.4985
767.367	24.5149
770.742	30.5371
774.117	20.762
777.491	15.9758
780.866	12.7371
784.241	21.2996
787.616	17.9683
790.991	15.3171
794.365	14.6482
797.74	5.56348
801.115	2.70044
804.49	10.9277
807.865	2.56885
811.24	9.18286
814.614	5.41602
817.989	5.95264
821.364	0.401123
824.739	12.3145
828.114	6.93066
831.489	23.115
834.863	25.6895
838.238	38.5942
841.613	41.2368
844.988	58.5752
848.362	73.9502
851.737	74.7134
855.112	71.0701
858.487	79.7664
861.862	79.4941
865.237	58.531
868.611	58.9177
871.986	55.0155
875.361	39.1476
878.736	43.1971
882.111	41.2777
885.486	42.5045
888.86	47.1735
892.235	32.1854
895.61	35.3262
898.985	46.1099
902.36	43.9855
905.734	35.2054
909.109	46.9696
912.484	40.2366
915.859	39.682
919.234	36.6592
922.609	48.5704
925.983	46.1962
929.358	41.2588
932.733	42.6012
936.108	39.9115
939.483	46.5455
942.857	55.6995
946.232	38.9498
949.607	45.3485
952.982	55.4097
956.357	46.3585
959.731	34.6446
963.106	49.019
966.481	29.111
969.856	33.7921
973.231	25.9624
976.606	13.963
979.98	17.6567
983.355	9.86841
986.73	11.8206
990.105	13.6587
993.48	6.05945
996.855	6.12366
1000.23	9.32056
1003.6	12.1838
1006.98	7.42712
1010.35	9.85144
1013.73	21.7535
1017.1	13.8444
1020.48	7.97485
1023.85	17.1351
1027.23	4.23938
1030.6	3.57214
1033.98	14.7799
1037.35	5.26428
1040.73	28.1768
1044.1	18.2561
1047.48	38.054
1050.85	44.1943
1054.23	50.6682
1057.6	82.3323
1060.98	108.509
1064.35	116.987
1067.73	136.082
1071.1	144.312
1074.47	159.491
1077.85	226.198
1081.22	218.447
1084.6	254.315
1087.97	286.183
1091.35	320.745
1094.72	363.576
1098.1	404.003
1101.47	454.837
1104.85	506.955
1108.22	546.575
1111.6	593.533
1114.97	645.742
1118.35	683.365
1121.72	747.366
1125.1	796.383
1128.47	847.964
1131.85	891.884
1135.22	940.627
1138.6	987.962
1141.97	1039.7
1145.35	1117.55
1148.72	1203.18
1152.1	1307.38
1155.47	1413
1158.85	1487.91
1162.22	1520.59
1165.6	1470.78
1168.97	1379.09
1172.35	1275.97
1175.72	1130.22
1179.1	964.276
1182.47	827.026
1185.84	637.843
1189.22	552.301
1192.59	389.941
1195.97	228.625
1199.34	112.448
1202.72	26.7861
1206.09	92.3506
1209.47	155.795
1212.84	168.492
1216.22	166.747
1219.59	50.3594
1222.97	137.471
1226.34	578.852
1229.72	1278.67
1233.09	2013.38
1236.47	2782.29
1239.84	3599.32
1243.22	4509.99
1246.59	5056.6
1249.97	5499.88
1253.34	6029.72
1256.71	6595.33
1260.09	6707.89
1263.46	6441.68
1266.84	5737.26
1270.21	4757.98
1273.59	3307.2
1276.96	1589.34
1280.34	136.707
