Measurement: Raman, 785 nm, unoriented, Raman Data RAW
Mineral: Fluorbritholite-(Ce)
Rruff sample: R070412
Ideal chemistry: (Ce^3+^,Ca)_5_(SiO_4_)_3_F
Locality: Lakarp, Norra Kärr, Gränna, Jönköping, Småland, Sweden
Source: Michael Scott
Description: Dark brown crystals embedded in massive enstatite matrix
Measured chemistry: (Ce_1.31_La_0.76_Nd_0.41_Pr_0.12_Y_0.08_Sm_0.06_Gd_0.05_Dy_0.02_Eu_0.01_Ca_1.90_Sr_0.03_Th_0.03_)_Σ=4.78_(Si_2.48_P_0.50_)_Σ=2.98_O_12_(F_0.68_OH_0.45_)_Σ=1.13_
Raman shift (cm-1)	intensity
168.749	3823.61
171.642	4005.06
174.534	4059.99
177.427	4165.88
180.32	4290.56
183.212	4387.22
186.105	4466.16
188.998	4535.96
191.891	4671.97
194.783	4702.66
197.676	4818.91
200.569	4908.84
203.461	4960.91
206.354	5059.1
209.247	5132.63
212.139	5144.35
215.032	5184.8
217.925	5261.26
220.818	5388.31
223.71	5401.35
226.603	5480
229.496	5565.76
232.388	5609.7
235.281	5695.46
238.174	5715.26
241.066	5827.3
243.959	5879.73
246.852	5947.53
249.745	6022.96
252.637	6100.31
255.53	6223.79
258.423	6259.81
261.315	6380.57
264.208	6372.99
267.101	6510.56
269.993	6593.18
272.886	6602.28
275.779	6660.84
278.672	6775.9
281.564	6819.23
284.457	6908.12
287.35	7057.06
290.242	7071.15
293.135	7177.33
296.028	7125.89
298.921	7276.32
301.813	7321.49
304.706	7388.99
307.599	7503.96
310.491	7667.11
313.384	7651.08
316.277	7740.87
319.169	7832.88
322.062	7833.77
324.955	7936.06
327.847	8005.92
330.74	8027.22
333.633	8081.05
336.526	8151.91
339.418	8152.12
342.311	8247.65
345.204	8230.66
348.096	8245.98
350.989	8285.77
353.882	8276.38
356.774	8265.99
359.667	8307.17
362.56	8222.83
365.452	8236.24
368.345	8239.65
371.238	8277.13
374.131	8274.24
377.023	8247.15
379.916	8231.95
382.809	8142.48
385.701	8249.51
388.594	8141.81
391.487	8081.8
394.38	8143.72
397.272	8097.41
400.165	8104.81
403.058	8086.27
405.95	8002.54
408.843	8009.3
411.736	8028.98
414.628	7972.08
417.521	7940.16
420.414	7941.56
423.307	7957.62
426.199	7913.22
429.092	7881.12
431.985	7846.91
434.877	7844.75
437.77	7791.11
440.663	7852.62
443.555	7794.23
446.448	7784.96
449.341	7797.45
452.234	7748.01
455.126	7664.84
458.019	7666.59
460.912	7675.55
463.804	7611.96
466.697	7614.12
469.59	7560.95
472.483	7591.4
475.375	7572.59
478.268	7562.37
481.161	7581.6
484.053	7534.81
486.946	7534.26
489.839	7530.83
492.731	7496.17
495.624	7461.95
498.517	7458.43
501.409	7420.3
504.302	7422.23
507.195	7393.41
510.088	7377.59
512.98	7393.48
515.873	7384.89
518.766	7403.64
521.658	7405.28
524.551	7338.65
527.444	7364.89
530.337	7359.45
533.229	7248.27
536.122	7293.28
539.015	7343.47
541.907	7326.04
544.8	7276.23
547.693	7282.09
550.585	7262.92
553.478	7314.81
556.371	7271.38
559.263	7315.49
562.156	7209.83
565.049	7260.74
567.942	7255.66
570.834	7218.57
573.727	7163.81
576.62	7200.74
579.512	7188
582.405	7163.33
585.298	7155.03
588.19	7124.83
591.083	7150.37
593.976	7074.31
596.869	7074.49
599.761	7100.75
602.654	7045.55
605.547	7043.72
608.439	7001.95
611.332	7050.08
614.225	6975.78
617.117	6964.64
620.01	6899.03
622.903	6957.38
625.795	6916.81
628.688	6913.4
631.581	6860.95
634.474	6878.72
637.366	6859.67
640.259	6856.52
643.152	6827.24
646.044	6798.55
648.937	6810.86
651.83	6732.21
654.722	6757.65
657.615	6694.8
660.508	6725.55
663.401	6698.72
666.293	6758.71
669.186	6641.11
672.079	6602.57
674.971	6635.2
677.864	6600.6
680.757	6615.11
683.649	6573.83
686.542	6527.8
689.435	6478.88
692.328	6494.32
695.22	6509.67
698.113	6447.93
701.006	6421.68
703.898	6417.67
706.791	6394.58
709.684	6375.7
712.577	6345.77
715.469	6294.77
718.362	6269.7
721.255	6291.07
724.147	6235.02
727.04	6164.28
729.933	6160.74
732.825	6101.08
735.718	6096.19
738.611	6112.5
741.504	6011.91
744.396	6076.86
747.289	5986.98
750.182	5940.21
753.074	5990.7
755.967	5935.59
758.86	5892.57
761.752	5901.02
764.645	5927.57
767.538	5792.76
770.431	5805.9
773.323	5805.62
776.216	5765.73
779.109	5703.56
782.001	5697.49
784.894	5692.65
787.787	5646.59
790.679	5666.47
793.572	5642.37
796.465	5586.42
799.357	5585.57
802.25	5600.24
805.143	5530.87
808.036	5513.27
810.928	5516.36
813.821	5486.4
816.714	5474.09
819.606	5450.11
822.499	5435.15
825.392	5414.69
828.284	5411.21
831.177	5450.83
834.07	5398.39
836.963	5400.25
839.855	5388.86
842.748	5368.98
845.641	5323.56
848.533	5306.55
851.426	5361.26
854.319	5337.9
857.212	5273.86
860.104	5321.45
862.997	5272
865.89	5287.47
868.782	5325.03
871.675	5296.88
874.568	5248.33
877.46	5230.8
880.353	5288.51
883.246	5273.79
886.139	5225.23
889.031	5229.45
891.924	5231.05
894.817	5252.9
897.709	5229.78
900.602	5261.61
903.495	5255.27
906.388	5282.85
909.28	5239.5
912.173	5292.05
915.066	5291
917.958	5237.23
920.851	5236.63
923.744	5238.69
926.636	5299.03
929.529	5284.27
932.422	5328
935.314	5284.85
938.207	5362.12
941.1	5315.12
943.993	5327.67
946.885	5343.05
949.778	5369.41
952.671	5423.14
955.563	5410.23
958.456	5388.71
961.349	5420.16
964.241	5477.79
967.134	5540.26
970.027	5504.86
972.92	5547.97
975.812	5549.3
978.705	5598.35
981.598	5688.25
984.49	5724.83
987.383	5744.77
990.276	5743.55
993.168	5805.06
996.061	5874.4
998.954	5925.68
1001.85	5995.21
1004.74	6028.29
1007.63	6087.81
1010.52	6183.31
1013.42	6269.03
1016.31	6319.26
1019.2	6468.73
1022.1	6538.75
1024.99	6617.06
1027.88	6722.9
1030.77	6817.07
1033.67	6983.81
1036.56	7035.8
1039.45	7183.65
1042.34	7303.74
1045.24	7475.07
1048.13	7649.22
1051.02	7823.89
1053.91	8043.85
1056.81	8316.89
1059.7	8558.75
1062.59	8710.95
1065.49	8900.74
1068.38	9127.12
1071.27	9294.74
1074.16	9554.81
1077.06	9728.7
1079.95	9979.73
1082.84	10338.6
1085.73	10589.5
1088.63	10844.6
1091.52	11119.5
1094.41	11513.5
1097.31	11833.6
1100.2	12247.5
1103.09	12543.7
1105.98	12978.4
1108.88	13330.5
1111.77	13821.4
1114.66	14138
1117.56	14663.9
1120.45	15076.1
1123.34	15568
1126.23	16063.3
1129.12	16536.8
1132.02	17033
1134.91	17632.1
1137.8	18226.2
1140.7	18767.7
1143.59	19413.4
1146.48	20097.9
1149.37	20716.8
1152.27	21378.2
1155.16	22022.5
1158.05	22765.4
1160.94	23477.3
1163.84	24176
1166.73	25073.3
1169.62	25943.1
1172.52	26808
1175.41	27621.4
1178.3	28407.5
1181.19	29284.8
1184.09	30084.4
1186.98	31023.7
1189.87	31668.5
1192.77	32301.1
1195.66	33028.9
1198.55	33527.8
1201.44	33779.7
1204.34	34302.5
1207.23	34560.3
1210.12	34842.6
1213.01	35068.6
1215.91	35254.1
1218.8	35368.5
1221.69	35440.6
1224.58	35444.4
1227.48	35417.9
1230.37	35283.7
1233.26	35172.9
1236.15	34837
1239.05	34600.1
1241.94	34523.5
