Measurement: Raman, 780 nm, unoriented, Raman Data RAW
Mineral: Fluorcalciomicrolite
Rruff sample: R090008
Ideal chemistry: (Ca,Na)_2_Ta^5+^_2_O_6_F
Locality: Shigar Valley, Skardu District, Baltistan, Northern areas, Pakistan
Source: Herb Obodda
Description: Dark yellowish brown octahedra on orthoclase
Measured chemistry: (Ca_0.99_Na_0.99_Pb_0.02_Mn^2+^_0.01_)_Σ2.01_(Ta_1.63_Nb_0.35_Sn_0.02_Ti_0.01_)_Σ2.01_O_6_(F_0.99_O_0.01_)
Raman shift (cm-1)	intensity
92.3769	1274.95
95.7518	1319.35
99.1266	1282.56
102.501	1227.32
105.876	1193.82
109.251	1164.94
112.626	1146.49
116.001	1142.94
119.376	1146.18
122.75	1159.23
126.125	1139.82
129.5	1136.86
132.875	1129.31
136.25	1121.89
139.624	1122.09
142.999	1119.67
146.374	1112.58
149.749	1102.96
153.124	1103.8
156.499	1109.72
159.873	1116.67
163.248	1121.82
166.623	1130.67
169.998	1129.49
173.373	1139.96
176.747	1149.95
180.122	1162.7
183.497	1179.81
186.872	1188.91
190.247	1218.67
193.621	1235.2
196.996	1262.32
200.371	1277.01
203.746	1284.57
207.121	1273.53
210.495	1242.83
213.87	1192.58
217.245	1162.71
220.62	1138.49
223.995	1116.04
227.37	1104.46
230.744	1083.56
234.119	1077.34
237.494	1072.89
240.869	1069.85
244.244	1064.68
247.619	1064.26
250.993	1053.26
254.368	1053.41
257.743	1054.04
261.118	1064.83
264.493	1084.54
267.867	1117.51
271.242	1148.86
274.617	1193.78
277.992	1245.37
281.367	1281.41
284.741	1301.07
288.116	1321.17
291.491	1337
294.866	1329.21
298.241	1320.97
301.616	1293.23
304.99	1252.36
308.365	1191.48
311.74	1127.63
315.115	1073.93
318.49	1040.37
321.865	1021.93
325.239	1031.82
328.614	1060.1
331.989	1093.11
335.364	1138.25
338.739	1165.76
342.113	1160.96
345.488	1140.78
348.863	1123.26
352.238	1119.3
355.613	1120.35
358.987	1129.96
362.362	1125.96
365.737	1118.6
369.112	1103.06
372.487	1084.32
375.861	1051.58
379.236	1026.98
382.611	1004.46
385.986	980.73
389.361	967.053
392.736	944.794
396.11	937.751
399.485	931.835
402.86	929.532
406.235	924.242
409.61	922.057
412.985	917.607
416.359	917.898
419.734	913.23
423.109	917.641
426.484	912.007
429.859	907.843
433.233	908.477
436.608	903.192
439.983	896.695
443.358	896.028
446.733	887.931
450.108	880.517
453.482	867.75
456.857	846.135
460.232	830.813
463.607	818.892
466.982	800.14
470.356	788.582
473.731	778.756
477.106	769.976
480.481	768.346
483.856	771.558
487.231	781.159
490.605	806.87
493.98	854.028
497.355	934.514
500.73	1026.78
504.104	1157.45
507.479	1273.28
510.854	1326.71
514.229	1280.55
517.604	1199.49
520.979	1120.13
524.354	1064.93
527.728	1039.31
531.103	1021.45
534.478	1007.94
537.853	999.361
541.227	994.76
544.602	983.601
547.977	970.671
551.352	953.188
554.727	936.018
558.102	915.386
561.476	899.414
564.851	879.258
568.226	865.948
571.601	855.526
574.976	850.78
578.351	849.173
581.725	854.206
585.1	856.132
588.475	863.142
591.85	873.979
595.225	883.972
598.599	898.726
601.974	904.774
605.349	908.062
608.724	907.74
612.099	905.574
615.473	899.024
618.848	890.27
622.223	878.597
625.598	867.37
628.973	855.608
632.347	844.1
635.722	828.911
639.097	819.591
642.472	806.281
645.847	798.149
649.222	788.701
652.596	776.086
655.971	761.864
659.346	749.197
662.721	731.895
666.096	718.601
669.471	703.494
672.845	679.289
676.22	664.278
679.595	641.063
682.97	620.38
686.345	600.169
689.719	577.51
693.094	558.807
696.469	531.975
699.844	512.103
703.219	488.509
706.593	471.097
709.968	451.262
713.343	434.682
716.718	419.163
720.093	405.949
723.468	392.002
726.842	380.202
730.217	371.143
733.592	364.837
736.967	355.316
740.342	351.859
743.716	346.056
747.091	337.828
750.466	334.826
753.841	329.647
757.216	324.737
760.591	319.818
763.965	317.43
767.34	316.13
770.715	315.599
774.09	312.978
777.465	312.391
780.84	311.971
784.214	313.094
787.589	313.2
790.964	320.88
794.339	329.563
797.714	335.517
801.088	343.834
804.463	352.083
807.838	360.285
811.213	367.41
814.588	371.492
817.962	378.922
821.337	379.674
824.712	382.911
828.087	380.829
831.462	383.158
834.837	387.29
838.211	387.898
841.586	388.247
844.961	389.678
848.336	389.758
851.711	390.597
855.085	392.969
858.46	396.309
861.835	399.669
865.21	405.068
868.585	411.685
871.96	418.457
875.334	426.04
878.709	433.277
882.084	437.897
885.459	446.609
888.834	456.889
892.208	463.681
895.583	475.012
898.958	481.743
902.333	491.294
905.708	498.611
909.082	509.868
912.457	514.64
915.832	523.63
919.207	531.888
922.582	538.325
925.957	538.814
929.331	541.752
932.706	544.129
936.081	541.143
939.456	541.267
942.831	539.581
946.205	533.784
949.58	536.76
952.955	539.364
956.33	545.372
959.705	555.514
963.08	565.211
966.454	576.285
969.829	595.84
973.204	607.85
976.579	618.97
979.954	635.857
983.328	651.212
986.703	662.41
990.078	673.27
993.453	681.71
996.828	690.284
1000.2	698.189
1003.58	701.14
1006.95	705.871
1010.33	714.444
1013.7	719.125
1017.08	729.3
1020.45	738.054
1023.83	756.775
1027.2	775.094
1030.58	806.916
1033.95	814.289
1037.33	834.562
1040.7	847.418
1044.08	875.266
1047.45	902.465
1050.83	932.071
1054.2	965.072
1057.57	997.633
1060.95	1034.5
1064.32	1057
1067.7	1080.47
1071.07	1112.49
1074.45	1136.44
1077.82	1159.54
1081.2	1182.26
1084.57	1209.51
1087.95	1226.09
1091.32	1241.48
1094.7	1267.05
1098.07	1286.13
1101.45	1315.96
1104.82	1352.47
1108.2	1411.55
1111.57	1465.89
1114.95	1514.37
1118.32	1569.6
1121.7	1618.23
1125.07	1657.67
1128.45	1709.25
1131.82	1745.24
1135.19	1802.17
1138.57	1863.62
1141.94	1938.27
1145.32	2006.99
1148.69	2092.39
1152.07	2151.85
1155.44	2187.9
1158.82	2196.43
1162.19	2187.08
1165.57	2155.46
1168.94	2128.97
1172.32	2096.78
1175.69	2075.93
1179.07	2059.17
1182.44	2051.24
1185.82	2047.61
1189.19	2055.6
1192.57	2078.99
1195.94	2091.11
1199.32	2117.52
1202.69	2142.7
1206.07	2176.66
1209.44	2220.92
1212.82	2312.76
1216.19	2446.78
1219.57	2625.3
1222.94	2835.78
1226.32	3044.16
1229.69	3131.63
1233.07	3088.74
1236.44	2968.82
1239.81	2821.66
1243.19	2725.7
1246.56	2696.11
1249.94	2720.62
1253.31	2801.69
1256.69	2905.86
1260.06	3046.44
1263.44	3197.82
1266.81	3353.61
1270.19	3493.63
1273.56	3638.19
1276.94	3791.68
1280.31	3921.1
1283.69	4044.95
