Measurement: Raman, 780 nm, unoriented, Raman Data RAW
Mineral: Furutobeite
Rruff sample: R060937
Ideal chemistry: (Cu^1+^,Ag^1+^)_6_Pb^2+^S^2-^_4_
Locality: Tsumeb mine, Tsumeb, Otavi District, Oshikoto, Namibia
Source: William W. Pinch
Description: Steel gray metallic elongated prisms, associated with quartz, tennantite, and djurleite.
Measured chemistry: (Cu_4.97_Ag_1.07_)Pb_1.03_S_4_ ; (Dark areas are djurleite, Cu_1.89_Ag_0.02_S)
Raman shift (cm-1)	intensity
93.7832	179.963
97.158	180.258
100.533	167.664
103.908	160.436
107.282	157.722
110.657	149.972
114.032	147.661
117.407	145.053
120.782	143.494
124.157	143.566
127.531	141.284
130.906	138.713
134.281	136.491
137.656	137.344
141.031	135.917
144.405	134.658
147.78	134.077
151.155	133.404
154.53	132.254
157.905	131.868
161.28	131.892
164.654	131.776
168.029	129.227
171.404	129.539
174.779	128.854
178.154	128.948
181.529	129.127
184.903	130.243
188.278	129.114
191.653	128.121
195.028	129.907
198.403	126.347
201.777	127.342
205.152	127.404
208.527	128.031
211.902	125.273
215.277	127.54
218.651	126.998
222.026	126.314
225.401	126.873
228.776	126.27
232.151	127.516
235.526	127.306
238.9	126.821
242.275	127.911
245.65	128.486
249.025	126.119
252.4	126.981
255.774	126.683
259.149	125.056
262.524	125.506
265.899	126.079
269.274	125.007
272.649	125.16
276.023	123.598
279.398	124.492
282.773	124.792
286.148	126.3
289.523	124.48
292.897	124.424
296.272	124.647
299.647	123.083
303.022	124.189
306.397	122.386
309.772	123.596
313.146	122.472
316.521	123.542
319.896	122.988
323.271	123.706
326.646	123.016
330.021	122.501
333.395	121.919
336.77	121.218
340.145	121.635
343.52	120.604
346.895	122.94
350.269	121.585
353.644	121.25
357.019	120.531
360.394	122.488
363.769	120.914
367.144	121.195
370.518	120.487
373.893	121.037
377.268	120.517
380.643	120.262
384.018	120.811
387.392	120.181
390.767	119.901
394.142	118.545
397.517	119.049
400.892	119.327
404.267	119.147
407.641	118.043
411.016	120.166
414.391	120.204
417.766	120.172
421.141	119.649
424.515	120.861
427.89	119.293
431.265	121.155
434.64	120.347
438.015	120.021
441.39	119.846
444.764	119.607
448.139	118.342
451.514	118.944
454.889	119.601
458.264	118.705
461.639	119.647
465.013	120.569
468.388	118.358
471.763	120.786
475.138	119.951
478.513	120.498
481.887	121.31
485.262	119.181
488.637	120.523
492.012	120.286
495.387	120.37
498.762	120.527
502.136	120.422
505.511	119.749
508.886	118.242
512.261	120.687
515.636	118.856
519.01	120.026
522.385	119.836
525.76	120.539
529.135	120.105
532.51	120.111
535.885	119.44
539.259	120.331
542.634	120.301
546.009	121.269
549.384	120.48
552.759	121.028
556.133	119.934
559.508	119.873
562.883	121.004
566.258	121.2
569.633	121.067
573.008	121.228
576.382	120.245
579.757	121.596
583.132	120.257
586.507	121.871
589.882	120.767
593.256	121.574
596.631	121.933
600.006	122.126
603.381	120.141
606.756	121.952
610.13	120.05
613.505	121.758
616.88	122.372
620.255	122.401
623.63	121.567
627.005	121.033
630.379	121.828
633.754	120.871
637.129	121.669
640.504	121.465
643.879	121.355
647.254	122.384
650.628	121.862
654.003	121.449
657.378	122.166
660.753	123.25
664.128	122.436
667.502	121.355
670.877	123.474
674.252	121.853
677.627	123.395
681.002	122.053
684.376	122.892
687.751	121.693
691.126	122.418
694.501	122.135
697.876	123.129
701.251	123.717
704.625	124.137
708	124.29
711.375	123.165
714.75	123.442
718.125	123.727
721.5	123.462
724.874	123.19
728.249	125.024
731.624	124.894
734.999	124.53
738.374	125.68
741.749	125.983
745.123	125.054
748.498	125.049
751.873	124.512
755.248	124.818
758.623	125.281
761.997	126.516
765.372	126.909
768.747	126.768
772.122	125.816
775.497	126.735
778.871	127.109
782.246	127.074
785.621	127.118
788.996	128.311
792.371	127.474
795.745	128.072
799.12	129.975
802.495	130.211
805.87	128.21
809.245	129.539
812.62	129.523
815.994	129.493
819.369	128.78
822.744	129.484
826.119	128.96
829.494	131.388
832.869	130.991
836.243	132.123
839.618	130.334
842.993	132.51
846.368	131.113
849.743	131.802
853.117	129.034
856.492	130.177
859.867	130.985
863.242	131.827
866.617	132.292
869.992	130.403
873.366	129.7
876.741	130.671
880.116	131.096
883.491	130.195
886.866	129.734
890.24	131.12
893.615	130.115
896.99	128.978
900.365	129.9
903.74	129.531
907.115	129.365
910.489	127.758
913.864	129.418
917.239	129.318
920.614	128.735
923.989	128.684
927.364	128.255
930.738	128.606
934.113	129.949
937.488	128.839
940.863	128.89
944.238	130.052
947.612	129.646
950.987	129.521
954.362	129.351
957.737	128.563
961.112	129.125
964.486	128.928
967.861	130.103
971.236	128.686
974.611	129.787
977.986	127.711
981.361	128.465
984.735	129.442
988.11	129.679
991.485	129.308
994.86	129.949
998.235	130.881
1001.61	131.136
1004.98	130.729
1008.36	130.742
1011.73	131.316
1015.11	131.427
1018.48	132.075
1021.86	130.05
1025.23	132.613
1028.61	131.21
1031.98	130.904
1035.36	131.105
1038.73	132.184
1042.11	132.419
1045.48	131.142
1048.86	132.511
1052.23	132.312
1055.61	133.491
1058.98	133.495
1062.36	131.925
1065.73	133.162
1069.11	132.214
1072.48	132.262
1075.86	131.828
1079.23	132.079
1082.61	133.137
1085.98	132.595
1089.36	132.079
1092.73	130.955
1096.1	131.98
1099.48	132.335
1102.85	132.503
1106.23	133.109
1109.6	133.398
1112.98	132.971
1116.35	132.816
1119.73	132.325
1123.1	132.202
1126.48	133.923
1129.85	133.009
1133.23	134.178
1136.6	134.729
1139.98	135.302
1143.35	134.679
1146.73	134.536
1150.1	135.168
1153.48	134.578
1156.85	134.371
1160.23	136.433
1163.6	134.998
1166.98	134.37
1170.35	136.219
1173.72	136.45
1177.1	135.176
1180.47	136.894
1183.85	135.767
1187.22	137.333
1190.6	137.273
1193.97	136.288
1197.35	137.359
1200.72	137.101
1204.1	136.849
1207.47	137.403
1210.85	136.797
1214.22	137.922
1217.6	136.955
1220.97	137.393
1224.35	138.061
1227.72	139.957
1231.1	137.904
1234.47	137.78
1237.85	138.39
1241.22	137.733
1244.6	138.791
1247.97	139.446
1251.35	139.333
1254.72	139.075
1258.1	138.79
1261.47	138.388
1264.85	141.468
1268.22	138.433
1271.6	139.209
1274.97	140.152
1278.35	138.766
1281.72	139.941
1285.09	139.862
