Measurement: Raman, 532 nm, unoriented, Raman Data RAW
Mineral: Furutobeite
Rruff sample: R060937
Ideal chemistry: (Cu^1+^,Ag^1+^)_6_Pb^2+^S^2-^_4_
Locality: Tsumeb mine, Tsumeb, Otavi District, Oshikoto, Namibia
Source: William W. Pinch
Description: Steel gray metallic elongated prisms, associated with quartz, tennantite, and djurleite.
Measured chemistry: (Cu_4.97_Ag_1.07_)Pb_1.03_S_4_ ; (Dark areas are djurleite, Cu_1.89_Ag_0.02_S)
Raman shift (cm-1)	intensity
91.0078	13.529
94.3826	14.502
97.7575	16.581
101.132	23.2322
104.507	40.679
107.882	65.209
111.257	95.946
114.632	123.724
118.006	167.053
121.381	211.731
124.756	235.76
128.131	258.02
131.506	282.872
134.88	295.427
138.255	309.989
141.63	305.629
145.005	306.176
148.38	307.265
151.755	310.377
155.129	312.577
158.504	306.738
161.879	305.73
165.254	306.238
168.629	306.4
172.003	305.809
175.378	305.07
178.753	305.749
182.128	303.744
185.503	307.967
188.877	306.091
192.252	307.983
195.627	307.265
199.002	307.605
202.377	311
205.752	311.894
209.126	310.718
212.501	310.206
215.876	311.878
219.251	315.241
222.626	318.069
226	317.284
229.375	319.971
232.75	316.933
236.125	321.54
239.5	324.116
242.875	323.361
246.249	327.036
249.624	326.488
252.999	328
256.374	330.531
259.749	331.567
263.123	332.184
266.498	334.965
269.873	335.929
273.248	334.517
276.623	337.79
279.998	337.078
283.372	340.666
286.747	343.928
290.122	345.113
293.497	343.891
296.872	346.412
300.247	347.522
303.621	346.333
306.996	347.155
310.371	346.675
313.746	348.161
317.12	346.256
320.495	345.55
323.87	349.873
327.245	346.431
330.62	347.136
333.995	345.961
337.369	347.653
340.744	347.245
344.119	346.143
347.494	347.653
350.869	348.451
354.243	345.403
357.618	346.599
360.993	349.163
364.368	347.315
367.743	349.559
371.118	346.139
374.492	347.647
377.867	349.759
381.242	351.042
384.617	352.081
387.992	348.481
391.366	349.669
394.741	347.74
398.116	347.656
401.491	348.012
404.866	348.309
408.241	349.319
411.615	351.463
414.99	349.772
418.365	349.6
421.74	349.819
425.115	350.552
428.49	352.62
431.864	350.891
435.239	352.035
438.614	351.285
441.989	352.34
445.364	352.802
448.738	353.027
452.113	352.2
455.488	354.689
458.863	355.749
462.238	356.133
465.613	357.229
468.987	358.487
472.362	360.063
475.737	361.816
479.112	361.333
482.486	362.77
485.861	363.618
489.236	364.926
492.611	364.122
495.986	366.443
499.361	368.473
502.735	367.85
506.11	369.348
509.485	369.058
512.86	369.641
516.235	372.133
519.61	371.78
522.984	373.672
526.359	373.433
529.734	378.166
533.109	377.226
536.484	375.13
539.859	380.943
543.233	381.644
546.608	380.927
549.983	382.374
553.358	381.906
556.732	385.193
560.107	384.766
563.482	383.091
566.857	385.156
570.232	387.322
573.607	388.329
576.981	389.037
580.356	390.675
583.731	392.206
587.106	392.834
590.481	394.727
593.856	395.277
597.23	394.949
600.605	398.719
603.98	394.171
607.355	399.889
610.73	399.912
614.104	401.251
617.479	401.25
620.854	398.843
624.229	400.194
627.604	403.763
630.979	403.709
634.353	404.923
637.728	407.399
641.103	407.922
644.478	408.604
647.852	408.216
651.227	408.906
654.602	411.729
657.977	413.675
661.352	412.397
664.727	413.014
668.101	417.401
671.476	417.715
674.851	417.738
678.226	418.486
681.601	420.82
684.976	422.86
688.35	423.018
691.725	421.796
695.1	424.162
698.475	425.108
701.85	426.259
705.224	426.172
708.599	428.698
711.974	431.952
715.349	430.746
718.724	431.028
722.098	430.701
725.473	434.096
728.848	434.892
732.223	435.549
735.598	438.323
738.973	438.137
742.347	438.905
745.722	438.536
749.097	440.237
752.472	441.443
755.847	441.637
759.221	444.493
762.596	446.323
765.971	445.947
769.346	448.012
772.721	448.88
776.096	451.718
779.47	450.7
782.845	450.914
786.22	453.5
789.595	453.367
792.97	455.635
796.345	455.413
799.719	457.508
803.094	459.298
806.469	462.367
809.844	462.89
813.219	461.934
816.593	463.284
819.968	464.007
823.343	467.143
826.718	467.258
830.093	463.926
833.467	468.349
836.842	469.191
840.217	471.203
843.592	472.167
846.967	472.714
850.342	473.727
853.716	474.315
857.091	473.632
860.466	477.04
863.841	475.128
867.216	477.742
870.591	481.018
873.965	478.607
877.34	481.634
880.715	481.175
884.09	482.704
887.465	481.122
890.839	483.339
894.214	483.659
897.589	485.25
900.964	487.528
904.339	486.601
907.713	488.022
911.088	489.405
914.463	489.316
917.838	491.319
921.213	490.536
924.587	491.156
927.962	491.812
931.337	493.288
934.712	494.727
938.087	494.694
941.462	496.753
944.836	496.025
948.211	496.701
951.586	496.307
954.961	498.395
958.336	500.994
961.711	498.698
965.085	501.157
968.46	502.56
971.835	501.85
975.21	505.123
978.585	506.638
981.959	507.62
985.334	509.103
988.709	510.261
992.084	507.816
995.459	511.516
998.833	510.281
1002.21	515.317
1005.58	511.573
1008.96	515.687
1012.33	513.373
1015.71	515.281
1019.08	518.162
1022.46	519.274
1025.83	520.611
1029.21	522.677
1032.58	522.601
1035.96	521.33
1039.33	520.46
1042.71	525.459
1046.08	526.211
1049.46	525.412
1052.83	526.435
1056.2	526.581
1059.58	529.9
1062.95	530.838
1066.33	531.595
1069.7	529.108
1073.08	531.208
1076.45	533.066
1079.83	533.981
1083.2	533.851
1086.58	533.707
1089.95	534.57
1093.33	536.896
1096.7	538.895
1100.08	537.355
1103.45	541.931
1106.83	539.477
1110.2	540.073
1113.58	540.284
1116.95	544.433
1120.33	545.471
1123.7	546.705
1127.08	544.688
1130.45	545.234
1133.83	546.192
1137.2	549.258
1140.58	550.902
1143.95	550.759
1147.33	550.466
1150.7	551.782
1154.08	554.401
1157.45	556.635
1160.83	553.38
1164.2	552.709
1167.57	554.498
1170.95	556.685
1174.32	555.362
1177.7	560.275
1181.07	561.447
1184.45	560.724
1187.82	561.267
1191.2	562.739
1194.57	565.438
1197.95	565.065
1201.32	565.554
1204.7	565.881
1208.07	566.709
1211.45	567.213
1214.82	570.83
1218.2	570.452
1221.57	571.56
1224.95	572.628
1228.32	572.491
1231.7	573.766
1235.07	571.377
1238.44	575.961
1241.82	577.105
1245.19	575.38
1248.57	577.183
1251.94	578.873
1255.32	579.184
1258.69	580.217
1262.07	578.717
1265.44	582.202
1268.82	585.046
1272.19	585.075
1275.57	587.815
1278.94	588.457
1282.32	587.168
1285.69	587.937
1289.07	590.627
1292.44	592.197
1295.82	592.143
1299.19	593.247
1302.57	595.833
