Measurement: Raman, 780 nm, unoriented, Raman Data RAW
Mineral: Gadolinium gallium garnet
Rruff sample: X090005
Ideal chemistry: Gd_3_Ga_2_(GaO_4_)_3_
Locality: Synthetic
Source: Gemological Institute of America
Description: Faceted colorless gemstone, 4.95 ct
Raman shift (cm-1)	intensity
92.3769	505.065
95.7518	548.963
99.1266	591.59
102.501	624.586
105.876	663.367
109.251	805.065
112.626	758.292
116.001	589.742
119.376	547.564
122.75	525.216
126.125	515.062
129.5	520.949
132.875	538.702
136.25	558.164
139.624	580.302
142.999	583.299
146.374	562.004
149.749	524.097
153.124	485.031
156.499	465.568
159.873	422.699
163.248	410.375
166.623	447.816
169.998	504.948
173.373	400.087
176.747	448.401
180.122	529.54
183.497	338.108
186.872	299.148
190.247	285.464
193.621	280.286
196.996	277.803
200.371	275.087
203.746	275.834
207.121	272.63
210.495	273.104
213.87	281.59
217.245	293.83
220.62	306.509
223.995	317.741
227.37	343.211
230.744	369.476
234.119	434.573
237.494	594.433
240.869	553.187
244.244	435.828
247.619	439.572
250.993	461.601
254.368	504.003
257.743	608.006
261.118	662.867
264.493	528.854
267.867	532.449
271.242	587.628
274.617	570.894
277.992	485.093
281.367	439.53
284.741	416.347
288.116	403.707
291.491	405.91
294.866	405.847
298.241	399.934
301.616	387.468
304.99	379.421
308.365	381.326
311.74	385.614
315.115	395.103
318.49	408.642
321.865	432.221
325.239	459.953
328.614	505.446
331.989	578.045
335.364	694.368
338.739	829.746
342.113	1013.96
345.488	1309.79
348.863	1844.87
352.238	2463.2
355.613	2300.16
358.987	1528.44
362.362	1009.35
365.737	746.171
369.112	606.631
372.487	531.325
375.861	498.163
379.236	483.732
382.611	446.481
385.986	404.055
389.361	383.598
392.736	378.962
396.11	371.868
399.485	367.849
402.86	366.816
406.235	361.121
409.61	366.588
412.985	351.858
416.359	341.098
419.734	333.103
423.109	299.743
426.484	286.356
429.859	284.993
433.233	287.202
436.608	276.851
439.983	262.592
443.358	249.554
446.733	247.477
450.108	239.193
453.482	236.923
456.857	234.768
460.232	231.503
463.607	233.185
466.982	231.785
470.356	233.289
473.731	233.798
477.106	232.302
480.481	234.371
483.856	237.108
487.231	235.343
490.605	235.779
493.98	235.597
497.355	235.303
500.73	239.59
504.104	245.443
507.479	255.256
510.854	268.034
514.229	289.551
517.604	324.603
520.979	383.9
524.354	413.556
527.728	354.749
531.103	293.122
534.478	257.118
537.853	240.393
541.227	232.952
544.602	229.495
547.977	227.581
551.352	231.282
554.727	232.887
558.102	237.912
561.476	247.542
564.851	256.893
568.226	267.152
571.601	281.927
574.976	298.975
578.351	325.627
581.725	349.484
585.1	355.477
588.475	359.452
591.85	373.163
595.225	405.196
598.599	424.582
601.974	413.434
605.349	403.78
608.724	397.194
612.099	398.997
615.473	396.339
618.848	393.167
622.223	386.833
625.598	378.951
628.973	375.666
632.347	373.015
635.722	372.264
639.097	369.391
642.472	365.041
645.847	359.265
649.222	351.461
652.596	341.647
655.971	333.241
659.346	324.296
662.721	318.308
666.096	311.372
669.471	305.599
672.845	297.613
676.22	296.175
679.595	286.953
682.97	280.255
686.345	274.035
689.719	269.045
693.094	259.635
696.469	254.309
699.844	250.721
703.219	248.427
706.593	249.048
709.968	252.084
713.343	256.237
716.718	268.946
720.093	290.271
723.468	323.183
726.842	369.116
730.217	440.278
733.592	528.041
736.967	616.979
740.342	670.747
743.716	629.833
747.091	503.14
750.466	379.366
753.841	296.993
757.216	248.437
760.591	222.63
763.965	203.551
767.34	193.384
770.715	186.814
774.09	182.59
777.465	178.065
780.84	178.307
784.214	177.797
787.589	175.422
790.964	175.909
794.339	173.382
797.714	174.14
801.088	171.539
804.463	166.709
807.838	164.148
811.213	160.992
814.588	153.977
817.962	150.762
821.337	146.09
824.712	141.998
828.087	136.997
831.462	132.909
834.837	128.426
838.211	125.338
841.586	123.366
844.961	118.987
848.336	116.625
851.711	114.462
855.085	110.47
858.46	108.625
861.835	106.516
865.21	104.45
868.585	102.454
871.96	101.445
875.334	98.6859
878.709	98.2141
882.084	95.7668
885.459	95.1787
888.834	92.7597
892.208	90.7013
895.583	90.2472
898.958	89.1496
902.333	86.896
905.708	86.3644
909.082	84.9557
912.457	83.9672
915.832	83.0501
919.207	83.83
922.582	84.7004
925.957	89.5968
929.331	86.4145
932.706	79.6897
936.081	77.4999
939.456	77.076
942.831	75.378
946.205	75.4047
949.58	76.7568
952.955	79.3147
956.33	76.8669
959.705	79.1605
963.08	88.6081
966.454	83.7961
969.829	75.0481
973.204	73.6028
976.579	75.2037
979.954	74.1465
983.328	74.9734
986.703	74.416
990.078	76.6569
993.453	76.4926
996.828	78.6218
1000.2	86.8554
1003.58	89.2854
1006.95	73.1835
1010.33	69.278
1013.7	70.0003
1017.08	68.2659
1020.45	67.0298
1023.83	64.9672
1027.2	64.5152
1030.58	62.7809
1033.95	61.5068
1037.33	60.3083
1040.7	60.3214
1044.08	60.0708
1047.45	59.7877
1050.83	58.5383
1054.2	59.4635
1057.57	59.2763
1060.95	58.0144
1064.32	57.7602
1067.7	56.972
1071.07	56.1981
1074.45	55.8901
1077.82	55.6014
1081.2	55.1771
1084.57	56.0713
1087.95	54.796
1091.32	54.7083
1094.7	54.1076
1098.07	54.123
1101.45	53.9353
1104.82	52.5565
1108.2	52.4479
1111.57	52.271
1114.95	53.2469
1118.32	52.4985
1121.7	52.9198
1125.07	53.7357
1128.45	55.5066
1131.82	59.7157
1135.19	65.558
1138.57	57.4379
1141.94	55.3736
1145.32	54.5586
1148.69	56.1213
1152.07	59.865
1155.44	59.1365
1158.82	57.2177
1162.19	56.2277
1165.57	53.9576
1168.94	57.4393
1172.32	64.9662
1175.69	60.2493
1179.07	55.8184
1182.44	57.9463
1185.82	65.0955
1189.19	88.6445
1192.57	91.3815
1195.94	70.4043
1199.32	63.2242
1202.69	60.6057
1206.07	58.3375
1209.44	59.802
1212.82	64.4665
1216.19	60.1715
1219.57	53.3052
1222.94	50.4237
1226.32	48.3871
1229.69	49.8809
1233.07	49.298
1236.44	51.4783
1239.81	54.2521
1243.19	59.8971
1246.56	68.5314
1249.94	76.3724
1253.31	70.9175
1256.69	59.2131
1260.06	53.3904
1263.44	52.4666
1266.81	50.0944
1270.19	50.9269
1273.56	50.2148
1276.94	51.0379
1280.31	52.3138
1283.69	52.9694
