Measurement: Raman, 514 nm, unoriented, Raman Data RAW
Mineral: Gahnite
Rruff sample: X060004
Ideal chemistry: Zn^2+^Al_2_O_4_
Locality: Claremont, Massachusetts, USA
Source: University of Arizona Mineral Museum
Description: Single crystal
Raman shift (cm-1)	intensity
124.65	4347.67
127.176	4405.67
129.701	4449.33
132.225	4335
134.748	4366.67
137.27	4544.67
139.791	4468
142.312	4415.33
144.831	4444.67
147.349	4435.33
149.867	4451
152.384	4528.67
154.9	4552.33
157.414	4560.67
159.928	4616
162.441	4578
164.953	4536.33
167.465	4502.33
169.975	4440.67
172.484	4361.33
174.993	4402.67
177.501	4468.33
180.007	4399.33
182.513	4445.33
185.018	4549.67
187.522	4391.33
190.025	4462.67
192.527	4521.67
195.029	4499.67
197.529	4389.67
200.028	4358
202.527	4382
205.025	4381.76
207.521	4371
210.017	4364.67
212.512	4309.33
215.006	4307.33
217.5	4263.67
219.992	4250
222.483	4268.97
224.974	4298.67
227.463	4269.67
229.952	4275.33
232.44	4271
234.927	4219.67
237.413	4176.67
239.898	4163
242.382	4144.67
244.865	4175.67
247.347	4227
249.829	4240.33
252.31	4216.67
254.789	4229.67
257.268	4252.33
259.746	4211.33
262.223	4225.67
264.699	4188.33
267.174	4228.33
269.649	4192.67
272.122	4257
274.595	4258.61
277.066	4254.67
279.537	4240.67
282.007	4209.33
284.476	4228.87
286.944	4223.33
289.411	4266.67
291.877	4282
294.343	4270.67
296.807	4279.67
299.271	4240.33
301.734	4247
304.195	4258.67
306.656	4252.33
309.116	4265.33
311.576	4268.67
314.034	4316
316.491	4289.67
318.948	4315.33
321.403	4312.33
323.858	4322
326.312	4338.33
328.765	4314.67
331.217	4299
333.668	4307.33
336.118	4348
338.568	4323.37
341.016	4353.33
343.464	4364.33
345.91	4425.33
348.356	4436.67
350.801	4441.93
353.245	4446
355.688	4481.67
358.131	4489.33
360.572	4491
363.013	4526.67
365.452	4524.33
367.891	4506.46
370.329	4519
372.766	4514
375.202	4517.33
377.637	4510.33
380.072	4484.33
382.505	4521
384.938	4615.67
387.369	4647
389.8	4694.67
392.23	4928.33
394.659	4994.33
397.087	5140.33
399.515	5287.67
401.941	5580.67
404.367	5798.67
406.791	6355.33
409.215	7747.33
411.638	11689.3
414.06	17831
416.481	15007.7
418.901	8764.67
421.321	6352
423.739	5503
426.157	5131
428.574	4935.33
430.989	4867.72
433.404	4769.67
435.819	4679.56
438.232	4668
440.644	4662
443.056	4630.67
445.466	4590
447.876	4552
450.285	4485.33
452.693	4426.67
455.1	4436.33
457.506	4404
459.912	4416
462.316	4468.2
464.72	4477.67
467.123	4484
469.524	4533.33
471.925	4574.33
474.326	4602
476.725	4581.33
479.123	4558
481.521	4513
483.917	4532.67
486.313	4566.67
488.708	4592
491.102	4592.67
493.495	4591.73
495.888	4548
498.279	4530
500.67	4528
503.059	4577.33
505.448	4696
507.836	4804
510.223	4743.67
512.609	4703.33
514.995	4681
517.379	4617.33
519.763	4595
522.146	4630.67
524.528	4612
526.909	4619.67
529.289	4603
531.668	4578.33
534.047	4547.67
536.424	4517.67
538.801	4479.33
541.177	4447.04
543.552	4488.33
545.926	4552.33
548.299	4525.67
550.671	4523.33
553.043	4538
555.413	4549.33
557.783	4593
560.152	4676.33
562.52	4745.67
564.887	4736
567.254	4799.13
569.619	4798
571.984	4794.67
574.348	4804
576.711	4790.33
579.073	4877.33
581.434	4885
583.794	4911.33
586.154	4929.67
588.512	4960
590.87	5002.33
593.227	5018
595.583	5079.33
597.938	5101.67
600.292	5126.33
602.646	5168.67
604.998	5222.33
607.35	5254.67
609.701	5321.96
612.051	5467
614.4	5679
616.748	5934
619.096	6157.67
621.443	6422.67
623.788	6463.67
626.133	6549.33
628.477	6554.33
630.82	6518
633.163	6161
635.504	5889.33
637.845	5608.33
640.185	5341
642.523	5579
644.862	6082.67
647.199	6659.33
649.535	7572.33
651.871	9201.67
654.205	11685.3
656.539	13634.3
658.872	12889.7
661.204	10340.7
663.535	8094.67
665.866	6727
668.195	5954.33
670.524	5498.33
672.852	5238.67
675.179	5116
677.505	4940
679.83	4883
682.155	4841.33
684.478	4978.67
686.801	4864.67
689.123	4854.67
691.444	4942.67
693.764	5032
696.084	5136.67
698.402	5255
700.72	5388
703.037	5478.87
705.353	5500.67
707.668	5449.33
709.982	5328.79
712.296	5172.33
714.608	4997
716.92	4917.33
719.231	4930.67
721.541	4898
723.85	4895
726.158	4855.67
728.466	4870
730.773	4870.33
733.079	4885
735.384	4914
737.688	4964
739.991	5033
742.293	5141
744.595	5253.67
746.896	5348
749.196	5479.33
751.495	5604.33
753.793	5699.33
756.091	5814.33
758.387	5811
760.683	5684.67
762.978	5526.33
765.272	5464
767.565	5394.33
769.858	5299.33
772.149	5248
774.44	5287.33
776.73	5134.67
779.019	5087.67
781.307	5018.33
783.594	5010.67
785.881	4957.33
788.167	4923.86
790.452	4894.67
792.736	4851.67
795.019	4821.67
797.301	4824
799.583	4795.33
801.863	4799.67
804.143	4776.67
806.422	4767
808.7	4721
810.978	4725.91
813.254	4682.67
815.53	4656.33
817.805	4656
820.079	4649
822.352	4618.67
824.624	4610.67
826.896	4637.67
829.166	4636.67
831.436	4608.67
833.705	4618.33
835.974	4585
838.241	4579.67
840.507	4604.67
842.773	4601.74
845.038	4599.33
847.302	4575
849.565	4564
851.828	4556.33
854.089	4579
856.35	4560
858.61	4560.67
860.869	4551.67
863.127	4538
865.384	4565.33
867.641	4539
869.897	4553.33
872.152	4557.33
874.406	4596
876.659	4556.33
878.911	4666.33
881.163	4550.67
883.414	4557
885.664	4581
887.913	4534.33
890.161	4538
892.409	4537
894.655	4525.67
896.901	4518.67
899.146	4546.33
901.391	4564.33
903.634	4598.67
905.876	4598.67
908.118	4609.33
910.359	4593
912.599	4583.67
914.838	4614.67
917.077	4591
919.314	4530
921.551	4557.33
923.787	4542
926.022	4604
928.257	4566.33
930.49	4567
932.723	4612.33
934.955	4600.33
937.186	4587.67
939.416	4633.33
941.645	4621
943.874	4598.33
946.102	4590.67
948.329	4588.33
950.555	4557.33
952.78	4602.33
955.005	4628.67
957.228	4611.9
959.451	4599.33
961.673	4573
963.895	4635.67
966.115	4575.33
968.335	4576
970.553	4576.33
972.771	4642
974.988	4622.67
977.205	4614.33
979.42	4617.33
981.635	4633.33
983.849	4636.67
986.062	4626.67
988.274	4647
990.486	4610.67
992.696	4640.67
994.906	4652.33
997.115	4619.67
999.323	4649
1001.53	4649.67
1003.74	4691
1005.94	4663.33
1008.15	4670.33
1010.35	4658.33
1012.56	4683.67
