Measurement: Raman, 532 nm, unoriented, Raman Data Processed
Mineral: Galaxite
Rruff sample: R140320
Ideal chemistry: Mn^2+^Al_2_O_4_
Locality: Bald Knob deposit, Bald Knob, Sparta, Alleghany County, North Carolina, USA
Source: Lyle Gordon
Description: Dark red-brown granular crystals, associated with alleghanyite, psilomelane, and jacobsite
Measured chemistry: (Mn_0.94_Mg_0.06_Co_0.02_)(Al_1.61_Fe^3+^_0.38_)O_4_
Raman shift (cm-1)	intensity
142.616	0
145.991	0.977905
149.365	12.4652
152.74	15.2452
156.115	18.5812
159.49	5.13
162.865	8.93921
166.24	1.51575
169.614	0.805542
172.989	2.82861
176.364	0.763306
179.739	3.11487
183.114	5.61841
186.488	10.9811
189.863	13.0234
193.238	20.3733
196.613	19.4827
199.988	18.4169
203.363	17.8011
206.737	14.5151
210.112	20.0283
213.487	23.4823
216.862	18.0053
220.237	14.7494
223.612	5.20459
226.986	3.64258
230.361	1.57373
233.736	4.28467
237.111	3.74609
240.486	2.59375
243.86	1.5719
247.235	8.82776
250.61	2.66785
253.985	2.37219
257.36	2.33472
260.735	5.78809
264.109	2.25122
267.484	0.509521
270.859	0.490234
274.234	0.512573
277.609	3.94946
280.983	0.841187
284.358	1.74048
287.733	3.90271
291.108	3.98755
294.483	8.8894
297.858	4.37146
301.232	6.52075
304.607	5.52856
307.982	4.77039
311.357	4.50439
314.732	4.3208
318.106	4.84705
321.481	2.89441
324.856	13.4348
328.231	10.2866
331.606	6.01758
334.981	4.89099
338.355	7.09326
341.73	12.0133
345.105	11.1834
348.48	9.39868
351.855	8.56165
355.229	7.27454
358.604	5.07092
361.979	1.91357
365.354	10.4261
368.729	11.4785
372.103	9.00928
375.478	3.27905
378.853	3.18237
382.228	6.51086
385.603	7.83496
388.978	3.72168
392.352	4.69006
395.727	4.69116
399.102	4.02075
402.477	7.02795
405.852	4.01306
409.226	5.71399
412.601	7.48059
415.976	4.42407
419.351	3.53979
422.726	0.310059
426.101	2.38513
429.475	0.849854
432.85	1.51221
436.225	0.49939
439.6	3.50818
442.975	0.651489
446.349	3.51001
449.724	4.49609
453.099	0.76355
456.474	0.564941
459.849	3.46313
463.224	9.96155
466.598	8.3634
469.973	12.5331
473.348	10.9764
476.723	9.45642
480.098	12.9274
483.473	16.3475
486.847	11.5748
490.222	8.22986
493.597	15.1993
496.972	12.5823
500.347	14.9052
503.721	12.2334
507.096	8.41565
510.471	6.35486
513.846	0.491089
517.221	5.31604
520.596	0.243896
523.97	2.51489
527.345	4.48547
530.72	6.71802
534.095	4.21985
537.47	12.4779
540.844	9.67529
544.219	9.07422
547.594	5.06506
550.969	15.0575
554.344	18.3789
557.718	22.3919
561.093	24.3224
564.468	32.3168
567.843	36.5148
571.218	47.1111
574.592	60.9757
577.967	72.5162
581.342	87.1766
584.717	116.413
588.092	136.995
591.467	158.833
594.841	169.831
598.216	174.137
601.591	171.481
604.966	158.945
608.341	145.429
611.716	127.778
615.09	106.14
618.465	90.0507
621.84	65.704
625.215	45.682
628.59	28.2133
631.964	14.3263
635.339	5.56836
638.714	2.06873
642.089	2.25281
645.464	9.38477
648.838	1.07544
652.213	3.16821
655.588	9.59387
658.963	15.6597
662.338	21.2855
665.713	25.7955
669.087	33.6708
672.462	40.5952
675.837	35.5933
679.212	38.4797
682.587	43.9292
685.962	47.3911
689.336	52.1451
692.711	54.6378
696.086	60.2129
699.461	73.0834
702.836	78.2778
706.21	96.3795
709.585	113.351
712.96	127.468
716.335	128.488
719.71	136.228
723.085	141.097
726.459	146.699
729.834	153.834
733.209	167.274
736.584	177.582
739.959	173.863
743.333	155.745
746.708	128.912
750.083	115.398
753.458	90.2799
756.833	68.4758
760.207	54.3085
763.582	39.2819
766.957	27.0138
770.332	19.4111
773.707	14.5527
777.082	6.88464
780.456	3.62683
783.831	3.86914
787.206	3.21326
790.581	3.02905
793.956	1.71143
797.33	5.37634
800.705	1.2572
804.08	1.86133
807.455	5.69739
810.83	0.435791
814.205	4.65295
817.579	4.41919
820.954	3.78455
824.329	6.30029
827.704	3.99536
831.079	11.4404
834.453	17.9104
837.828	18.193
841.203	19.9346
844.578	20.6545
847.953	18.0911
851.328	19.4597
854.702	18.7759
858.077	20.3589
861.452	18.9163
864.827	18.2706
868.202	16.5635
871.577	16.8809
874.951	9.81201
878.326	8.64966
881.701	10.6245
885.076	10.3795
888.451	10.5212
891.825	7.85779
895.2	7.3551
898.575	7.67566
901.95	6.42517
905.325	7.47644
908.699	4.18274
912.074	3.47559
915.449	1.59583
918.824	2.15588
922.199	3.25098
925.573	2.45898
928.948	1.80762
932.323	5.34875
935.698	1.31482
939.073	3.95361
942.448	3.50061
945.822	5.73743
949.197	3.05164
952.572	2.0304
955.947	1.01147
959.322	5.26648
962.697	8.83081
966.071	6.43689
969.446	4.96582
972.821	1.87805
976.196	2.42969
979.571	2.03955
982.945	1.24805
986.32	0.056274
989.695	1.65662
993.07	5.30603
996.445	4.49207
999.819	2.76135
1003.19	6.29272
1006.57	6.4939
1009.94	6.32153
1013.32	3.43835
1016.69	0.639038
1020.07	2.15906
1023.44	4.67517
1026.82	5.56848
1030.19	10.9253
1033.57	11.3396
1036.94	15.4618
1040.32	10.4265
1043.69	11.9476
1047.07	7.60596
1050.44	3.24915
1053.82	10.7972
1057.19	9.78931
1060.57	12.5203
1063.94	6.81018
1067.32	8.96558
1070.69	12.39
1074.07	11.7571
1077.44	11.0356
1080.82	6.97266
1084.19	10.5303
1087.57	9.99841
1090.94	8.27576
1094.31	3.61218
1097.69	10.4862
1101.06	14.8821
1104.44	12.1149
1107.81	5.47229
1111.19	3.52283
1114.56	0.065186
1117.94	6.18982
1121.31	13.512
1124.69	6.54102
1128.06	1.59314
1131.44	2.22632
1134.81	8.63513
1138.19	10.902
1141.56	12.5124
1144.94	8.43249
1148.31	10.6471
1151.69	11.9847
1155.06	10.7192
1158.44	7.67847
1161.81	11.6105
1165.19	12.0002
1168.56	5.58362
1171.93	12.1539
1175.31	20.4842
1178.68	14.1421
1182.06	13.2273
1185.43	15.2369
1188.81	14.4821
1192.18	21.8278
1195.56	13.6168
1198.93	15.1744
1202.31	17.5565
1205.68	9.38794
1209.06	8.78674
1212.43	9.65735
1215.81	13.0957
1219.18	17.6708
1222.56	9.77124
1225.93	7.69885
1229.31	4.15613
1232.68	4.38721
1236.06	0.132202
1239.43	5.06201
1242.81	8.1947
1246.18	13.0642
1249.56	16.698
1252.93	10.1989
1256.31	10.4644
1259.68	16.1827
1263.06	7.81543
1266.43	6.67029
1269.81	6.42102
1273.18	0.687012
1276.56	0.800415
1279.93	6.15186
1283.3	6.72351
1286.68	3.75537
1290.05	1.45862
1293.43	6.7428
1296.8	5.34351
1300.18	0.80481
