Measurement: Raman, 780 nm, unoriented, Raman Data Processed
Mineral: Galaxite
Rruff sample: R140320
Ideal chemistry: Mn^2+^Al_2_O_4_
Locality: Bald Knob deposit, Bald Knob, Sparta, Alleghany County, North Carolina, USA
Source: Lyle Gordon
Description: Dark red-brown granular crystals, associated with alleghanyite, psilomelane, and jacobsite
Measured chemistry: (Mn_0.94_Mg_0.06_Co_0.02_)(Al_1.61_Fe^3+^_0.38_)O_4_
Raman shift (cm-1)	intensity
176.774	0
179.666	2.20544
182.559	2.25409
185.452	5.93677
188.345	3.97943
191.237	6.28436
194.13	8.25458
197.023	3.51251
199.915	7.19159
202.808	9.65851
205.701	9.15082
208.593	5.41132
211.486	2.59735
214.379	5.81537
217.272	5.06824
220.164	0.078674
223.057	1.65512
225.95	0.099731
228.842	1.38171
231.735	0.864288
234.628	1.93036
237.52	1.14511
240.413	0.721436
243.306	3.64304
246.198	8.81451
249.091	2.41882
251.984	0.663086
254.877	1.4993
257.769	2.97788
260.662	3.61688
263.555	5.7214
266.447	2.36325
269.34	5.99884
272.233	5.05667
275.125	4.16486
278.018	1.40698
280.911	2.43759
283.804	3.51822
286.696	5.03586
289.589	7.02005
292.482	7.63736
295.374	6.32932
298.267	5.1507
301.16	6.55481
304.053	7.03159
306.945	6.81589
309.838	7.75739
312.731	8.97244
315.623	8.95752
318.516	8.52539
321.409	10.2265
324.301	7.29941
327.194	7.07956
330.087	6.17203
332.979	7.27393
335.872	5.86008
338.765	2.17001
341.658	1.80737
344.55	3.35977
347.443	2.10284
350.336	1.40979
353.228	1.03946
356.121	0.303497
359.014	1.31921
361.906	0.060181
364.799	3.86896
367.692	3.97931
370.585	0.566376
373.477	1.22626
376.37	1.74045
379.263	0.913666
382.155	0.337341
385.048	1.01208
387.941	0.497681
390.834	3.62534
393.726	1.59256
396.619	1.81094
399.512	4.33615
402.404	3.90936
405.297	4.78708
408.19	4.88626
411.082	6.66846
413.975	6.08469
416.868	10.3396
419.76	12.5104
422.653	10.9111
425.546	9.73611
428.439	11.4602
431.331	10.8252
434.224	15.2688
437.117	12.4851
440.01	13.6918
442.902	12.394
445.795	9.44452
448.688	13.6049
451.58	10.5306
454.473	10.5837
457.366	11.6624
460.258	12.4262
463.151	10.2407
466.044	11.368
468.937	12.3714
471.829	11.1771
474.722	12.3308
477.615	15.473
480.507	13.1728
483.4	11.4504
486.293	13.4694
489.185	13.1372
492.078	12.4439
494.971	11.2788
497.863	9.29248
500.756	8.61722
503.649	4.29059
506.542	5.17813
509.434	3.03229
512.327	2.05853
515.22	0.258179
518.112	2.70474
521.005	1.61542
523.898	0.611664
526.79	0.39621
529.683	1.07123
532.576	1.18619
535.469	2.12842
538.361	2.72565
541.254	2.36417
544.147	2.09644
547.039	3.97702
549.932	5.51379
552.825	6.49051
555.717	7.98181
558.61	11.7534
561.503	12.1602
564.396	17.0137
567.288	18.3548
570.181	21.7883
573.074	25.8325
575.966	30.4496
578.859	37.8476
581.752	43.603
584.644	44.9187
587.537	46.6497
590.43	46.0172
593.323	51.1163
596.215	48.4671
599.108	45.7425
602.001	42.2688
604.893	34.1218
607.786	28.8428
610.679	23.4664
613.572	19.1618
616.464	13.2412
619.357	9.14316
622.25	7.55554
625.142	2.89813
628.035	0.394196
630.928	1.30023
633.82	1.2847
636.713	0.496826
639.606	0.47699
642.499	0.793701
645.391	1.17477
648.284	1.18778
651.177	7.40628
654.069	9.8447
656.962	10.8893
659.855	13.995
662.747	14.2429
665.64	12.5915
668.533	12.8452
671.426	15.631
674.318	15.7089
677.211	20.6317
680.104	23.4233
682.996	24.3406
685.889	28.107
688.782	29.7558
691.674	29.7348
694.567	32.5062
697.46	38.1009
700.352	41.3756
703.245	42.8738
706.138	45.4957
709.031	47.8421
711.923	48.286
714.816	50.5175
717.709	51.8358
720.601	55.1219
723.494	57.8672
726.387	53.8789
729.279	58.1565
732.172	55.6076
735.065	51.3871
737.958	47.3778
740.85	44.8591
743.743	36.3567
746.636	30.7738
749.528	27.0861
752.421	22.5844
755.314	18.0961
758.207	13.2883
761.099	13.6696
763.992	8.39902
766.885	6.7565
769.777	7.0354
772.67	1.85193
775.563	0.143585
778.455	0.097778
781.348	0.987946
784.241	2.15008
787.134	0.470734
790.026	0.139587
792.919	0.655853
795.812	0.077637
798.704	2.85318
801.597	0.692627
804.49	1.1019
807.383	1.19696
810.275	2.33743
813.168	2.73813
816.061	2.26267
818.953	0.849335
821.846	3.9942
824.739	2.2634
827.631	1.54108
830.524	2.10443
833.417	4.58481
836.309	5.10583
839.202	6.36365
842.095	4.60223
844.988	4.80487
847.88	4.99875
850.773	6.84753
853.666	6.86526
856.558	7.70154
859.451	9.01657
862.344	7.47144
865.236	6.41913
868.129	7.3378
871.022	4.78537
873.915	7.03287
876.807	3.27399
879.7	5.66504
882.593	4.68631
885.485	4.55615
888.378	4.728
891.271	5.62573
894.163	1.25992
897.056	2.89023
899.949	0.768677
902.842	3.27042
905.734	1.01151
908.627	1.21997
911.52	0.848846
914.412	1.03064
917.305	2.2214
920.198	1.61395
923.091	2.08481
925.983	1.79761
928.876	2.33719
931.769	2.74301
934.661	3.87122
937.554	1.33273
940.447	2.10538
943.339	0.959137
946.232	0.622467
949.125	0.368164
952.018	3.2244
954.91	1.70508
957.803	2.72504
960.696	0.014801
963.588	2.6192
966.481	2.64465
969.374	7.57935
972.266	0.990784
975.159	1.17013
978.052	1.47513
980.945	2.53302
983.837	1.84454
986.73	0.486389
989.623	0.097961
992.515	3.82574
995.408	1.03967
998.301	2.07626
1001.19	1.50604
1004.09	1.48132
1006.98	0.322205
1009.87	3.03476
1012.76	3.43039
1015.66	3.65875
1018.55	1.64902
1021.44	2.96616
1024.34	1.87927
1027.23	2.56445
1030.12	0.792511
1033.01	5.41946
1035.91	3.43066
1038.8	3.46597
1041.69	6.2179
1044.58	2.22662
1047.48	1.65106
1050.37	4.36075
1053.26	3.55856
1056.15	5.28912
1059.05	4.53021
1061.94	3.10028
1064.83	2.69894
1067.73	3.97488
1070.62	2.18487
1073.51	3.90436
1076.4	1.94086
1079.3	5.31702
1082.19	1.89401
1085.08	4.30585
1087.97	3.68927
1090.87	3.78861
1093.76	0.442291
1096.65	2.50131
1099.55	3.26196
1102.44	2.59259
1105.33	1.69867
1108.22	1.8754
1111.12	2.302
1114.01	1.29968
1116.9	0.107635
1119.79	4.09464
1122.69	1.8746
1125.58	0.760437
1128.47	3.29755
1131.37	0.108307
1134.26	2.04514
1137.15	1.04303
1140.04	2.06448
1142.94	0.606873
1145.83	1.87
1148.72	2.66754
1151.61	2.68286
1154.51	2.85944
1157.4	1.9187
1160.29	2.02628
1163.18	0.644714
1166.08	3.05402
1168.97	2.31915
1171.86	3.57327
1174.76	3.82626
1177.65	4.15796
1180.54	3.6088
1183.43	3.00601
1186.33	2.59717
1189.22	2.48605
1192.11	2.98022
1195	3.74091
1197.9	2.75122
1200.79	1.90112
1203.68	3.93149
1206.58	1.76886
1209.47	2.85416
1212.36	2.69693
1215.25	2.88944
1218.15	2.34381
1221.04	4.51086
1223.93	3.18692
1226.82	0.85199
1229.72	0.396027
1232.61	2.30014
1235.5	3.56943
1238.39	4.2771
1241.29	3.47418
1244.18	1.95868
1247.07	1.84335
1249.97	0.569763
1252.86	2.85226
1255.75	4.41443
1258.64	3.2442
1261.54	5.79123
1264.43	2.16589
1267.32	4.13431
1270.21	2.74994
1273.11	1.15262
1276	4.15494
1278.89	0.564362
1281.79	0.047363
