Measurement: Raman, 785 nm, unoriented, Raman Data RAW
Mineral: Galena
Rruff sample: R070325
Ideal chemistry: Pb^2+^S^2-^
Locality: Cumberland, England
Source: James Shigley
Description: Lead-grey metallic cubo-octahedral crystal associated with quartz and calcite
Measured chemistry: Pb_1.00_S_1.00_
Raman shift (cm-1)	intensity
94.9851	55.0124
97.8778	57.5758
100.77	51.1771
103.663	60.7946
106.556	64.4428
109.449	75.6874
112.341	102.766
115.234	155.126
118.127	192.306
121.019	257.841
123.912	302.925
126.805	512.71
129.697	630.241
132.59	938.226
135.483	1279.98
138.376	1346.47
141.268	1359.05
144.161	880.286
147.054	990.205
149.946	1353.02
152.839	1796.85
155.732	1372.32
158.625	918.989
161.517	907.657
164.41	935.499
167.303	804.453
170.195	728.646
173.088	690.454
175.981	603.219
178.873	550.54
181.766	477.164
184.659	470.935
187.552	471.395
190.444	456.624
193.337	416.258
196.23	425.727
199.122	389.704
202.015	349.202
204.908	350.958
207.8	333.677
210.693	289.136
213.586	259.231
216.478	276.858
219.371	262.837
222.264	265.427
225.157	240.364
228.049	210.584
230.942	206.542
233.835	188.629
236.727	189.152
239.62	170.999
242.513	194.72
245.405	173.962
248.298	153.474
251.191	154.931
254.084	162.639
256.976	158.442
259.869	153.011
262.762	143.966
265.654	139.454
268.547	145.183
271.44	144.119
274.332	143.441
277.225	133.126
280.118	132.01
283.011	132.117
285.903	124.381
288.796	114.275
291.689	108.742
294.581	96.7413
297.474	110.824
300.367	116.208
303.26	118.974
306.152	117.68
309.045	122.648
311.938	123.403
314.83	115.32
317.723	118.823
320.616	102.496
323.508	111.774
326.401	99.0277
329.294	101.249
332.187	97.0696
335.079	108.907
337.972	103.642
340.865	107.546
343.757	96.7132
346.65	99.8787
349.543	105.585
352.435	107.732
355.328	107.022
358.221	97.0567
361.113	97.9264
364.006	83.1962
366.899	102.602
369.792	94.5298
372.684	88.1371
375.577	98.9807
378.47	99.4176
381.362	94.0097
384.255	96.5666
387.148	95.2194
390.041	88.3838
392.933	97.2556
395.826	95.4155
398.719	85.5922
401.611	87.9586
404.504	89.5474
407.397	95.9455
410.289	85.3079
413.182	88.2662
416.075	85.0248
418.967	83.7454
421.86	89.0361
424.753	90.561
427.646	87.5656
430.538	80.2715
433.431	87.1541
436.324	85.3946
439.216	82.6207
442.109	86.6897
445.002	86.7472
447.894	87.7706
450.787	88.8932
453.68	80.7984
456.573	87.7935
459.465	83.106
462.358	84.578
465.251	84.9104
468.143	77.6417
471.036	84.1768
473.929	85.4527
476.822	89.4514
479.714	73.0865
482.607	77.4655
485.5	70.4193
488.392	67.2954
491.285	74.2424
494.178	64.4802
497.07	66.0004
499.963	72.4383
502.856	58.4438
505.748	61.3385
508.641	66.3876
511.534	69.1466
514.427	54.3791
517.319	59.3275
520.212	64.2603
523.105	58.6154
525.997	64.8168
528.89	57.037
531.783	61.2309
534.676	57.8277
537.568	59.0449
540.461	68.2512
543.354	63.2853
546.246	54.0782
549.139	60.3916
552.032	53.8577
554.924	51.4085
557.817	58.1802
560.71	62.1255
563.602	54.9796
566.495	56.2948
569.388	64.9267
572.281	56.2882
575.173	53.7007
578.066	59.7154
580.959	50.658
583.851	47.5896
586.744	48.7111
589.637	54.8171
592.529	54.2533
595.422	59.4329
598.315	57.7378
601.208	52.5273
604.1	56.6979
606.993	48.9751
609.886	62.2936
612.778	62.7892
615.671	54.7712
618.564	53.1836
621.457	54.4316
624.349	57.9787
627.242	51.7898
630.135	57.5256
633.027	51.6167
635.92	57.2038
638.813	61.8215
641.705	52.3555
644.598	44.3043
647.491	55.2352
650.384	42.3635
653.276	51.4481
656.169	53.6792
659.062	52.4548
661.954	52.5973
664.847	59.8537
667.74	58.3433
670.632	55.5852
673.525	58.4029
676.418	55.3064
679.311	55.9303
682.203	57.3831
685.096	59.6047
687.989	47.8586
690.881	54.4798
693.774	60.8419
696.667	57.2659
699.559	54.115
702.452	57.9464
705.345	57.3199
708.237	50.2091
711.13	50.898
714.023	54.6663
716.916	50.4616
719.808	53.4036
722.701	55.7188
725.594	53.377
728.486	57.8057
731.379	57.2254
734.272	56.1161
737.164	58.4901
740.057	50.3447
742.95	56.4379
745.843	51.5541
748.735	54.6628
751.628	61.7482
754.521	54.2059
757.413	47.4912
760.306	54.5566
763.199	50.1856
766.091	48.5147
768.984	58.0573
771.877	59.0986
774.77	58.4316
777.662	55.5489
780.555	54.9025
783.448	51.536
786.34	54.1217
789.233	50.4183
792.126	57.8617
795.019	49.3332
797.911	55.9454
800.804	59.2933
803.697	56.4523
806.589	50.9823
809.482	63.8128
812.375	56.7099
815.267	58.0935
818.16	63.0377
821.053	56.0451
823.946	64.9456
826.838	59.5084
829.731	60.8027
832.624	53.7118
835.516	53.9984
838.409	52.2201
841.302	52.3493
844.194	52.3593
847.087	59.5532
849.98	57.2996
852.872	57.7386
855.765	57.4546
858.658	55.9074
861.551	56.5182
864.443	62.879
867.336	61.1215
870.229	49.9613
873.121	54.047
876.014	51.1591
878.907	53.9134
881.799	57.286
884.692	49.7753
887.585	66.7318
890.478	52.6726
893.37	57.349
896.263	63.0289
899.156	66.3701
902.048	64.4053
904.941	60.8649
907.834	54.7991
910.726	60.3782
913.619	49.2515
916.512	53.3185
919.405	60.5612
922.297	65.4558
925.19	60.624
928.083	55.0988
930.975	52.6019
933.868	57.2344
936.761	54.2786
939.654	59.923
942.546	55.2805
945.439	60.7806
948.332	55.9107
951.224	53.9125
954.117	56.6517
957.01	52.9944
959.902	60.5598
962.795	65.4863
965.688	66.694
968.581	67.4668
971.473	53.664
974.366	63.0194
977.259	51.613
980.151	59.8235
983.044	60.4146
985.937	51.1165
988.829	64.0556
991.722	59.2673
994.615	67.1519
997.508	60.2002
1000.4	61.1647
1003.29	67.239
1006.19	56.4066
1009.08	69.2099
1011.97	63.0063
1014.86	59.7818
1017.76	68.4384
1020.65	61.1372
1023.54	61.1173
1026.43	51.5981
1029.33	60.7184
1032.22	62.5658
1035.11	65.2544
1038.01	60.8413
1040.9	61.7255
1043.79	66.2329
1046.68	68.1137
1049.58	58.8389
1052.47	62.6014
1055.36	70.6257
1058.25	62.6842
1061.15	55.5692
1064.04	64.4082
1066.93	60.3697
1069.83	62.6412
1072.72	60.1952
1075.61	57.8268
1078.5	63.6837
1081.4	68.3292
1084.29	68.6035
1087.18	69.8469
1090.07	63.52
1092.97	64.9173
1095.86	67.6837
1098.75	58.6258
1101.64	63.1077
1104.54	54.7926
1107.43	63.6214
1110.32	57.9579
1113.21	61.3286
1116.11	62.3351
1119	75.329
1121.89	67.1976
1124.79	58.7434
1127.68	71.6453
1130.57	58.1507
1133.46	61.0051
1136.36	58.4331
1139.25	56.0746
1142.14	63.5077
1145.04	71.7479
1147.93	64.14
1150.82	60.9755
1153.71	62.7121
1156.61	65.4586
1159.5	70.8633
1162.39	69.7357
1165.28	69.736
1168.18	64.2678
1171.07	62.9707
1173.96	61.9545
1176.86	63.1798
1179.75	60.7769
1182.64	59.2605
1185.53	60.4941
1188.43	65.6775
1191.32	68.6312
1194.21	63.2205
1197.1	65.5329
1200	61.5842
1202.89	66.3736
1205.78	67.4937
1208.67	62.5941
1211.57	68.4048
1214.46	68.247
1217.35	60.1005
1220.24	75.2372
1223.14	68.3589
1226.03	70.7887
1228.92	70.4281
1231.82	76.9279
