Measurement: Raman, 532 nm, unoriented, Raman Data RAW
Mineral: Galena
Rruff sample: R070325
Ideal chemistry: Pb^2+^S^2-^
Locality: Cumberland, England
Source: James Shigley
Description: Lead-grey metallic cubo-octahedral crystal associated with quartz and calcite
Measured chemistry: Pb_1.00_S_1.00_
Raman shift (cm-1)	intensity
138.573	393.317
141.948	396.459
145.323	443.378
148.698	404.709
152.072	444.815
155.447	516.355
158.822	477.873
162.197	491.549
165.572	463.231
168.946	479.778
172.321	483.392
175.696	476.729
179.071	445.788
182.446	447.629
185.821	446.28
189.195	488.344
192.57	438.444
195.945	437.446
199.32	435.555
202.695	421.675
206.07	413.913
209.444	392.195
212.819	376.159
216.194	366.991
219.569	369.077
222.944	351.352
226.318	345.365
229.693	312.393
233.068	293.726
236.443	311.177
239.818	291.882
243.192	285.914
246.567	307.206
249.942	293.77
253.317	288.052
256.692	277.189
260.067	287.025
263.441	276.952
266.816	282.589
270.191	281.267
273.566	275.389
276.941	272.287
280.315	267.021
283.69	250.937
287.065	261.792
290.44	254.33
293.815	254.277
297.19	240.086
300.564	251.995
303.939	243.26
307.314	248.025
310.689	257.922
314.064	233.685
317.438	243.019
320.813	242.804
324.188	239.765
327.563	245.699
330.938	231.497
334.313	232.561
337.687	234.378
341.062	245.789
344.437	234.645
347.812	238.186
351.187	229.038
354.562	241.056
357.936	234.516
361.311	223.852
364.686	226.154
368.061	229.414
371.436	231.032
374.81	236.417
378.185	220.432
381.56	237
384.935	222.416
388.31	235.242
391.685	233.238
395.059	234.397
398.434	226.291
401.809	226.032
405.184	237.919
408.559	216.815
411.933	228.094
415.308	223.708
418.683	228.681
422.058	228.049
425.433	222.565
428.808	230.569
432.182	222.951
435.557	218.232
438.932	219.204
442.307	227.426
445.682	232.335
449.056	229.055
452.431	203.988
455.806	231.243
459.181	214.616
462.556	201.639
465.93	199.679
469.305	203.086
472.68	207.546
476.055	191.113
479.43	215.422
482.805	211.238
486.179	194.146
489.554	183.308
492.929	189.148
496.304	188.95
499.679	191.9
503.053	191.935
506.428	182.72
509.803	170.213
513.178	175.751
516.553	163.653
519.928	176.508
523.302	179.509
526.677	175.012
530.052	164.667
533.427	180.788
536.802	178.342
540.177	175.653
543.551	170.716
546.926	168.104
550.301	164.036
553.676	174.988
557.051	157.74
560.425	164.531
563.8	165.887
567.175	169.995
570.55	158.575
573.925	162.166
577.299	160.665
580.674	159.524
584.049	168.55
587.424	163.24
590.799	154.312
594.174	164.899
597.548	174.281
600.923	164.812
604.298	151.69
607.673	150.347
611.048	154.609
614.423	143.381
617.797	162.012
621.172	148.776
624.547	158.445
627.922	153.998
631.297	155.833
634.671	161.543
638.046	158.972
641.421	160.846
644.796	156.838
648.171	159.762
651.545	152.352
654.92	153.562
658.295	150.544
661.67	158.861
665.045	157.39
668.42	148.615
671.794	167.279
675.169	162.959
678.544	144.691
681.919	152.688
685.294	161.395
688.668	153.407
692.043	152.052
695.418	176.315
698.793	151.342
702.168	160.03
705.543	156.638
708.917	157.395
712.292	159.392
715.667	157.531
719.042	153.652
722.417	142.093
725.792	166.903
729.166	169.551
732.541	150.062
735.916	141.515
739.291	157.56
742.666	155.473
746.04	160.171
749.415	158.587
752.79	153.294
756.165	141.185
759.54	162.343
762.915	166.583
766.289	149.02
769.664	149.468
773.039	153.475
776.414	145.037
779.789	161.161
783.163	134.736
786.538	138.218
789.913	142.554
793.288	151.885
796.663	149.633
800.038	163.014
803.412	155.696
806.787	140.97
810.162	149.549
813.537	153.195
816.912	149.286
820.286	144.174
823.661	138.898
827.036	147.901
830.411	153.883
833.786	157.211
837.16	166.474
840.535	155.101
843.91	150.744
847.285	159.569
850.66	152.519
854.035	160.674
857.409	160.746
860.784	159.673
864.159	146.899
867.534	154.538
870.909	150.692
874.284	152.496
877.658	164.98
881.033	171.157
884.408	156.888
887.783	153.571
891.158	150.169
894.533	148.47
897.907	156.26
901.282	153.449
904.657	147.647
908.032	161.994
911.407	172.709
914.781	163.452
918.156	171.874
921.531	157.298
924.906	157.761
928.281	162.671
931.655	161.949
935.03	146.024
938.405	156.584
941.78	151.617
945.155	162.627
948.529	161.924
951.904	165.103
955.279	165.357
958.654	166.144
962.029	151.476
965.404	161.918
968.778	154.781
972.153	151.607
975.528	153.411
978.903	183.965
982.278	170.488
985.653	135.479
989.027	166.766
992.402	175.019
995.777	179.388
999.152	150.106
1002.53	172.586
1005.9	162.405
1009.28	173.898
1012.65	164.149
1016.03	164.749
1019.4	173.915
1022.78	172.937
1026.15	187.156
1029.53	161.407
1032.9	180.449
1036.28	178.184
1039.65	178.101
1043.02	162.361
1046.4	163.001
1049.77	174.537
1053.15	177.487
1056.52	166.305
1059.9	170.773
1063.27	169.476
1066.65	163.457
1070.02	165.363
1073.4	154.529
1076.77	175.345
1080.15	183.355
1083.52	165.926
1086.9	196.288
1090.27	173.896
1093.65	172.034
1097.02	179.445
1100.4	165.836
1103.77	168.937
1107.15	169.606
1110.52	174.496
1113.9	158.785
1117.27	159.512
1120.64	156.534
1124.02	161.338
1127.39	171.004
1130.77	158.15
1134.14	159.724
1137.52	160.869
1140.89	161.743
1144.27	179.049
1147.64	158.091
1151.02	137.675
1154.39	154.785
1157.77	157.34
1161.14	162.251
1164.52	159.569
1167.89	154.493
1171.27	151.528
1174.64	169.871
1178.02	163.917
1181.39	141.739
1184.77	159.99
1188.14	148.705
1191.52	162.478
1194.89	157.361
1198.27	157.665
1201.64	170.702
1205.02	159.239
1208.39	168.615
1211.77	165.333
1215.14	160.827
1218.52	168.831
1221.89	166.56
1225.27	169.875
1228.64	166.979
1232.01	175.644
1235.39	163.473
1238.76	158.206
1242.14	167.808
1245.51	163.823
1248.89	170.432
1252.26	174.48
1255.64	178.21
1259.01	180.014
1262.39	180.888
1265.76	170.374
1269.14	189.356
1272.51	163.269
1275.89	159.872
1279.26	173.137
1282.64	176.422
1286.01	173.143
1289.39	167.002
1292.76	181.699
1296.14	181.606
1299.51	178.581
1302.88	174.459
1306.26	173.083
