Measurement: Raman, 532 nm, unoriented, Raman Data RAW
Mineral: Gelosaite
Rruff sample: R120031
Ideal chemistry: Bi^3+^Mo^6+^_(2-5x)_Mo^5+^_6x_O_7_(OH)H_2_O (0x0.4)
Locality: Old 25 pipe, Kingsgate, New South Wales, Australia
Source: Pete Williams and Bill Pinch
Description: Blue blocky crystals
Raman shift (cm-1)	intensity
90.0101	0
93.3849	36.6209
96.7597	34.3256
100.135	31.657
103.509	30.423
106.884	28.1837
110.259	27.8932
113.634	25.888
117.009	23.441
120.383	24.1336
123.758	22.7803
127.133	22.7995
130.508	20.5781
133.883	20.3428
137.257	19.923
140.632	19.0344
144.007	18.3908
147.382	17.3555
150.757	17.1449
154.132	17.5107
157.506	19.9635
160.881	25.8176
164.256	40.0331
167.631	65.5224
171.006	97.7745
174.381	123.848
177.755	147.859
181.13	166.547
184.505	198.453
187.88	232.25
191.255	260.366
194.629	290.563
198.004	330.406
201.379	379.718
204.754	418.819
208.129	408.048
211.504	373.397
214.878	342.213
218.253	317.611
221.628	304.734
225.003	314.563
228.377	325.918
231.752	326.865
235.127	327.551
238.502	336.269
241.877	343.811
245.252	341.889
248.626	343.414
252.001	348.596
255.376	353.305
258.751	350.87
262.126	348.698
265.5	355.226
268.875	372.216
272.25	389.274
275.625	398.638
279	415.718
282.375	440.662
285.75	456.557
289.124	468.131
292.499	471.685
295.874	476.377
299.249	486.262
302.623	474.31
305.998	420.846
309.373	352.92
312.748	303.593
316.123	272.197
319.498	253.245
322.872	242.018
326.247	239.703
329.622	231.166
332.997	229.349
336.372	229.477
339.747	230.775
343.121	232.826
346.496	235.972
349.871	241.799
353.246	250.541
356.621	263.201
359.995	274.394
363.37	283.626
366.745	286.863
370.12	285.576
373.495	278.695
376.87	269.18
380.244	257.792
383.619	248.961
386.994	243.738
390.369	243.379
393.744	245.383
397.118	250.273
400.493	258.706
403.868	267.533
407.243	272.097
410.618	275.801
413.993	277.456
417.367	275.981
420.742	277.739
424.117	279.811
427.492	284.802
430.866	286.413
434.241	283.264
437.616	280.017
440.991	277.874
444.366	285.671
447.741	301.32
451.115	323.858
454.49	355.95
457.865	393.406
461.24	429.555
464.615	450.033
467.99	440.936
471.364	406.397
474.739	362.431
478.114	318.208
481.489	283.362
484.864	256.342
488.238	239.109
491.613	224.143
494.988	214.575
498.363	208.355
501.738	203.448
505.113	199.984
508.487	196.749
511.862	198.001
515.237	196.741
518.612	197.472
521.987	198.809
525.361	201.924
528.736	207.113
532.111	213.946
535.486	223.969
538.861	236.391
542.236	251.527
545.61	263.289
548.985	274.473
552.36	281.164
555.735	284.167
559.11	273.266
562.484	250.51
565.859	226.776
569.234	209.553
572.609	199.451
575.984	191.262
579.359	188.127
582.733	185.464
586.108	186.189
589.483	187.243
592.858	190.055
596.232	193.154
599.607	200.09
602.982	205.366
606.357	216.965
609.732	218.645
613.107	218.065
616.481	214.802
619.856	216.708
623.231	217.41
626.606	217.828
629.981	212.797
633.356	203.384
636.73	192.369
640.105	184.899
643.48	179.675
646.855	174.76
650.23	171.546
653.604	169.013
656.979	167.106
660.354	168.789
663.729	165.294
667.104	165.143
670.479	163.984
673.853	163.726
677.228	164.019
680.603	164.575
683.978	164.698
687.353	162.239
690.727	163.881
694.102	164.317
697.477	166.09
700.852	164.241
704.227	163.86
707.601	164.83
710.976	166.658
714.351	165.412
717.726	165.95
721.101	166.515
724.476	166.478
727.85	167.288
731.225	167.026
734.6	167.52
737.975	167.609
741.35	168.742
744.725	168.93
748.099	167.658
751.474	168.183
754.849	169.991
758.224	168.768
761.599	168.573
764.973	167.92
768.348	169.68
771.723	167.783
775.098	166.985
778.473	168.214
781.847	167.747
785.222	169.762
788.597	167.101
791.972	168.393
795.347	169.906
798.722	168.322
802.096	169.463
805.471	170.252
808.846	171.14
812.221	171.607
815.596	170.454
818.971	173.421
822.345	173.571
825.72	172.318
829.095	172.194
832.47	173.933
835.845	174.166
839.219	173.756
842.594	175.453
845.969	177.053
849.344	176.068
852.719	176.47
856.093	177.607
859.468	175.968
862.843	178.155
866.218	176.946
869.593	177.016
872.967	177.971
876.342	177.256
879.717	177.173
883.092	178.6
886.467	178.535
889.842	179.453
893.216	179.599
896.591	179.38
899.966	180.23
903.341	181.889
906.716	182.636
910.091	183.399
913.465	184.309
916.84	185.046
920.215	187.42
923.59	189.123
926.965	189.732
930.339	193.023
933.714	193.206
937.089	197.304
940.464	201.281
943.839	206.091
947.213	213.103
950.588	228.924
953.963	248.033
957.338	283.954
960.713	342.627
964.088	428.553
967.462	538.462
970.837	583.403
974.212	489.211
977.587	401.697
980.962	388.289
984.337	429.871
987.711	497.891
991.086	449.481
994.461	337.213
997.836	283.096
1001.21	263.071
1004.59	256.763
1007.96	259.97
1011.34	267.831
1014.71	279.494
1018.09	300.363
1021.46	321.25
1024.83	332.827
1028.21	336.289
1031.58	353.65
1034.96	401.786
1038.33	476.609
1041.71	591.692
1045.08	729.153
1048.46	824.403
1051.83	887.071
1055.21	906.7
1058.58	780.806
1061.96	569.242
1065.33	421.332
1068.71	344.895
1072.08	310.038
1075.46	298.944
1078.83	297.618
1082.21	290.529
1085.58	272.863
1088.96	251.3
1092.33	237.721
1095.7	227.75
1099.08	221.951
1102.45	218.894
1105.83	216.073
1109.2	216.281
1112.58	215.514
1115.95	217.413
1119.33	217.646
1122.7	218.494
1126.08	216.326
1129.45	212.546
1132.83	209.5
1136.2	207.554
1139.58	206.402
1142.95	204.389
1146.33	204.726
1149.7	204.379
1153.08	202.514
1156.45	204.224
1159.83	205.594
1163.2	207.971
1166.58	210.331
1169.95	213.589
1173.33	220.24
1176.7	230.076
1180.08	239.731
1183.45	248.674
1186.83	248.685
1190.2	238.234
1193.58	227.388
1196.95	218.797
1200.33	214.328
1203.7	210.214
1207.07	210.417
1210.45	208.874
1213.82	207.374
1217.2	206.712
1220.57	204.992
1223.95	204.783
1227.32	205.442
1230.7	204.212
1234.07	204.855
1237.45	204.55
1240.82	205.712
1244.2	205.964
1247.57	206.11
1250.95	203.84
1254.32	206.263
1257.7	206.825
1261.07	207.505
1264.45	208.339
1267.82	207.371
1271.2	207.56
1274.57	207.324
1277.95	208.261
1281.32	207.301
1284.69	208.177
1288.07	208.068
1291.44	209.339
1294.82	209.018
1298.19	208.513
1301.57	209.725
