Measurement: Raman, 785 nm, unoriented, Raman Data RAW
Mineral: Gersdorffite-P213
Rruff sample: R070343
Ideal chemistry: Ni^3+^(AsS)^3-^
Locality: Mitterberg, Salzburg, Austria
Source: Michael Scott
Description: Grey metallic massive associated with quartz and annabergite
Measured chemistry: (Ni_0.98_Co_0.01_Fe_0.01_)_Î£=1_As_1.00_S_1.00_
Raman shift (cm-1)	intensity
101.735	173.856
104.627	189.68
107.52	219.748
110.413	276.372
113.305	374.262
116.198	516.921
119.091	671.277
121.984	810.477
124.876	1106.56
127.769	1598.66
130.662	2458.48
133.554	3234.1
136.447	3080.62
139.34	2868.1
142.232	2333.93
145.125	2352.39
148.018	3047.5
150.911	3697.45
153.803	3339.99
156.696	2390.7
159.589	2134.45
162.481	2259.44
165.374	2060.34
168.267	1812.98
171.16	1708.56
174.052	1535.67
176.945	1401.65
179.838	1293.05
182.73	1245.33
185.623	1226.38
188.516	1257.39
191.408	1120.05
194.301	1075.06
197.194	1036.46
200.087	975.053
202.979	995.908
205.872	990.321
208.765	971.346
211.657	979.054
214.55	1147.15
217.443	1159.97
220.335	878.257
223.228	765.371
226.121	666.212
229.013	600.741
231.906	597.879
234.799	588.738
237.692	573.737
240.584	565.316
243.477	542.285
246.37	518.137
249.262	512.055
252.155	506.636
255.048	511.568
257.941	498.23
260.833	498.782
263.726	472.095
266.619	468.403
269.511	478.699
272.404	498.441
275.297	512.21
278.19	506.847
281.082	515.926
283.975	527.5
286.868	512.923
289.76	482.095
292.653	447.583
295.546	447.634
298.438	421.737
301.331	438.145
304.224	433.669
307.116	447.117
310.009	430.185
312.902	417.819
315.795	416.555
318.687	423.158
321.58	426.483
324.473	417.036
327.365	408.057
330.258	389.155
333.151	380.98
336.043	409.939
338.936	399.572
341.829	406.423
344.721	385.312
347.614	397.646
350.507	383.367
353.4	379.923
356.292	358.675
359.185	346.35
362.078	360.569
364.97	330.198
367.863	355.358
370.756	350.081
373.649	351.466
376.541	359.718
379.434	364.379
382.327	347.296
385.219	353.685
388.112	346.476
391.005	357.639
393.897	341.507
396.79	333.509
399.683	338.311
402.575	333.641
405.468	332.043
408.361	323.546
411.254	322.942
414.146	335.555
417.039	325.26
419.932	342.375
422.824	316.078
425.717	335.307
428.61	323.705
431.502	322.279
434.395	318.388
437.288	327.39
440.181	305.059
443.073	332.522
445.966	321.554
448.859	313.666
451.751	319.484
454.644	326.206
457.537	327.042
460.43	309.473
463.322	323.794
466.215	322.359
469.108	316.349
472	310.969
474.893	300.079
477.786	308.058
480.678	320.072
483.571	304.933
486.464	326.148
489.356	323.017
492.249	318.378
495.142	321.358
498.035	321.639
500.927	305.094
503.82	305.425
506.713	317.817
509.605	307.035
512.498	312.767
515.391	307.029
518.284	305.181
521.176	308.146
524.069	317.422
526.962	307.88
529.854	312.523
532.747	316.191
535.64	313.181
538.533	316.59
541.425	321.375
544.318	306.41
547.211	314.532
550.103	326.037
552.996	308.676
555.889	307.71
558.781	315.009
561.674	311.342
564.567	306.916
567.459	315.986
570.352	313.733
573.245	322.019
576.138	310.468
579.03	311.905
581.923	313.175
584.816	322.389
587.708	316.311
590.601	321.602
593.494	305.786
596.386	311.723
599.279	301.132
602.172	301.677
605.064	313.026
607.957	308.967
610.85	312.409
613.743	310.579
616.635	308.143
619.528	310.724
622.421	311.548
625.313	300.692
628.206	322.577
631.099	316.253
633.991	317.221
636.884	313.886
639.777	317.298
642.67	310.649
645.562	305.407
648.455	311.802
651.348	308.959
654.24	311.293
657.133	327.449
660.026	319.681
662.918	312.791
665.811	307.678
668.704	284.696
671.597	326.358
674.489	320.463
677.382	316.446
680.275	336.007
683.167	314.783
686.06	310.973
688.953	309.714
691.846	325.222
694.738	310.294
697.631	323.748
700.524	310.743
703.416	324.078
706.309	318.449
709.202	330.021
712.094	319.066
714.987	318.096
717.88	330.374
720.773	323.521
723.665	316.745
726.558	310.279
729.451	321.392
732.343	318.176
735.236	322.139
738.129	332.041
741.021	322.666
743.914	326.152
746.807	323.045
749.699	324.665
752.592	314.765
755.485	320.342
758.378	327.336
761.27	327.387
764.163	316.576
767.056	310.758
769.948	331.992
772.841	314.462
775.734	321.549
778.626	328.543
781.519	324.82
784.412	326.033
787.305	307.885
790.197	326.738
793.09	321.588
795.983	324.943
798.875	317.291
801.768	318.852
804.661	318.654
807.553	313.558
810.446	317.764
813.339	331.088
816.232	328.396
819.124	316.802
822.017	320.274
824.91	324.784
827.802	318.893
830.695	320.895
833.588	335.014
836.481	319.943
839.373	327.744
842.266	329.531
845.159	340.072
848.051	335.106
850.944	341.754
853.837	334.067
856.729	329.971
859.622	330.78
862.515	335.041
865.408	327.143
868.3	339.272
871.193	326.118
874.086	319.512
876.978	329.063
879.871	334.985
882.764	343.572
885.656	323.53
888.549	337.344
891.442	345.414
894.335	335.628
897.227	320.304
900.12	334.027
903.013	335.281
905.905	331.003
908.798	333.528
911.691	322.84
914.583	353.271
917.476	325.113
920.369	352.269
923.261	345.681
926.154	334.884
929.047	326.055
931.94	337.471
934.832	339.371
937.725	343.021
940.618	347.385
943.51	337.07
946.403	335.445
949.296	328.267
952.188	349.716
955.081	347.053
957.974	348.234
960.867	334.309
963.759	337.175
966.652	348.478
969.545	360.631
972.437	342.942
975.33	349.672
978.223	355.862
981.115	343.325
984.008	350.654
986.901	346.66
989.794	344.054
992.686	344.868
995.579	341.313
998.472	345.443
1001.36	341.235
1004.26	342.762
1007.15	359.796
1010.04	356.708
1012.93	341.709
1015.83	346.394
1018.72	348.07
1021.61	360.298
1024.51	350.987
1027.4	362.724
1030.29	369.86
1033.18	362.024
1036.08	342.927
1038.97	351.417
1041.86	358.825
1044.76	353.721
1047.65	365.675
1050.54	360.423
1053.43	368.697
1056.33	350.245
1059.22	363.395
1062.11	353.644
1065	364.305
1067.9	348.904
1070.79	364.903
1073.68	360.413
1076.58	358.162
1079.47	357.85
1082.36	363.657
1085.25	364.759
1088.14	357.721
1091.04	361.712
1093.93	370.202
1096.82	349.899
1099.72	378.332
1102.61	374.887
1105.5	361.715
1108.39	371.842
1111.29	363.434
1114.18	355.187
1117.07	390.089
1119.96	366.478
1122.86	365.145
1125.75	372.869
1128.64	363.471
1131.54	366.309
1134.43	371.256
1137.32	361.804
1140.21	383.726
1143.11	365.341
1146	364.197
1148.89	362.836
1151.79	365.525
1154.68	360.906
1157.57	357.229
1160.46	372.749
1163.36	372.175
1166.25	377.298
1169.14	388.453
1172.03	371.885
1174.93	378.512
1177.82	361.782
1180.71	380.209
1183.6	376.529
1186.5	371.92
1189.39	370.533
1192.28	373.499
1195.17	365.868
1198.07	371.471
1200.96	378.01
1203.85	389.588
1206.75	392.594
1209.64	390.877
1212.53	384.116
1215.42	394.384
1218.32	388.894
1221.21	382.818
1224.1	387.841
1226.99	380.188
1229.89	373.241
