Measurement: Raman, 780 nm, unoriented, Raman Data Processed
Mineral: Gerstleyite
Rruff sample: R060510
Ideal chemistry: Na_2_(Sb,As)_8_S_13_2H_2_O
Locality: Baker mine, Boron, Kern County, California, USA
Source: Michael Scott
Description: Deep red platy crystals
Raman shift (cm-1)	intensity
134.347	0
137.24	55.7002
140.133	329.497
143.025	848.776
145.918	1381.09
148.811	1782.52
151.704	1902.11
154.596	1780.28
157.489	1698.34
160.382	1736.72
163.274	1679.45
166.167	1309.16
169.06	924.353
171.952	604.305
174.845	363.916
177.738	181.644
180.631	33.7546
183.523	57.7798
186.416	92.7041
189.309	130.91
192.201	106.823
195.094	0.266602
197.987	99.7371
200.88	165.792
203.772	137.873
206.665	37.9177
209.558	67.0562
212.45	120.799
215.343	79.0676
218.236	95.3113
221.128	317.967
224.021	678.555
226.914	1274.42
229.806	2129.01
232.699	3247.39
235.592	4165.48
238.485	3974.65
241.377	3006.42
244.27	2593.78
247.163	2001.4
250.055	1075.56
252.948	760.038
255.841	1085.2
258.733	1812.05
261.626	2931.34
264.519	4432.49
267.412	5941.75
270.304	7022.43
273.197	7724.24
276.09	8638.79
278.982	11265.1
281.875	16032.3
284.768	19841.2
287.661	17624.6
290.553	14428.4
293.446	13717.1
296.339	13000
299.231	10401.6
302.124	7268.07
305.017	5675.45
307.909	5329.85
310.802	5494.81
313.695	5937.32
316.587	6531.79
319.48	7246.97
322.373	7859.23
325.266	8326.08
328.158	7957.93
331.051	6613.79
333.944	5326.48
336.837	4516.38
339.729	3891.09
342.622	3270.58
345.515	2761.7
348.407	2417.45
351.3	1868.85
354.193	964.264
357.085	234.483
359.978	84.6162
362.871	172.244
365.764	77.2852
368.656	53.4021
371.549	36.7546
374.442	1.94019
377.334	9.27808
380.227	0.939209
383.12	60.384
386.012	93.0884
388.905	70.8098
391.798	38.827
394.69	5.37329
397.583	56.1587
400.476	101.761
403.369	137.295
406.261	185.24
409.154	223.496
412.047	263.124
414.939	290.035
417.832	342.795
420.725	345.357
423.618	346.573
426.51	387.313
429.403	395.372
432.296	418.732
435.188	436.334
438.081	456.062
440.974	452.074
443.866	404.958
446.759	357.552
449.652	322.431
452.545	284.467
455.437	284.207
458.33	262.87
461.223	250.69
464.115	233.034
467.008	230.935
469.901	230.597
472.793	212.62
475.686	196.034
478.579	178.492
481.471	172.267
484.364	172.835
487.257	136.188
490.15	141.27
493.042	115.919
495.935	115.84
498.828	104.676
501.72	89.6803
504.613	68.201
507.506	65.0931
510.399	54.8935
513.291	52.0699
516.184	47.1669
519.077	48.9415
521.969	40.0949
524.862	30.9793
527.755	15.5773
530.647	7.15283
533.54	8.5968
536.433	9.31311
539.326	3.7323
542.218	3.06702
545.111	15.3909
548.004	1.40222
550.896	1.03796
553.789	4.3634
556.682	7.42285
559.574	14.7137
562.467	1.3219
565.36	5.86816
568.253	9.99744
571.145	2.27576
574.038	3.33423
576.931	3.60449
579.823	1.48474
582.716	5.51941
585.609	6.50818
588.501	5.39819
591.394	4.53735
594.287	13.444
597.18	0.523438
600.072	9.27136
602.965	12.6969
605.858	20.1928
608.75	23.6951
611.643	29.1892
614.536	28.8339
617.428	25.3771
620.321	35.9891
623.214	31.5161
626.107	39.8964
628.999	28.3224
631.892	29.5122
634.785	25.0169
637.677	23.0731
640.57	18.5701
643.463	15.2094
646.356	13.0739
649.248	4.11231
652.141	15.9552
655.034	26.0382
657.926	23.0894
660.819	38.5844
663.712	27.6433
666.604	28.7548
669.497	27.8446
672.39	28.6528
675.283	31.9941
678.175	24.7017
681.068	38.6226
683.961	34.0797
686.853	30.5467
689.746	30.3937
692.639	30.6881
695.531	23.8323
698.424	34.4999
701.317	33.531
704.21	8.16614
707.102	10.9197
709.995	13.7068
712.888	1.1106
715.78	1.67932
718.673	2.88892
721.566	9.84961
724.458	5.24658
727.351	5.25049
730.244	6.54724
733.136	10.4416
736.029	8.77222
738.922	7.54773
741.815	14.2385
744.707	11.527
747.6	8.29883
750.493	6.14002
753.385	9.10217
756.278	1.66638
759.171	14.0424
762.063	15.3458
764.956	9.82007
767.849	5.45044
770.742	2.16052
773.634	13.1318
776.527	0.024536
779.42	15.6451
782.312	10.5835
785.205	13.2921
788.098	17.4408
790.99	17.7396
793.883	8.19287
796.776	27.9174
799.669	20.8744
802.561	20.9786
805.454	17.7278
808.347	17.8806
811.239	13.6888
814.132	7.94849
817.025	13.2482
819.918	18.8274
822.81	13.2555
825.703	17.1954
828.596	17.2266
831.488	5.49048
834.381	17.1378
837.274	9.2002
840.166	18.6201
843.059	16.0277
845.952	5.41016
848.845	6.6311
851.737	9.52918
854.63	4.04272
857.523	3.95715
860.415	12.7584
863.308	14.7626
866.201	6.94324
869.093	12.5557
871.986	12.4515
874.879	8.63562
877.771	14.5569
880.664	8.62402
883.557	7.54981
886.45	0.734253
889.342	3.28235
892.235	10.625
895.128	8.57398
898.02	0.941772
900.913	9.48694
903.806	0.01355
906.698	0.596558
909.591	7.94885
912.484	7.06567
915.377	12.7152
918.269	5.729
921.162	8.5564
924.055	8.8208
926.947	7.33081
929.84	11.2853
932.733	15.1288
935.625	19.9719
938.518	5.95276
941.411	4.93579
944.304	16.1781
947.196	6.32556
950.089	10.7173
952.982	1.33142
955.875	14.7933
958.767	12.3059
961.66	4.93103
964.553	9.09619
967.445	10.5609
970.338	9.8623
973.231	1.33032
976.123	11.1785
979.016	9.96179
981.909	10.2534
984.802	15.3208
987.694	14.5585
990.587	10.7487
993.48	14.9637
996.372	7.58167
999.265	3.771
1002.16	4.72217
1005.05	2.81177
1007.94	5.43311
1010.84	3.09961
1013.73	16.5198
1016.62	20.5165
1019.51	0.889893
1022.41	16.533
1025.3	14.4123
1028.19	13.7418
1031.09	3.56775
1033.98	6.09814
1036.87	15.0975
1039.76	3.18249
1042.66	21.0718
1045.55	7.17859
1048.44	12.0066
1051.33	6.56873
1054.23	9.97461
1057.12	12.6242
1060.01	6.89123
1062.9	15.4954
1065.8	1.42664
1068.69	9.875
1071.58	4.90112
1074.47	3.01758
1077.37	3.72009
1080.26	6.32703
1083.15	10.4842
1086.05	6.81396
1088.94	16.8773
1091.83	2.63489
1094.72	10.3977
1097.62	13.5259
1100.51	10.1847
1103.4	10.0874
1106.3	6.29053
1109.19	7.83777
1112.08	4.69946
1114.97	0.979614
1117.87	10.7078
1120.76	10.2415
1123.65	7.76184
1126.54	10.4857
1129.44	0.622681
1132.33	3.17627
1135.22	9.58838
1138.12	8.43445
1141.01	9.4989
1143.9	14.1204
1146.79	0.225586
1149.68	11.4874
1152.58	23.4286
1155.47	21.0548
1158.36	11.5681
1161.26	14.0941
1164.15	2.98035
1167.04	25.5504
1169.93	10.4994
1172.83	13.5143
1175.72	24.1907
1178.61	12.8004
1181.51	5.36133
1184.4	1.92773
1187.29	15.5288
1190.18	14.1936
1193.08	20.6749
1195.97	14.1993
1198.86	10.5282
1201.75	6.67432
1204.65	13.1226
1207.54	9.08032
1210.43	13.1805
1213.33	21.6906
1216.22	11.8389
1219.11	26.9179
1222	9.25818
1224.9	12.2184
1227.79	4.11169
1230.68	10.2203
1233.57	18.6338
1236.47	12.6979
1239.36	13.5201
1242.25	9.85266
1245.14	10.3621
1248.04	7.38965
1250.93	1.80859
1253.82	14.9346
1256.71	10.062
1259.61	15.6582
1262.5	13.8333
1265.39	17.1416
1268.29	23.0773
1271.18	20.8217
1274.07	12.2508
1276.96	5.6366
1279.86	4.9726
