Measurement: Raman, 532 nm, unoriented, Raman Data RAW
Mineral: Gersdorffite-P213
Rruff sample: R070343
Ideal chemistry: Ni^3+^(AsS)^3-^
Locality: Mitterberg, Salzburg, Austria
Source: Michael Scott
Description: Grey metallic massive associated with quartz and annabergite
Measured chemistry: (Ni_0.98_Co_0.01_Fe_0.01_)_Î£=1_As_1.00_S_1.00_
Raman shift (cm-1)	intensity
128.931	355.695
132.306	493.327
135.68	551.159
139.055	555.579
142.43	459.978
145.805	500.906
149.18	451.634
152.554	492.316
155.929	533.68
159.304	486.023
162.679	496.13
166.054	462.912
169.429	483.789
172.803	482.916
176.178	475.427
179.553	472.614
182.928	431.371
186.303	477.881
189.678	472.123
193.052	424.082
196.427	437.077
199.802	492.245
203.177	579.557
206.552	643.905
209.926	831.533
213.301	1236.41
216.676	1751.74
220.051	878.238
223.426	545.342
226.8	429.235
230.175	410.769
233.55	371.411
236.925	381.797
240.3	352.221
243.675	357.628
247.049	330.118
250.424	335.844
253.799	329.815
257.174	342.392
260.549	321.762
263.923	342.19
267.298	356.296
270.673	325.302
274.048	345.874
277.423	373.245
280.798	402.627
284.173	415.586
287.547	408.02
290.922	369.312
294.297	362.43
297.672	344.046
301.046	355.595
304.421	344.505
307.796	382.045
311.171	354.734
314.546	424.025
317.921	478.855
321.295	550.843
324.67	508.767
328.045	433.406
331.42	398.338
334.795	393.055
338.17	371.847
341.544	396.29
344.919	357.819
348.294	333.094
351.669	321.239
355.044	317.1
358.418	307.278
361.793	314.431
365.168	314.879
368.543	304.428
371.918	310.155
375.293	297.841
378.667	311.584
382.042	283.197
385.417	297.666
388.792	294.141
392.167	282.531
395.541	283.712
398.916	279.215
402.291	276.096
405.666	271.273
409.041	279.92
412.416	284.449
415.79	269.439
419.165	299.402
422.54	271.819
425.915	260.105
429.29	271.066
432.664	275.661
436.039	278.373
439.414	256.524
442.789	284.785
446.164	262.534
449.538	270.135
452.913	270.222
456.288	268.436
459.663	279.355
463.038	277.88
466.413	284.422
469.787	263.418
473.162	259.505
476.537	289.218
479.912	274.082
483.287	290.065
486.661	275.559
490.036	275.809
493.411	276.966
496.786	267.17
500.161	269.841
503.536	271.037
506.911	259.298
510.285	255.843
513.66	249.775
517.035	257.496
520.41	255.423
523.784	250.666
527.159	249.733
530.534	272.301
533.909	269.782
537.284	269.191
540.659	261.651
544.033	257.427
547.408	281.76
550.783	281.032
554.158	244.976
557.533	246.535
560.908	264.779
564.282	285.541
567.657	261.922
571.032	257.204
574.407	270.854
577.782	263.252
581.156	262.69
584.531	263.2
587.906	262.151
591.281	246.863
594.656	258.444
598.031	247.128
601.405	235.936
604.78	242.358
608.155	242.236
611.53	254.161
614.905	260.842
618.279	259.007
621.654	260.884
625.029	248.755
628.404	238.935
631.779	261.288
635.154	247.965
638.528	260.292
641.903	257.469
645.278	257.125
648.653	248.242
652.028	252.062
655.403	235.727
658.777	267.645
662.152	261.836
665.527	257.198
668.902	254.344
672.277	257.265
675.651	250.929
679.026	260.505
682.401	258.546
685.776	248.185
689.151	254.929
692.525	240.935
695.9	244.292
699.275	251.791
702.65	248.035
706.025	248.238
709.399	246.313
712.774	252.234
716.149	241.838
719.524	265.206
722.899	253.113
726.274	256.978
729.648	262.777
733.023	243.852
736.398	275.481
739.773	247.074
743.148	235.756
746.523	248.445
749.897	239.975
753.272	249.801
756.647	217.772
760.022	240.217
763.397	250.711
766.771	244.314
770.146	236.024
773.521	244.087
776.896	245.268
780.271	236.32
783.646	236.582
787.02	258.686
790.395	234.275
793.77	237.466
797.145	248.915
800.52	232.135
803.894	233.156
807.269	216.345
810.644	204.952
814.019	245.193
817.394	215.934
820.769	233.246
824.143	231.653
827.518	245.994
830.893	235.062
834.268	239.086
837.643	252.285
841.018	261.906
844.392	238.087
847.767	258.942
851.142	258.253
854.517	244.069
857.891	243.232
861.266	226.017
864.641	253.945
868.016	243.939
871.391	254.695
874.766	239.235
878.14	238.838
881.515	262.714
884.89	255.464
888.265	252.718
891.64	253.945
895.015	250.702
898.389	249.702
901.764	262.24
905.139	253.018
908.514	265.121
911.889	255.086
915.264	267.388
918.638	273.201
922.013	256.675
925.388	265.425
928.763	307.386
932.138	261.345
935.512	285.691
938.887	254.379
942.262	276.459
945.637	249.314
949.012	258.048
952.386	262.885
955.761	250.138
959.136	253.484
962.511	255.782
965.886	281.458
969.261	262.976
972.635	250.28
976.01	286.972
979.385	269.162
982.76	261.697
986.135	270.814
989.51	259.436
992.884	279.029
996.259	263.505
999.634	256.128
1003.01	270.058
1006.38	266.188
1009.76	257.863
1013.13	269.756
1016.51	266.691
1019.88	283.688
1023.26	272.505
1026.63	307.618
1030.01	295.843
1033.38	291.557
1036.76	286.991
1040.13	300.014
1043.51	287.808
1046.88	281.178
1050.26	280.248
1053.63	293.106
1057.01	276.843
1060.38	292.241
1063.76	277.323
1067.13	289.769
1070.51	277.11
1073.88	283.6
1077.26	282.44
1080.63	290.83
1084	274.741
1087.38	282.87
1090.75	293.855
1094.13	300.161
1097.5	276.287
1100.88	257.995
1104.25	282.988
1107.63	261.285
1111	290.232
1114.38	260.833
1117.75	264.929
1121.13	245.483
1124.5	257.479
1127.88	257.22
1131.25	248.726
1134.63	240.833
1138	273.522
1141.38	231.159
1144.75	274.882
1148.13	256.276
1151.5	268.898
1154.88	231.602
1158.25	253.734
1161.62	247.09
1165	253.219
1168.38	246.2
1171.75	264.862
1175.12	262.814
1178.5	294.102
1181.87	236.327
1185.25	262.613
1188.62	265.966
1192	269.589
1195.37	256.199
1198.75	258.615
1202.12	237.983
1205.5	267.528
1208.87	285.999
1212.25	264.412
1215.62	278.215
1219	268.737
1222.37	284.153
1225.75	277.81
1229.12	262.043
1232.5	288.551
1235.87	267.152
1239.25	284.889
1242.62	269.097
1246	288.262
1249.37	281.531
1252.74	266.903
1256.12	274.885
1259.49	290.857
1262.87	286.129
1266.24	270.05
1269.62	258.726
1272.99	276.861
1276.37	289.724
1279.74	281.006
1283.12	283.655
1286.49	305.247
1289.87	304.302
1293.24	274.639
1296.62	284.235
1299.99	294.118
