Measurement: Raman, 785 nm, unoriented, Raman Data RAW
Mineral: Gersdorffite-P213
Rruff sample: R070304
Ideal chemistry: Ni^3+^(AsS)^3-^
Locality: Aït Ahmane, Bou Azzer, Anti-Atlas Mts, Morocco
Source: Michael Scott
Description: Steel gray metallic massive, this sample used by Bayliss to create ICDD data. Structure refined to determine space group.
Measured chemistry: (Ni_0.99_Co_0.01_)_Σ=1_As_1.00_S_1.00_ ; trace amounts of Fe
Raman shift (cm-1)	intensity
113.788	246.689
116.68	561.802
119.573	433.601
122.466	313.161
125.359	414.768
128.251	939.041
131.144	2308.79
134.037	2962.93
136.929	1289.48
139.822	675.07
142.715	801.963
145.607	1480.01
148.5	1846.22
151.393	1616.91
154.286	1073.58
157.178	814.338
160.071	814.636
162.964	730.039
165.856	690.685
168.749	601.157
171.642	540.696
174.534	491.2
177.427	441.864
180.32	409.454
183.212	383.104
186.105	441.959
188.998	429.28
191.891	368.781
194.783	336.649
197.676	319.601
200.569	305.942
203.461	304.651
206.354	302.135
209.247	310.225
212.139	310.153
215.032	337.286
217.925	358.045
220.818	341.264
223.71	290.976
226.603	253.965
229.496	224.77
232.388	233.528
235.281	216.334
238.174	209.036
241.066	217.023
243.959	214.523
246.852	207.76
249.745	192.655
252.637	202.978
255.53	190.347
258.423	188.051
261.315	175.073
264.208	182.552
267.101	174.29
269.993	185.918
272.886	176.43
275.779	176.357
278.672	175.773
281.564	182.798
284.457	177.139
287.35	196.419
290.242	194.549
293.135	196.036
296.028	200.03
298.921	189.425
301.813	181.212
304.706	189.066
307.599	176.434
310.491	187.283
313.384	182.041
316.277	197.901
319.169	170.729
322.062	165.855
324.955	187.617
327.847	178.913
330.74	151.929
333.633	170.202
336.526	172.602
339.418	181.767
342.311	188.403
345.204	174.703
348.096	162.628
350.989	156.017
353.882	158.315
356.774	141.487
359.667	158.121
362.56	157.945
365.452	147.974
368.345	149.331
371.238	148.457
374.131	160.135
377.023	157.369
379.916	157.568
382.809	163.592
385.701	158.199
388.594	152.506
391.487	163.865
394.38	152.216
397.272	137.161
400.165	133.66
403.058	153.678
405.95	152.845
408.843	148.508
411.736	150.087
414.628	168.624
417.521	154.256
420.414	153.953
423.307	140.03
426.199	151.265
429.092	147.165
431.985	149.433
434.877	143.784
437.77	142.863
440.663	144.092
443.555	158.408
446.448	154.438
449.341	158.346
452.234	154.678
455.126	157.134
458.019	146.843
460.912	157.712
463.804	158.053
466.697	144.114
469.59	151.145
472.483	149.983
475.375	146.955
478.268	147.474
481.161	147.406
484.053	153.98
486.946	156.475
489.839	141.355
492.731	157.401
495.624	166.779
498.517	160.165
501.409	163.066
504.302	143.128
507.195	158.127
510.088	159.471
512.98	144.929
515.873	152.3
518.766	151.944
521.658	151.9
524.551	151.93
527.444	142.286
530.337	136.914
533.229	163.522
536.122	157.082
539.015	157.134
541.907	134.847
544.8	149.449
547.693	161.648
550.585	147.962
553.478	138.869
556.371	150.694
559.263	157.697
562.156	152.523
565.049	162.221
567.942	154.494
570.834	154.222
573.727	158.162
576.62	166.474
579.512	162.02
582.405	157.593
585.298	149.172
588.19	153.65
591.083	147.037
593.976	156.575
596.869	148.896
599.761	154.151
602.654	141.652
605.547	159.464
608.439	157.472
611.332	151.707
614.225	160.736
617.117	158.303
620.01	156.657
622.903	160.942
625.795	161.645
628.688	150.231
631.581	152.305
634.474	154.121
637.366	161.922
640.259	164.945
643.152	159.47
646.044	154.162
648.937	169.178
651.83	153.605
654.722	167.539
657.615	155.977
660.508	176.135
663.401	163.76
666.293	170.828
669.186	162.351
672.079	167.936
674.971	165.388
677.864	157.905
680.757	169.959
683.649	150.9
686.542	164.722
689.435	149.274
692.328	167.272
695.22	155.596
698.113	155.692
701.006	164.705
703.898	159.251
706.791	161.409
709.684	172.975
712.577	161.36
715.469	161.135
718.362	176.449
721.255	166.372
724.147	171.312
727.04	162.281
729.933	157.581
732.825	159.956
735.718	165.064
738.611	168.427
741.504	151.941
744.396	169.955
747.289	162.654
750.182	179.478
753.074	158.587
755.967	178.058
758.86	158.599
761.752	144.888
764.645	163.948
767.538	164.185
770.431	172.454
773.323	177.99
776.216	179.184
779.109	173.127
782.001	172.554
784.894	159.279
787.787	165.027
790.679	178.409
793.572	166.402
796.465	166.672
799.357	165.604
802.25	174.809
805.143	152.183
808.036	163.553
810.928	180.107
813.821	176.414
816.714	172.051
819.606	155.164
822.499	164.845
825.392	170.773
828.284	176.644
831.177	151.02
834.07	164.359
836.963	173.154
839.855	171.57
842.748	155.084
845.641	174.66
848.533	178.559
851.426	171
854.319	168.027
857.212	192.142
860.104	168.893
862.997	165.173
865.89	174.498
868.782	179.397
871.675	152.977
874.568	180.22
877.46	178.207
880.353	166.11
883.246	171.072
886.139	173.765
889.031	165.214
891.924	183.787
894.817	197.781
897.709	176.176
900.602	180.899
903.495	171.635
906.388	178.82
909.28	174.943
912.173	175.26
915.066	178.921
917.958	184.815
920.851	171.645
923.744	188.891
926.636	189.942
929.529	175.925
932.422	189.122
935.314	183.884
938.207	185.064
941.1	178.927
943.993	180.925
946.885	169.076
949.778	182.795
952.671	185.532
955.563	188.365
958.456	183.511
961.349	172.338
964.241	184.761
967.134	192.425
970.027	180.253
972.92	185.106
975.812	181.726
978.705	182.572
981.598	166.295
984.49	189.482
987.383	178.097
990.276	192.037
993.168	182.32
996.061	175.525
998.954	199.941
1001.85	181.966
1004.74	175.73
1007.63	180.18
1010.52	177.268
1013.42	191.66
1016.31	179.434
1019.2	178.085
1022.1	180.536
1024.99	188.012
1027.88	174.498
1030.77	182.046
1033.67	171.804
1036.56	206.637
1039.45	184.837
1042.34	180.567
1045.24	200.384
1048.13	188.616
1051.02	201.677
1053.91	191.851
1056.81	186.176
1059.7	185.858
1062.59	192.535
1065.49	181.571
1068.38	185.014
1071.27	177.678
1074.16	187.998
1077.06	194.88
1079.95	181.365
1082.84	192.5
1085.73	191.46
1088.63	203.16
1091.52	196.737
1094.41	194.422
1097.31	204.977
1100.2	171.367
1103.09	182.908
1105.98	165.226
1108.88	191.022
1111.77	190.179
1114.66	187.778
1117.56	205.074
1120.45	179.824
1123.34	182.15
1126.23	185.944
1129.12	191.736
1132.02	197.719
1134.91	190.689
1137.8	190.959
1140.7	193.74
1143.59	204.246
1146.48	197.576
1149.37	180.633
1152.27	214.44
1155.16	199.382
1158.05	196.817
1160.94	181.857
1163.84	187.299
1166.73	194.678
1169.62	192.096
1172.52	207.697
1175.41	188.639
1178.3	195.874
1181.19	189.626
1184.09	197.838
1186.98	192.775
1189.87	197.912
1192.77	192.911
1195.66	203.273
1198.55	208.974
1201.44	194.44
1204.34	222.832
1207.23	193.431
1210.12	188.092
1213.01	194.291
1215.91	201.579
1218.8	184.236
1221.69	195.707
1224.58	192.562
1227.48	204.244
1230.37	203.982
1233.26	183.166
1236.15	209.916
1239.05	214.936
1241.94	189.337
