Measurement: Raman, 532 nm, unoriented, Raman Data RAW
Mineral: Gersdorffite-P213
Rruff sample: R070341
Ideal chemistry: Ni^3+^(AsS)^3-^
Locality: Lubietová (Libethen), Banská Bystrica (Neusohl) District, Banskobystrický kraj, Slovak Republic
Source: Michael Scott
Description: Grey metallic massive vein associated with siderite. Structure refined to determine space group.
Raman shift (cm-1)	intensity
133.27	224.684
136.645	272.206
140.019	344.118
143.394	307.365
146.769	315.006
150.144	332.534
153.519	353.762
156.894	336.037
160.268	335.509
163.643	359.043
167.018	359.55
170.393	390.903
173.768	372.978
177.143	369.656
180.517	362.127
183.892	367.75
187.267	384.468
190.642	353.584
194.017	324.352
197.391	327.716
200.766	332.144
204.141	326.98
207.516	293.755
210.891	293.433
214.266	275.637
217.64	269.231
221.015	260.212
224.39	242.56
227.765	239.281
231.14	237.173
234.514	254.275
237.889	245.919
241.264	269.796
244.639	262.101
248.014	274.313
251.388	297.829
254.763	283.731
258.138	288.377
261.513	270.639
264.888	269.719
268.263	265.025
271.637	242.797
275.012	239.095
278.387	231.874
281.762	211
285.137	217.829
288.512	196.11
291.886	198.347
295.261	217.101
298.636	220.637
302.011	222.87
305.386	227.434
308.76	232.075
312.135	217.817
315.51	220.37
318.885	229.135
322.26	235.113
325.635	221.404
329.009	231.854
332.384	224.338
335.759	222.427
339.134	202.096
342.509	192.895
345.883	207.253
349.258	207.596
352.633	183.72
356.008	177.799
359.383	176.265
362.757	179.724
366.132	177.469
369.507	153.166
372.882	158.162
376.257	160.234
379.632	156.564
383.006	167.139
386.381	157.142
389.756	152.199
393.131	150.893
396.506	145.331
399.88	141.192
403.255	146.632
406.63	147.528
410.005	158.4
413.38	148.215
416.755	150.743
420.129	158.778
423.504	142.338
426.879	145.293
430.254	143.865
433.629	132.671
437.003	136.375
440.378	139.197
443.753	150.257
447.128	148.281
450.503	151.485
453.878	151.448
457.252	146.499
460.627	149.954
464.002	143.631
467.377	126.423
470.752	152.497
474.127	132.977
477.501	136.792
480.876	135.251
484.251	147.574
487.626	145.526
491.001	139.14
494.375	158.845
497.75	134.691
501.125	131.273
504.5	154.325
507.875	144.034
511.25	129.292
514.624	127.657
517.999	144.029
521.374	120.368
524.749	140.715
528.124	124.127
531.498	139.262
534.873	124.808
538.248	148.405
541.623	140.196
544.998	139.742
548.372	124.889
551.747	132.026
555.122	127.548
558.497	130.849
561.872	130.106
565.247	121.452
568.621	128.054
571.996	121.774
575.371	131.696
578.746	136.32
582.121	141.294
585.495	147.339
588.87	134.195
592.245	123.236
595.62	135.281
598.995	123.113
602.37	131.576
605.744	129.997
609.119	122.563
612.494	121.612
615.869	111.714
619.244	126.543
622.619	141.433
625.993	115.165
629.368	128.931
632.743	128.85
636.118	121.215
639.493	144.611
642.867	132.624
646.242	116.74
649.617	123.053
652.992	128.594
656.367	112.97
659.741	146.177
663.116	124.887
666.491	128.156
669.866	117.053
673.241	120.375
676.616	110.321
679.99	128.41
683.365	124.402
686.74	116.733
690.115	133.242
693.49	127.892
696.865	125.807
700.239	134.526
703.614	132.031
706.989	118.688
710.364	119.704
713.739	126.599
717.113	137.642
720.488	123.39
723.863	127.957
727.238	115.401
730.613	121.903
733.987	129.217
737.362	136.976
740.737	122.38
744.112	120.546
747.487	128
750.862	122.479
754.236	140.407
757.611	111.765
760.986	127.934
764.361	121.018
767.736	124.265
771.111	108.047
774.485	121.152
777.86	123.503
781.235	123.09
784.61	135.289
787.985	132.187
791.359	113.83
794.734	117.396
798.109	113.895
801.484	112.59
804.859	111.319
808.234	114.204
811.608	94.6638
814.983	112.162
818.358	97.9061
821.733	111.215
825.108	124.403
828.482	120.85
831.857	118.069
835.232	115.45
838.607	121.716
841.982	124.098
845.356	103.603
848.731	121.842
852.106	120.245
855.481	104.287
858.856	129.941
862.231	129.43
865.605	115.046
868.98	126.727
872.355	131.462
875.73	113.619
879.105	133.672
882.48	126.351
885.854	122.001
889.229	125.737
892.604	120.12
895.979	111.639
899.354	131.088
902.729	116.303
906.103	146.688
909.478	130.935
912.853	121.755
916.228	132.744
919.602	130.556
922.977	135.653
926.352	109.329
929.727	129.646
933.102	126.334
936.477	123.339
939.851	129.9
943.226	129.823
946.601	138.579
949.976	138.004
953.351	120.893
956.726	115.163
960.1	128.443
963.475	131.971
966.85	127.031
970.225	124.057
973.6	114.405
976.974	141.579
980.349	120.674
983.724	121.483
987.099	139.96
990.474	121.114
993.848	134.716
997.223	138.327
1000.6	139.814
1003.97	141.64
1007.35	135.86
1010.72	128.362
1014.1	142.38
1017.47	133.59
1020.85	143.698
1024.22	148.821
1027.6	163.443
1030.97	160.382
1034.35	133.723
1037.72	137.662
1041.1	140.787
1044.47	141.696
1047.85	144.543
1051.22	147.148
1054.6	144.819
1057.97	146.782
1061.35	130.954
1064.72	133.57
1068.09	130.541
1071.47	142.115
1074.84	148.637
1078.22	129.812
1081.59	152.627
1084.97	132.988
1088.34	117.007
1091.72	141.405
1095.09	144.137
1098.47	138.487
1101.84	117.163
1105.22	131.458
1108.59	124.196
1111.97	122.661
1115.34	127.443
1118.72	141.392
1122.09	126.538
1125.47	130.724
1128.84	122.114
1132.22	132.619
1135.59	116.203
1138.97	139.217
1142.34	120.062
1145.71	121.599
1149.09	122.853
1152.46	128.59
1155.84	129.928
1159.21	117.019
1162.59	126.566
1165.96	116.201
1169.34	113.738
1172.71	110.155
1176.09	131.699
1179.46	129.449
1182.84	111.621
1186.21	134.993
1189.59	130.013
1192.96	123.834
1196.34	116.901
1199.71	132.202
1203.09	132.46
1206.46	122.661
1209.84	126.125
1213.21	131.633
1216.59	136.873
1219.96	131.7
1223.34	129.053
1226.71	126.104
1230.09	139.809
1233.46	120.317
1236.84	133.24
1240.21	135.741
1243.59	120.997
1246.96	128.416
1250.34	137.771
1253.71	118.339
1257.08	127.827
1260.46	133.309
1263.83	136.738
1267.21	131.776
1270.58	117.453
1273.96	153.367
1277.33	121.475
1280.71	133.943
1284.08	130.806
1287.46	132.924
1290.83	137.439
1294.21	120.281
