Measurement: Raman, 532 nm, unoriented, Raman Data Processed
Mineral: Gerstleyite
Rruff sample: R060510
Ideal chemistry: Na_2_(Sb,As)_8_S_13_2H_2_O
Locality: Baker mine, Boron, Kern County, California, USA
Source: Michael Scott
Description: Deep red platy crystals
Raman shift (cm-1)	intensity
186.488	0
189.381	3.51892
192.274	1.64674
195.167	3.39594
198.059	3.57623
200.952	6.15988
203.845	9.43924
206.737	2.16261
209.63	0.958862
212.523	1.81734
215.416	3.12547
218.308	0.386627
221.201	5.9769
224.094	15.382
226.986	30.7398
229.879	47.9396
232.772	67.2381
235.664	79.455
238.557	76.8407
241.45	66.4365
244.343	57.911
247.235	49.0576
250.128	38.5801
253.021	37.6827
255.913	42.7361
258.806	54.3229
261.699	67.5281
264.591	83.1436
267.484	96.4033
270.377	103.439
273.27	99.6967
276.162	87.5772
279.055	81.6064
281.948	82.8795
284.84	93.0243
287.733	106.225
290.626	119.545
293.519	139.797
296.411	152.492
299.304	139.705
302.197	113.122
305.089	89.166
307.982	73.5414
310.875	66.9158
313.767	62.1923
316.66	62.1934
319.553	65.9857
322.445	69.8388
325.338	74.7777
328.231	76.2704
331.124	70.0764
334.016	62.4122
336.909	59.7858
339.802	58.6658
342.694	61.3473
345.587	68.9757
348.48	79.0346
351.373	79.6696
354.265	58.7522
357.158	31.317
360.051	12.5192
362.943	5.04857
365.836	4.1416
368.729	5.5378
371.621	4.42358
374.514	1.75566
377.407	0.631714
380.3	0.127266
383.192	1.40364
386.085	2.84223
388.978	2.93872
391.87	2.91232
394.763	1.81034
397.656	0.979637
400.548	0.002411
403.441	1.6639
406.334	1.89867
409.226	2.40115
412.119	2.79649
415.012	4.40577
417.905	4.54908
420.797	4.7747
423.69	5.42916
426.583	6.93101
429.475	7.09954
432.368	8.0975
435.261	8.33263
438.154	9.74905
441.046	10.2194
443.939	9.84248
446.832	9.94842
449.724	10.3434
452.617	8.76846
455.51	7.71679
458.402	7.96305
461.295	8.05975
464.188	7.88411
467.08	7.31193
469.973	7.83166
472.866	8.69522
475.759	7.75974
478.651	7.36484
481.544	7.40972
484.437	8.42712
487.329	5.12068
490.222	4.68692
493.115	3.94499
496.007	3.4846
498.9	3.14177
501.793	3.04194
504.686	2.44722
507.578	2.49944
510.471	1.42258
513.364	1.37226
516.256	0.516869
519.149	0.565521
522.042	0.266258
524.934	0.312508
527.827	0.174568
530.72	0.375969
533.613	0.240036
536.505	1.12083
539.398	0.543488
542.291	0.552055
545.183	0.059578
548.076	0.015961
550.969	1.06592
553.861	1.12843
556.754	1.6582
559.647	1.8643
562.54	1.78845
565.432	2.72435
568.325	2.98457
571.218	3.57517
574.11	3.59913
577.003	3.72128
579.896	4.14566
582.788	4.55163
585.681	4.56602
588.574	4.49458
591.467	4.36821
594.359	4.57557
597.252	4.56228
600.145	4.56043
603.037	5.25748
605.93	5.13376
608.823	6.03564
611.716	6.41722
614.608	6.07573
617.501	7.25444
620.394	6.63144
623.286	6.02822
626.179	5.61151
629.072	5.50965
631.964	5.03205
634.857	4.75748
637.75	4.92647
640.643	4.6385
643.535	3.94719
646.428	3.9948
649.321	3.88973
652.213	3.05513
655.106	2.91995
657.999	3.67348
660.891	3.94607
663.784	3.16407
666.677	3.71336
669.569	4.68288
672.462	4.59923
675.355	4.82761
678.248	4.46728
681.14	4.86761
684.033	4.1051
686.926	4.91897
689.818	3.83724
692.711	3.60171
695.604	1.87708
698.496	1.97859
701.389	0.896965
704.282	0.633545
707.175	0.039703
710.067	0.374931
712.96	0.569649
715.853	0.423958
718.745	0.040253
721.638	1.49048
724.531	0.536613
727.423	0.476601
730.316	0.258949
733.209	0.393257
736.102	3.96837
738.994	1.1518
741.887	0.278412
744.78	0.27594
747.672	0.124786
750.565	0.561104
753.458	0.966766
756.351	0.686317
759.243	0.015099
762.136	0.734894
765.029	0.378418
767.921	1.50047
770.814	0.274445
773.707	0.814781
776.599	1.50284
779.492	0.73674
782.385	1.37858
785.278	0.334091
788.17	0.703957
791.063	1.55623
793.956	1.17619
796.848	0.825684
799.741	1.23547
802.634	1.45856
805.526	0.846413
808.419	1.66233
811.312	1.89391
814.205	1.17365
817.097	0.838394
819.99	1.90026
822.883	2.38471
825.775	2.46577
828.668	2.08354
831.561	2.03694
834.453	2.3362
837.346	2.62552
840.239	3.13415
843.132	2.67681
846.024	2.83974
848.917	2.50359
851.81	2.50973
854.702	3.21244
857.595	3.10257
860.488	2.89143
863.38	3.04195
866.273	2.85938
869.166	2.70664
872.059	1.94056
874.951	2.0834
877.844	1.98225
880.737	1.05983
883.629	0.981354
886.522	2.36443
889.415	2.0765
892.308	1.54868
895.2	0.797165
898.093	1.03529
900.986	1.68841
903.878	0.791908
906.771	0.923729
909.664	0.077927
912.556	0.576675
915.449	0.087593
918.342	0.9356
921.235	0.155586
924.127	0.126602
927.02	0.701424
929.913	0.112907
932.805	0.569832
935.698	0.136383
938.591	0.054108
941.483	0.327202
944.376	0.995033
947.269	0.314651
950.162	0.214363
953.054	0.835083
955.947	0.638596
958.84	0.733238
961.732	0.975197
964.625	0.250298
967.518	0.541672
970.41	0.809921
973.303	0.665092
976.196	1.13378
979.088	0.84613
981.981	0.635109
984.874	0.646729
987.767	0.738121
990.659	0.377159
993.552	0.920525
996.445	0.246384
999.337	1.96362
1002.23	1.41318
1005.12	1.59103
1008.02	0.827011
1010.91	0.854004
1013.8	0.366493
1016.69	0.086105
1019.59	0.105278
1022.48	1.47797
1025.37	0.962013
1028.26	1.50252
1031.16	1.47287
1034.05	1.05859
1036.94	0.928406
1039.84	1.3035
1042.73	1.65549
1045.62	0.758957
1048.51	1.4637
1051.41	1.33102
1054.3	1.59183
1057.19	1.22656
1060.08	1.44292
1062.98	1.25061
1065.87	1.26856
1068.76	1.18455
1071.65	0.898857
1074.55	0.553749
1077.44	0.588478
1080.33	0.814919
1083.23	1.47196
1086.12	0.188591
1089.01	0.246117
1091.9	0.705978
1094.8	0.295151
1097.69	1.38078
1100.58	1.94063
1103.47	2.63783
1106.37	0.986916
1109.26	0.549316
1112.15	0.4123
1115.05	0.038712
1117.94	0.302597
1120.83	1.15919
1123.72	0.007706
1126.62	0.491493
1129.51	0.595764
1132.4	0.077034
1135.29	0.572273
1138.19	1.20498
1141.08	0.515816
1143.97	0.411232
1146.87	0.794258
1149.76	0.009544
1152.65	1.31529
1155.54	1.30495
1158.44	0.06945
1161.33	0.604256
1164.22	0.498222
1167.11	1.28021
1170.01	1.27305
1172.9	1.37501
1175.79	0.774818
1178.68	0.600082
1181.58	0.927788
1184.47	0.283569
1187.36	1.21587
1190.26	1.63149
1193.15	0.46611
1196.04	2.61704
1198.93	0.576942
1201.83	1.37328
1204.72	1.131
1207.61	0.272141
1210.51	0.640045
1213.4	1.51024
1216.29	1.10046
1219.18	0.649506
1222.08	0.846466
1224.97	1.09416
1227.86	0.564529
1230.75	0.919212
1233.65	0.706116
1236.54	0.880508
1239.43	1.0944
1242.32	1.56406
1245.22	1.56042
1248.11	1.56147
1251	0.719391
1253.89	1.4273
1256.79	0.960716
1259.68	2.10198
1262.57	0.570679
1265.47	0.394981
1268.36	1.04553
1271.25	1.51661
1274.14	0.260193
1277.04	2.5954
1279.93	0.214951
1282.82	1.12205
1285.71	0.742065
1288.61	0.202461
1291.5	0.418015
1294.39	0.884865
1297.29	0.827728
1300.18	0.148392
