Measurement: Raman, 532 nm, unoriented, Raman Data RAW
Mineral: Gersdorffite-Pca21
Rruff sample: R070342
Ideal chemistry: Ni^3+^(AsS)^3-^
Locality: Leichtenberg, Fichtelgebirge, Franconia, Bavaria, Germany
Source: Michael Scott
Description: Dark grey metallic grains embedded in epoxy. Structure refined to determine space group.
Measured chemistry: (Ni_0.94_Fe_0.04_Co_0.02_)_Σ=1_(As_0.99_Sb_0.01_)_Σ=1_S_1.00_
Raman shift (cm-1)	intensity
138.091	428.005
141.466	455.432
144.841	471.071
148.215	435.209
151.59	472.84
154.965	534.324
158.34	513.356
161.715	525.716
165.09	527.873
168.464	523.752
171.839	548.508
175.214	563.868
178.589	520.128
181.964	514.456
185.339	524.713
188.713	559.118
192.088	502.213
195.463	539.052
198.838	574.115
202.213	637.269
205.587	668.582
208.962	712.135
212.337	722.419
215.712	766.103
219.087	712.373
222.462	664.054
225.836	611.551
229.211	583.055
232.586	567.344
235.961	554.506
239.336	532.65
242.71	557.833
246.085	532.999
249.46	525.71
252.835	512.675
256.21	515.523
259.584	520.289
262.959	525.357
266.334	531.949
269.709	525.447
273.084	533.488
276.459	529.595
279.833	560.035
283.208	574.884
286.583	570.119
289.958	588.869
293.333	574.316
296.707	583.29
300.082	567.619
303.457	589.465
306.832	600.422
310.207	614.506
313.582	644.743
316.956	660.711
320.331	709.447
323.706	692.63
327.081	664.173
330.456	629.463
333.83	625.25
337.205	603.503
340.58	599.261
343.955	613.322
347.33	591.962
350.705	571.694
354.079	581.617
357.454	579.305
360.829	577.872
364.204	571.534
367.579	558.535
370.954	560.073
374.328	578.302
377.703	566.332
381.078	567.869
384.453	564.506
387.828	559.672
391.202	547.092
394.577	544.187
397.952	570.976
401.327	562.486
404.702	565.487
408.077	567.43
411.451	572.931
414.826	557.679
418.201	578.765
421.576	571.576
424.951	592.223
428.325	584.46
431.7	578.06
435.075	577.707
438.45	586.696
441.825	602.835
445.2	591.473
448.574	598.135
451.949	600.688
455.324	591.961
458.699	607.624
462.074	617.192
465.448	594.241
468.823	572.207
472.198	604.6
475.573	620.852
478.948	603.448
482.322	615.564
485.697	623.583
489.072	621.325
492.447	621.236
495.822	613.847
499.197	619.792
502.571	595.709
505.946	626.685
509.321	621.527
512.696	644.932
516.071	623.449
519.446	619.713
522.82	616.192
526.195	623.692
529.57	645.374
532.945	660.057
536.32	630.683
539.694	641.24
543.069	642.597
546.444	652.243
549.819	664.814
553.194	649.628
556.568	643.952
559.943	656.524
563.318	648.236
566.693	655.45
570.068	650.398
573.443	664.051
576.817	673.217
580.192	662.456
583.567	687.608
586.942	682.918
590.317	674.765
593.692	657.437
597.066	695.077
600.441	673.27
603.816	673.955
607.191	674.426
610.566	693.13
613.94	690.405
617.315	684.212
620.69	703.36
624.065	694.469
627.44	692.241
630.814	690.172
634.189	710.286
637.564	693.441
640.939	698.648
644.314	720.363
647.689	698.264
651.063	721.674
654.438	712.49
657.813	735.495
661.188	718.789
664.563	706.125
667.938	728.404
671.312	727.121
674.687	704.169
678.062	728.24
681.437	720.538
684.812	722.852
688.186	717.24
691.561	718.831
694.936	704.749
698.311	725.719
701.686	721.772
705.061	726.537
708.435	728.822
711.81	731.301
715.185	724.102
718.56	731.703
721.935	734.865
725.309	718.136
728.684	740.637
732.059	740.185
735.434	741.447
738.809	745.591
742.183	728.784
745.558	716.716
748.933	728.609
752.308	737.286
755.683	743.635
759.058	728.102
762.432	737.992
765.807	756.2
769.182	735.518
772.557	749.747
775.932	742.668
779.307	735.364
782.681	746.312
786.056	730.137
789.431	737.765
792.806	754.881
796.181	742.365
799.555	733.324
802.93	744.177
806.305	762.813
809.68	730.466
813.055	736.746
816.429	744.431
819.804	753.863
823.179	751.632
826.554	739.406
829.929	754.978
833.304	756.873
836.678	754.657
840.053	745.974
843.428	753.357
846.803	755.234
850.178	743.92
853.553	761.21
856.927	758.537
860.302	751.68
863.677	767.457
867.052	789.08
870.427	755.415
873.801	777.128
877.176	759.564
880.551	793.534
883.926	770.535
887.301	759.302
890.676	782.137
894.05	776.178
897.425	756.701
900.8	805.267
904.175	764.049
907.55	783.949
910.924	772.178
914.299	790.193
917.674	786.365
921.049	784.837
924.424	770.256
927.798	806.625
931.173	802.1
934.548	784.07
937.923	775.138
941.298	794.733
944.673	800.052
948.047	768.883
951.422	813.836
954.797	796.994
958.172	788.806
961.547	808.332
964.922	793.837
968.296	789.056
971.671	778.861
975.046	800.361
978.421	816.86
981.796	801.893
985.17	802.616
988.545	816.08
991.92	819.068
995.295	800.172
998.67	809.605
1002.04	794.281
1005.42	819.514
1008.79	814.319
1012.17	818.223
1015.54	840.884
1018.92	817.562
1022.29	839.269
1025.67	847.877
1029.04	829.788
1032.42	838.837
1035.79	840.858
1039.17	843.016
1042.54	859.554
1045.92	847.298
1049.29	834.376
1052.67	834.917
1056.04	830.079
1059.42	850.627
1062.79	824.736
1066.17	851.385
1069.54	860.335
1072.92	853.178
1076.29	872.674
1079.66	855.313
1083.04	854.846
1086.41	844.753
1089.79	833.347
1093.16	878.223
1096.54	831.131
1099.91	859.773
1103.29	866.872
1106.66	870.491
1110.04	834.335
1113.41	856.435
1116.79	850.639
1120.16	870.263
1123.54	823.252
1126.91	866.971
1130.29	867.327
1133.66	865.711
1137.04	866.646
1140.41	859.437
1143.79	879.183
1147.16	883.268
1150.54	886.809
1153.91	867.689
1157.29	855.238
1160.66	879.359
1164.04	854.814
1167.41	874.271
1170.79	868.367
1174.16	873.1
1177.54	895.003
1180.91	876.694
1184.29	884.667
1187.66	880.653
1191.03	895.934
1194.41	866.164
1197.78	885.389
1201.16	878.739
1204.53	890.553
1207.91	896.616
1211.28	903.978
1214.66	882.884
1218.03	913.707
1221.41	921.299
1224.78	906.253
1228.16	901.779
1231.53	926.772
1234.91	923.695
1238.28	922.096
1241.66	909.749
1245.03	934.927
1248.41	929.485
1251.78	934.369
1255.16	941.379
1258.53	951.759
1261.91	926.173
1265.28	920.756
1268.65	939.455
1272.03	944.445
1275.4	949.773
1278.78	947.159
1282.15	929.62
1285.53	931.717
1288.9	958.938
1292.28	920.136
