Measurement: Raman, 785 nm, unoriented, Raman Data RAW
Mineral: Gersdorffite-P213
Rruff sample: R070341
Ideal chemistry: Ni^3+^(AsS)^3-^
Locality: Lubietová (Libethen), Banská Bystrica (Neusohl) District, Banskobystrický kraj, Slovak Republic
Source: Michael Scott
Description: Grey metallic massive vein associated with siderite. Structure refined to determine space group.
Raman shift (cm-1)	intensity
107.038	117.26
109.931	141.766
112.823	202.106
115.716	349.798
118.609	426.52
121.501	450.266
124.394	614.622
127.287	964.854
130.18	1674.92
133.072	2405.93
135.965	1890.06
138.858	1429.7
141.75	1257.23
144.643	1444.45
147.536	1863.74
150.429	2077.37
153.321	1952.62
156.214	1389.32
159.107	1281.23
161.999	1356.1
164.892	1253.32
167.785	1129.1
170.677	1005.36
173.57	923.293
176.463	825.041
179.356	782.012
182.248	753.733
185.141	729.96
188.034	715.807
190.926	674.112
193.819	603.922
196.712	604.878
199.604	550.948
202.497	528.449
205.39	525.435
208.282	472.235
211.175	457.81
214.068	417.745
216.961	403.697
219.853	386.73
222.746	380.097
225.639	360.583
228.531	349.676
231.424	339.335
234.317	320.437
237.209	319.473
240.102	326.856
242.995	320.979
245.888	316.538
248.78	324.432
251.673	310.707
254.566	316.723
257.458	313.157
260.351	317.829
263.244	293.214
266.137	279.481
269.029	292.093
271.922	272.677
274.815	271.284
277.707	257.585
280.6	244.171
283.493	238.233
286.385	236.411
289.278	221.03
292.171	238.149
295.063	250.147
297.956	233.084
300.849	233.787
303.742	250.071
306.634	250.072
309.527	231.853
312.42	244.21
315.312	244.755
318.205	226.566
321.098	238.265
323.99	208.278
326.883	231.025
329.776	221.808
332.669	206.638
335.561	221.042
338.454	224.683
341.347	224.863
344.239	211.816
347.132	226.013
350.025	213.21
352.918	196.363
355.81	198.906
358.703	191.518
361.596	182.325
364.488	174.806
367.381	180.012
370.274	179.487
373.166	183.633
376.059	178.429
378.952	193.972
381.844	191.398
384.737	186.184
387.63	183.916
390.523	183.04
393.415	172.805
396.308	176.7
399.201	174.464
402.093	167.189
404.986	164.453
407.879	163.31
410.772	176.372
413.664	163.781
416.557	166.969
419.45	182.974
422.342	176.806
425.235	168.809
428.128	164.644
431.02	173.69
433.913	182.104
436.806	170.236
439.699	170.043
442.591	167.338
445.484	169.093
448.377	174.432
451.269	177.192
454.162	166.051
457.055	160.305
459.947	165.078
462.84	167.626
465.733	171.1
468.625	158.352
471.518	165.271
474.411	157.157
477.304	160.802
480.196	169.379
483.089	159.198
485.982	163.899
488.874	154.065
491.767	162.535
494.66	162.526
497.553	169.625
500.445	152.16
503.338	151.791
506.231	150.932
509.123	160.689
512.016	148.652
514.909	158.541
517.802	159.451
520.694	155.331
523.587	171.13
526.48	157.614
529.372	156.721
532.265	162.955
535.158	166.949
538.05	154.369
540.943	156.827
543.836	161.893
546.729	153.741
549.621	169.026
552.514	160.416
555.407	161.868
558.299	166.488
561.192	155.369
564.085	159.931
566.977	148.125
569.87	152.1
572.763	156.567
575.655	160.618
578.548	164.635
581.441	152.571
584.333	162.849
587.226	161.505
590.119	167.977
593.012	151.262
595.904	165.084
598.797	155.19
601.69	146.083
604.582	167.99
607.475	156.41
610.368	158.715
613.26	161.892
616.153	142.414
619.046	152.999
621.939	158.782
624.831	166.136
627.724	171.256
630.617	163.337
633.509	158.179
636.402	160.465
639.295	162.423
642.188	153.824
645.08	165.991
647.973	161.592
650.866	167.806
653.758	162.727
656.651	162.878
659.544	169.607
662.436	169.828
665.329	172.926
668.222	135.648
671.115	164.078
674.007	162.459
676.9	163.028
679.793	160.544
682.685	164.073
685.578	162.867
688.471	170.495
691.363	159.259
694.256	159.297
697.149	167.967
700.042	167.223
702.934	164.605
705.827	163.353
708.72	171.752
711.612	155.05
714.505	170.375
717.398	173.617
720.29	175.798
723.183	177.138
726.076	166.76
728.968	155.612
731.861	170.059
734.754	160.424
737.647	175.487
740.539	168.467
743.432	168.353
746.325	172.753
749.217	174.829
752.11	173.737
755.003	160.225
757.895	174.468
760.788	171.93
763.681	174.785
766.574	170.819
769.466	174.63
772.359	160.905
775.252	171.022
778.144	172.439
781.037	158.839
783.93	163.754
786.822	177.002
789.715	177.771
792.608	176.782
795.501	176.856
798.393	175.943
801.286	173.279
804.179	177.026
807.071	162.076
809.964	174.399
812.857	175.317
815.75	174.957
818.642	171.323
821.535	184.256
824.428	174.586
827.32	176.004
830.213	170.296
833.106	179.191
835.998	174.535
838.891	172.978
841.784	180.358
844.677	176.615
847.569	178.408
850.462	174.537
853.355	181.651
856.247	176.386
859.14	182.301
862.033	175.534
864.925	182.196
867.818	179.506
870.711	179.797
873.604	160.632
876.496	179.062
879.389	176.371
882.282	176.399
885.174	180.418
888.067	177.877
890.96	179.971
893.852	171.896
896.745	182.644
899.638	192.469
902.53	182.873
905.423	173.022
908.316	181.791
911.209	176.074
914.101	191.423
916.994	197.487
919.887	177.903
922.779	175.999
925.672	186.198
928.565	181.924
931.457	187.079
934.35	181.486
937.243	172.621
940.136	182.825
943.028	175.479
945.921	182.24
948.814	186.698
951.706	183.569
954.599	194.68
957.492	192.383
960.385	184.635
963.277	195.306
966.17	196.542
969.063	191.754
971.955	190.237
974.848	187.007
977.741	192.987
980.633	185.866
983.526	181.865
986.419	195.636
989.312	189.421
992.204	196.94
995.097	196.301
997.99	179.245
1000.88	187.712
1003.77	184.895
1006.67	189.913
1009.56	198.309
1012.45	188.892
1015.35	187.386
1018.24	187.18
1021.13	191.614
1024.02	175.528
1026.92	192.951
1029.81	196.386
1032.7	202.21
1035.6	195.277
1038.49	203.335
1041.38	207.956
1044.27	200.027
1047.17	204.536
1050.06	186.69
1052.95	208.571
1055.84	192.681
1058.74	193.629
1061.63	196.621
1064.52	198.725
1067.41	187.851
1070.31	191.985
1073.2	205.796
1076.09	184.866
1078.98	198.093
1081.88	205.474
1084.77	221.552
1087.66	200.439
1090.56	192.664
1093.45	209.194
1096.34	206.343
1099.23	206.313
1102.13	195.17
1105.02	201.15
1107.91	212.775
1110.81	209.39
1113.7	211.045
1116.59	216.558
1119.48	209.589
1122.38	202.922
1125.27	204.305
1128.16	204.156
1131.05	203.131
1133.95	207.008
1136.84	203.804
1139.73	200.518
1142.62	199.887
1145.52	200.057
1148.41	194.664
1151.3	203.351
1154.19	206.509
1157.09	197.714
1159.98	200.854
1162.87	210.417
1165.77	198.904
1168.66	209.231
1171.55	209.084
1174.44	208.595
1177.34	199.085
1180.23	208.698
1183.12	202.099
1186.02	207.184
1188.91	219.618
1191.8	209.831
1194.69	211.165
1197.59	215.456
1200.48	199.301
1203.37	211.008
1206.26	213.249
1209.16	211.123
1212.05	211.1
1214.94	220.939
1217.84	216.141
1220.73	210.646
1223.62	194.268
1226.51	219.697
1229.41	211.241
