Measurement: Raman, 785 nm, unoriented, Raman Data RAW
Mineral: Gersdorffite-Pca21
Rruff sample: R070342
Ideal chemistry: Ni^3+^(AsS)^3-^
Locality: Leichtenberg, Fichtelgebirge, Franconia, Bavaria, Germany
Source: Michael Scott
Description: Dark grey metallic grains embedded in epoxy. Structure refined to determine space group.
Measured chemistry: (Ni_0.94_Fe_0.04_Co_0.02_)_Σ=1_(As_0.99_Sb_0.01_)_Σ=1_S_1.00_
Raman shift (cm-1)	intensity
113.305	159.772
116.198	271.112
119.091	394.804
121.984	405.036
124.876	584.464
127.769	833.571
130.662	1270.63
133.554	1871.13
136.447	2174.33
139.34	1965.74
142.232	1351.87
145.125	1297.34
148.018	1749.81
150.911	2468.99
153.803	2133.89
156.696	1395.47
159.589	1203.03
162.481	1233.65
165.374	1030.97
168.267	968.533
171.16	892.772
174.052	823.485
176.945	777.453
179.838	668.557
182.73	602.964
185.623	596.163
188.516	623.492
191.408	571.882
194.301	555.303
197.194	561.178
200.087	483.569
202.979	541.282
205.872	525.927
208.765	499.628
211.657	488.326
214.55	490.682
217.443	484.225
220.335	461.122
223.228	413.56
226.121	378.043
229.013	359.865
231.906	336.924
234.799	320.016
237.692	326.112
240.584	308.27
243.477	304.702
246.37	291.799
249.262	290.05
252.155	288.004
255.048	292.281
257.941	282.062
260.833	278.37
263.726	279.206
266.619	272.981
269.511	264.891
272.404	274.656
275.297	265.937
278.19	268.229
281.082	264.977
283.975	274.816
286.868	268.583
289.76	262.549
292.653	257.087
295.546	248.648
298.438	256.438
301.331	251.171
304.224	259.267
307.116	253.273
310.009	265.416
312.902	264.149
315.795	262.413
318.687	251.89
321.58	246.977
324.473	245.527
327.365	238.617
330.258	228.727
333.151	244.474
336.043	235.701
338.936	246.694
341.829	243.594
344.721	237.883
347.614	238.67
350.507	235.845
353.4	233.718
356.292	233.055
359.185	221.101
362.078	224.111
364.97	217.678
367.863	218.705
370.756	217.579
373.649	217.357
376.541	215.404
379.434	227.021
382.327	220.277
385.219	227.144
388.112	220.565
391.005	217.078
393.897	218.883
396.79	222.302
399.683	213.611
402.575	209.357
405.468	210.951
408.361	216.893
411.254	211.545
414.146	217.13
417.039	201.435
419.932	217.655
422.824	211.491
425.717	208.559
428.61	209.496
431.502	204.809
434.395	205.454
437.288	209.46
440.181	212.287
443.073	208.606
445.966	214.093
448.859	211.771
451.751	215.308
454.644	201.798
457.537	212.312
460.43	212.127
463.322	201.225
466.215	210.481
469.108	207.917
472	209.387
474.893	205.529
477.786	209.67
480.678	210.814
483.571	199.545
486.464	214.673
489.356	206.901
492.249	208.209
495.142	219.634
498.035	205.922
500.927	208.023
503.82	203.585
506.713	210.031
509.605	204.637
512.498	194.673
515.391	201.305
518.284	194.577
521.176	210.515
524.069	207.181
526.962	201.567
529.854	202.326
532.747	208.489
535.64	198.65
538.533	207.109
541.425	208.816
544.318	202.982
547.211	203.017
550.103	206.763
552.996	193.832
555.889	205.714
558.781	198.773
561.674	204.837
564.567	213.078
567.459	211.388
570.352	209.896
573.245	203.119
576.138	203.549
579.03	212.84
581.923	204.064
584.816	202.555
587.708	197.66
590.601	213.206
593.494	206.919
596.386	197.164
599.279	215.446
602.172	199.494
605.064	204.829
607.957	199.018
610.85	208.275
613.743	205.855
616.635	210.117
619.528	202.502
622.421	210.865
625.313	211.874
628.206	218.613
631.099	204.117
633.991	215.09
636.884	211.609
639.777	214.13
642.67	200.853
645.562	210.394
648.455	214.653
651.348	198.777
654.24	208.079
657.133	199.404
660.026	209.088
662.918	201.622
665.811	215.271
668.704	187.026
671.597	200.847
674.489	215.339
677.382	209.483
680.275	217.666
683.167	212.383
686.06	207.925
688.953	209.813
691.846	215.467
694.738	217
697.631	213.376
700.524	217.774
703.416	217.617
706.309	211.507
709.202	223.856
712.094	216.276
714.987	213.437
717.88	230.918
720.773	214.318
723.665	216.429
726.558	228.847
729.451	214.556
732.343	218.923
735.236	210.842
738.129	205.981
741.021	209.932
743.914	214.857
746.807	219.784
749.699	215.54
752.592	213.566
755.485	214.921
758.378	221.546
761.27	211.878
764.163	202.522
767.056	205.714
769.948	215.779
772.841	220.39
775.734	218.137
778.626	212.539
781.519	213.312
784.412	199.522
787.305	202.168
790.197	216.785
793.09	212.826
795.983	216.481
798.875	210.506
801.768	208.354
804.661	215.349
807.553	209.557
810.446	214.595
813.339	221.283
816.232	202.492
819.124	208.808
822.017	224.624
824.91	204.078
827.802	224.986
830.695	212.121
833.588	207.92
836.481	216.916
839.373	210.976
842.266	219.216
845.159	219.809
848.051	202.772
850.944	210.371
853.837	217.44
856.729	225.067
859.622	218.905
862.515	212.966
865.408	213.151
868.3	206.568
871.193	215.7
874.086	221.677
876.978	220.386
879.871	207.85
882.764	212.655
885.656	210.815
888.549	216.893
891.442	207.674
894.335	223.207
897.227	217.66
900.12	221.745
903.013	218.579
905.905	214.291
908.798	215.966
911.691	215.201
914.583	204.323
917.476	223.722
920.369	218.598
923.261	212.103
926.154	223.046
929.047	228.299
931.94	214.102
934.832	217.229
937.725	215.277
940.618	215.926
943.51	219.449
946.403	231.096
949.296	222.453
952.188	224.315
955.081	225.46
957.974	220.831
960.867	215.844
963.759	222.765
966.652	215.185
969.545	218.872
972.437	225.804
975.33	215.432
978.223	225.538
981.115	219.598
984.008	215.115
986.901	225.641
989.794	216.711
992.686	218.256
995.579	214.179
998.472	211.192
1001.36	227.232
1004.26	214.36
1007.15	226.101
1010.04	228.783
1012.93	213.773
1015.83	224.467
1018.72	220.856
1021.61	216.629
1024.51	214.262
1027.4	225.221
1030.29	214.808
1033.18	218.446
1036.08	219.426
1038.97	225.887
1041.86	219.985
1044.76	233.505
1047.65	237.077
1050.54	228.736
1053.43	230.29
1056.33	227.038
1059.22	218.94
1062.11	227.98
1065	233.029
1067.9	213.674
1070.79	230.574
1073.68	225.987
1076.58	217.224
1079.47	225.11
1082.36	225.422
1085.25	225.374
1088.14	223.333
1091.04	230.187
1093.93	230.467
1096.82	239.055
1099.72	220.439
1102.61	230.396
1105.5	228.18
1108.39	230.719
1111.29	230.159
1114.18	224.776
1117.07	235.044
1119.96	226.789
1122.86	229.114
1125.75	236.397
1128.64	225.987
1131.54	227.327
1134.43	219.22
1137.32	227.708
1140.21	244.489
1143.11	219.846
1146	228.011
1148.89	223.217
1151.79	236.701
1154.68	229.967
1157.57	220.491
1160.46	232.205
1163.36	230.217
1166.25	239.986
1169.14	227.676
1172.03	227.488
1174.93	223.867
1177.82	222.891
1180.71	223.389
1183.6	225.078
1186.5	238.142
1189.39	235.163
1192.28	229.656
1195.17	227.173
1198.07	225.73
1200.96	231.679
1203.85	240.752
1206.75	230.01
1209.64	231.368
1212.53	225.197
1215.42	230.736
1218.32	232.692
1221.21	228.391
1224.1	235.145
1226.99	233.029
1229.89	227.883
