Measurement: Raman, 532 nm, unoriented, Raman Data Processed
Mineral: Gianellaite
Rruff sample: R130648
Ideal chemistry: [(N^3-^Hg^2+^_2_)_2_](S^6+^O_4_)(H_2_O)_<i>x</i>_
Locality: Perry Pit, Mariposa mine, Terlingua District, Brewster County, Texas, USA
Source: Rock Currier
Description: Aggregate of granular vitreous yellow-grey to grey crystals on Fe-rich siliceous matrix
Raman shift (cm-1)	intensity
172.025	0
174.918	2.46582
177.81	16.095
180.703	19.4302
183.596	18.3686
186.488	23.7532
189.381	20.0674
192.274	12.0225
195.167	17.4971
198.059	0.779297
200.952	4.23193
203.845	1.67651
206.737	6.146
209.63	0.780029
212.523	3.78516
215.416	5.57812
218.308	2.43774
221.201	2.03833
224.094	10.6047
226.986	0.349365
229.879	1.52026
232.772	18.6834
235.664	31.4343
238.557	37.2082
241.45	39.8367
244.343	39.7664
247.235	37.7881
250.128	61.532
253.021	75.4907
255.913	79.9363
258.806	91.2144
261.699	97.8398
264.591	108.857
267.484	114.94
270.377	128.935
273.27	137.794
276.162	153.362
279.055	156.443
281.948	159.09
284.84	176.15
287.733	181.438
290.626	170.423
293.519	154.315
296.411	140.707
299.304	126.665
302.197	114.228
305.089	96.5666
307.982	72.7927
310.875	56.6406
313.767	42.749
316.66	44.3398
319.553	38.0947
322.445	32.126
325.338	40.0862
328.231	27.9812
331.124	20.0908
334.016	24.156
336.909	21.0212
339.802	15.9407
342.694	4.98242
345.587	3.67163
348.48	38.6133
351.373	14.2175
354.265	6.68091
357.158	9.27271
360.051	4.0979
362.943	11.4929
365.836	10.0222
368.729	4.11939
371.621	5.83521
374.514	2.90894
377.407	3.47754
380.3	0.405518
383.192	4.53516
386.085	2.33008
388.978	1.50806
391.87	1.13037
394.763	8.01489
397.656	18.5757
400.548	14.0146
403.441	7.521
406.334	0.656006
409.226	7.69946
412.119	17.7918
415.012	30.3547
417.905	21.9514
420.797	28.2805
423.69	40.2461
426.583	62.3801
429.475	78.9849
432.368	84.7876
435.261	80.8323
438.154	78.0813
441.046	90.8176
443.939	80.429
446.832	88.3919
449.724	79.8237
452.617	77.9661
455.51	73.9924
458.402	70.1797
461.295	65.1951
464.188	48.2393
467.08	37.3838
469.973	34.3809
472.866	48.666
475.759	18.4104
478.651	17.4697
481.544	1.42725
484.437	9.84766
487.329	2.32422
490.222	2.36255
493.115	2.89502
496.007	3.7168
498.9	12.8469
501.793	2.21631
504.686	0.516846
507.578	12.9851
510.471	16.6445
513.364	31.8018
516.256	39.1377
519.149	49.1025
522.042	75.3237
524.934	100.205
527.827	122.932
530.72	174.353
533.613	221.269
536.505	269.349
539.398	345.429
542.291	454.618
545.183	599.784
548.076	795.918
550.969	1050.67
553.861	1354.67
556.754	1672.6
559.647	1955.31
562.54	2103.19
565.432	2088.01
568.325	1942.26
571.218	1730.17
574.11	1503.34
577.003	1268.69
579.896	1062.42
582.788	890.68
585.681	742.75
588.574	621.76
591.467	516.713
594.359	423.978
597.252	360.873
600.145	304.277
603.037	256.169
605.93	212.197
608.823	176.633
611.716	128.314
614.608	91.186
617.501	68.978
620.394	55.3105
623.286	44.958
626.179	26.1509
629.072	27.5332
631.964	21.8852
634.857	15.4238
637.75	15.8213
640.643	0.936523
643.535	2.71387
646.428	9.84473
649.321	8.0166
652.213	11.4165
655.106	1.24512
657.999	13.4102
660.891	5.19678
663.784	3.81982
666.677	6.86523
669.569	10.4658
672.462	0.853516
675.355	4.62061
678.248	6.61719
681.14	3.06103
684.033	3.11719
686.926	4.94482
689.818	3.70019
692.711	17.5029
695.604	15.4839
698.496	13.5391
701.389	11.1587
704.282	9.98242
707.175	17.6382
710.067	13.9868
712.96	22.7832
715.853	21.8506
718.745	21.1001
721.638	22.5884
724.531	26.7549
727.423	17.8081
730.316	20.5327
733.209	25.209
736.102	17.77
738.994	20.6494
741.887	13.3042
744.78	23.7842
747.672	18.1846
750.565	21.8364
753.458	11.7422
756.351	5.04541
759.243	5.20117
762.136	7.34375
765.029	12.479
767.921	10.1274
770.814	12.5278
773.707	18.1797
776.599	21.5332
779.492	19.4082
782.385	23.6577
785.278	16.9917
788.17	17.4458
791.063	17.0659
793.956	14.4238
796.848	9.80957
799.741	16.8955
802.634	20.7412
805.526	19.4375
808.419	12.5425
811.312	17.0532
814.205	12.8633
817.097	18.8599
819.99	29.1792
822.883	23.4082
825.775	25.3267
828.668	19.457
831.561	22.5005
834.453	19.4346
837.346	21.5703
840.239	28.9214
843.132	22.6357
846.024	14.3105
848.917	15.2109
851.81	24.5186
854.702	12.623
857.595	10.9277
860.488	14.5098
863.38	23.9473
866.273	22.2446
869.166	70.9106
872.059	16.9375
874.951	4.89648
877.844	4.10059
880.737	3.51514
883.629	6.68311
886.522	1.87891
889.415	8.68506
892.308	1.78809
895.2	3.46582
898.093	16.1675
900.986	5.58252
903.878	9.96875
906.771	11.3784
909.664	5.87842
912.556	3.10156
915.449	6.85693
918.342	0.758301
921.235	9.24121
924.127	19.1558
927.02	23.6831
929.913	35.1592
932.805	30.7314
935.698	56.6035
938.591	93.5171
941.483	165.728
944.376	260.911
947.269	389.215
950.162	518.331
953.054	620.381
955.947	588.751
958.84	450.68
961.732	268.629
964.625	131.58
967.518	64.8008
970.41	34.5391
973.303	21.6499
976.196	26.1763
979.088	13.1914
981.981	11.7842
984.874	3.00098
987.767	2.32715
990.659	3.99268
993.552	6.04492
996.445	6.58398
999.337	2.35644
1002.23	2.91504
1005.12	5.29785
1008.02	16.1304
1010.91	10.1792
1013.8	24.8843
1016.69	23.1689
1019.59	18.6582
1022.48	15.3906
1025.37	22.0102
1028.26	30.7764
1031.16	31.0156
1034.05	36.6113
1036.94	30.5073
1039.84	36.3643
1042.73	44.7393
1045.62	47.52
1048.51	54.707
1051.41	58.4995
1054.3	55.8379
1057.19	53.1431
1060.08	53.2622
1062.98	57.2949
1065.87	48.0185
1068.76	49.1294
1071.65	41.354
1074.55	47.1924
1077.44	38.8013
1080.33	35.3218
1083.23	33.625
1086.12	38.6484
1089.01	37.2441
1091.9	37.2827
1094.8	33.581
1097.69	24.2983
1100.58	27.9058
1103.47	27.0015
1106.37	21.4658
1109.26	27.769
1112.15	26.9121
1115.05	26.6504
1117.94	18.3896
1120.83	6.24219
1123.72	2.7959
1126.62	3.75488
1129.51	5.86426
1132.4	2.18994
1135.29	8.61426
1138.19	0.518066
1141.08	7.12549
1143.97	8.66113
1146.87	7.56299
1149.76	1.44238
1152.65	6.896
1155.54	16.8657
1158.44	14.5449
1161.33	11.4692
1164.22	32.3057
1167.11	19.8838
1170.01	18.9839
1172.9	20.166
1175.79	16.1338
1178.68	20.4336
1181.58	21.9531
1184.47	29.4819
1187.36	29.6089
1190.26	44.0981
1193.15	26.5742
1196.04	36.8198
1198.93	35.1953
1201.83	23.2617
1204.72	24.9155
1207.61	25.1641
1210.51	24.417
1213.4	52.6758
1216.29	15.3286
1219.18	20.6797
1222.08	31.3037
1224.97	22.2803
1227.86	16.915
1230.75	18.7661
1233.65	13.981
1236.54	9.42871
1239.43	6.31543
1242.32	8.66943
1245.22	13.3701
1248.11	19.1689
1251	12.8911
1253.89	20.8428
1256.79	24.3081
1259.68	12.9243
1262.57	10.5713
1265.47	9.01514
1268.36	18.4521
1271.25	13.6265
1274.14	8.94482
1277.04	4.99902
1279.93	4.17236
1282.82	5.1084
1285.71	14.9014
1288.61	23.3467
1291.5	13.5708
1294.39	3.31836
1297.29	4.13721
1300.18	0.644043
