Measurement: Raman, 780 nm, unoriented, Raman Data Processed
Mineral: Gianellaite
Rruff sample: R130648
Ideal chemistry: [(N^3-^Hg^2+^_2_)_2_](S^6+^O_4_)(H_2_O)_<i>x</i>_
Locality: Perry Pit, Mariposa mine, Terlingua District, Brewster County, Texas, USA
Source: Rock Currier
Description: Aggregate of granular vitreous yellow-grey to grey crystals on Fe-rich siliceous matrix
Raman shift (cm-1)	intensity
93.3677	0
96.7425	101.824
100.117	47.436
103.492	8.95752
106.867	36.3409
110.242	0.174683
113.617	13.0129
116.992	17.8383
120.366	20.354
123.741	70.3932
127.116	41.9611
130.491	0.723022
133.865	9.17578
137.24	5.12219
140.615	1.97314
143.99	7.27283
147.365	23.426
150.74	22.7822
154.114	38.8223
157.489	42.3957
160.864	49.7861
164.239	82.0513
167.614	38.9386
170.988	20.7918
174.363	21.6209
177.738	22.4758
181.113	24.4822
184.488	33.9873
187.863	29.2528
191.237	21.4542
194.612	10.0337
197.987	1.67542
201.362	0.110718
204.737	5.44128
208.112	9.12671
211.486	10.3528
214.861	11.0914
218.236	15.3441
221.611	15.8839
224.986	17.3212
228.36	22.53
231.735	20.2637
235.11	19.8785
238.485	22.3828
241.86	27.4446
245.234	31.6764
248.609	34.8549
251.984	41.1917
255.359	47.9847
258.734	54.9061
262.109	61.8904
265.483	68.2116
268.858	77.5911
272.233	84.4962
275.608	88.8059
278.983	92.7513
282.358	94.3855
285.732	94.9658
289.107	92.9047
292.482	91.8507
295.857	89.1494
299.232	71.6342
302.606	54.4471
305.981	39.3676
309.356	30.2472
312.731	21.6437
316.106	14.7004
319.481	12.9113
322.855	6.37549
326.23	7.02637
329.605	5.40637
332.98	3.96234
336.355	1.12219
339.729	0.746948
343.104	2.45862
346.479	0.296936
349.854	0.2901
353.229	1.23132
356.603	2.19287
359.978	0.067383
363.353	1.10858
366.728	2.09558
370.103	3.52313
373.478	2.2121
376.852	0.776367
380.227	1.82111
383.602	2.33148
386.977	4.52032
390.352	6.35761
393.726	4.98798
397.101	7.56726
400.476	8.18567
403.851	9.72376
407.226	13.2454
410.601	16.7709
413.975	20.8098
417.35	29.4106
420.725	39.002
424.1	51.3542
427.475	67.6277
430.849	78.5387
434.224	85.1052
437.599	81.0548
440.974	79.8776
444.349	74.5227
447.724	71.1519
451.098	64.7778
454.473	59.2907
457.848	55.7734
461.223	47.7064
464.598	42.8575
467.972	36.3114
471.347	29.2935
474.722	24.4896
478.097	15.8776
481.472	9.83691
484.846	5.24402
488.221	0.143433
491.596	0.853638
494.971	5.25684
498.346	6.4577
501.721	2.8913
505.095	3.95886
508.47	0.498413
511.845	5.21503
515.22	12.4235
518.595	21.1785
521.97	30.1437
525.344	45.2664
528.719	65.5669
532.094	88.1853
535.469	120.461
538.844	164.967
542.218	234.222
545.593	323.453
548.968	443.018
552.343	601.43
555.718	796.414
559.092	988.964
562.467	1125.62
565.842	1154.8
569.217	1082.81
572.592	952.649
575.967	817.878
579.341	676.041
582.716	554.775
586.091	450.817
589.466	360.952
592.841	297.884
596.216	248.264
599.59	210.565
602.965	172.747
606.34	138.546
609.715	103.318
613.09	77.0881
616.464	53.9128
619.839	36.119
623.214	26.8247
626.589	20.9861
629.964	15.0884
633.338	13.1241
636.713	11.5332
640.088	8.58923
643.463	7.01361
646.838	1.77911
650.213	1.80798
653.587	2.11316
656.962	1.62885
660.337	0.848328
663.712	0.923645
667.087	2.00134
670.462	1.77789
673.836	3.81134
677.211	0.355103
680.586	2.42511
683.961	3.2915
687.336	1.56348
690.71	1.63318
694.085	3.78967
697.46	0.645508
700.835	3.00378
704.21	5.90143
707.585	5.35693
710.959	5.04633
714.334	8.93719
717.709	9.15924
721.084	7.65155
724.459	9.32428
727.833	13.8723
731.208	12.6478
734.583	12.1226
737.958	11.3839
741.333	8.40735
744.707	8.40381
748.082	6.89807
751.457	4.83246
754.832	5.73987
758.207	6.20801
761.582	7.29205
764.956	6.16095
768.331	8.55902
771.706	4.974
775.081	3.99347
778.456	3.40478
781.83	2.88428
785.205	5.84265
788.58	4.4491
791.955	7.70154
795.33	6.7085
798.705	2.02747
802.079	3.7276
805.454	6.01184
808.829	8.29529
812.204	5.34906
815.579	4.76831
818.953	4.90961
822.328	4.95782
825.703	7.56134
829.078	4.96576
832.453	5.99109
835.827	6.2348
839.202	7.51709
842.577	10.188
845.952	9.54199
849.327	6.43768
852.702	8.96802
856.076	7.88043
859.451	7.18011
862.826	7.16797
866.201	5.71399
869.576	8.27332
872.951	7.1524
876.325	5.31561
879.7	6.50897
883.075	5.72742
886.45	2.24219
889.825	0.541748
893.199	0.988708
896.574	0.428406
899.949	1.63208
903.324	0.433472
906.699	1.03003
910.073	3.07147
913.448	0.008789
916.823	0.106079
920.198	0.851196
923.573	3.84064
926.948	6.66339
930.322	16.0497
933.697	23.8693
937.072	49.9462
940.447	87.6683
943.822	155.664
947.197	256.723
950.571	382.256
953.946	460.273
957.321	411.087
960.696	254.844
964.071	120.356
967.445	56.5315
970.82	26.7908
974.195	13.3597
977.57	7.15625
980.945	3.76935
984.319	1.69537
987.694	1.66791
991.069	0.24469
994.444	0.032715
997.819	9.42224
1001.19	7.74085
1004.57	2.65619
1007.94	3.05792
1011.32	4.88464
1014.69	5.36188
1018.07	6.93231
1021.44	10.2995
1024.82	12.9407
1028.19	14.1674
1031.57	14.8452
1034.94	16.2517
1038.32	16.2686
1041.69	17.0205
1045.07	20.7319
1048.44	19.2958
1051.82	23.8326
1055.19	21.6052
1058.57	22.7471
1061.94	21.8359
1065.32	21.3294
1068.69	19.5673
1072.07	16.8937
1075.44	17.2805
1078.81	16.3981
1082.19	13.8945
1085.56	16.1058
1088.94	11.0202
1092.31	11.3218
1095.69	13.7526
1099.06	12.3531
1102.44	9.00543
1105.81	11.761
1109.19	11.8501
1112.56	10.9927
1115.94	4.01398
1119.31	1.82819
1122.69	1.79437
1126.06	2.10187
1129.44	2.96643
1132.81	0.464722
1136.19	0.219299
1139.56	0.210693
1142.94	0.660461
1146.31	1.44958
1149.69	2.59241
1153.06	0.172546
1156.43	3.30243
1159.81	3.60608
1163.18	4.67877
1166.56	4.34747
1169.93	5.66229
1173.31	6.56787
1176.68	6.07977
1180.06	5.87036
1183.43	4.76379
1186.81	6.60992
1190.18	5.17053
1193.56	4.9599
1196.93	6.02161
1200.31	4.70117
1203.68	4.34668
1207.06	4.28961
1210.43	2.90643
1213.81	4.85254
1217.18	2.26141
1220.56	2.77173
1223.93	2.18231
1227.31	0.008362
1230.68	0.889648
1234.06	1.74982
1237.43	0.897034
1240.81	0.73938
1244.18	3.16425
1247.56	1.53516
1250.93	3.09369
1254.31	0.924683
1257.68	1.26105
1261.05	1.39471
1264.43	0.437439
1267.8	0.098206
1271.18	0.577698
1274.55	3.96112
1277.93	0.392456
1281.3	2.3078
