Measurement: Raman, 780 nm, unoriented, Raman Data Processed
Mineral: Gibbsite
Rruff sample: R190038
Ideal chemistry: Al(OH)_3_
Locality: Mokrá, Žlutice, Karlovy Vary District, Karlovy Vary Region, Czech Republic
Source: Jim McGlasson
Description: Brownish yellow hemispheres of gibbsite on black matrix.
Raman shift (cm-1)	intensity
94.3317	0
97.7065	0.971313
101.081	4.32544
104.456	5.54529
107.831	18.1309
111.206	8.12042
114.581	12.3316
117.955	1.09949
121.33	2.4165
124.705	3.18195
128.08	9.15375
131.455	11.6301
134.829	14.3852
138.204	20.2696
141.579	16.1408
144.954	9.9845
148.329	17.5714
151.704	7.83374
155.078	21.0141
158.453	11.6155
161.828	12.6099
165.203	5.65179
168.578	6.37921
171.952	0.722961
175.327	1.04437
178.702	1.24615
182.077	2.46661
185.452	3.80987
188.827	10.2595
192.201	7.01227
195.576	8.42188
198.951	18.428
202.326	17.7342
205.701	29.5149
209.076	25.4104
212.45	20.9823
215.825	24.5977
219.2	19.9604
222.575	14.8881
225.95	12.6063
229.324	15.2808
232.699	17.1554
236.074	18.5758
239.449	19.7155
242.824	20.3195
246.198	16.5536
249.573	7.83179
252.948	11.7145
256.323	7.38278
259.698	9.87997
263.073	9.91995
266.447	9.064
269.822	9.66867
273.197	0.737457
276.572	1.34903
279.947	5.44315
283.322	0.699524
286.696	1.39316
290.071	8.00183
293.446	7.46637
296.821	7.32193
300.196	6.49533
303.57	6.47232
306.945	5.53998
310.32	10.6595
313.695	12.3082
317.07	4.9386
320.445	11.7023
323.819	13.989
327.194	7.10532
330.569	11.334
333.944	10.4541
337.319	4.81534
340.693	2.72095
344.068	7.3916
347.443	5.41898
350.818	4.05817
354.193	1.26767
357.567	0.801727
360.942	1.00497
364.317	1.02261
367.692	4.40076
371.067	3.89847
374.442	3.38278
377.816	0.951233
381.191	2.96518
384.566	2.73035
387.941	0.068359
391.316	8.09848
394.69	5.37857
398.065	8.13562
401.44	9.27154
404.815	11.6839
408.19	19.2102
411.565	17.7286
414.939	18.6487
418.314	17.6145
421.689	19.3412
425.064	21.6581
428.439	20.7299
431.813	19.5091
435.188	25.3133
438.563	31.143
441.938	42.1145
445.313	51.5102
448.688	65.2817
452.062	78.3485
455.437	94.9116
458.812	108.583
462.187	110.485
465.562	110.511
468.937	110.458
472.311	102.373
475.686	93.7326
479.061	83.5156
482.436	78.9259
485.81	70.3147
489.185	59.405
492.56	37.8037
495.935	29.3243
499.31	24.7553
502.685	9.76819
506.059	9.27484
509.434	6.48529
512.809	0.063385
516.184	1.67596
519.559	0.252777
522.933	1.60931
526.308	6.36807
529.683	4.23611
533.058	6.63117
536.433	3.92169
539.808	3.26926
543.182	3.02841
546.557	1.93515
549.932	1.43976
553.307	2.3176
556.682	0.205811
560.057	0.298035
563.431	2.40353
566.806	0.63797
570.181	4.89365
573.556	1.4126
576.931	3.02811
580.305	1.62534
583.68	5.00326
587.055	2.9986
590.43	7.01053
593.805	3.87872
597.18	0.319763
600.554	6.20493
603.929	4.4545
607.304	4.15012
610.679	3.93002
614.054	2.42783
617.428	2.08194
620.803	4.77014
624.178	5.1962
627.553	5.27057
630.928	2.5231
634.303	4.28686
637.677	5.08368
641.052	9.88568
644.427	7.71484
647.802	6.02673
651.177	3.1398
654.552	2.73077
657.926	4.8598
661.301	2.80756
664.676	3.74478
668.051	5.24762
671.426	7.54428
674.8	6.44731
678.175	5.47766
681.55	4.52899
684.925	12.4565
688.3	0.907822
691.674	2.62082
695.049	2.27643
698.424	4.3942
701.799	2.32288
705.174	9.14024
708.548	7.41928
711.923	6.74705
715.298	7.33404
718.673	8.72684
722.048	1.67885
725.423	9.79346
728.797	6.35742
732.172	2.06093
735.547	0.642197
738.922	2.67398
742.297	6.57883
745.672	7.24603
749.046	8.55939
752.421	5.79927
755.796	3.14772
759.171	2.7644
762.546	1.99133
765.92	0.109299
769.295	1.16946
772.67	3.71623
776.045	3.88718
779.42	0.864868
782.795	0.32959
786.169	1.47086
789.544	7.29671
792.919	3.6682
796.294	6.70618
799.669	2.22621
803.043	6.20123
806.418	2.81296
809.793	5.99481
813.168	6.78894
816.543	7.12926
819.918	8.15504
823.292	2.50018
826.667	2.65411
830.042	5.32256
833.417	5.31427
836.792	7.11606
840.166	6.17247
843.541	7.0575
846.916	8.10774
850.291	7.04034
853.666	6.64383
857.04	6.32713
860.415	6.26508
863.79	11.208
867.165	6.41751
870.54	4.0881
873.915	7.97025
877.289	6.97436
880.664	6.17006
884.039	6.41888
887.414	3.96973
890.789	4.11536
894.163	1.7728
897.538	1.30362
900.913	0.181183
904.288	4.07474
907.663	1.88774
911.038	6.50055
914.412	2.87636
917.787	4.79564
921.162	0.454193
924.537	5.17162
927.912	1.07532
931.287	2.63614
934.661	2.06752
938.036	1.8122
941.411	4.067
944.786	7.96114
948.161	0.276596
951.535	1.15208
954.91	2.14142
958.285	0.653763
961.66	1.80078
965.035	8.19965
968.409	4.43582
971.784	3.22093
975.159	0.655426
978.534	2.56508
981.909	5.5286
985.284	6.5323
988.658	5.89677
992.033	6.2617
995.408	1.5677
998.783	4.15848
1002.16	5.95512
1005.53	7.5652
1008.91	2.95367
1012.28	5.0074
1015.66	5.08014
1019.03	1.59978
1022.41	3.89604
1025.78	7.60065
1029.16	1.90738
1032.53	5.74118
1035.91	3.5631
1039.28	4.93433
1042.66	7.06961
1046.03	3.98238
1049.4	1.64447
1052.78	0.250641
1056.15	8.62569
1059.53	7.75264
1062.9	9.33894
1066.28	9.25874
1069.65	6.40427
1073.03	6.22629
1076.4	2.65185
1079.78	6.29311
1083.15	8.36877
1086.53	4.11498
1089.9	4.50159
1093.28	5.4648
1096.65	5.95042
1100.03	0.852448
1103.4	2.08273
1106.78	8.6432
1110.15	1.15311
1113.53	1.40219
1116.9	6.10991
1120.28	3.37006
1123.65	2.26466
1127.03	0.191742
1130.4	1.6499
1133.78	0.396606
1137.15	3.93063
1140.53	1.23279
1143.9	6.55054
1147.28	0.222626
1150.65	0.397141
1154.03	4.15829
1157.4	3.02016
1160.77	4.41354
1164.15	6.31445
1167.52	3.36722
1170.9	6.13596
1174.27	6.05426
1177.65	4.88332
1181.02	0.91153
1184.4	3.7411
1187.77	3.47173
1191.15	3.51118
1194.52	5.65082
1197.9	6.44189
1201.27	8.22552
1204.65	4.84612
1208.02	4.00766
1211.4	0.349503
1214.77	5.66954
1218.15	7.31209
1221.52	1.76917
1224.9	3.33627
1228.27	2.66167
1231.64	0.088928
1235.02	2.29462
1238.39	4.86649
1241.77	2.38794
1245.14	2.20004
1248.52	0.80899
1251.89	2.02049
1255.27	9.92215
1258.64	7.21683
1262.02	10.2629
1265.39	6.40968
1268.77	5.34911
1272.14	0.305405
1275.52	2.76024
1278.89	1.15358
1282.27	0
