Measurement: Raman, 532 nm, unoriented, Raman Data Processed
Mineral: Gibbsite
Rruff sample: R190038
Ideal chemistry: Al(OH)_3_
Locality: Mokrá, Žlutice, Karlovy Vary District, Karlovy Vary Region, Czech Republic
Source: Jim McGlasson
Description: Brownish yellow hemispheres of gibbsite on black matrix.
Raman shift (cm-1)	intensity
143.098	0
146.473	9.78186
149.848	20.7533
153.222	29.6359
156.597	34.6216
159.972	19.9736
163.347	33.7654
166.722	14.7889
170.097	12.5901
173.471	14.8539
176.846	8.25574
180.221	8.35632
183.596	5.73498
186.971	7.52393
190.345	11.5673
193.72	12.2054
197.095	19.6422
200.47	9.72644
203.845	5.29333
207.22	18.1235
210.594	29.7189
213.969	31.1912
217.344	29.4374
220.719	17.0356
224.094	10.9178
227.469	5.68689
230.843	9.4646
234.218	6.89368
237.593	4.77954
240.968	4.02271
244.343	8.73303
247.717	13.9653
251.092	1.67481
254.467	0.432373
257.842	19.9354
261.217	9.81909
264.591	1.61621
267.966	0.832275
271.341	9.57752
274.716	12.2588
278.091	10.3541
281.466	7.47498
284.84	10.0678
288.215	13.6428
291.59	8.23962
294.965	3.61865
298.34	11.5436
301.714	16.475
305.089	22.5856
308.464	9.84009
311.839	12.4656
315.214	10.7288
318.589	3.05688
321.963	8.59399
325.338	15.8791
328.713	20.4946
332.088	10.8354
335.463	10.4082
338.837	21.646
342.212	12.5847
345.587	13.8086
348.962	13.5188
352.337	1.92065
355.712	11.4382
359.086	5.55396
362.461	4.65454
365.836	5.09229
369.211	13.9385
372.586	2.71021
375.96	2.74951
379.335	2.05615
382.71	4.05737
386.085	8.45703
389.46	9.65479
392.834	18.1638
396.209	24.0713
399.584	28.2571
402.959	41.4492
406.334	36.3897
409.709	52.2256
413.083	68.9836
416.458	59.5855
419.833	64.1401
423.208	31.6575
426.583	45.344
429.957	47.1099
433.332	54.3083
436.707	54.6668
440.082	87.9495
443.457	108.089
446.832	145.405
450.206	166.489
453.581	189.652
456.956	239.196
460.331	252.162
463.706	266.386
467.08	269.41
470.455	243.257
473.83	238.761
477.205	226.714
480.58	213.547
483.955	197.884
487.329	157.304
490.704	120.607
494.079	97.5881
497.454	66.832
500.829	46.9126
504.204	22.7617
507.578	19.552
510.953	20.9692
514.328	7.94092
517.703	12.4053
521.078	1.34814
524.452	5.79907
527.827	10.3127
531.202	0.324219
534.577	11.2021
537.952	9.4668
541.327	20.0064
544.701	7.48193
548.076	6.96802
551.451	1.30395
554.826	9.56763
558.201	1.99536
561.575	0.613525
564.95	0.289551
568.325	10.3032
571.7	8.70508
575.075	3.76611
578.449	10.221
581.824	8.86084
585.199	25.2712
588.574	18.4353
591.949	11.9539
595.323	16.3362
598.698	9.21191
602.073	1.42554
605.448	10.167
608.823	18.6626
612.198	27.2566
615.572	27.0903
618.947	25.2417
622.322	4.84644
625.697	11.8706
629.072	6.31274
632.447	12.761
635.821	14.8013
639.196	19.4678
642.571	17.3076
645.946	13.957
649.321	15.999
652.695	16.4758
656.07	6.26904
659.445	2.68603
662.82	11.9824
666.195	13.8076
669.569	19.9436
672.944	27.9075
676.319	10.6455
679.694	17.8923
683.069	17.2105
686.444	22.9436
689.818	5.81592
693.193	7.72021
696.568	2.26294
699.943	5.23779
703.318	2.50537
706.692	17.5339
710.067	23.687
713.442	15.8411
716.817	5.09717
720.192	8.37012
723.567	2.71948
726.941	13.7644
730.316	2.5166
733.691	6.89478
737.066	20.6375
740.441	19.2632
743.816	19.9526
747.19	19.1765
750.565	23.3252
753.94	20.2012
757.315	16.623
760.69	20.9544
764.064	17.6016
767.439	10.9248
770.814	24.4448
774.189	11.5203
777.564	13.5984
780.938	6.9375
784.313	12.5225
787.688	12.9058
791.063	13.7583
794.438	22.1404
797.813	16.5278
801.187	24.4695
804.562	9.9707
807.937	14.3706
811.312	0.953125
814.687	5.99487
818.062	14.1902
821.436	12.9485
824.811	11.9453
828.186	11.3054
831.561	22.384
834.936	32.0207
838.31	27.7947
841.685	31.6692
845.06	26.7615
848.435	23.5232
851.81	33.5088
855.184	28.6201
858.559	30.7239
861.934	6.08814
865.309	11.9446
868.684	19.3186
872.059	5.71265
875.433	5.11621
878.808	7.16138
882.183	7.35181
885.558	14.7891
888.933	23.6804
892.308	19.2266
895.682	4.24878
899.057	17.8208
902.432	18.9846
905.807	9.82544
909.182	0.600098
912.556	13.999
915.931	12.2039
919.306	21.3643
922.681	12.1919
926.056	2.99878
929.431	2.104
932.805	6.94824
936.18	3.27588
939.555	13.3481
942.93	13.4739
946.305	0.79248
949.679	9.44653
953.054	11.4238
956.429	5.92456
959.804	5.07251
963.179	26.0269
966.553	17.0142
969.928	4.05884
973.303	11.7573
976.678	8.94092
980.053	13.5591
983.428	5.41162
986.802	3.86963
990.177	22.8394
993.552	13.5967
996.927	8.55102
1000.3	11.1921
1003.68	28.7534
1007.05	24.3845
1010.43	17.8291
1013.8	18.2712
1017.18	10.6089
1020.55	1.93555
1023.92	24.718
1027.3	13.3718
1030.67	8.22803
1034.05	19.1702
1037.42	21.2752
1040.8	20.5886
1044.17	28.1238
1047.55	22.6196
1050.92	8.58984
1054.3	23.3247
1057.67	48.7205
1061.05	32.2983
1064.42	47.8782
1067.8	47.0276
1071.17	53.668
1074.55	38.4924
1077.92	40.721
1081.3	12.4949
1084.67	44.5691
1088.05	46.8669
1091.42	30.0913
1094.8	14.5442
1098.17	33.8533
1101.55	35.9802
1104.92	32.7913
1108.3	14.3828
1111.67	22.1919
1115.05	2.98828
1118.42	45.3562
1121.8	29.4399
1125.17	15.239
1128.55	3.21655
1131.92	14.6182
1135.29	16.6968
1138.67	26.5002
1142.04	14.8543
1145.42	12.5786
1148.79	9.78296
1152.17	11.8745
1155.54	24.3762
1158.92	21.4102
1162.29	15.4172
1165.67	16.0537
1169.04	1.00903
1172.42	14.198
1175.79	32.4551
1179.17	31.4041
1182.54	6.94995
1185.92	31.4065
1189.29	22.377
1192.67	26.29
1196.04	20.8218
1199.42	16.5083
1202.79	28.314
1206.17	9.03711
1209.54	1.88794
1212.91	17.7109
1216.29	15.3088
1219.66	16.7114
1223.04	10.7212
1226.41	7.70752
1229.79	9.08447
1233.16	0.364746
1236.54	6.05298
1239.91	14.5645
1243.29	0.114502
1246.66	18.1965
1250.04	29.0366
1253.41	25.6267
1256.79	24.9976
1260.16	39.4963
1263.54	32.6352
1266.91	8.66602
1270.29	11.313
1273.66	17.8286
1277.04	3.14404
1280.41	8.8501
1283.79	23.8765
1287.16	17.1802
1290.54	4.70044
1293.91	19.7483
1297.29	15.7127
1300.66	0
