Measurement: Raman, 532 nm, unoriented, Raman Data Processed
Mineral: Gilmarite
Rruff sample: R130688
Ideal chemistry: Cu^2+^_3_(As^5+^O_4_)(OH)_3_
Locality: El Guanaco mine, Guanaco, Santa Catalina, Antofagasta Province, Antofagasta Region, Chile
Source: Bob Jenkins
Description: Lozenge-shaped blue crystals
Raman shift (cm-1)	intensity
106.939	0
110.314	9.55563
113.689	46.1591
117.064	97.3767
120.439	129.808
123.813	185.92
127.188	193.445
130.563	156.278
133.938	151.963
137.313	205.574
140.687	217.812
144.062	148.657
147.437	102.929
150.812	77.841
154.187	77.9905
157.561	65.7919
160.936	59.5699
164.311	72.3133
167.686	88.0209
171.061	102.413
174.436	95.0794
177.81	76.463
181.185	35.7677
184.56	5.66171
187.935	4.14203
191.31	7.36581
194.685	6.50516
198.059	5.04446
201.434	2.61896
204.809	16.2684
208.184	32.6715
211.559	50.7421
214.933	58.9374
218.308	58.9957
221.683	48.6473
225.058	32.7012
228.433	30.5028
231.808	33.8848
235.182	33.7369
238.557	22.0178
241.932	6.16882
245.307	2.31662
248.682	1.9574
252.056	1.93201
255.431	5.16064
258.806	8.6654
262.181	9.31497
265.556	15.3917
268.93	25.037
272.305	39.1788
275.68	48.3253
279.055	43.7974
282.43	34.8715
285.805	25.6001
289.179	14.3262
292.554	6.51437
295.929	3.75824
299.304	6.548
302.679	12.6832
306.053	19.4593
309.428	26.321
312.803	44.1111
316.178	67.9416
319.553	99.1071
322.928	129.199
326.302	154.633
329.677	166.597
333.052	158.553
336.427	129.416
339.802	98.6231
343.176	70.457
346.551	53.7615
349.926	46.1572
353.301	36.3657
356.676	27.8548
360.051	26.0634
363.425	22.6633
366.8	21.2487
370.175	15.9912
373.55	5.43494
376.925	4.95242
380.3	11.4925
383.674	14.1666
387.049	10.3578
390.424	2.5376
393.799	10.9362
397.174	30.1882
400.548	56.127
403.923	84.9757
407.298	102.849
410.673	111.445
414.048	109.945
417.423	110.414
420.797	121.152
424.172	136.244
427.547	168.334
430.922	210.091
434.296	256.129
437.671	295.028
441.046	324.757
444.421	346.092
447.796	363.281
451.171	381.375
454.545	396.889
457.92	417.802
461.295	427.585
464.67	422.507
468.045	372.68
471.42	283.082
474.794	197.867
478.169	154.581
481.544	153.704
484.919	174.683
488.294	211.264
491.668	243.86
495.043	253.466
498.418	237.081
501.793	209.288
505.168	185.182
508.543	166.749
511.917	149.446
515.292	135.784
518.667	119.964
522.042	101.432
525.417	75.1916
528.791	51.7711
532.166	34.129
535.541	21.3279
538.916	13.5098
542.291	8.22577
545.665	2.47006
549.04	3.71829
552.415	6.73184
555.79	7.76361
559.165	5.84532
562.54	4.52814
565.914	2.8439
569.289	0.143097
572.664	1.76149
576.039	3.42137
579.414	6.81276
582.788	8.97694
586.163	10.1627
589.538	12.9888
592.913	14.6185
596.288	17.1705
599.663	17.5673
603.037	21.9116
606.412	22.4148
609.787	22.9782
613.162	22.1019
616.537	20.5784
619.912	18.9036
623.286	18.3463
626.661	17.0597
630.036	15.3639
633.411	16.0345
636.786	16.7788
640.16	17.2606
643.535	18.3331
646.91	18.741
650.285	19.519
653.66	19.2425
657.034	19.749
660.409	20.8393
663.784	20.7544
667.159	21.4755
670.534	21.0852
673.909	20.9522
677.283	20.4388
680.658	20.0209
684.033	18.4595
687.408	17.2376
690.783	17.2399
694.158	17.7524
697.532	12.3871
700.907	11.4991
704.282	8.82835
707.657	7.80971
711.032	7.58128
714.406	4.6557
717.781	3.21736
721.156	2.57526
724.531	1.84561
727.906	1.62543
731.28	2.85796
734.655	0.045288
738.03	0.67276
741.405	1.53066
744.78	1.02817
748.154	1.9883
751.529	3.18602
754.904	2.7836
758.279	0.895798
761.654	1.02537
765.029	0.440689
768.403	1.36682
771.778	4.48109
775.153	7.99355
778.528	11.2363
781.903	17.913
785.278	26.2065
788.652	37.6553
792.027	54.807
795.402	76.0494
798.777	106.832
802.152	143.492
805.526	193.864
808.901	255.355
812.276	330.024
815.651	416.821
819.026	494.76
822.4	522.989
825.775	530.811
829.15	569.096
832.525	663.594
835.9	794.156
839.275	880.513
842.649	820.962
846.024	667.718
849.399	490.368
852.774	341.873
856.149	243.854
859.524	187.647
862.898	164.31
866.273	143.147
869.648	128.711
873.023	111.988
876.398	95.6873
879.773	78.1471
883.147	63.8035
886.522	48.6557
889.897	38.806
893.272	25.9101
896.646	17.9872
900.021	9.82027
903.396	5.70508
906.771	1.92787
910.146	0.165787
913.521	2.32622
916.895	1.69369
920.27	2.56867
923.645	1.82161
927.02	1.96277
930.395	0.850311
933.769	1.94533
937.144	0.65065
940.519	1.31769
943.894	3.30798
947.269	3.61562
950.644	4.8103
954.018	5.97035
957.393	9.7272
960.768	8.30106
964.143	9.10327
967.518	7.18047
970.893	7.77812
974.267	8.45328
977.642	7.91623
981.017	6.24507
984.392	6.72839
987.767	5.58609
991.141	5.63794
994.516	5.26483
997.891	2.64203
1001.27	3.96269
1004.64	4.41956
1008.02	4.40094
1011.39	5.34915
1014.76	4.39751
1018.14	5.64055
1021.51	6.42978
1024.89	7.4317
1028.26	9.65337
1031.64	9.34753
1035.01	9.99213
1038.39	9.77086
1041.76	8.48465
1045.14	8.1283
1048.51	6.41176
1051.89	6.0937
1055.26	4.90599
1058.64	4.17474
1062.01	4.86289
1065.39	4.88838
1068.76	3.85202
1072.14	3.78973
1075.51	3.49036
1078.89	3.77206
1082.26	3.04921
1085.64	3.0847
1089.01	2.62006
1092.39	3.25691
1095.76	2.63602
1099.14	0.930771
1102.51	1.41484
1105.88	0.983231
1109.26	0.055664
1112.63	0.346207
1116.01	0.452728
1119.38	0.761032
1122.76	0.497452
1126.13	0.568085
1129.51	0.16507
1132.88	0.955231
1136.26	0.117188
1139.63	0.252716
1143.01	0.660431
1146.38	1.4781
1149.76	0.113205
1153.13	1.81895
1156.51	0.869446
1159.88	1.34689
1163.26	1.25662
1166.63	1.80115
1170.01	1.86296
1173.38	1.62237
1176.76	0.967026
1180.13	2.12454
1183.51	1.36099
1186.88	1.96617
1190.26	4.89522
1193.63	1.43454
1197.01	2.31712
1200.38	0.545563
1203.76	0.591354
1207.13	0.991806
1210.51	1.44128
1213.88	1.04459
1217.25	2.25981
1220.63	0.707397
1224	0.676849
1227.38	1.18514
1230.75	1.3786
1234.13	1.29096
1237.5	0.01149
1240.88	0.594498
1244.25	1.42058
1247.63	1.06744
1251	0.515182
1254.38	0.727646
1257.75	1.1236
1261.13	1.85484
1264.5	0.899063
1267.88	0.943039
1271.25	0.771561
1274.63	2.11826
1278	0.143066
1281.38	0.756836
1284.75	0.519135
1288.12	0.623215
1291.5	0.850327
1294.88	0.516632
1298.25	0.021744
