Measurement: Raman, 780 nm, unoriented, Raman Data Processed
Mineral: Gilmarite
Rruff sample: R130688
Ideal chemistry: Cu^2+^_3_(As^5+^O_4_)(OH)_3_
Locality: El Guanaco mine, Guanaco, Santa Catalina, Antofagasta Province, Antofagasta Region, Chile
Source: Bob Jenkins
Description: Lozenge-shaped blue crystals
Raman shift (cm-1)	intensity
93.8499	0
97.2247	1.76379
100.6	9.02283
103.974	0.156494
107.349	13.8529
110.724	8.81641
114.099	14.9697
117.474	11.7809
120.848	15.0158
124.223	20.9567
127.598	14.7174
130.973	5.30823
134.348	7.44727
137.722	6.30627
141.097	4.29114
144.472	0.510376
147.847	0.465698
151.222	1.74841
154.597	1.75989
157.971	3.14429
161.346	5.24915
164.721	5.01782
168.096	3.92065
171.471	4.64075
174.845	10.0984
178.22	12.6556
181.595	8.37531
184.97	14.0369
188.345	14.1507
191.72	11.8262
195.094	11.6919
198.469	12.6524
201.844	15.7368
205.219	17.4234
208.594	13.2705
211.969	16.5759
215.343	16.2445
218.718	18.3312
222.093	12.7653
225.468	10.2653
228.843	12.6256
232.217	7.86621
235.592	10.6002
238.967	8.35968
242.342	8.21533
245.717	7.15479
249.091	6.79242
252.466	4.02271
255.841	5.28833
259.216	2.67651
262.591	3.62872
265.966	3.38422
269.34	3.92035
272.715	2.06146
276.09	2.62445
279.465	5.91229
282.84	4.29077
286.214	2.74976
289.589	5.02893
292.964	1.08411
296.339	0.205322
299.714	1.69531
303.089	0.216248
306.463	0.401306
309.838	0.398499
313.213	2.93817
316.588	3.60614
319.963	1.90772
323.337	4.68304
326.712	6.89478
330.087	5.87042
333.462	7.72668
336.837	3.65338
340.212	1.79633
343.586	1.229
346.961	1.06262
350.336	1.15668
353.711	1.54382
357.086	1.12164
360.46	2.79065
363.835	3.41492
367.21	4.28815
370.585	0.046692
373.96	0.337097
377.334	1.24365
380.709	0.681091
384.084	0.140503
387.459	1.97412
390.834	1.18384
394.209	1.04901
397.583	5.25232
400.958	0.576904
404.333	3.12585
407.708	4.34381
411.083	1.07904
414.457	2.59064
417.832	5.30231
421.207	5.12
424.582	6.56091
427.957	5.61731
431.332	5.83911
434.706	5.98694
438.081	8.48852
441.456	8.53229
444.831	7.74029
448.206	10.4483
451.58	12.8371
454.955	12.7385
458.33	14.7427
461.705	11.7187
465.08	14.3908
468.455	9.72376
471.829	12.1647
475.204	7.42828
478.579	8.07886
481.954	8.52161
485.329	10.3878
488.704	7.93957
492.078	8.44708
495.453	7.76739
498.828	6.0484
502.203	6.97119
505.577	4.08234
508.952	5.50739
512.327	4.58807
515.702	2.46606
519.077	2.01971
522.452	0.745361
525.826	1.35071
529.201	0.549438
532.576	0.745178
535.951	0.442017
539.326	1.61853
542.701	2.49445
546.075	3.11432
549.45	0.302979
552.825	1.54114
556.2	1.25189
559.575	1.04883
562.949	1.03583
566.324	0.966919
569.699	3.3725
573.074	4.51794
576.449	4.23865
579.823	2.40955
583.198	6.47955
586.573	5.98517
589.948	4.37634
593.323	2.25501
596.698	2.53839
600.072	5.26978
603.447	3.32025
606.822	3.42944
610.197	3.40295
613.572	4.34412
616.947	4.4212
620.321	2.47974
623.696	2.51764
627.071	2.36267
630.446	6.08044
633.821	5.00433
637.195	4.08746
640.57	3.85602
643.945	4.07941
647.32	4.16235
650.695	4.37763
654.069	5.065
657.444	5.79901
660.819	2.13611
664.194	3.37756
667.569	1.97314
670.944	2.27783
674.318	1.13416
677.693	4.29456
681.068	0.788574
684.443	2.66303
687.818	1.24701
691.192	3.48737
694.567	0.513306
697.942	2.9588
701.317	1.46612
704.692	0.938599
708.067	0.117798
711.441	2.32214
714.816	4.21576
718.191	0.959656
721.566	2.30823
724.941	3.84277
728.316	5.05347
731.69	4.05103
735.065	2.29089
738.44	5.27588
741.815	3.32031
745.19	2.55273
748.564	3.21826
751.939	1.45038
755.314	0.034363
758.689	2.46869
762.064	2.28131
765.438	4.68274
768.813	0.88031
772.188	0.207825
775.563	0.712585
778.938	1.20172
782.313	0.402222
785.687	2.99603
789.062	2.95813
792.437	5.01276
795.812	3.39563
799.187	3.79688
802.562	6.6817
805.936	8.58887
809.311	8.48431
812.686	12.1091
816.061	15.0571
819.436	13.8997
822.81	17.0987
826.185	18.1901
829.56	20.1733
832.935	25.1571
836.31	25.9995
839.684	22.4083
843.059	20.8129
846.434	13.3803
849.809	13.7138
853.184	10.6362
856.558	5.74139
859.933	6.76617
863.308	4.46625
866.683	6.25647
870.058	4.758
873.433	6.34161
876.807	2.57349
880.182	5.2055
883.557	4.26141
886.932	1.80066
890.307	3.97882
893.682	0.260132
897.056	0.803467
900.431	2.03626
903.806	2.37988
907.181	0.388123
910.556	2.42529
913.93	0.135498
917.305	1.15362
920.68	1.49365
924.055	1.30798
927.43	0.202087
930.804	0.5979
934.179	1.651
937.554	0.495667
940.929	0.784485
944.304	1.35736
947.679	1.34699
951.053	0.372559
954.428	1.11206
957.803	2.11688
961.178	2.0545
964.553	1.55585
967.928	2.06232
971.302	0.245361
974.677	0.133423
978.052	0.353333
981.427	0.964783
984.802	0.03064
988.176	2.6026
991.551	2.13696
994.926	1.59039
998.301	3.35132
1001.68	2.20807
1005.05	1.19531
1008.42	2.32513
1011.8	1.58643
1015.17	2.91168
1018.55	2.52161
1021.92	3.57385
1025.3	2.85474
1028.67	2.22418
1032.05	1.94525
1035.42	3.67236
1038.8	4.47144
1042.17	1.20001
1045.55	4.00006
1048.92	1.91223
1052.3	4.18518
1055.67	4.50171
1059.05	5.13586
1062.42	5.2287
1065.8	5.27069
1069.17	5.05548
1072.55	6.3974
1075.92	4.65924
1079.3	4.05444
1082.67	5.07947
1086.05	4.49793
1089.42	2.38769
1092.8	2.25238
1096.17	4.03723
1099.55	3.77655
1102.92	2.11469
1106.3	3.53583
1109.67	2.5874
1113.05	3.03595
1116.42	1.87598
1119.79	0.584534
1123.17	0.027161
1126.54	0.419739
1129.92	3.05475
1133.29	5.64288
1136.67	0.549255
1140.04	1.83575
1143.42	2.07062
1146.79	1.93518
1150.17	1.03155
1153.54	7.00653
1156.92	5.27124
1160.29	5.87451
1163.67	5.46258
1167.04	5.99158
1170.42	6.17609
1173.79	3.3794
1177.17	4.21759
1180.54	3.53619
1183.92	3.04565
1187.29	5.65466
1190.66	3.45801
1194.04	6.10998
1197.41	4.36633
1200.79	3.94434
1204.16	3.33624
1207.54	4.56519
1210.91	4.29962
1214.29	3.60974
1217.66	3.45032
1221.04	2.48962
1224.41	2.47186
1227.79	2.638
1231.16	2.55536
1234.54	2.2829
1237.91	1.06165
1241.29	0.17572
1244.66	4.18225
1248.04	0.699036
1251.41	0.942688
1254.79	1.26874
1258.16	0.572815
1261.54	1.86835
1264.91	2.98206
1268.29	0.844177
1271.66	3.36176
1275.04	6.07599
1278.41	0.77887
1281.79	0.455627
