Measurement: Raman, 780 nm, unoriented, Raman Data Processed
Mineral: Glushinskite
Rruff sample: R060318
Ideal chemistry: Mg(C_2_)^6+^O_4_2H_2_O
Locality: Route 238, 25 miles west of Maricopa, Maricopa County, Arizona, USA
Source: Michael Scott
Description: Colorless granular spherical aggregate
Raman shift (cm-1)	intensity
118.92	0
122.294	1.97183
125.669	0.141022
129.044	1.07553
132.419	1.24734
135.794	4.22205
139.168	10.1136
142.543	17.7794
145.918	24.634
149.293	30.0694
152.668	34.9752
156.043	42.4679
159.417	45.0746
162.792	41.9876
166.167	35.6817
169.542	34.591
172.917	38.7162
176.292	48.0368
179.666	64.8753
183.041	78.3644
186.416	83.7451
189.791	70.8226
193.166	50.5971
196.54	36.3317
199.915	26.2155
203.29	19.7757
206.665	16.2475
210.04	12.5866
213.415	11.5017
216.789	11.07
220.164	10.077
223.539	7.73395
226.914	5.41455
230.289	2.81961
233.663	2.1409
237.038	0.198029
240.413	0.236237
243.788	0.509491
247.163	1.54993
250.537	0.886597
253.912	0.17627
257.287	2.5867
260.662	4.91772
264.037	5.87723
267.412	4.01706
270.786	3.04819
274.161	2.25851
277.536	0.542023
280.911	1.17633
284.286	0.044769
287.661	1.74158
291.035	2.08981
294.41	1.76907
297.785	0.417145
301.16	0.810394
304.535	1.15048
307.909	2.01868
311.284	2.20825
314.659	2.90201
318.034	1.9238
321.409	1.91269
324.784	2.23596
328.158	1.88269
331.533	3.01535
334.908	2.30597
338.283	3.71075
341.658	2.5759
345.032	4.24936
348.407	2.89514
351.782	1.13159
355.157	1.57355
358.532	1.81613
361.906	0.873779
365.281	0.647217
368.656	1.9484
372.031	1.34994
375.406	1.3952
378.781	0.611206
382.155	1.49823
385.53	0.770325
388.905	2.57446
392.28	2.44418
395.655	1.80743
399.029	2.75619
402.404	2.31519
405.779	1.67273
409.154	0.624542
412.529	0.993866
415.904	1.82745
419.278	2.15063
422.653	0.063202
426.028	1.3334
429.403	1.26126
432.778	0.320831
436.152	1.60797
439.527	2.73828
442.902	1.52051
446.277	1.0051
449.652	0.564484
453.027	0.166779
456.401	1.20593
459.776	2.78513
463.151	1.2175
466.526	2.13208
469.901	1.20966
473.276	1.11856
476.65	2.17267
480.025	0.7323
483.4	3.89212
486.775	2.1412
490.15	4.57346
493.524	6.05453
496.899	6.08392
500.274	7.66309
503.649	9.52261
507.024	8.30203
510.399	4.56396
513.773	4.05307
517.148	3.784
520.523	4.03259
523.898	4.19165
527.273	2.16971
530.647	1.64096
534.022	1.49927
537.397	1.487
540.772	0.811584
544.147	0.167725
547.521	0.599701
550.896	0.725647
554.271	2.84677
557.646	4.1142
561.021	2.55853
564.396	1.32166
567.77	1.1441
571.145	1.49069
574.52	0.956573
577.895	2.3923
581.27	2.3512
584.644	3.26077
588.019	2.64197
591.394	2.1665
594.769	3.35251
598.144	1.8313
601.519	2.88449
604.893	2.00269
608.268	1.10397
611.643	0.955444
615.018	0.271576
618.393	0.075287
621.768	2.26205
625.142	2.72803
628.517	1.42969
631.892	0.650879
635.267	1.81509
638.642	0.541901
642.016	2.3927
645.391	1.28409
648.766	0.074707
652.141	0.540344
655.516	0.707001
658.89	0.665863
662.265	1.29343
665.64	2.02237
669.015	3.02475
672.39	0.876892
675.765	0.824371
679.139	0.407684
682.514	1.55692
685.889	0.67453
689.264	0.382355
692.639	0.280029
696.014	1.11331
699.388	0.452728
702.763	0.825714
706.138	1.88953
709.513	1.73413
712.888	2.54825
716.262	1.47336
719.637	0.735901
723.012	1.14499
726.387	2.63788
729.762	1.38873
733.136	2.41202
736.511	1.37253
739.886	0.347748
743.261	0.694702
746.636	0.96991
750.011	0.066177
753.385	2.56844
756.76	0.607361
760.135	0.104828
763.51	0.497116
766.885	1.33901
770.26	0.820587
773.634	1.25064
777.009	1.4989
780.384	0.252686
783.759	0.5289
787.134	0.236313
790.508	1.56619
793.883	1.08933
797.258	0.753754
800.633	1.85805
804.008	1.32127
807.383	0.036713
810.757	0.661713
814.132	0.554153
817.507	0.571686
820.882	0.00676
824.257	0.938583
827.631	0.884109
831.006	1.06873
834.381	1.20027
837.756	1.36609
841.131	0.292709
844.505	1.64505
847.88	1.63325
851.255	0.185898
854.63	0.984253
858.005	1.51445
861.38	5.39046
864.754	2.72066
868.129	3.23726
871.504	1.69266
874.879	0.449295
878.254	2.18101
881.629	1.84143
885.003	0.345261
888.378	2.05106
891.753	2.22043
895.128	5.36395
898.503	9.87221
901.877	15.8712
905.252	26.5202
908.627	32.2062
912.002	27.3921
915.377	15.656
918.751	7.84454
922.126	3.92573
925.501	2.01405
928.876	1.84702
932.251	2.06659
935.625	1.39969
939	0.817169
942.375	1.84991
945.75	1.18713
949.125	0.234512
952.5	1.28192
955.875	0.932526
959.249	1.21301
962.624	0.345322
965.999	0.930984
969.374	0.153275
972.749	0.250565
976.123	0.117371
979.498	1.48715
982.873	1.82138
986.248	0.086487
989.623	0.954269
992.997	1.17848
996.372	1.19093
999.747	2.35657
1003.12	2.0721
1006.5	2.84407
1009.87	2.14288
1013.25	1.65622
1016.62	0.653656
1020	1.83371
1023.37	1.10258
1026.75	0.456863
1030.12	0.389496
1033.49	1.33437
1036.87	1.70996
1040.24	1.45193
1043.62	0.767197
1046.99	0.49054
1050.37	0.574646
1053.74	0.726807
1057.12	1.69203
1060.49	1.86508
1063.87	2.23132
1067.24	1.66858
1070.62	0.818146
1073.99	1.66992
1077.37	2.2753
1080.74	1.98456
1084.12	1.33276
1087.49	1.89456
1090.87	0.231796
1094.24	1.89542
1097.62	2.25168
1100.99	1.20073
1104.37	0.119064
1107.74	0.937637
1111.12	1.19981
1114.49	1.89301
1117.87	0.690002
1121.24	1.16361
1124.62	0.398285
1127.99	0.250992
1131.37	0.680191
1134.74	0.999649
1138.12	1.12022
1141.49	0.62056
1144.86	0.610123
1148.24	1.48978
1151.61	0.682297
1154.99	1.4455
1158.36	1.02274
1161.74	0.846527
1165.11	0.669586
1168.49	1.26202
1171.86	1.10169
1175.24	2.21018
1178.61	1.40007
1181.99	1.43082
1185.36	3.02097
1188.74	0.812668
1192.11	0.791718
1195.49	0.566666
1198.86	1.05791
1202.24	0.984375
1205.61	0.639694
1208.99	1.7048
1212.36	1.49022
1215.73	1.269
1219.11	1.32144
1222.48	1.06856
1225.86	0.356384
1229.23	0.598816
1232.61	1.90042
1235.98	0.917892
1239.36	0.913895
1242.73	2.04042
1246.11	0.760864
1249.48	1.30174
1252.86	1.34016
1256.23	0.795685
1259.61	1.39917
1262.98	2.65327
1266.36	1.56783
1269.73	2.22676
1273.11	0.712799
1276.48	1.91104
1279.86	0.547134
