Measurement: Raman, 532 nm, unoriented, Raman Data Processed
Mineral: Glushinskite
Rruff sample: R060318
Ideal chemistry: Mg(C_2_)^6+^O_4_2H_2_O
Locality: Route 238, 25 miles west of Maricopa, Maricopa County, Arizona, USA
Source: Michael Scott
Description: Colorless granular spherical aggregate
Raman shift (cm-1)	intensity
149.365	0
152.258	2.9577
155.151	9.98151
158.044	26.1111
160.936	37.7552
163.829	28.3495
166.722	17.6004
169.614	11.9346
172.507	26.3704
175.4	55.4718
178.293	88.478
181.185	128.155
184.078	171.519
186.971	190.879
189.863	178.558
192.756	140.234
195.649	107.5
198.542	73.0085
201.434	46.4764
204.327	29.9101
207.22	18.4597
210.112	17.1355
213.005	20.3243
215.898	19.0222
218.79	14.9441
221.683	12.0611
224.576	9.17688
227.469	7.67078
230.361	3.06073
233.254	1.33563
236.147	3.30908
239.039	4.53461
241.932	7.20221
244.825	0.706116
247.717	2.89728
250.61	6.47162
253.503	10.8422
256.396	21.4183
259.288	25.5057
262.181	31.3548
265.074	32.537
267.966	26.3255
270.859	24.3084
273.752	25.7923
276.644	19.3725
279.537	18.7091
282.43	16.0743
285.322	16.5396
288.215	18.341
291.108	16.0956
294.001	15.3032
296.893	12.4288
299.786	9.7301
302.679	9.45093
305.571	7.97553
308.464	8.5636
311.357	8.15076
314.25	3.59509
317.142	5.00848
320.035	4.05304
322.928	3.42053
325.82	6.51807
328.713	6.56287
331.606	5.09576
334.498	5.75952
337.391	6.06189
340.284	4.8139
343.176	8.78571
346.069	7.70502
348.962	7.4209
351.855	5.16589
354.747	7.15179
357.64	3.61591
360.533	3.23541
363.425	2.92725
366.318	6.88049
369.211	3.91968
372.103	3.90222
374.996	0.902588
377.889	1.81232
380.782	3.68951
383.674	3.72974
386.567	6.2926
389.46	4.47778
392.352	8.7655
395.245	7.27154
398.138	8.21472
401.031	10.503
403.923	6.68732
406.816	5.69434
409.709	4.34589
412.601	8.38379
415.494	6.55804
418.387	7.56317
421.279	1.72192
424.172	0.069458
427.065	2.82117
429.957	0.549072
432.85	1.58386
435.743	0.200928
438.636	3.01129
441.528	1.29352
444.421	0.842102
447.314	2.52094
450.206	3.68249
453.099	0.382263
455.992	1.35681
458.885	1.08203
461.777	2.8775
464.67	3.18872
467.563	1.75855
470.455	3
473.348	2.55158
476.241	0.185547
479.133	1.60516
482.026	0.864441
484.919	4.07043
487.812	7.08514
490.704	7.07538
493.597	12.66
496.49	21.9011
499.382	24.224
502.275	30.6476
505.168	35.6168
508.06	32.1021
510.953	27.8322
513.846	14.3372
516.739	7.13934
519.631	5.76141
522.524	4.3269
525.417	7.17206
528.309	2.84778
531.202	3.19537
534.095	3.25281
536.987	0.07959
539.88	2.04132
542.773	3.96747
545.665	1.05157
548.558	1.4826
551.451	0.068848
554.344	5.06702
557.236	0.213623
560.129	0.146484
563.022	0.672485
565.914	3.95264
568.807	5.43201
571.7	6.07922
574.592	1.43994
577.485	3.88379
580.378	7.19946
583.271	6.62036
586.163	6.89148
589.056	8.85754
591.949	2.76123
594.841	6.61047
597.734	6.02893
600.627	4.02271
603.519	4.63098
606.412	8.88281
609.305	5.34851
612.198	8.42896
615.09	14.6497
617.983	12.3038
620.876	7.86731
623.768	7.2085
626.661	4.34546
629.554	5.79163
632.447	2.47717
635.339	5.49902
638.232	8.39075
641.125	6.46069
644.017	6.3479
646.91	5.12903
649.803	7.34277
652.695	8.18018
655.588	4.54187
658.481	7.70947
661.374	4.4657
664.266	2.70923
667.159	7.12964
670.052	10.3293
672.944	9.89392
675.837	7.15857
678.73	3.31787
681.622	5.74182
684.515	7.64514
687.408	11.5945
690.301	4.93262
693.193	3.32703
696.086	2.72534
698.979	0.2677
701.871	3.25012
704.764	2.00586
707.657	3.23096
710.549	6.67688
713.442	5.42932
716.335	4.25342
719.227	3.22571
722.12	3.80127
725.013	1.50085
727.906	3.91199
730.798	2.1814
733.691	3.2594
736.584	12.0389
739.476	7.50684
742.369	6.13538
745.262	1.75171
748.154	1.96741
751.047	1.45874
753.94	6.14185
756.833	8.25342
759.725	8.37854
762.618	8.96558
765.511	3.3346
768.403	3.28125
771.296	4.51367
774.189	4.72131
777.082	4.41016
779.974	2.56921
782.867	3.08289
785.76	4.66638
788.652	2.79102
791.545	1.47083
794.438	6.18774
797.33	7.10474
800.223	5.71631
803.116	1.52673
806.009	0.293335
808.901	1.63977
811.794	3.51721
814.687	4.65186
817.579	0.622559
820.472	4.22961
823.365	3.74695
826.257	1.62244
829.15	4.67456
832.043	5.65979
834.936	6.67712
837.828	9.88501
840.721	8.85461
843.614	9.47668
846.506	4.56457
849.399	2.75549
852.292	3.328
855.184	7.23914
858.077	4.46863
860.97	4.67163
863.863	5.48157
866.755	7.46448
869.648	10.5111
872.541	4.22754
875.433	0.92395
878.326	0.126709
881.219	2.7439
884.111	6.33484
887.004	12.6201
889.897	15.3501
892.79	22.9365
895.682	32.8605
898.575	56.2217
901.468	95.4658
904.36	142.801
907.253	190.678
910.146	199.752
913.038	165.414
915.931	106.783
918.824	59.2213
921.717	27.6991
924.609	14.7477
927.502	8.48279
930.395	6.20996
933.287	2.78565
936.18	3.99365
939.073	1.37537
941.966	2.82092
944.858	0.371704
947.751	1.61536
950.644	2.71936
953.536	3.28662
956.429	0.021362
959.322	2.53967
962.214	0.035767
965.107	0.352661
968	0.395386
970.893	1.38904
973.785	1.70764
976.678	2.73022
979.571	4.08472
982.463	2.30347
985.356	0.49707
988.249	7.00867
991.141	6.50635
994.034	4.28906
996.927	6.74512
999.819	8.30286
1002.71	6.60901
1005.61	9.39771
1008.5	11.3706
1011.39	9.16467
1014.28	4.09827
1017.18	0.416748
1020.07	2.0271
1022.96	2.43945
1025.85	9.75488
1028.75	6.24414
1031.64	4.28564
1034.53	6.08545
1037.42	2.59302
1040.32	7.99646
1043.21	4.32996
1046.1	4.32861
1048.99	2.78198
1051.89	8.14734
1054.78	9.79456
1057.67	9.47839
1060.57	12.2596
1063.46	8.26782
1066.35	7.20117
1069.24	8.08423
1072.14	3.53101
1075.03	12.1053
1077.92	8.44507
1080.82	13.934
1083.71	10.6437
1086.6	12.838
1089.49	7.04297
1092.39	3.18127
1095.28	0.839233
1098.17	10.139
1101.06	12.5315
1103.96	12.7881
1106.85	3.83167
1109.74	2.79358
1112.63	5.4989
1115.53	2.44263
1118.42	5.71936
1121.31	12.1835
1124.21	6.99414
1127.1	0.123535
1129.99	2.59534
1132.88	9.33154
1135.78	5.172
1138.67	8.3501
1141.56	8.42346
1144.45	9.09876
1147.35	9.59375
1150.24	4.68335
1153.13	9.39648
1156.03	8.69409
1158.92	9.40283
1161.81	9.79663
1164.7	6.93652
1167.6	3.61902
1170.49	8.83203
1173.38	13.6611
1176.27	11.8187
1179.17	13.0925
1182.06	3.73584
1184.95	5.23059
1187.85	9.55298
1190.74	13.1768
1193.63	15.2682
1196.52	7.37463
1199.42	11.3291
1202.31	9.7229
1205.2	14.7161
1208.09	1.02258
1210.99	6.93164
1213.88	8.65857
1216.77	11.5266
1219.66	8.05994
1222.56	9.74512
1225.45	0.588623
1228.34	5.75574
1231.24	2.79199
1234.13	0.885742
1237.02	1.28235
1239.91	6.47827
1242.81	11.5591
1245.7	12.0886
1248.59	15.0264
1251.48	12.5933
1254.38	9.72485
1257.27	11.3268
1260.16	14.1941
1263.06	9.87683
1265.95	4.26648
1268.84	7.0481
1271.73	3.4679
1274.63	4.57727
1277.52	4.77722
1280.41	8.30383
1283.3	7.073
1286.2	8.24048
1289.09	0.106567
1291.98	6.65466
1294.88	8.04871
1297.77	7.96838
1300.66	0
