Measurement: Raman, 780 nm, unoriented, Raman Data Processed
Mineral: Goedkenite
Rruff sample: R130667
Ideal chemistry: Sr_2_Al(PO_4_)_2_(OH)
Locality: Palermo No. 1 mine, Groton, Grafton County, New Hampshire, USA
Source: Rock Currier
Description: Vitreous clusters of tabular colorless-to-white crystals with wedge-shaped form, associated with quartz in a vug.
Raman shift (cm-1)	intensity
93.8499	0
97.2247	1.66248
100.6	10.1404
103.974	0.956665
107.349	16.2398
110.724	21.7064
114.099	46.5378
117.474	58.2118
120.848	77.4611
124.223	86.9385
127.598	42.7111
130.973	24.211
134.348	30.9318
137.722	52.7738
141.097	41.5211
144.472	16.585
147.847	8.74396
151.222	3.4024
154.597	3.36597
157.971	0.082703
161.346	2.84045
164.721	10.4927
168.096	14.7239
171.471	15.0435
174.845	23.0356
178.22	29.7507
181.595	45.4822
184.97	56.6472
188.345	77.858
191.72	112.379
195.094	118.36
198.469	106.57
201.844	93.0596
205.219	68.7553
208.594	49.67
211.969	42.0814
215.343	46.053
218.718	61.6255
222.093	69.5916
225.468	54.025
228.843	27.8771
232.217	19.9253
235.592	19.001
238.967	19.1888
242.342	12.4989
245.717	11.3081
249.091	8.836
252.466	6.70496
255.841	10.3797
259.216	17.2807
262.591	27.1513
265.966	31.2765
269.34	28.0568
272.715	30.3477
276.09	38.4321
279.465	47.4877
282.84	77.176
286.214	102.422
289.589	96.8617
292.964	66.0964
296.339	47.5326
299.714	35.3151
303.089	11.7201
306.463	1.17834
309.838	6.50403
313.213	0.769592
316.588	3.92981
319.963	5.31732
323.337	5.20715
326.712	8.99567
330.087	9.70343
333.462	5.88965
336.837	2.92328
340.212	6.60065
343.586	4.47687
346.961	9.11377
350.336	16.1842
353.711	27.3024
357.086	40.0762
360.46	61.3055
363.835	94.3673
367.21	128.558
370.585	117.383
373.96	68.8278
377.334	28.0408
380.709	8.43249
384.084	0.931946
387.459	0.01239
390.834	0.341309
394.209	0.493164
397.583	1.6673
400.958	7.82989
404.333	16.3168
407.708	32.0423
411.083	58.5102
414.457	94.5165
417.832	151.407
421.207	229.125
424.582	314.254
427.957	320.326
431.332	253.763
434.706	171.756
438.081	100.886
441.456	63.53
444.831	53.7391
448.206	43.8321
451.58	26.7278
454.955	13.8386
458.33	8.29236
461.705	1.04401
465.08	1.63141
468.455	0.809082
471.829	2.97955
475.204	3.76269
478.579	14.3754
481.954	25.1463
485.329	41.1091
488.704	68.2274
492.078	95.0228
495.453	89.3071
498.828	56.6445
502.203	31.9507
505.577	21.069
508.952	18.9865
512.327	28.2916
515.702	39.5197
519.077	64.8153
522.452	99.4963
525.826	115.852
529.201	84.4385
532.576	58.0801
535.951	44.2711
539.326	37.2861
542.701	48.7763
546.075	97.1073
549.45	191.109
552.825	213.421
556.2	84.6998
559.575	24.5896
562.949	8.22199
566.324	0.888672
569.699	3.87158
573.074	1.31421
576.449	1.69739
579.823	4.44665
583.198	16.4586
586.573	15.4985
589.948	13.2683
593.323	11.8809
596.698	19.021
600.072	33.9015
603.447	52.1004
606.822	40.3787
610.197	22.0701
613.572	21.6646
616.947	26.2052
620.321	36.773
623.696	51.0184
627.071	63.1772
630.446	41.5027
633.821	16.0391
637.195	6.60638
640.57	4.16638
643.945	0.160034
647.32	1.28741
650.695	2.05505
654.069	5.32172
657.444	0.659729
660.819	0.135315
664.194	1.51028
667.569	1.32877
670.944	0.200226
674.318	1.41211
677.693	1.73737
681.068	2.95166
684.443	2.30524
687.818	2.55167
691.192	4.82257
694.567	1.9566
697.942	0.063232
701.317	3.17438
704.692	2.19452
708.067	5.84656
711.441	1.28229
714.816	4.86087
718.191	2.80194
721.566	3.76376
724.941	2.49683
728.316	0.767334
731.69	3.7876
735.065	2.00851
738.44	2.91296
741.815	1.612
745.19	1.67603
748.564	0.494415
751.939	0.756348
755.314	0.039886
758.689	1.61264
762.064	0.325989
765.438	1.93326
768.813	1.19705
772.188	0.910187
775.563	1.91571
778.938	0.976868
782.313	0.254852
785.687	1.76892
789.062	1.97162
792.437	2.65869
795.812	3.06088
799.187	1.91672
802.562	2.06641
805.936	3.43869
809.311	4.80151
812.686	4.64615
816.061	4.146
819.436	1.95648
822.81	4.02579
826.185	3.5246
829.56	7.29541
832.935	11.1128
836.31	11.3545
839.684	12.6396
843.059	13.4471
846.434	18.9573
849.809	19.0599
853.184	19.7321
856.558	23.3056
859.933	22.1552
863.308	19.7629
866.683	14.7783
870.058	11.7045
873.433	6.35492
876.807	5.11139
880.182	3.28247
883.557	1.38242
886.932	1.57141
890.307	0.712555
893.682	1.76788
897.056	1.00909
900.431	2.07046
903.806	0.403839
907.181	1.00156
910.556	4.17779
913.93	3.68204
917.305	5.02676
920.68	8.79324
924.055	8.11905
927.43	11.6175
930.804	15.8491
934.179	26.9284
937.554	36.9754
940.929	54.9775
944.304	81.8919
947.679	128.898
951.053	201.515
954.428	313.527
957.803	439.759
961.178	472.841
964.553	350.168
967.928	204.495
971.302	116.85
974.677	74.5066
978.052	52.1419
981.427	45.8539
984.802	51.7681
988.176	68.115
991.551	113.897
994.926	197.14
998.301	193.98
1001.68	93.6326
1005.05	39.1886
1008.42	12.0757
1011.8	6.45883
1015.17	1.54428
1018.55	0.138947
1021.92	0.24704
1025.3	1.26221
1028.67	2.77136
1032.05	0.611023
1035.42	1.17013
1038.8	2.81012
1042.17	2.5581
1045.55	6.67502
1048.92	14.4153
1052.3	30.6559
1055.67	49.4609
1059.05	86.3884
1062.42	140.194
1065.8	215.697
1069.17	333.569
1072.55	366.267
1075.92	215.396
1079.3	101.794
1082.67	50.4667
1086.05	27.4117
1089.42	19.2715
1092.8	12.7848
1096.17	5.40097
1099.55	3.96027
1102.92	1.10321
1106.3	1.35794
1109.67	4.02368
1113.05	9.11999
1116.42	17.3489
1119.79	24.5764
1123.17	35.5254
1126.54	55.615
1129.92	81.9413
1133.29	112.383
1136.67	103.069
1140.04	65.9138
1143.42	39.9834
1146.79	31.4097
1150.17	26.2416
1153.54	14.2092
1156.92	5.9378
1160.29	1.95785
1163.67	1.46344
1167.04	0.701477
1170.42	0.498077
1173.79	0.271088
1177.17	1.0126
1180.54	0.897369
1183.92	1.98718
1187.29	1.24997
1190.66	1.14114
1194.04	3.92749
1197.41	2.3114
1200.79	3.8782
1204.16	2.82922
1207.54	4.96924
1210.91	6.1214
1214.29	4.36902
1217.66	6.4816
1221.04	6.87134
1224.41	3.74216
1227.79	3.53763
1231.16	5.80307
1234.54	3.09018
1237.91	3.4104
1241.29	2.43991
1244.66	1.80841
1248.04	3.40393
1251.41	1.91327
1254.79	4.93332
1258.16	1.388
1261.54	4.19342
1264.91	2.97925
1268.29	1.44809
1271.66	0.99765
1275.04	3.1268
1278.41	6.61334
1281.79	0.422913
