Measurement: Raman, 532 nm, unoriented, Raman Data Processed
Mineral: Goedkenite
Rruff sample: R130667
Ideal chemistry: Sr_2_Al(PO_4_)_2_(OH)
Locality: Palermo No. 1 mine, Groton, Grafton County, New Hampshire, USA
Source: Rock Currier
Description: Vitreous clusters of tabular colorless-to-white crystals with wedge-shaped form, associated with quartz in a vug.
Raman shift (cm-1)	intensity
122.849	0
126.224	13.8451
129.599	2.79651
132.974	60.5128
136.348	155.118
139.723	225.412
143.098	157.312
146.473	132.076
149.848	95.4052
153.222	60.4202
156.597	43.4608
159.972	37.3092
163.347	36.0524
166.722	36.183
170.097	31.9192
173.471	40.0747
176.846	54.0469
180.221	79.4447
183.596	107.198
186.971	134.459
190.345	198.041
193.72	233.552
197.095	205.108
200.47	152.766
203.845	111.002
207.22	73.4917
210.594	48.7571
213.969	62.2681
217.344	89.8164
220.719	126.043
224.094	110.666
227.469	53.5547
230.843	23.3284
234.218	21.6802
237.593	21.6096
240.968	7.61475
244.343	0.769043
247.717	10.5408
251.092	1.56421
254.467	11.377
257.842	28.0745
261.217	51.2129
264.591	64.3875
267.966	60.3355
271.341	63.4541
274.716	68.1287
278.091	86.6165
281.466	125.896
284.84	179.003
288.215	193.237
291.59	140.094
294.965	108.238
298.34	93.4822
301.714	58.5076
305.089	17.7422
308.464	2.73096
311.839	10.8332
315.214	5.66235
318.589	4.03931
321.963	20.6567
325.338	28.5
328.713	34.8733
332.088	14.7522
335.463	26.9954
338.837	25.7773
342.212	27.864
345.587	35.5383
348.962	55.7678
352.337	91.8306
355.712	137.121
359.086	198.195
362.461	272.13
365.836	370.816
369.211	386.31
372.586	254.801
375.96	123.343
379.335	51.2207
382.71	16.7334
386.085	3.3667
389.46	3.24829
392.834	0.063477
396.209	10.4077
399.584	14.3945
402.959	34.8105
406.334	42.5544
409.709	106.511
413.083	182.613
416.458	290.16
419.833	425.455
423.208	575.403
426.583	644.89
429.957	550.202
433.332	403.596
436.707	235.18
440.082	141.764
443.457	104.702
446.832	91.3677
450.206	58.8567
453.581	33.865
456.956	16.4307
460.331	9.58691
463.706	4.44141
467.08	7.49927
470.455	3.06006
473.83	10.8521
477.205	41.7046
480.58	70.6382
483.955	127.581
487.329	194.535
490.704	256.237
494.079	261.459
497.454	193.078
500.829	111.536
504.204	79.6621
507.578	77.22
510.953	88.4849
514.328	130.672
517.703	198.953
521.078	281.059
524.452	333.892
527.827	260.984
531.202	175.805
534.577	124.617
537.952	127.901
541.327	171.627
544.701	287.53
548.076	500.837
551.451	658.617
554.826	378.724
558.201	126.717
561.575	38.6951
564.95	9.55371
568.325	1.22852
571.7	8.76538
575.075	2.87598
578.449	12.6675
581.824	27.6438
585.199	47.2109
588.574	20.5549
591.949	22.8057
595.323	28.9836
598.698	64.3699
602.073	97.779
605.448	93.7014
608.823	49.4429
612.198	49.8718
615.572	59.5884
618.947	86.1138
622.322	119.508
625.697	146.335
629.072	132.546
632.447	50.4678
635.821	16.8784
639.196	12.9636
642.571	0.85498
645.946	8.36768
649.321	3.77393
652.695	10.2244
656.07	3.198
659.445	7.56226
662.82	3.84863
666.195	3.43066
669.569	0.463135
672.944	3.09497
676.319	0.793213
679.694	4.05029
683.069	8.92163
686.444	8.00171
689.818	12.8411
693.193	14.6523
696.568	23.7095
699.943	14.9065
703.318	8.21313
706.692	12.7293
710.067	9.90723
713.442	4.34326
716.817	11.5054
720.192	10.6016
723.567	3.45166
726.941	7.09033
730.316	10.176
733.691	9.17041
737.066	12.8596
740.441	8.43188
743.816	15.5234
747.19	2.22217
750.565	9.8562
753.94	6.08301
757.315	1.49243
760.69	3.04346
764.064	7.94678
767.439	0.300781
770.814	6.04883
774.189	9.93384
777.564	9.11865
780.938	14.7341
784.313	11.7764
787.688	2.64429
791.063	10.5146
794.438	7.06811
797.813	6.2854
801.187	8.99927
804.562	0.656738
807.937	6.77979
811.312	4.13647
814.687	5.34058
818.062	0.856934
821.436	19.8435
824.811	21.3599
828.186	28.5435
831.561	27.2649
834.936	38.1941
838.31	43.2827
841.685	40.6309
845.06	46.4949
848.435	60.4815
851.81	54.8088
855.184	59.6648
858.559	59.0635
861.934	64.2551
865.309	52.7278
868.684	52.456
872.059	32.1606
875.433	16.0559
878.808	0.350586
882.183	1.11645
885.558	0.165527
888.933	5.32715
892.308	1.1189
895.682	1.47119
899.057	8.49219
902.432	15.4543
905.807	12.762
909.182	9.77685
912.556	11.6841
915.931	14.417
919.306	31.0022
922.681	45.2944
926.056	50.918
929.431	69.906
932.805	85.9805
936.18	119.023
939.555	175.233
942.93	272.767
946.305	424.062
949.679	677.344
953.054	1028.31
956.429	1460.83
959.804	1678.37
963.179	1387.48
966.553	856.452
969.928	476.733
973.303	300.091
976.678	217.591
980.053	165.224
983.428	185.609
986.802	240.209
990.177	366.046
993.552	609.839
996.927	710.904
1000.3	426.46
1003.68	174.643
1007.05	70.4685
1010.43	23.0774
1013.8	11.8218
1017.18	2.33423
1020.55	6.39209
1023.92	10.5742
1027.3	0.484375
1030.67	4.33838
1034.05	6.94556
1037.42	2.84839
1040.8	13.7024
1044.17	37.2678
1047.55	70.2622
1050.92	123.133
1054.3	192.722
1057.67	323.336
1061.05	533.751
1064.42	834.161
1067.8	1225.87
1071.17	1469.61
1074.55	1058.39
1077.92	524.603
1081.3	239.465
1084.67	131.213
1088.05	94.0491
1091.42	58.2317
1094.8	36.2105
1098.17	16.2288
1101.55	2.17212
1104.92	5.71094
1108.3	7.63623
1111.67	34.9631
1115.05	56.6504
1118.42	81.7044
1121.8	131.46
1125.17	193.47
1128.55	292.775
1131.92	389.178
1135.29	409.963
1138.67	289.413
1142.04	175.788
1145.42	110.878
1148.79	86.8379
1152.17	52.6804
1155.54	22.9673
1158.92	1.35962
1162.29	7.99805
1165.67	1.37549
1169.04	4.2019
1172.42	0.861328
1175.79	0.624023
1179.17	0.620117
1182.54	0.989502
1185.92	6.49585
1189.29	13.5593
1192.67	12.3525
1196.04	17.2354
1199.42	15.3735
1202.79	17.7354
1206.17	22.8679
1209.54	23.8911
1212.91	19.5491
1216.29	26.249
1219.66	24.7136
1223.04	25.8474
1226.41	21.064
1229.79	17.2656
1233.16	11.1318
1236.54	2.68286
1239.91	7.24805
1243.29	8.34937
1246.66	12.6414
1250.04	18.7656
1253.41	16.0303
1256.79	22.8716
1260.16	16.8142
1263.54	7.14819
1266.91	6.25879
1270.29	10.0872
1273.66	7.3584
1277.04	1.22095
1280.41	9.06641
1283.79	10.4644
1287.16	10.7576
1290.54	10.154
1293.91	22.0317
1297.29	14.9082
1300.66	0
