Measurement: Raman, 532 nm, unoriented, Raman Data Processed
Mineral: Gordonite
Rruff sample: R130671
Ideal chemistry: MgAl_2_(PO_4_)_2_(OH)_2_8H_2_O
Locality: Near Milgun Station, Meekatharra Shire, Western Australia, Australia
Source: Rock Currier
Description: Vitreous clear prismatic lathlike bundles of triclinic crystals. Associated with montgomeryite (R140625), collinsite (R140626), and hydroxylapatite (R140987).
Raman shift (cm-1)	intensity
104.729	0
108.104	9.38086
111.478	21.7936
114.853	32.1482
118.228	42.9498
121.603	41.8102
124.978	53.0447
128.352	53.4653
131.727	56.5691
135.102	51.7323
138.477	43.8289
141.852	47.2293
145.227	37.286
148.601	31.2759
151.976	27.823
155.351	24.6958
158.726	22.8643
162.101	19.0245
165.476	24.7172
168.85	25.7678
172.225	26.8036
175.6	25.5847
178.975	23.2922
182.35	27.5186
185.724	25.3511
189.099	27.3297
192.474	29.5081
195.849	21.4855
199.224	17.0791
202.599	6.2887
205.973	0.182617
209.348	2.21472
212.723	1.58337
216.098	3.36768
219.473	0.174927
222.847	0.713379
226.222	0.930054
229.597	3.1416
232.972	0.394409
236.347	4.89539
239.721	11.7247
243.096	17.6097
246.471	21.3828
249.846	17.9862
253.221	13.7976
256.596	13.5339
259.97	18.332
263.345	18.2885
266.72	21.2935
270.095	26.8592
273.47	33.9435
276.844	44.5957
280.219	49.144
283.594	41.0066
286.969	40.5095
290.344	33.7277
293.719	31.2977
297.093	22.9802
300.468	11.0994
303.843	8.66809
307.218	6.75806
310.593	6.56604
313.967	5.51282
317.342	3.1626
320.717	2.07678
324.092	0.349854
327.467	0.86084
330.842	1.00342
334.216	0.597046
337.591	1.54089
340.966	3.57507
344.341	6.45544
347.716	4.77002
351.091	5.3512
354.465	6.80444
357.84	10.6735
361.215	10.997
364.59	9.89221
367.964	10.1045
371.339	7.79346
374.714	11.8908
378.089	14.5538
381.464	18.4163
384.839	15.2163
388.213	12.8883
391.588	10.2001
394.963	1.54993
398.338	3.85986
401.713	9.89477
405.087	10.9354
408.462	8.41174
411.837	6.1853
415.212	14.1928
418.587	29.4544
421.962	42.8981
425.336	42.9407
428.711	53.1591
432.086	44.7747
435.461	33.4961
438.836	19.8727
442.211	13.8628
445.585	3.62134
448.96	3.36365
452.335	0.11731
455.71	3.12134
459.085	6.77368
462.459	8.448
465.834	15.4818
469.209	18.9947
472.584	17.7919
475.959	14.5752
479.334	11.8488
482.708	22.3397
486.083	25.0234
489.458	19.1851
492.833	17.3806
496.208	14.5977
499.582	13.2576
502.957	13.0046
506.332	11.6965
509.707	8.53296
513.082	9.37671
516.457	5.88184
519.831	1.83472
523.206	1.51587
526.581	6.4375
529.956	0.74585
533.331	1.00757
536.705	3.59082
540.08	2.72119
543.455	3.57007
546.83	13.544
550.205	16.2302
553.58	9.30249
556.954	5.81665
560.329	13.029
563.704	16.7734
567.079	17.803
570.454	16.6838
573.828	19.3342
577.203	24.4556
580.578	32.6814
583.953	27.4702
587.328	25.0198
590.702	22.731
594.077	17.7654
597.452	15.4085
600.827	15.2876
604.202	13.6995
607.577	9.34326
610.951	13.989
614.326	13.2456
617.701	10.6636
621.076	7.28735
624.451	7.3208
627.825	7.79688
631.2	3.04663
634.575	5.17627
637.95	4.26245
641.325	5.7605
644.699	9.93799
648.074	5.0896
651.449	6.19751
654.824	8.52222
658.199	0.491211
661.574	0.657959
664.948	4.32031
668.323	3.65845
671.698	0.646484
675.073	3.42627
678.448	1.4602
681.822	0.916748
685.197	4.30737
688.572	1.65234
691.947	0.435059
695.322	0.157471
698.697	1.28857
702.071	1.40674
705.446	7.02246
708.821	11.6489
712.196	5.19849
715.571	11.3726
718.946	10.3076
722.32	19.6807
725.695	16.6167
729.07	15.4714
732.445	16.2366
735.82	15.8816
739.194	21.4873
742.569	16.363
745.944	23.2715
749.319	22.3633
752.694	20.6902
756.068	18.2324
759.443	12.5483
762.818	12.8262
766.193	14.6389
769.568	11.9141
772.943	11.9158
776.317	9.39111
779.692	8.86963
783.067	6.58228
786.442	6.85815
789.817	8.31152
793.192	8.9917
796.566	4.81396
799.941	5.06274
803.316	10.3706
806.691	13.9592
810.066	16.4734
813.44	15.0671
816.815	13.5828
820.19	16.9709
823.565	10.7336
826.94	0.773193
830.314	0.635742
833.689	2.54639
837.064	3.53247
840.439	5.14111
843.814	11.167
847.188	7.84033
850.563	13.113
853.938	19.3362
857.313	21.7227
860.688	28.5491
864.063	19.3989
867.437	8.21533
870.812	11.6804
874.187	7.23901
877.562	9.10523
880.937	7.77173
884.312	1.1936
887.686	2.0603
891.061	6.22754
894.436	11.5217
897.811	7.34717
901.186	5.90698
904.56	5.27295
907.935	2.34131
911.31	2.57031
914.685	3.29736
918.06	3.73657
921.434	2.07593
924.809	6.11353
928.184	6.84863
931.559	2.65308
934.934	0.265625
938.309	0.311523
941.683	1.1062
945.058	9.62354
948.433	9.47534
951.808	11.761
955.183	6.40918
958.558	4.04004
961.932	6.80933
965.307	13.6374
968.682	26.071
972.057	33.5042
975.432	37.8308
978.806	62.562
982.181	80.3608
985.556	109.895
988.931	130.961
992.306	146.575
995.681	137.601
999.055	113.941
1002.43	73.8333
1005.8	40.9961
1009.18	30.9258
1012.55	16.9961
1015.93	19.0938
1019.3	11.4832
1022.68	8.20312
1026.05	7.87866
1029.43	10.0823
1032.8	1.90454
1036.18	10.7993
1039.55	17.5056
1042.93	16.4412
1046.3	12.2031
1049.68	15.5034
1053.05	15.6052
1056.43	19.4187
1059.8	9.03271
1063.18	4.94702
1066.55	7.45606
1069.93	8.56421
1073.3	4.00317
1076.68	0.302246
1080.05	4.2168
1083.43	0.350098
1086.8	9.53662
1090.17	8.2749
1093.55	3.78027
1096.92	10.5913
1100.3	18.1997
1103.67	11.813
1107.05	15.3755
1110.42	19.5669
1113.8	18.0962
1117.17	17.1904
1120.55	18.2988
1123.92	8.46387
1127.3	2.32642
1130.67	0.014404
1134.05	4.40234
1137.42	2.94531
1140.8	0.325195
1144.17	10.3655
1147.55	3.17285
1150.92	4.12988
1154.3	16.2
1157.67	20.5481
1161.05	9.62012
1164.42	10.2124
1167.8	14.2144
1171.17	11.385
1174.55	9.55615
1177.92	7.09204
1181.3	10.6858
1184.67	12.9053
1188.05	12.4937
1191.42	15.8027
1194.8	8.48633
1198.17	8.81934
1201.54	8.28003
1204.92	7.49976
1208.29	9.90894
1211.67	5.77979
1215.04	5.72632
1218.42	9.97266
1221.79	9.104
1225.17	4.77832
1228.54	0.935547
1231.92	2.40772
1235.29	0.251953
1238.67	4.42481
1242.04	3.37988
1245.42	5.12695
1248.79	9.61255
1252.17	13.3381
1255.54	5.78394
1258.92	11.2725
1262.29	6.927
1265.67	1.92725
1269.04	0.94458
1272.42	4.53491
1275.79	5.90039
1279.16	0.978027
1282.54	10.9331
1285.91	7.3606
1289.29	4.34302
1292.66	3.93506
1296.04	6.78442
1299.41	0.251465
