Measurement: Raman, 780 nm, unoriented, Raman Data Processed
Mineral: Gordonite
Rruff sample: R130671
Ideal chemistry: MgAl_2_(PO_4_)_2_(OH)_2_8H_2_O
Locality: Near Milgun Station, Meekatharra Shire, Western Australia, Australia
Source: Rock Currier
Description: Vitreous clear prismatic lathlike bundles of triclinic crystals. Associated with montgomeryite (R140625), collinsite (R140626), and hydroxylapatite (R140987).
Raman shift (cm-1)	intensity
97.8274	0
101.202	4.66547
104.577	0.32782
107.952	8.41669
111.327	5.46759
114.701	9.42578
118.076	10.3903
121.451	12.0256
124.826	19.6973
128.201	25.8132
131.576	26.8984
134.95	19.3627
138.325	17.486
141.7	14.3397
145.075	5.33588
148.45	4.24564
151.825	0.990265
155.199	1.4523
158.574	0.543579
161.949	4.33316
165.324	7.79303
168.698	11.3142
172.073	13.2065
175.448	14.2791
178.823	16.1761
182.198	19.0725
185.573	22.0108
188.947	20.7508
192.322	20.0109
195.697	16.99
199.072	11.4324
202.447	8.27506
205.821	7.84436
209.196	6.74796
212.571	5.95639
215.946	3.68964
219.321	1.48123
222.696	2.39612
226.07	2.17728
229.445	4.65832
232.82	7.20883
236.195	10.7074
239.57	11.2429
242.945	14.9494
246.319	19.2906
249.694	17.9559
253.069	16.5887
256.444	12.2988
259.818	13.4009
263.193	13.0044
266.568	14.2984
269.943	14.9531
273.318	15.7823
276.693	18.0607
280.067	19.0455
283.442	22.3406
286.817	17.2337
290.192	17.4601
293.567	16.6035
296.942	14.1425
300.316	10.6137
303.691	7.04181
307.066	4.35004
310.441	2.28095
313.816	1.59076
317.19	1.21198
320.565	0.661591
323.94	0.85553
327.315	0.991089
330.69	1.05429
334.065	0.144958
337.439	0.495178
340.814	1.41702
344.189	3.26251
347.564	3.92981
350.938	5.08798
354.313	8.59045
357.688	8.94516
361.063	9.00748
364.438	7.69827
367.813	6.40649
371.187	7.80423
374.562	5.64395
377.937	5.63934
381.312	4.34067
384.687	3.41244
388.062	4.11639
391.436	1.89246
394.811	1.63797
398.186	0.213013
401.561	0.105988
404.935	1.15143
408.31	2.09039
411.685	3.98047
415.06	5.67999
418.435	11.5659
421.81	13.1865
425.184	18.1303
428.559	20.3569
431.934	20.539
435.309	15.079
438.684	8.85416
442.058	5.96033
445.433	4.26105
448.808	2.59418
452.183	3.23889
455.558	5.07111
458.933	6.75711
462.307	8.31924
465.682	8.8746
469.057	11.7745
472.432	13.3126
475.807	14.6002
479.182	12.8005
482.556	12.5606
485.931	10.6424
489.306	10.8994
492.681	11.5055
496.055	11.2322
499.43	11.0258
502.805	11.5032
506.18	8.68661
509.555	7.40949
512.93	4.62619
516.304	0.899567
519.679	0.517639
523.054	0.513428
526.429	0.278137
529.804	1.42956
533.178	0.329102
536.553	0.607971
539.928	1.80029
543.303	1.34537
546.678	2.87125
550.053	3.70911
553.427	5.49933
556.802	7.95779
560.177	6.77173
563.552	8.59088
566.927	10.1724
570.302	10.6245
573.676	10.7223
577.051	10.7691
580.426	10.8851
583.801	9.7038
587.176	9.00165
590.55	9.82303
593.925	7.1488
597.3	7.73773
600.675	8.03189
604.05	8.02402
607.424	6.19571
610.799	5.99808
614.174	3.65369
617.549	5.73282
620.924	3.96991
624.298	1.70044
627.673	2.3118
631.048	1.92184
634.423	3.68485
637.798	2.72732
641.173	3.11054
644.547	3.71619
647.922	3.99851
651.297	3.37006
654.672	4.10196
658.047	2.43759
661.421	2.78928
664.796	3.36798
668.171	3.32568
671.546	1.2926
674.921	1.16406
678.295	1.36536
681.67	0.084076
685.045	0.050812
688.42	0.805389
691.795	1.3605
695.17	0.413269
698.544	0.447449
701.919	0.059479
705.294	0.30307
708.669	0.250427
712.044	0.030609
715.418	0.389618
718.793	0.672913
722.168	0.484894
725.543	0.038635
728.918	1.88901
732.293	1.43668
735.667	2.17123
739.042	0.592499
742.417	0.058777
745.792	1.62558
749.167	0.928772
752.541	2.0264
755.916	1.74432
759.291	0.071289
762.666	0.993317
766.041	0.467316
769.415	0.559326
772.79	1.45135
776.165	0.948578
779.54	1.65094
782.915	1.84888
786.29	1.36112
789.664	0.161682
793.039	0.759949
796.414	0.254883
799.789	2.20288
803.164	3.58365
806.538	3.8447
809.913	5.79773
813.288	4.92581
816.663	5.3703
820.038	3.20258
823.413	4.19336
826.787	2.88495
830.162	2.63971
833.537	1.08371
836.912	2.9003
840.287	3.58758
843.661	6.42481
847.036	8.81308
850.411	12.4863
853.786	16.6566
857.161	19.2696
860.535	19.7921
863.91	16.224
867.285	12.9647
870.66	9.2222
874.035	6.52698
877.409	5.03445
880.784	3.7569
884.159	3.17963
887.534	2.31967
890.909	1.16336
894.284	2.95416
897.658	1.47284
901.033	6.13974
904.408	0.565063
907.783	0.072601
911.158	0.515823
914.533	0.29631
917.907	1.21338
921.282	1.83289
924.657	0.105789
928.032	0.487503
931.407	1.88637
934.781	0.840958
938.156	1.12688
941.531	1.20158
944.906	2.05682
948.281	2.54883
951.655	2.60925
955.03	3.5087
958.405	4.42558
961.78	4.05873
965.155	6.02126
968.529	7.49345
971.904	10.6945
975.279	13.3731
978.654	20.0533
982.029	28.7009
985.404	40.3838
988.778	47.8432
992.153	54.3406
995.528	57.478
998.903	41.5493
1002.28	25.7109
1005.65	15.7483
1009.03	10.5002
1012.4	7.08807
1015.78	4.92506
1019.15	4.01099
1022.53	3.03126
1025.9	3.65424
1029.28	3.4066
1032.65	2.92485
1036.03	4.52879
1039.4	4.54491
1042.78	3.26195
1046.15	3.73531
1049.53	3.3891
1052.9	3.16737
1056.28	3.75073
1059.65	2.69467
1063.02	0.861664
1066.4	0.277954
1069.77	0.376114
1073.15	0.068375
1076.52	0.138168
1079.9	0.66217
1083.27	0.258896
1086.65	1.28557
1090.02	3.0068
1093.4	3.6483
1096.77	4.58002
1100.15	6.6821
1103.52	6.312
1106.9	8.60405
1110.27	10.5395
1113.65	8.93077
1117.02	8.49411
1120.4	6.4635
1123.77	4.44525
1127.15	0.452347
1130.52	2.6539
1133.9	0.416321
1137.27	0.291473
1140.64	0.229431
1144.02	0.954742
1147.39	1.97229
1150.77	2.56091
1154.14	2.91745
1157.52	3.19965
1160.89	2.68765
1164.27	2.82867
1167.64	1.96417
1171.02	3.4549
1174.39	3.51108
1177.77	0.981415
1181.14	1.6463
1184.52	0.16098
1187.89	0.067932
1191.27	1.47763
1194.64	0.191803
1198.02	0.240906
1201.39	1.52148
1204.77	1.18378
1208.14	1.63174
1211.52	0.514069
1214.89	0.624512
1218.27	0.027924
1221.64	1.44192
1225.02	0.484619
1228.39	2.87418
1231.77	2.87427
1235.14	4.00836
1238.52	1.99548
1241.89	2.92365
1245.26	3.02127
1248.64	2.27518
1252.01	3.39926
1255.39	2.90427
1258.76	1.93448
1262.14	2.24487
1265.51	2.29913
1268.89	1.66458
1272.26	1.89221
1275.64	1.79926
1279.01	2.12158
1282.39	0.545197
