Measurement: Raman, 780 nm, unoriented, Raman Data RAW
Mineral: Gotzenite
Rruff sample: R140781
Ideal chemistry: Ca_4_NaCa_2_Ti^4+^(Si_2_O_7_)_2_(OF)F_2_
Locality: Parco Chigi, Ariccia, Alban Hills, Rome Province, Latium, Italy
Source: Ch. and H. Sch√§fer
Description: Prismatic pale-yellow crystals, associated with colorless sanidine.
Measured chemistry: Na_1.00_(Ca_5.00_Na_0.36_Ce_0.19_La_0.12_Sr_0.09_Mn_0.04_Fe_0.03_Nd^3+^_0.02_Pr_0.01_Dy_0.01_)(Ti_0.86_Nd^5+^_0.09_Zr_0.06_Th_0.02_)(Si_2.02_O_7_)_2_OF_2.98_
Raman shift (cm-1)	intensity
102.649	7806.68
106.023	7991.39
109.398	8138.69
112.773	8326.63
116.148	8419.68
119.523	8538.63
122.897	8622.76
126.272	8716.55
129.647	8766.49
133.022	8818.21
136.397	8791.53
139.772	8894.93
143.146	8943.42
146.521	9040.76
149.896	9102.51
153.271	9278.69
156.646	9495.08
160.02	9747.55
163.395	10172.3
166.77	10628.8
170.145	11084.2
173.52	11690.9
176.894	12234.7
180.269	13020.7
183.644	13769.3
187.019	14583.6
190.394	15438
193.769	16358.7
197.143	17303.2
200.518	18240.4
203.893	19287
207.268	20313.8
210.643	21188
214.018	22201
217.392	23051.7
220.767	24018.2
224.142	24864.5
227.517	25525.4
230.892	26287.7
234.266	26785.9
237.641	27310.4
241.016	27629.1
244.391	27883.1
247.766	28271.4
251.14	28563.6
254.515	29087.2
257.89	29646.1
261.265	30427.2
264.64	31220.2
268.014	32115.4
271.389	32754.8
274.764	33011.4
278.139	33080.9
281.514	32760.9
284.889	32263.8
288.263	31653.5
291.638	31111.4
295.013	30632.7
298.388	30372.7
301.763	30174
305.137	30293.4
308.512	30613.6
311.887	31170.6
315.262	32023.5
318.637	32949.4
322.012	34105
325.386	35079.6
328.761	36137.4
332.136	36909.9
335.511	37654.1
338.886	38174.1
342.26	38351.9
345.635	38613.6
349.01	38867.1
352.385	39055.8
355.76	39462.1
359.135	39954.1
362.509	40395.7
365.884	40812.7
369.259	41536.1
372.634	41893.1
376.009	42901.2
379.383	43983.8
382.758	45702.3
386.133	47693
389.508	50172.8
392.883	52907.2
396.257	55727.8
399.632	58618.9
403.007	61246.7
406.382	63868.2
409.757	65921.4
413.132	68038.8
416.506	69692.3
419.881	71788.7
423.256	73654.7
426.631	75357.5
430.006	77014.9
433.38	78063.7
436.755	78525
440.13	78025.9
443.505	76900.5
446.88	75236.1
450.255	73036.6
453.629	71176.3
457.004	69552.4
460.379	68309
463.754	67447
467.129	67266.6
470.503	67113.8
473.878	67261.3
477.253	67503.1
480.628	67987.3
484.003	68508.7
487.377	69083.3
490.752	69527.2
494.127	69338.2
497.502	68493.2
500.877	66876.9
504.252	64655.6
507.626	61625.8
511.001	58106
514.376	54237.7
517.751	50337.3
521.126	46422.8
524.5	42786.8
527.875	39721.9
531.25	36959.4
534.625	34601.5
538	32564.5
541.375	30906.4
544.749	29460
548.124	28329.7
551.499	27406.2
554.874	26667.4
558.249	25995.9
561.623	25372.2
564.998	24799.9
568.373	24282.8
571.748	23720.8
575.123	23340.2
578.497	22743.6
581.872	22262.7
585.247	21854.3
588.622	21308.3
591.997	20874.3
595.371	20447.7
598.746	20111
602.121	19726
605.496	19429.1
608.871	19109.8
612.246	18906.8
615.62	18776.8
618.995	18592.1
622.37	18514.9
625.745	18528.8
629.12	18441.5
632.494	18459.8
635.869	18479.2
639.244	18444.3
642.619	18320.2
645.994	18243.7
649.369	18054.6
652.743	17805.7
656.118	17581.6
659.493	17396.5
662.868	17026.3
666.243	16652.9
669.617	16220.8
672.992	15915.6
676.367	15408.2
679.742	15007.7
683.117	14656.1
686.491	14221.4
689.866	13900.1
693.241	13526.7
696.616	13209.7
699.991	12915.2
703.366	12674.2
706.74	12465
710.115	12281.3
713.49	12177
716.865	12031.6
720.24	11997.6
723.614	11883
726.989	11932.5
730.364	12044.2
733.739	12139.6
737.114	12330.2
740.489	12572.7
743.863	12858.2
747.238	13217.8
750.613	13566.3
753.988	13866.9
757.363	14222.6
760.737	14445.6
764.112	14623.9
767.487	14920.2
770.862	15113.2
774.237	15292.7
777.611	15517.6
780.986	15626.6
784.361	15670.8
787.736	15805
791.111	15849.1
794.486	15872.5
797.86	15777.5
801.235	15706
804.61	15666.2
807.985	15560.1
811.36	15444.3
814.734	15401.6
818.109	15248
821.484	15242
824.859	15188.3
828.234	15090.1
831.609	15031.9
834.983	15055.2
838.358	15015.5
841.733	14968.9
845.108	14994
848.483	14963.4
851.857	15102
855.232	15085.4
858.607	15062.9
861.982	15102.9
865.357	15122.5
868.731	15141.3
872.106	15123.1
875.481	15075
878.856	15042.6
882.231	14992.2
885.606	14887.5
888.98	14819
892.355	14640.7
895.73	14508.4
899.105	14370
902.48	14237.1
905.854	14037.1
909.229	13858.6
912.604	13721.8
915.979	13533.5
919.354	13365.7
922.729	13151.6
926.103	12984
929.478	12868
932.853	12828.5
936.228	12825.8
939.603	12809.8
942.977	12859.7
946.352	12951
949.727	13086.5
953.102	13300.8
956.477	13458.9
959.851	13827.5
963.226	14038.4
966.601	14367.5
969.976	14730.4
973.351	15077.5
976.726	15462.8
980.1	15835.4
983.475	16242
986.85	16661.8
990.225	17011.8
993.6	17398.9
996.974	17801.5
1000.35	18199.1
1003.72	18501.3
1007.1	18908.3
1010.47	19236.1
1013.85	19400.4
1017.22	19802.1
1020.6	19984.7
1023.97	20255.4
1027.35	20410.1
1030.72	20613.4
1034.1	20855.2
1037.47	21208.6
1040.85	21415
1044.22	21560.8
1047.6	21783.2
1050.97	22061.7
1054.35	22382.6
1057.72	22689
1061.1	23076
1064.47	23466.2
1067.85	23865
1071.22	24370.1
1074.6	24953
1077.97	25567.8
1081.35	26244.2
1084.72	27091.9
1088.09	27858.5
1091.47	28591.3
1094.84	29486
1098.22	30371
1101.59	31403.9
1104.97	32406.6
1108.34	33718.6
1111.72	34782.8
1115.09	35986.3
1118.47	37380.3
1121.84	38957.5
1125.22	40474.3
1128.59	42266.2
1131.97	44176.8
1135.34	46082.4
1138.72	48148.4
1142.09	50377.8
1145.47	52789.6
1148.84	55329.8
1152.22	58119.6
1155.59	60893
1158.97	64100.1
1162.34	67649.1
1165.71	71351.8
1169.09	75512.3
1172.46	79993.4
1175.84	84786.7
1179.21	90268.1
1182.59	96133.1
1185.96	102562
1189.34	109758
1192.71	117672
1196.09	126803
1199.46	136361
1202.84	147482
1206.21	159645
1209.59	172926
1212.96	187742
1216.34	203963
1219.71	220939
1223.09	239929
1226.46	261406
1229.84	284146
1233.21	308538
1236.59	332897
1239.96	358441
1243.34	384780
1246.71	411790
1250.09	438089
1253.46	463018
1256.84	487614
1260.21	509154
1263.59	528535
1266.96	543080
1270.33	554961
1273.71	563769
1277.08	572223
1280.46	577219
1283.83	583327
