Measurement: Raman, 780 nm, unoriented, Raman Data RAW
Mineral: Greenockite
Rruff sample: R060091
Ideal chemistry: Cd^2+^S^2-^
Locality: Mono County, California, USA
Source: University of Arizona Mineral Museum
Description: Yellowish-orange earthy coating
Measured chemistry: (Cd_0.95_Fe_0.03_Cr_0.01_[box]_0.01_)_Î£=1_S_1.00_ ; trace amounts of Ni.
Raman shift (cm-1)	intensity
93.4668	9639.67
96.8416	9667.59
100.216	9343.6
103.591	9042.84
106.966	8964.12
110.341	8890.48
113.716	8840.15
117.091	8817.2
120.465	8811.7
123.84	8810.27
127.215	8826.55
130.59	8807.42
133.965	8796.11
137.339	8801.05
140.714	8778.74
144.089	8759.93
147.464	8760.58
150.839	8728.4
154.214	8717.41
157.588	8719.54
160.963	8711
164.338	8673.06
167.713	8645.76
171.088	8635.86
174.462	8624.96
177.837	8604.95
181.212	8594.22
184.587	8583.9
187.962	8579.16
191.337	8567.4
194.711	8566.38
198.086	8568.16
201.461	8579.14
204.836	8588.67
208.211	8575.59
211.585	8558.23
214.96	8534.48
218.335	8497.5
221.71	8462.74
225.085	8426.68
228.459	8411.45
231.834	8401.9
235.209	8373.89
238.584	8354.71
241.959	8337.69
245.333	8296.53
248.708	8273.06
252.083	8245.76
255.458	8220.86
258.833	8193.61
262.208	8182.73
265.582	8159.77
268.957	8116.7
272.332	8118.54
275.707	8067.86
279.082	8077.52
282.457	8067.74
285.831	8056.1
289.206	8048.86
292.581	8072.62
295.956	8059.12
299.331	8042.38
302.705	8016.29
306.08	7981.68
309.455	7940.48
312.83	7891.95
316.205	7841.31
319.579	7816.67
322.954	7756.87
326.329	7725.27
329.704	7678.77
333.079	7652.6
336.454	7607.39
339.828	7613.31
343.203	7581.39
346.578	7544.16
349.953	7516.38
353.328	7478.52
356.702	7431.97
360.077	7411.16
363.452	7382.49
366.827	7337.62
370.202	7309.75
373.577	7268.72
376.951	7239.49
380.326	7205.79
383.701	7171.48
387.076	7140.28
390.451	7123.44
393.825	7090.91
397.2	7069.35
400.575	7029.82
403.95	6999.11
407.325	6973.9
410.7	6950.97
414.074	6928.48
417.449	6909.48
420.824	6871.71
424.199	6856.32
427.574	6834.31
430.948	6811.69
434.323	6788.09
437.698	6773.56
441.073	6749.41
444.448	6720.01
447.822	6696.23
451.197	6674.32
454.572	6650.02
457.947	6633.04
461.322	6614.14
464.697	6587.13
468.071	6552.2
471.446	6547.42
474.821	6537.42
478.196	6499.31
481.571	6480.06
484.945	6442.47
488.32	6415.18
491.695	6397.01
495.07	6368.85
498.445	6354.78
501.82	6339.07
505.194	6304.75
508.569	6273.55
511.944	6240.79
515.319	6211.98
518.694	6196.62
522.068	6169.07
525.443	6145.51
528.818	6135.29
532.193	6106.41
535.568	6079.7
538.943	6041.92
542.317	6039.03
545.692	6004.49
549.067	5979.85
552.442	5965.95
555.817	5948.64
559.192	5928.02
562.566	5915.37
565.941	5891.69
569.316	5862.95
572.691	5851.63
576.066	5827.91
579.44	5818.02
582.815	5787.26
586.19	5756.97
589.565	5753.43
592.94	5740.12
596.314	5717.46
599.689	5691.56
603.064	5657.01
606.439	5638.41
609.814	5603.1
613.188	5583.49
616.563	5561.57
619.938	5540.53
623.313	5518.58
626.688	5486.77
630.063	5467.51
633.437	5457.48
636.812	5428.09
640.187	5391.74
643.562	5370.14
646.937	5353.16
650.312	5329.28
653.686	5306.91
657.061	5295.17
660.436	5270.6
663.811	5237.4
667.186	5209.56
670.56	5212.85
673.935	5188.97
677.31	5168.47
680.685	5152.52
684.06	5130.69
687.434	5105.42
690.809	5089.04
694.184	5081.94
697.559	5062.32
700.934	5038.43
704.308	5007.22
707.683	5007.41
711.058	4989.18
714.433	4966.13
717.808	4945.33
721.183	4931.78
724.557	4920.16
727.932	4893.62
731.307	4884.83
734.682	4864.33
738.057	4850.62
741.432	4829.72
744.806	4811.14
748.181	4785.01
751.556	4776.01
754.931	4753.26
758.306	4729.72
761.68	4703.23
765.055	4700.07
768.43	4680.03
771.805	4671.9
775.18	4654.92
778.554	4637.32
781.929	4633.73
785.304	4619.38
788.679	4616.72
792.054	4601.14
795.429	4585.77
798.803	4580.97
802.178	4549.43
805.553	4536.05
808.928	4537.38
812.303	4518.22
815.678	4503.23
819.052	4495.26
822.427	4466.82
825.802	4461.07
829.177	4437.91
832.552	4445.97
835.926	4423.31
839.301	4411.18
842.676	4403.02
846.051	4391.51
849.426	4377.79
852.801	4372.32
856.175	4344.22
859.55	4327.47
862.925	4319.47
866.3	4301.29
869.675	4291.94
873.049	4275.52
876.424	4258.68
879.799	4242.43
883.174	4223.8
886.549	4218.21
889.923	4208.81
893.298	4188.39
896.673	4171.9
900.048	4158.78
903.423	4148.85
906.798	4135.21
910.172	4126.96
913.547	4113.67
916.922	4111.48
920.297	4096.53
923.672	4087.72
927.046	4071.52
930.421	4063.58
933.796	4038.41
937.171	4028.59
940.546	4029.17
943.92	4015.47
947.295	4000.13
950.67	3985.19
954.045	3970.6
957.42	3955.49
960.795	3947.43
964.169	3935.07
967.544	3926.94
970.919	3914.63
974.294	3898.99
977.669	3881.97
981.043	3879.74
984.418	3873.72
987.793	3860.19
991.168	3871.9
994.543	3852.64
997.918	3838.94
1001.29	3828.91
1004.67	3816.59
1008.04	3807.03
1011.42	3802.96
1014.79	3789.66
1018.17	3769.5
1021.54	3779.45
1024.92	3756.18
1028.29	3757.76
1031.67	3751.18
1035.04	3735.61
1038.41	3736.14
1041.79	3725.22
1045.16	3710.16
1048.54	3699.15
1051.91	3700.37
1055.29	3694.79
1058.66	3690.35
1062.04	3667.31
1065.41	3663.47
1068.79	3652.67
1072.16	3634.97
1075.54	3627.49
1078.91	3609.61
1082.29	3618.77
1085.66	3613.19
1089.04	3597.54
1092.41	3594.78
1095.79	3573.98
1099.16	3573.36
1102.54	3555.59
1105.91	3553.4
1109.29	3547.43
1112.66	3542.95
1116.04	3525.69
1119.41	3525.51
1122.79	3511.46
1126.16	3499.6
1129.54	3497.8
1132.91	3501.74
1136.29	3495.7
1139.66	3489.98
1143.04	3484.63
1146.41	3465.46
1149.78	3461.13
1153.16	3460.76
1156.53	3467.94
1159.91	3465.84
1163.28	3456.85
1166.66	3450.63
1170.03	3440
1173.41	3424.27
1176.78	3424.17
1180.16	3428.43
1183.53	3414.05
1186.91	3403.19
1190.28	3405.66
1193.66	3390.97
1197.03	3391.39
1200.41	3374.95
1203.78	3375.71
1207.16	3365.57
1210.53	3356.23
1213.91	3358.73
1217.28	3341.79
1220.65	3333.94
1224.03	3329.56
1227.4	3326.97
1230.78	3322.24
1234.15	3316.14
1237.53	3316.6
1240.9	3298.96
1244.28	3298.65
1247.65	3306.82
1251.03	3293.29
1254.4	3273.74
1257.78	3268.99
1261.15	3267.39
1264.53	3265.37
1267.9	3257.3
1271.28	3264.2
1274.65	3254.72
1278.03	3246.79
1281.4	3243.86
1284.78	3237.13
