Measurement: Raman, 532 nm, unoriented, Raman Data Processed
Mineral: Greigite
Rruff sample: R120103
Ideal chemistry: Fe^2+^Fe^3+^_2_S_4_
Locality: Alacrán mine, Pampa Larga district, Tiara Maria, Copiapó, Chile
Source: Bob Jenkins
Description: Druse of metallic, bronze-colored octahedra
Raman shift (cm-1)	intensity
89.8438	0
93.2186	1.23465
96.5934	0.447243
99.9682	0.777924
103.343	1.47646
106.718	1.01212
110.093	2.88702
113.468	2.62172
116.842	2.0114
120.217	2.47475
123.592	3.47212
126.967	3.50287
130.342	3.71082
133.716	1.6638
137.091	1.15435
140.466	0.81909
143.841	0.054047
147.216	0.083212
150.59	0.069771
153.965	0.446123
157.34	0.022255
160.715	1.39536
164.09	1.13868
167.464	2.62764
170.839	4.25331
174.214	5.33372
177.589	7.2699
180.964	9.58529
184.339	10.728
187.713	11.998
191.088	12.633
194.463	13.6222
197.838	11.0102
201.213	9.7468
204.588	8.09851
207.962	7.25546
211.337	6.78151
214.712	6.0823
218.087	5.11235
221.462	4.63117
224.836	4.18884
228.211	3.35202
231.586	3.4349
234.961	3.78415
238.336	4.39848
241.71	5.81483
245.085	7.51111
248.46	9.85142
251.835	8.12308
255.21	4.68862
258.585	1.88348
261.959	1.36033
265.334	0.903696
268.709	0.241018
272.084	0.035517
275.459	0.125263
278.834	0.097162
282.208	0.273521
285.583	0.191525
288.958	0.263544
292.333	0.400934
295.708	0.435417
299.082	0.703972
302.457	1.71942
305.832	2.33884
309.207	2.70035
312.582	4.5174
315.957	5.59177
319.331	6.87518
322.706	9.5728
326.081	12.936
329.456	18.2565
332.831	23.8945
336.205	32.553
339.58	44.1137
342.955	52.9211
346.33	56.904
349.705	50.709
353.079	42.0384
356.454	37.4748
359.829	36.9396
363.204	34.9511
366.579	29.6019
369.954	22.2918
373.328	15.476
376.703	11.3215
380.078	7.88391
383.453	4.44465
386.828	3.57496
390.202	2.56579
393.577	0.564062
396.952	1.12543
400.327	0.19995
403.702	0.536081
407.077	0.174568
410.451	0.277491
413.826	0.015572
417.201	0.178501
420.576	0.130891
423.951	0.543926
427.325	0.716009
430.7	0.478562
434.075	0.790606
437.45	0.03293
440.825	1.11567
444.2	0.786326
447.574	1.1814
450.949	1.17495
454.324	1.19786
457.699	1.03238
461.074	1.23974
464.448	1.25896
467.823	0.943651
471.198	0.928885
474.573	0.335876
477.948	0.745704
481.322	0.618639
484.697	0.827523
488.072	0.588366
491.447	0.113638
494.822	0.89395
498.197	0.215047
501.571	1.13754
504.946	0.439093
508.321	0.384687
511.696	0.423137
515.071	0.46139
518.446	0.107791
521.82	0.054864
525.195	0.327898
528.57	1.07403
531.945	0.665897
535.32	0.450722
538.694	0.295677
542.069	0.245487
545.444	0.179188
548.819	0.513696
552.194	0.240218
555.568	0.044441
558.943	0.315276
562.318	0.46177
565.693	0.652927
569.068	0.321556
572.443	0.728085
575.817	0.922752
579.192	0.222902
582.567	0.453864
585.942	0.53504
589.317	0.825844
592.692	0.362235
596.066	0.39276
599.441	0.196256
602.816	0.018596
606.191	0.714814
609.566	0.2422
612.94	0.089633
616.315	0.397331
619.69	0.825111
623.065	0.36498
626.44	0.375937
629.814	0.182857
633.189	0.181231
636.564	0.055346
639.939	0.349608
643.314	0.155573
646.688	0.759393
650.063	0.937941
653.438	0.215148
656.813	0.188816
660.188	0.498461
663.563	0.644814
666.937	0.612227
670.312	0.681338
673.687	0.883525
677.062	0.684096
680.437	0.873088
683.812	0.794429
687.186	0.886518
690.561	0.904161
693.936	0.394515
697.311	0.953505
700.686	0.760227
704.06	0.30133
707.435	0.261366
710.81	0.551005
714.185	0.126621
717.56	0.401584
720.934	0.368317
724.309	0.232915
727.684	0.506854
731.059	0.06401
734.434	0.234735
737.809	0.442713
741.183	0.532917
744.558	0.44443
747.933	0.240864
751.308	0.504173
754.683	0.581106
758.058	0.148213
761.432	0.151467
764.807	0.365283
768.182	0.197556
771.557	0.569084
774.932	0.49457
778.306	0.436481
781.681	0.500514
785.056	0.059706
788.431	0.384027
791.806	0.253136
795.181	0.365817
798.555	0.124523
801.93	0.287416
805.305	0.257781
808.68	0.150895
812.055	0.518029
815.429	0.513303
818.804	0.351615
822.179	0.843848
825.554	0.078757
828.929	0.147856
832.303	0.48875
835.678	0.560204
839.053	0.418445
842.428	0.176675
845.803	0.418887
849.178	0.569194
852.552	0.267194
855.927	0.296782
859.302	0.204667
862.677	0.465364
866.052	0.159425
869.427	0.0466
872.801	0.191359
876.176	0.519663
879.551	0.16371
882.926	0.484447
886.301	0.562004
889.675	0.092122
893.05	0.114841
896.425	0.264427
899.8	0.5808
903.175	0.281875
906.549	0.102641
909.924	0.487143
913.299	0.056598
916.674	0.271604
920.049	0.477715
923.423	1.0115
926.798	0.365591
930.173	0.842859
933.548	0.476326
936.923	0.613527
940.298	0.666514
943.672	0.404346
947.047	0.44505
950.422	0.105078
953.797	0.447559
957.172	0.409716
960.547	0.516803
963.921	0.295465
967.296	0.793769
970.671	0.410604
974.046	0.484407
977.421	0.291773
980.795	0.012921
984.17	0.370117
987.545	0.359542
990.92	0.06639
994.295	0.231336
997.669	0.130501
1001.04	0.415709
1004.42	0.351773
1007.79	0.665623
1011.17	0.817326
1014.54	0.747347
1017.92	0.509816
1021.29	0.44063
1024.67	0.429501
1028.04	0.873471
1031.42	0.94007
1034.79	0.085986
1038.17	0.747149
1041.54	0.732134
1044.92	0.221743
1048.29	0.573992
1051.67	0.796098
1055.04	0.450466
1058.42	0.920696
1061.79	0.143273
1065.17	0.732769
1068.54	0.731767
1071.92	0.80061
1075.29	0.610361
1078.66	0.969735
1082.04	0.255895
1085.41	0.140744
1088.79	1.19257
1092.16	0.434144
1095.54	0.543774
1098.91	0.77037
1102.29	0.970117
1105.66	0.527177
1109.04	0.600993
1112.41	0.412176
1115.79	0.798193
1119.16	0.677662
1122.54	0.277821
1125.91	0.894114
1129.29	0.793446
1132.66	0.582799
1136.04	0.744069
1139.41	0.480484
1142.79	0.658234
1146.16	0.560919
1149.54	0.288435
1152.91	0.607794
1156.29	0.482113
1159.66	0.432744
1163.04	0.204155
1166.41	0.40389
1169.79	0.016922
1173.16	0.225677
1176.54	0.060038
1179.91	0.217235
1183.28	0.41156
1186.66	0.719286
1190.03	0.004188
1193.41	0.262969
1196.78	0.458391
1200.16	0.106511
1203.53	0.190441
1206.91	0.439263
1210.28	0.257418
1213.66	0.596646
1217.03	0.110456
1220.41	0.756775
1223.78	0.373662
1227.16	0.749425
1230.53	0.417165
1233.91	0.514303
1237.28	0.091508
1240.66	0.341172
1244.03	0.415387
1247.41	0.457345
1250.78	0.231026
1254.16	0.798712
1257.53	0.332129
1260.9	0.117149
1264.28	0.410285
1267.65	0.480569
1271.03	1.29375
1274.4	0.750154
1277.78	0.652099
1281.15	0.425541
1284.53	0.478145
1287.9	0.81408
1291.28	0.441716
1294.65	0.390457
1298.03	0.572598
1301.4	0.069179
