Measurement: Raman, 780 nm, unoriented, Raman Data Processed
Mineral: Greigite
Rruff sample: R120103
Ideal chemistry: Fe^2+^Fe^3+^_2_S_4_
Locality: Alacrán mine, Pampa Larga district, Tiara Maria, Copiapó, Chile
Source: Bob Jenkins
Description: Druse of metallic, bronze-colored octahedra
Raman shift (cm-1)	intensity
90.2353	0
93.6102	4.81697
96.985	3.85394
100.36	6.66582
103.735	8.9872
107.109	5.9384
110.484	1.02564
113.859	4.48748
117.234	11.9017
120.609	16.5548
123.984	21.2143
127.358	22.2282
130.733	10.7762
134.108	1.83272
137.483	2.2897
140.858	3.01128
144.232	1.38055
147.607	4.04443
150.982	14.1519
154.357	21.5315
157.732	15.3263
161.107	5.49059
164.481	3.80035
167.856	3.57761
171.231	6.60346
174.606	13.4634
177.981	21.4524
181.355	32.6006
184.73	45.3911
188.105	54.0087
191.48	54.8028
194.855	46.7014
198.229	38.78
201.604	31.8735
204.979	28.9277
208.354	23.292
211.729	18.26
215.103	16.8882
218.478	15.3379
221.853	20.9935
225.228	28.8936
228.603	41.2735
231.978	54.1336
235.352	61.2097
238.727	58.8885
242.102	45.8802
245.477	30.2045
248.852	18.5873
252.226	12.3171
255.601	8.30634
258.976	5.68356
262.351	6.27917
265.726	11.6293
269.101	22.9713
272.475	42.3057
275.85	68.9913
279.225	89.2184
282.6	92.1711
285.975	77.1462
289.349	66.8413
292.724	69.3058
296.099	84.2626
299.474	101.417
302.849	114.587
306.224	123.977
309.598	122.421
312.973	79.2637
316.348	28.0031
319.723	6.24709
323.098	1.0906
326.472	2.38673
329.847	2.35969
333.222	1.75653
336.597	0.08197
339.972	0.47893
343.346	1.41352
346.721	1.5483
350.096	2.68687
353.471	3.40516
356.846	4.96752
360.221	4.72467
363.595	4.10676
366.97	3.26013
370.345	2.93896
373.72	3.22267
377.095	3.23675
380.469	3.47555
383.844	3.045
387.219	2.03923
390.594	1.12325
393.969	0.424795
397.344	0.815494
400.718	0.403381
404.093	0.7734
407.468	1.04556
410.843	2.07199
414.217	1.30229
417.592	1.65242
420.967	1.58218
424.342	1.90913
427.717	1.66765
431.092	1.65989
434.466	2.13406
437.841	1.07196
441.216	0.988876
444.591	1.0465
447.966	0.998468
451.341	1.30081
454.715	0.897151
458.09	1.26166
461.465	0.78908
464.84	0.953176
468.215	0.780575
471.589	0.391068
474.964	0.812409
478.339	0.862723
481.714	0.535903
485.089	0.690475
488.463	0.373485
491.838	0.659787
495.213	0.247325
498.588	0.219469
501.963	0.200439
505.337	0.172993
508.712	0.522732
512.087	0.245368
515.462	0.069077
518.837	0.048331
522.212	0.032339
525.586	0.152625
528.961	0.113426
532.336	0.258735
535.711	0.046868
539.086	0.147954
542.46	0.022751
545.835	0.125216
549.21	0.194009
552.585	0.180099
555.96	0.552785
559.335	0.367794
562.709	0.123794
566.084	0.016724
569.459	0.103519
572.834	0.199369
576.209	0.144718
579.583	0.191754
582.958	0.09842
586.333	0.215177
589.708	0.183663
593.083	0.046556
596.457	0.352793
599.832	0.313094
603.207	0.294177
606.582	0.224326
609.957	0.062579
613.332	0.276498
616.706	0.184483
620.081	0.038177
623.456	0.524075
626.831	0.376698
630.206	0.169662
633.58	0.164445
636.955	0.251923
640.33	0.248479
643.705	0.30886
647.08	0.243379
650.455	0.381543
653.829	0.260239
657.204	0.428124
660.579	0.392177
663.954	0.576171
667.329	0.785944
670.703	0.343641
674.078	0.448608
677.453	0.446133
680.828	0.123812
684.203	0.42429
687.577	0.160054
690.952	0.446727
694.327	0.361512
697.702	0.467669
701.077	0.23101
704.452	0.063923
707.826	0.45557
711.201	0.196072
714.576	0.261436
717.951	0.505189
721.326	0.27206
724.7	0.340348
728.075	0.080047
731.45	0.268044
734.825	0.215537
738.2	0.395989
741.574	0.193295
744.949	0.351817
748.324	0.386379
751.699	0.323091
755.074	0.436138
758.449	0.566422
761.823	0.366576
765.198	0.447743
768.573	0.278806
771.948	0.206212
775.323	0.498302
778.697	0.167732
782.072	0.278066
785.447	0.077846
788.822	0.236973
792.197	0.103849
795.572	0.067759
798.946	0.24656
802.321	0.183394
805.696	0.027004
809.071	0.145881
812.446	0.071211
815.82	0.291778
819.195	0.025175
822.57	0.200759
825.945	0.178157
829.32	0.235002
832.694	0.360141
836.069	0.177729
839.444	0.399853
842.819	0.434854
846.194	0.563681
849.569	0.04474
852.943	0.012636
856.318	0.21882
859.693	0.294969
863.068	0.266755
866.443	0.092835
869.817	0.299129
873.192	0.074705
876.567	0.421668
879.942	0.294582
883.317	0.256474
886.692	0.541108
890.066	0.155105
893.441	0.259602
896.816	0.013427
900.191	0.204102
903.566	0.359711
906.94	0.147212
910.315	0.149499
913.69	0.364503
917.065	0.458766
920.44	0.44906
923.814	0.100577
927.189	0.469536
930.564	0.040026
933.939	0.327744
937.314	0.507176
940.689	0.148752
944.063	0.176165
947.438	0.090168
950.813	0.158538
954.188	0.010909
957.563	0.02782
960.937	0.135264
964.312	0.082116
967.687	0.329491
971.062	0.006852
974.437	0.146119
977.812	0.157804
981.186	0.100172
984.561	0.152058
987.936	0.128083
991.311	0.007342
994.686	0.12315
998.06	0.367072
1001.43	0.363654
1004.81	0.034479
1008.18	0.164276
1011.56	0.199035
1014.93	0.058862
1018.31	0.335343
1021.68	0.31496
1025.06	0.613949
1028.43	0.326949
1031.81	0.193953
1035.18	0.367715
1038.56	0.358052
1041.93	0.138669
1045.31	0.05769
1048.68	0.048712
1052.06	0.252878
1055.43	0.168614
1058.81	0.37384
1062.18	0.047575
1065.56	0.171377
1068.93	0.120401
1072.31	0.168836
1075.68	0.071757
1079.06	0.205575
1082.43	0.194547
1085.81	0.417542
1089.18	0.089028
1092.56	0.090497
1095.93	0.286803
1099.31	0.034961
1102.68	0.226584
1106.05	0.153943
1109.43	0.185457
1112.8	0.452667
1116.18	0.371853
1119.55	0.135212
1122.93	0.145293
1126.3	0.620254
1129.68	0.459093
1133.05	0.173221
1136.43	0.478292
1139.8	0.33313
1143.18	0.245327
1146.55	0.167356
1149.93	0.315142
1153.3	0.323548
1156.68	0.372714
1160.05	0.405839
1163.43	0.268775
1166.8	0.472684
1170.18	0.212097
1173.55	0.144293
1176.93	0.382044
1180.3	0.138715
1183.67	0.22278
1187.05	0.269501
1190.42	0.066383
1193.8	0.196413
1197.17	0.229665
1200.55	0.09964
1203.92	0.043344
1207.3	0.354522
1210.67	0.344692
1214.05	0.100596
1217.42	0.363236
1220.8	0.103827
1224.17	0.232862
1227.55	0.258573
1230.92	0.0952
1234.3	0.418059
1237.67	0.373685
1241.05	0.409671
1244.42	0.457019
1247.8	0.09325
1251.17	0.193385
1254.55	0.169067
1257.92	0.336421
1261.3	0.208026
1264.67	0.296375
1268.05	0.002249
1271.42	0.118572
1274.8	0.319813
1278.17	0.111932
1281.55	0.203093
