Measurement: Raman, 532 nm, unoriented, Raman Data RAW
Mineral: Griceite
Rruff sample: R070436
Ideal chemistry: LiF
Locality: Poudrette quarry (Demix quarry; Uni-Mix quarry; Desourdy quarry), Mont Saint-Hilaire, Rouville County, Qu√©bec, Canada
Source: Michael Scott
Description: White (fluoresces yellow under SW)  crystals associated with pectolite (R070607), villiaumite, sodalite, microcline and black aegirine
Raman shift (cm-1)	intensity
174.511	18673.7
177.404	18983.6
180.296	19321.6
183.189	19462.7
186.082	19731.6
188.974	19795.6
191.867	20135.6
194.76	20248.3
197.652	20464.1
200.545	20589.2
203.438	20840.5
206.331	20979.3
209.223	21067.6
212.116	21229
215.009	21316.4
217.901	21520.7
220.794	21635.4
223.687	21755.3
226.579	21813
229.472	21904
232.365	22110.7
235.257	22204.5
238.15	22255.2
241.043	22372.4
243.936	22680.9
246.828	22671
249.721	22688.7
252.614	22941.7
255.506	23024.7
258.399	23071.8
261.292	23244.5
264.185	23327.2
267.077	23384.7
269.97	23313
272.863	23582.6
275.755	23656.1
278.648	23712.6
281.541	23971.9
284.433	23949.7
287.326	24084.5
290.219	24174.3
293.111	24278.4
296.004	24353.3
298.897	24354.6
301.79	24587
304.682	24667.8
307.575	24721
310.468	24736.8
313.36	24993
316.253	24922.8
319.146	25044.6
322.038	25072.5
324.931	25237.4
327.824	25235.5
330.717	25403.9
333.609	25428.2
336.502	25548.7
339.395	25658.8
342.287	25819.2
345.18	25760.4
348.073	25873.2
350.966	25989.4
353.858	26106.9
356.751	26145
359.644	26197.9
362.536	26373.9
365.429	26502.7
368.322	26408.9
371.214	26464.8
374.107	26554.5
377	26710.6
379.892	26767.4
382.785	26856.7
385.678	26952.9
388.571	27051.2
391.463	27186.3
394.356	27340.4
397.249	27348.5
400.142	27421.4
403.034	27548.2
405.927	27556
408.82	27594.4
411.712	27834.2
414.605	27779.4
417.498	27961.9
420.39	27915.8
423.283	28024.7
426.176	28211.4
429.068	28308.2
431.961	28359.4
434.854	28511.3
437.747	28462.2
440.639	28648.7
443.532	28736.9
446.425	28797.3
449.317	28828.5
452.21	28993
455.103	29047.6
457.995	29249.8
460.888	29231.8
463.781	29236.6
466.674	29364.1
469.566	29457.2
472.459	29627.1
475.352	29694.2
478.244	29757.8
481.137	29709.5
484.03	29838.5
486.923	30151.7
489.815	30127.2
492.708	30191.8
495.601	30188.4
498.493	30212.2
501.386	30407.3
504.279	30540.1
507.171	30613
510.064	30644.2
512.957	30790.8
515.85	30938.7
518.742	30968.2
521.635	30975
524.528	31166.6
527.42	31202
530.313	31280.4
533.206	31418.9
536.098	31377.1
538.991	31558.8
541.884	31526
544.777	31756.7
547.669	31868.8
550.562	31869
553.455	31897.1
556.347	32051.4
559.24	32172.6
562.133	32286.4
565.025	32323.6
567.918	32461.3
570.811	32532.8
573.704	32564.5
576.596	32572.8
579.489	32694
582.382	32690.4
585.274	32875.1
588.167	33034
591.06	33031.4
593.952	33121.9
596.845	33282.6
599.738	33425.2
602.631	33576.8
605.523	33535.9
608.416	33601.8
611.309	33610.8
614.201	33738.2
617.094	33870.2
619.987	33974.7
622.88	34148.1
625.772	34226.8
628.665	34259.8
631.558	34389.7
634.45	34319.9
637.343	34654.4
640.236	34493.6
643.128	34779.9
646.021	34765.5
648.914	34951.3
651.807	35029.5
654.699	35163.2
657.592	35259.4
660.485	35186.8
663.377	35286.4
666.27	35374.1
669.163	35310.5
672.055	35453.8
674.948	35606.1
677.841	35451
680.734	35584.7
683.626	35677.1
686.519	35655.1
689.412	35741.1
692.304	35883.9
695.197	35772.1
698.09	35781.8
700.982	36032.1
703.875	36086.3
706.768	36163.9
709.66	36154.4
712.553	36338.6
715.446	36382.8
718.339	36231.4
721.231	36443.5
724.124	36464
727.017	36567.4
729.909	36713.1
732.802	36685.8
735.695	36668.5
738.587	36790.6
741.48	36821.6
744.373	36925.5
747.266	36885.8
750.158	36907.8
753.051	37048.5
755.944	37140.1
758.836	37160.1
761.729	37220.8
764.622	37406.1
767.514	37466.9
770.407	37350.2
773.3	37445.1
776.193	37599.9
779.085	37658.7
781.978	37771.8
784.871	37728.5
787.763	37591.5
790.656	37929.5
793.549	37870.2
796.442	37944.4
799.334	38136.7
802.227	38249.4
805.12	38222.4
808.012	38343.5
810.905	38284.9
813.798	38434.8
816.69	38454.2
819.583	38607.7
822.476	38678.9
825.369	38548.6
828.261	38713.2
831.154	38739
834.047	38873
836.939	38984.5
839.832	39016
842.725	39003.5
845.617	39072.3
848.51	39178.4
851.403	39247.6
854.296	39465.9
857.188	39319.4
860.081	39346.6
862.974	39451.5
865.866	39420.8
868.759	39677.1
871.652	39877
874.544	39765.8
877.437	39809.8
880.33	39868.2
883.223	40099.1
886.115	40093.4
889.008	40174.9
891.901	40248
894.793	40375.4
897.686	40452.7
900.579	40606.4
903.471	40625.4
906.364	40685.2
909.257	40792
912.15	40645.8
915.042	40929.4
917.935	40980.5
920.828	41074.1
923.72	41047.1
926.613	41162.4
929.506	41331
932.399	41217.5
935.291	41480.8
938.184	41417
941.077	41615.2
943.969	41747.7
946.862	41737.2
949.755	41729.6
952.647	41747.1
955.54	41960.1
958.433	42091.5
961.326	42192.3
964.218	42367.7
967.111	42396.4
970.004	42475.9
972.896	42612.2
975.789	42551
978.682	42618.9
981.574	42785.5
984.467	42874.6
987.36	42877
990.253	43069.9
993.145	43133.8
996.038	43134.9
998.931	43208.3
1001.82	43250.7
1004.72	43421
1007.61	43673.8
1010.5	43623.2
1013.39	43691
1016.29	43915.4
1019.18	43962.4
1022.07	44126.5
1024.96	44155.9
1027.86	44186.5
1030.75	44277.9
1033.64	44371.5
1036.54	44415.2
1039.43	44514.4
1042.32	44685.1
1045.21	44805.9
1048.11	44792.6
1051	44898.9
1053.89	44903.9
1056.79	45019.3
1059.68	45190.1
1062.57	45290.8
1065.46	45627.8
1068.36	45477.1
1071.25	45757.6
1074.14	45661.3
1077.03	45782.4
1079.93	45886.6
1082.82	46044.2
1085.71	46161.5
1088.6	46147
1091.5	46318.1
1094.39	46472.6
1097.28	46493.2
1100.17	46613.9
1103.07	46903.5
1105.96	46979.2
1108.85	46823.4
1111.75	47081
1114.64	47265.1
1117.53	47308.3
1120.42	47419.2
1123.32	47596.4
1126.21	47719.6
1129.1	47864.7
1131.99	47956.9
1134.89	48012.3
1137.78	48242.2
1140.67	48278.7
1143.57	48490
1146.46	48335.9
1149.35	48729.7
1152.24	48822.5
1155.14	48918
1158.03	48962.4
1160.92	49156.1
1163.82	49184.5
1166.71	49322.8
1169.6	49441
1172.49	49735.1
1175.38	49672.3
1178.28	49870.9
1181.17	50094.8
1184.06	50039.8
1186.96	50093.1
1189.85	50313.5
1192.74	50542.7
1195.63	50665.9
1198.53	50618.8
1201.42	50752.9
1204.31	50827.4
1207.2	51064
1210.1	51320.5
1212.99	51242.5
1215.88	51449
1218.78	51532.4
1221.67	51836.4
1224.56	51939.2
1227.45	51875.8
1230.35	52282.4
1233.24	52321.1
1236.13	52370.7
1239.03	52438.3
1241.92	52665.7
1244.81	52909.9
1247.7	52997.7
1250.6	53118.3
1253.49	53204.8
1256.38	53330.8
1259.27	53534.3
1262.17	53649.1
1265.06	53894
1267.95	54101.1
1270.85	54096.2
1273.74	54406.5
1276.63	54435.9
1279.52	54553.6
1282.41	54703.8
1285.31	54860.2
1288.2	54988
1291.09	54911.2
1293.99	55248.4
1296.88	55411.3
1299.77	55511.8
1302.66	55474.9
1305.56	55658.6
