Measurement: Raman, 785 nm, unoriented, Raman Data RAW
Mineral: Griceite
Rruff sample: R070436
Ideal chemistry: LiF
Locality: Poudrette quarry (Demix quarry; Uni-Mix quarry; Desourdy quarry), Mont Saint-Hilaire, Rouville County, Qu√©bec, Canada
Source: Michael Scott
Description: White (fluoresces yellow under SW)  crystals associated with pectolite (R070607), villiaumite, sodalite, microcline and black aegirine
Raman shift (cm-1)	intensity
191.418	23571.4
194.311	23921.3
197.204	24462.7
200.096	24784.9
202.989	25149.4
205.882	25384.2
208.774	25517.1
211.667	25669.9
214.56	25962.8
217.452	26109.5
220.345	26449.3
223.238	26608.2
226.131	26860.9
229.023	27033.8
231.916	27096.8
234.809	27443.3
237.701	27594.5
240.594	27700
243.487	28071.1
246.38	28183.2
249.272	28454.2
252.165	28504.3
255.058	28622.5
257.95	28887.5
260.843	29118.3
263.736	29303.5
266.628	29369.4
269.521	29552.5
272.414	29739.5
275.307	29897.6
278.199	30071
281.092	30208.4
283.985	30451
286.877	30652.2
289.77	30809.3
292.663	30880.5
295.555	30935.7
298.448	31103.1
301.341	31303.1
304.233	31389.6
307.126	31617.6
310.019	31768.8
312.912	31914.5
315.804	32120.4
318.697	32194.7
321.59	32315.6
324.482	32445.4
327.375	32595.1
330.268	32839.3
333.161	32978.2
336.053	33084.8
338.946	33195.3
341.839	33244.7
344.731	33401.5
347.624	33589.4
350.517	33714
353.409	33974.2
356.302	33889.9
359.195	34198.3
362.087	34246.2
364.98	34322.8
367.873	34289
370.766	34626.8
373.658	34867.2
376.551	35020.3
379.444	35089.9
382.336	35090.6
385.229	35202.7
388.122	35347.9
391.014	35568.5
393.907	35791.7
396.8	35976.8
399.693	35898.9
402.585	36064.1
405.478	36163
408.371	36141
411.263	36396.5
414.156	36542.5
417.049	36610.4
419.942	36847.9
422.834	36968.2
425.727	36966.6
428.62	37059.9
431.512	37293.4
434.405	37480.6
437.298	37425.6
440.19	37437.5
443.083	37682.4
445.976	37887.9
448.868	37906.7
451.761	38124.1
454.654	38148.8
457.547	38198.3
460.439	38309.5
463.332	38565
466.225	38669.7
469.117	38847.6
472.01	38940.1
474.903	38924.3
477.796	39068.3
480.688	39065.8
483.581	39372.1
486.474	39298.3
489.366	39659.8
492.259	39687.8
495.152	39682.4
498.044	39888.3
500.937	39851.2
503.83	40064.2
506.723	40087.7
509.615	40267.4
512.508	40369.3
515.401	40579.4
518.293	40614
521.186	40722.8
524.079	40779
526.971	40979.1
529.864	41177.1
532.757	41210.5
535.649	41305.1
538.542	41334.6
541.435	41474.2
544.328	41558.8
547.22	41657.6
550.113	41807.5
553.006	41855.1
555.898	41914.9
558.791	42067.7
561.684	42129.9
564.577	42451.7
567.469	42459.2
570.362	42523.4
573.255	42712
576.147	42763.4
579.04	42825.5
581.933	42966.2
584.825	42976.7
587.718	43181.9
590.611	43241.2
593.504	43363.9
596.396	43399.6
599.289	43499.4
602.182	43746.5
605.074	43820.2
607.967	43963.5
610.86	44046
613.752	43922.8
616.645	43972.6
619.538	44203.4
622.431	44234.8
625.323	44380.7
628.216	44567.1
631.109	44629.4
634.001	44678.5
636.894	44750.8
639.787	44822.3
642.679	44929.7
645.572	44950.7
648.465	45090.8
651.357	45257.1
654.25	45377.8
657.143	45373.8
660.036	45518
662.928	45628.7
665.821	45710.5
668.714	45752.8
671.606	45816.5
674.499	46022.1
677.392	46152
680.284	46252.5
683.177	46104.3
686.07	46528.6
688.963	46337.4
691.855	46350.5
694.748	46640.8
697.641	46753.2
700.533	46909.5
703.426	46982.3
706.319	46966.5
709.212	47236.2
712.104	46982.1
714.997	47008.6
717.89	47278.9
720.782	47258.3
723.675	47477.5
726.568	47402.2
729.46	47410.8
732.353	47476.4
735.246	47503.8
738.139	47596.9
741.031	47720.7
743.924	47928.9
746.817	47815.8
749.709	47906.7
752.602	48028.6
755.495	47914.5
758.387	47984
761.28	48176.3
764.173	48074.7
767.066	48045
769.958	48262.3
772.851	48270.1
775.744	48365.2
778.636	48198.4
781.529	48305
784.422	48370.7
787.314	48570.1
790.207	48608.9
793.1	48689.5
795.992	48733.1
798.885	48635.3
801.778	48826.3
804.671	48713.3
807.563	48864.7
810.456	48967.8
813.349	48936
816.241	49100.3
819.134	49105.8
822.027	49041.5
824.919	49248.3
827.812	49221.3
830.705	49333.3
833.598	49342.2
836.49	49548.9
839.383	49425.3
842.276	49545.2
845.168	49520.8
848.061	49575
850.954	49681.7
853.846	49811.8
856.739	49786.2
859.632	49835.9
862.525	49940.5
865.417	50051.2
868.31	50240.4
871.203	50283
874.095	50162.7
876.988	50124.1
879.881	50134.9
882.774	50426.4
885.666	50372.6
888.559	50444.2
891.452	50647.7
894.344	50504.4
897.237	50726.9
900.13	50666.2
903.022	50681.3
905.915	50947.4
908.808	50875.9
911.701	50881.3
914.593	51041.8
917.486	51127.4
920.379	51168.2
923.271	51176.2
926.164	51115.1
929.057	51357.3
931.949	51409.3
934.842	51449.6
937.735	51433.7
940.628	51528.1
943.52	51561.8
946.413	51833.8
949.306	51692.2
952.198	51817
955.091	51713.3
957.984	51748.4
960.876	51723.8
963.769	51774.9
966.662	51909.9
969.554	51988.1
972.447	52038.4
975.34	52003
978.233	52116.9
981.125	52249
984.018	52265.7
986.911	52319.5
989.803	52352.4
992.696	52448.8
995.589	52481.5
998.481	52461.9
1001.37	52530.3
1004.27	52409.5
1007.16	52759.1
1010.05	52560.5
1012.95	52588.1
1015.84	52703.3
1018.73	52808.4
1021.62	52795.3
1024.52	52861.3
1027.41	52958
1030.3	52934.2
1033.19	53034.1
1036.09	53022.1
1038.98	53062.4
1041.87	53096.4
1044.77	53177.4
1047.66	53143.5
1050.55	53222.1
1053.44	53325.3
1056.34	53424.6
1059.23	53614.7
1062.12	53382.6
1065.01	53480.2
1067.91	53488.2
1070.8	53604.7
1073.69	53762.5
1076.58	53757.6
1079.48	53739.5
1082.37	53744.6
1085.26	53778.7
1088.15	53919.3
1091.05	53838.6
1093.94	53921.4
1096.83	53955.3
1099.73	54021
1102.62	54240.3
1105.51	53980.5
1108.4	54139.7
1111.3	54319.1
1114.19	54510.7
1117.08	54403
1119.97	54480.9
1122.87	54611.6
1125.76	54497.1
1128.65	54628
1131.55	54675.9
1134.44	54752.2
1137.33	54851.1
1140.22	54900.2
1143.12	54973.3
1146.01	54967.4
1148.9	55122.4
1151.8	55016.2
1154.69	55037.4
1157.58	55101
1160.47	55057.6
1163.37	55120.2
1166.26	55083.8
1169.15	55073.2
1172.04	55106.3
1174.94	55189.5
1177.83	55393.1
1180.72	55139.4
1183.61	55347.2
1186.51	55452.1
1189.4	55441.8
1192.29	55612.9
1195.18	55703.2
1198.08	56058.7
1200.97	55724.1
1203.86	55943.1
1206.76	56111
1209.65	56058.6
1212.54	56184.6
1215.43	56205.4
1218.33	56102.9
1221.22	56352.4
1224.11	56192.5
1227.01	56195.2
1229.9	56060.1
1232.79	56056.3
1235.68	56073.8
