Measurement: Raman, 514 nm, unoriented, Raman Data RAW
Mineral: Grossular
Rruff sample: X060020
Ideal chemistry: Ca_3_Al_2_(SiO_4_)_3_
Locality: Laguna de Jaco, Chihuahua, Mexico
Source: University of Arizona Mineral Museum
Description: Single crystal
Raman shift (cm-1)	intensity
154.767	3153
159.799	3290
164.827	3382.33
169.851	3525.67
174.872	3751.33
179.889	4072
184.902	3743
189.912	3828.33
194.918	3864.67
199.921	3890.67
204.92	3971.67
209.915	4049.33
214.907	4085.33
219.895	4171.67
224.88	4195.33
229.861	4269.67
234.838	4570.67
239.812	4574.33
244.782	5021
249.749	4470
254.711	4470.33
259.671	4524.67
264.627	4554.33
269.579	4615.33
274.527	5096.33
279.473	4783
284.414	4744.33
289.352	4735.33
294.286	4722.33
299.217	4749
304.144	4816.94
309.068	4861.33
313.988	4926.67
318.904	4974.67
323.817	5075.33
328.727	5218.33
333.632	5077.33
338.535	5198
343.433	5243.59
348.329	5285.33
353.22	5353.33
358.108	5552.48
362.993	6676
367.874	7248.33
372.751	8501.33
377.625	7213.67
382.495	5958.67
387.362	5638.33
392.226	5551.33
397.085	5553.67
401.942	5566.33
406.794	5686.67
411.644	5889.33
416.489	5672.33
421.332	5620.67
426.17	5588.33
431.005	5669.67
435.837	5645
440.665	5730
445.49	5766
450.311	5833.4
455.129	5843.39
459.943	5830.33
464.753	5921.67
469.561	5882.67
474.364	6026.67
479.164	5976.67
483.961	6036.67
488.754	6076.33
493.544	6162.67
498.33	6201
503.113	6186.67
507.892	6262.67
512.668	6207.33
517.44	6208.67
522.209	6252
526.974	6306.33
531.736	6307
536.495	6490.67
541.25	6947.33
546.001	7096.33
550.749	6576.33
555.494	6456.67
560.235	6494.33
564.973	6553.33
569.707	6564.33
574.438	6615
579.165	6590.67
583.889	6641.67
588.61	6634
593.327	6681.33
598.04	6707.67
602.75	6812
607.457	6858.67
612.16	6903
616.86	6888
621.557	6989
626.25	7044
630.939	7057
635.625	6940.67
640.308	7005
644.988	7024.33
649.663	7030.67
654.336	7070
659.005	7085.33
663.671	7091.33
668.333	7155.67
672.992	7181
677.647	7244
682.3	7259.33
686.948	7258
691.594	7332.33
696.235	7388
700.874	7396.33
705.509	7354
710.141	7441.67
714.769	7474.33
719.394	7541.67
724.016	7546.33
728.634	7582.33
733.249	7558.33
737.86	7701
742.468	7737
747.073	7752.33
751.674	7770
756.272	7782.76
760.867	7823.33
765.458	7856.22
770.046	7995.67
774.631	8012
779.212	8026.33
783.79	8078.33
788.364	8041.67
792.935	8092.67
797.503	8188
802.068	8261
806.629	8410
811.186	8646.67
815.741	9026
820.292	9598.67
824.84	9759
829.384	9378.33
833.925	9138.67
838.463	8973.61
842.997	8987.32
847.528	8950.48
852.056	8968.08
856.581	8952.13
861.102	9034.48
865.62	9266.83
870.134	9840.37
874.645	10870.9
879.153	11352.5
883.658	10306.9
888.159	9504.52
892.657	9175.12
897.152	9048.97
901.643	9011.48
906.131	9036.95
910.616	8964.81
915.098	8967.96
919.576	8947.11
924.051	8913.14
928.522	8953.3
932.991	8942.16
937.456	9050.51
941.917	9095.6
946.376	9085.22
950.831	9077.42
955.283	9052.57
959.732	9070.12
964.177	9143.82
968.619	9204.27
973.058	9237.22
977.494	9314.77
981.926	9350.62
986.355	9406.81
990.781	9476.9
995.203	9473.8
999.623	9565.32
1004.04	9684.13
1008.45	9487.67
1012.86	9493.51
1021.84	9498.33
1026.33	9468.67
1030.82	9467.67
1035.3	9563
1039.78	9525.67
1044.26	9615.67
1048.73	9710.67
1053.2	9681.67
1057.67	9618.33
1062.14	9580.33
1066.6	9682
1071.06	9784.33
1075.51	9786
1079.96	9781
1084.41	9825.33
1088.86	9951
1093.3	9938.67
1097.74	9928
1102.18	9890
1106.61	9995.67
1111.04	9970.33
1115.47	10061
1119.89	10014
1124.31	10033.7
1128.73	10024.3
1133.14	10039.7
1137.55	10111.7
1141.96	10155.7
1146.37	10192.7
1150.77	10266.3
1155.16	10226
1159.56	10201.3
1163.95	10229.3
1168.34	10267
1172.73	10309.3
1177.11	10342.3
1181.49	10376.3
1185.87	10347
1190.24	10434
1194.61	10397.7
1198.98	10468
1203.34	10437
1207.7	10435
1212.06	10497
1216.42	10473
1220.77	10456
1225.12	10586
1229.46	10591.7
1233.81	10636.3
1238.15	10604.3
1242.48	10710.7
1246.82	10677.7
1251.15	10676.7
1255.47	10656.3
1259.8	10589.3
1264.12	10721.5
1268.44	10767
1272.75	10672.7
1277.06	10695.7
1281.37	10771.3
1285.68	10808.3
1289.98	10803.7
1294.28	10880
1298.58	10848.3
1302.87	10810.7
1307.16	10985.3
1311.45	10926
1315.73	10808.3
1320.01	10901
1324.29	10827.7
1328.56	11022
1332.84	10913.7
1337.11	10902.3
1341.37	10897.7
1345.63	10995
1349.89	10993.3
1354.15	10969
1358.4	11060.3
1362.65	11038
1366.9	11024.7
1371.15	11134.7
1375.39	11045
1379.63	11053
1383.86	11153.7
1388.1	11107
1392.32	11189.3
1396.55	11191.3
1400.77	11171.7
1404.99	11149.7
1409.21	11125.7
1413.43	11135.7
1417.64	11255
1421.85	11205.7
1426.05	11269.3
1430.25	11258.3
1434.45	11262.3
1438.65	11285.7
1442.84	11386.7
1447.03	11366.7
1451.22	11301
1455.4	11394.7
1459.58	11334.3
1463.76	11383.7
1467.94	11301.7
1472.11	11357
1476.28	11348.7
1480.44	11457.7
1484.61	11401.3
1488.77	11451
1492.93	11435
1497.08	11459.3
1501.23	11492.7
1505.38	11444.3
1509.53	11467.7
1513.67	11503.3
1517.81	11514.7
1521.94	11434.3
1526.08	11562.3
1530.21	11506.3
1534.34	11467
1538.46	11523
1542.58	11457
1546.7	11519
1550.82	11561
1554.93	11573.3
1559.04	11563.7
1563.14	11574.7
1567.25	11605.3
1571.35	11605.7
1575.45	11576.7
1579.54	11517.7
1583.63	11510.7
1587.72	11660.7
1591.81	11608
1595.89	11623
1599.97	11605
1604.05	11694.3
1608.12	11634
1612.19	11537.3
1616.26	11733.3
1620.33	11537.3
1624.39	11637.3
1628.45	11615.7
1632.51	11587
1636.56	11604.3
1640.61	11626.7
1644.66	11684
1648.71	11713
1652.75	11634.7
1656.79	11734.2
1660.82	11620.7
