Measurement: Raman, 633 nm, unoriented, Raman Data RAW
Mineral: Guite
Rruff sample: R180022
Ideal chemistry: Co^2+^Co^3+^_2_O_4_
Locality: Sicomines copper-cobalt mine, near Kolwezi City, Democratic Republic of Congo
Source: Xiangping Gu
Description: Dark grey, granular aggregates 100 to 500 μm in size, in which single crystals of guite are estimated to be several to tens of microns. Associated with hetrogenite and quartz. Part of co-type sample.
Measured chemistry: (Co^2+^_0.93_Cu^2+^_0.02_Si_0.02_)_Σ0.97_(Co^3+^_1.99_Mn^3+^_0.03_)_Σ2.02_O_4.01_
Raman shift (cm-1)	intensity
100	28.9993
102.625	28
105.251	26.883
107.876	30.4427
110.502	27.7067
113.127	23.0297
115.753	30
118.378	31.7066
121.004	28.53
123.629	32.9954
126.254	36.3512
128.88	34.0358
131.505	35.7253
134.131	27.046
136.756	30.9161
139.382	32.6516
142.007	39.531
144.632	32.4021
147.258	38.3332
149.883	43.8978
152.509	50.9365
155.134	49.4049
157.76	54.6219
160.385	52.6144
163.011	52.9942
165.636	50.8058
168.261	55.2979
170.887	57.5533
173.512	48.3357
176.138	56.058
178.763	66.4158
181.389	81.5183
184.014	107.606
186.639	145.096
189.265	224.264
191.89	378.555
194.516	714.514
197.141	1269.39
199.767	961.94
202.392	714.536
205.018	567.75
207.643	448.017
210.268	315.834
212.894	220.237
215.519	158.048
218.145	119.375
220.77	105.293
223.396	78.3325
226.021	85.2855
228.646	60.8783
231.272	56.6743
233.897	54.4886
236.523	46.8826
239.148	44.2467
241.774	41.0014
244.399	34.5681
247.025	35.7875
249.65	36.1878
252.275	34.7666
254.901	34.6279
257.526	35.9278
260.152	40.6517
262.777	34.2495
265.403	41.2742
268.028	29.4775
270.653	34.2502
273.279	27.9182
275.904	32.1959
278.53	39.915
281.155	35.6604
283.781	32.3991
286.406	35.2652
289.031	36.9086
291.657	34.3557
294.282	36.0805
296.908	25.4951
299.533	32.6804
302.159	27.3225
304.784	32.835
307.41	34.2175
310.035	33.8334
312.66	35.6298
315.286	38.9386
317.911	33.4779
320.537	35.6851
323.162	36.5205
325.788	42.1575
328.413	41.2723
331.039	25.4422
333.664	44.8293
336.289	36.6958
338.915	35.8884
341.54	37.2802
344.166	35.835
346.791	34.6215
349.417	43.6429
352.042	45.4971
354.667	33.6611
357.293	39.5097
359.918	34.8582
362.544	40.6195
365.169	35.38
367.795	45.5773
370.42	41.089
373.046	36.7511
375.671	38.6708
378.296	36.7668
380.922	35.6029
383.547	41.8311
386.173	47.6539
388.798	37.6501
391.424	35.8969
394.049	38.3419
396.674	39.53
399.3	28.3841
401.925	31.2286
404.551	40.1015
407.176	37.2439
409.802	36.8321
412.427	46.2468
415.053	39.8713
417.678	35.7457
420.303	29.9037
422.929	44.449
425.554	39.4045
428.18	34.6387
430.805	38.9893
433.431	43.7543
436.056	35.3299
438.681	39.4689
441.307	32.8159
443.932	38.7299
446.558	41.2573
449.183	41.4557
451.809	42.2705
454.434	51.8726
457.06	42.9117
459.685	45.7749
462.31	54.4765
464.936	51.6168
467.561	49.7999
470.187	61.9982
472.812	58.111
475.438	62.538
478.063	81.7935
480.688	111.396
483.314	169.286
485.939	258.198
488.565	229.448
491.19	191.735
493.816	172.607
496.441	159.306
499.067	145.893
501.692	124.978
504.317	85.6132
506.943	95.8052
509.568	78.4899
512.194	77.7728
514.819	82.1689
517.445	92.396
520.07	101.573
522.695	123.527
525.321	131.918
527.946	146.993
530.572	135.062
533.197	149.539
535.823	125.003
538.448	103.273
541.073	86.4227
543.699	76.9112
546.324	70.2174
548.95	65.3446
551.575	62.4733
554.201	63.4904
556.826	63.2697
559.452	52.6098
562.077	57.351
564.702	52.3179
567.328	52.3055
569.953	52.4064
572.579	50.131
575.204	52.4193
577.83	51.581
580.455	53.0174
583.081	49.7074
585.706	48.5682
588.331	54.745
590.957	51.9421
593.582	51.379
596.208	51.6809
598.833	65.6665
601.459	57.7823
604.084	71.6611
606.709	71.8469
609.335	71.9998
611.96	72.9399
614.586	90.8031
617.211	111.557
619.837	156.604
622.462	194.765
625.088	186.067
627.713	162.111
630.338	150.33
632.964	146.396
635.589	135.459
638.215	123.26
640.84	115.032
643.466	77.0438
646.091	74.3587
648.716	78.4534
651.342	63.1819
653.967	52.6297
656.593	45.1161
659.218	50.4
661.844	59.0036
664.469	53.5163
667.095	61.8787
669.72	62.9457
672.345	59.3335
674.971	74.7635
677.596	77.7584
680.222	89.102
682.847	104.229
685.473	110.307
688.098	124.682
690.723	156.303
693.349	167.377
695.974	165.614
698.6	146.546
701.225	139.251
703.851	137.822
706.476	121.367
709.101	102.756
711.727	83.455
714.352	70.1718
716.978	58.5265
719.603	47.7273
722.229	34.4702
724.854	34.2094
727.48	41.3006
730.105	39.9778
732.73	27.1863
735.356	30.2252
737.981	30.4434
740.607	26.8478
743.232	29.1486
745.858	29.3416
748.483	29.7696
751.109	29.9221
753.734	28.6581
756.359	29.0386
758.985	32.0041
761.61	29.8003
764.236	27.7841
766.861	37.9758
769.487	30.4488
772.112	30.8036
774.737	30.065
777.363	30.1592
779.988	28.1576
782.614	27.7536
785.239	28.1648
787.865	33.7794
790.49	29.3995
793.116	23.9641
795.741	21.7919
798.366	26.5918
800.992	21.5267
803.617	20.8761
806.243	20.7195
808.868	23.1676
811.494	26.2123
814.119	21.4857
816.744	24.2171
819.37	26.1723
821.995	21.6542
824.621	22.6884
827.246	22.1703
829.872	18.7504
832.497	23.9346
835.122	33.306
837.748	34.6209
840.373	28.461
842.999	27.5564
845.624	35.2021
848.25	26.6138
850.875	21.0536
853.501	24.7575
856.126	26.2614
858.751	22.1974
861.377	30.3516
864.002	28.168
866.628	26.1528
869.253	25.5162
871.879	22.5624
874.504	27.9783
877.13	33.5345
879.755	24.2894
882.38	25.5926
885.006	28.176
887.631	17.522
890.257	21.0905
892.882	21.9253
895.508	23.8884
898.133	16.6721
900.758	22.1081
903.384	29.7744
906.009	20.6757
908.635	27.4459
911.26	19.2292
913.886	27.0154
916.511	16.7883
919.137	21.9392
921.762	16.125
924.387	22.3306
927.013	17.1105
929.638	23.7532
932.264	17.9229
934.889	16.1392
937.515	13.8293
940.14	22.7719
942.765	21.0585
945.391	17.3911
948.016	19.3162
950.642	22.124
953.267	12.7039
955.893	22.1671
958.518	24.6224
961.143	23.6597
963.769	17.7136
966.394	26.3975
969.02	18.6816
971.645	20.5633
974.271	14.0393
976.896	18.1752
979.522	17.0361
982.147	13.1394
984.772	23.6879
987.398	20.8113
990.023	18.3288
992.649	18.4824
995.274	17.0312
997.9	14.9911
