Measurement: Raman, 532 nm, unoriented, Raman Data RAW
Mineral: Guite
Rruff sample: R180022
Ideal chemistry: Co^2+^Co^3+^_2_O_4_
Locality: Sicomines copper-cobalt mine, near Kolwezi City, Democratic Republic of Congo
Source: Xiangping Gu
Description: Dark grey, granular aggregates 100 to 500 μm in size, in which single crystals of guite are estimated to be several to tens of microns. Associated with hetrogenite and quartz. Part of co-type sample.
Measured chemistry: (Co^2+^_0.93_Cu^2+^_0.02_Si_0.02_)_Σ0.97_(Co^3+^_1.99_Mn^3+^_0.03_)_Σ2.02_O_4.01_
Raman shift (cm-1)	intensity
100	101.72
102.498	87.2557
104.995	80.8833
107.493	118.036
109.991	85
112.488	84.7867
114.986	80.556
117.484	95.1637
119.981	81.9309
122.479	81.5774
124.977	78.3632
127.475	78.1484
129.972	76.136
132.47	85.6812
134.968	70.4763
137.465	82.5845
139.963	84.9033
142.461	75.4065
144.958	81.8186
147.456	85.5049
149.954	84.5594
152.451	88.0984
154.949	98.0628
157.447	99.7529
159.944	88.0087
162.442	85.4853
164.94	97.9336
167.438	63.3459
169.935	77.4038
172.433	80.6615
174.931	87.7041
177.428	85.5999
179.926	98.1075
182.424	101.078
184.921	114.592
187.419	149.194
189.917	191.2
192.414	264.652
194.912	392.389
197.41	392.97
199.907	371.987
202.405	310.558
204.903	230.35
207.401	186.708
209.898	161.549
212.396	133.163
214.894	115.332
217.391	118.85
219.889	112.714
222.387	117.558
224.884	119.923
227.382	110.383
229.88	94.2958
232.377	95.5512
234.875	86.2119
237.373	80.919
239.87	82.6736
242.368	84.1216
244.866	90.109
247.364	80.5972
249.861	77.3141
252.359	71.8519
254.857	75.4154
257.354	72.9867
259.852	75.0163
262.35	70.0906
264.847	73.3821
267.345	73.3519
269.843	77.6881
272.34	81.7399
274.838	79.1771
277.336	82.261
279.834	75.3939
282.331	77.5389
284.829	77.7696
287.327	69.4779
289.824	78.5296
292.322	74.4371
294.82	74.6528
297.317	71.5482
299.815	72.4591
302.313	79.1486
304.81	66.1015
307.308	67.0204
309.806	73.4884
312.303	67.5878
314.801	72.1256
317.299	65.9744
319.796	65.598
322.294	86.6709
324.792	74.4224
327.29	75.7268
329.787	78.362
332.285	83.4039
334.783	77.3132
337.28	72.3784
339.778	76.7405
342.276	81.5259
344.773	72.4169
347.271	77.5571
349.769	79.8669
352.266	76.5151
354.764	67.0298
357.262	85.6276
359.759	76.2789
362.257	70.8613
364.755	75.492
367.253	78.5144
369.75	80.7307
372.248	80.3274
374.746	75.5202
377.243	85.8182
379.741	83.7158
382.239	86.7726
384.736	82.4782
387.234	78.6677
389.732	84.6251
392.229	76.8508
394.727	93.4234
397.225	73.0101
399.722	85.6525
402.22	98.424
404.718	86.2084
407.216	82.7539
409.713	95.8332
412.211	89.6298
414.709	89.8473
417.206	85.3379
419.704	97.1449
422.202	95.2537
424.699	100.895
427.197	92.7248
429.695	118.315
432.192	103.764
434.69	96.1517
437.188	99.8515
439.685	98.6107
442.183	100.112
444.681	98.7682
447.179	114.359
449.676	109.665
452.174	117.975
454.672	126.181
457.169	132.446
459.667	138.372
462.165	162.057
464.662	179.674
467.16	183.787
469.658	212.579
472.155	259.812
474.653	332.078
477.151	445.036
479.648	594.194
482.146	696.234
484.644	742.352
487.142	705.204
489.639	635.996
492.137	541.515
494.635	463.558
497.132	363.356
499.63	314.698
502.128	295.995
504.625	286.684
507.123	296.867
509.621	311.769
512.118	360.259
514.616	402.028
517.114	464.916
519.611	548.788
522.109	644.207
524.607	675.716
527.105	684.016
529.602	669.427
532.1	633.935
534.598	533.676
537.095	477.512
539.593	387.697
542.091	342.312
544.588	293.486
547.086	248.83
549.584	230.531
552.081	211.815
554.579	214.102
557.077	200.527
559.574	226.019
562.072	195.885
564.57	212.677
567.067	209.142
569.565	193.002
572.063	207.617
574.561	199.733
577.058	212.465
579.556	207.698
582.054	213.606
584.551	232.004
587.049	223.591
589.547	231.468
592.044	243.375
594.542	250.635
597.04	255.872
599.537	253.652
602.035	254.328
604.533	246.605
607.031	235.108
609.528	229.843
612.026	242.132
614.524	275.578
617.021	291.044
619.519	316.219
622.017	328.518
624.514	345.633
627.012	332.453
629.51	339.18
632.007	330.471
634.505	299.026
637.003	273.553
639.5	265.493
641.998	263.392
644.496	255.136
646.994	245.452
649.491	254.162
651.989	267.067
654.487	265.245
656.984	285.398
659.482	309.115
661.98	371.806
664.477	414.339
666.975	493.463
669.473	589.348
671.97	703.152
674.468	854.465
676.966	1078.69
679.463	1338.99
681.961	1706.97
684.459	2266.59
686.957	2832.69
689.454	3311.84
691.952	3530.72
694.45	3544.29
696.947	3326.26
699.445	2752.02
701.943	2274
704.44	1698.46
706.938	1234.32
709.436	886.49
711.933	685.452
714.431	516.191
716.929	392.335
719.426	320.226
721.924	255.793
724.422	224.051
726.919	181.442
729.417	174.028
731.915	149.391
734.413	150.487
736.91	122.942
739.408	123.164
741.906	114.092
744.403	114.434
746.901	117.183
749.399	111.705
751.896	119.233
754.394	102.688
756.892	111.468
759.389	110.798
761.887	116.175
764.385	108.673
766.883	108.61
769.38	110.676
771.878	109.168
774.376	113.05
776.873	108.205
779.371	108.536
781.869	108.495
784.366	101.63
786.864	108.65
789.362	95.3736
791.859	100.788
794.357	100.898
796.855	96.7961
799.352	94.0433
801.85	94.8486
804.348	92.0413
806.846	88.7163
809.343	90.4306
811.841	91.5637
814.339	95.3442
816.836	91.2608
819.334	94.7834
821.832	93.7453
824.329	93.3428
826.827	97.1883
829.325	103.656
831.822	97.9845
834.32	98.5447
836.818	97.5584
839.315	92.8695
841.813	98.0803
844.311	87.2146
846.809	102.15
849.306	104.797
851.804	93.3478
854.302	91.2427
856.799	91.5926
859.297	93.1412
861.795	91.2424
864.292	100.283
866.79	95.2276
869.288	89.6932
871.785	87.9892
874.283	81.977
876.781	80.9185
879.278	72.2412
881.776	71.8964
884.274	79.5732
886.771	67.3882
889.269	67.1299
891.767	72.6806
894.265	80.1492
896.762	64.9405
899.26	69.9337
901.758	73.0124
904.255	71.3731
906.753	73.5089
909.251	53.9409
911.748	59.887
914.246	66.4077
916.744	60.4074
919.241	60.7222
921.739	56.2684
924.237	64.2987
926.735	62.1138
929.232	55.9013
931.73	51.0849
934.228	58.8835
936.725	59.4373
939.223	60.4678
941.721	75.0641
944.218	66.4746
946.716	73.5753
949.214	68.9035
951.711	75.9893
954.209	80.5901
956.707	73.0301
959.204	74.4882
961.702	77.9856
964.2	79.3627
966.698	83.976
969.195	78.7575
971.693	71.8203
974.191	72.3274
976.688	71.6445
979.186	75.2852
981.684	71.634
984.181	71.0537
986.679	61.7985
989.177	67.2115
991.674	70.4641
994.172	64.3269
996.67	60.7829
999.167	67.2615
