Measurement: Raman, 514 nm, unoriented, Raman Data RAW
Mineral: Hafnon
Rruff sample: X050100
Ideal chemistry: Hf^4+^SiO_4_
Locality: synthetic, grown by J.Hanchar
Source: Caltech
Raman shift (cm-1)	intensity
152.781	487
157.818	691.042
162.855	345.958
167.893	250.312
172.93	279.177
177.967	311.826
183.005	364.128
188.042	437.351
193.079	550.015
198.116	764.113
203.154	2236.3
208.191	4620.45
213.228	7311.77
218.266	4748.35
223.303	1094.5
228.34	608.367
233.377	481.468
238.415	442.527
243.452	450.347
248.489	443.917
253.526	464.86
258.564	466.709
263.601	495.029
268.638	498.026
273.675	493.33
278.713	474
283.75	499.698
288.787	511.826
293.825	528.111
298.862	555.405
303.899	586.815
308.936	621.81
313.974	669.071
319.011	749.631
324.048	893.526
329.086	1169.95
334.123	1970.83
339.16	5817.03
344.197	13371.5
349.235	21681.5
354.272	17471.1
359.309	5489.97
364.346	2352.78
369.384	1667.2
374.421	1261.08
379.458	1007.22
384.496	881.907
389.533	907.23
394.57	1079.25
399.607	1357.97
404.645	1465.19
409.682	997.283
414.719	763.032
419.757	761.794
424.794	864.843
429.831	1103.72
434.868	2013.29
439.906	4960.86
444.943	8993.75
449.98	11683.7
455.017	7131.75
460.055	2687.18
465.092	1612.77
470.129	1193.33
475.167	962.557
480.204	843.687
485.241	785.017
490.278	781.35
495.316	756.515
500.353	726.791
505.39	717.79
510.428	724.295
515.465	710.083
520.502	734.125
525.539	664.128
530.577	683.699
535.614	694.128
540.651	695.885
545.688	711.141
550.726	716.627
555.763	651.042
560.8	621.944
565.838	626.07
570.875	634.324
575.912	625.854
580.949	618.561
585.987	621.433
591.024	625.408
596.061	627.191
601.098	640.051
606.136	656.383
611.173	674.005
616.21	657.201
621.248	630.739
626.285	653.262
631.322	654.2
636.359	603
641.397	632.165
646.434	638.679
651.471	608.12
656.509	618.944
661.546	588.711
666.583	616.772
671.62	586.094
676.658	584
681.695	616
686.732	622.785
691.769	629.598
696.807	636.565
701.844	628.301
706.881	618.959
711.919	632.522
716.956	608.767
721.993	619.699
727.03	624.4
732.068	605.881
737.105	615.876
742.142	594.609
747.18	611.449
752.217	617.023
757.254	613.639
762.291	602.396
767.329	624.143
772.366	637.548
777.403	636.63
782.441	640.955
787.478	667.616
792.515	659.032
797.552	640.973
802.59	681.54
807.627	667.691
812.664	651.139
817.701	663.659
822.739	665.89
827.776	654.629
832.813	630.887
837.851	648.786
842.888	669.979
847.925	647.472
852.962	661.278
858	649.645
863.037	657.591
868.074	656.065
873.111	660.919
878.149	641.533
883.186	679.565
888.223	673.892
893.261	708.961
898.298	711.178
903.335	693.208
908.372	716.009
913.41	716.961
918.447	743.824
923.484	837.172
928.521	1053.77
933.559	1217.45
938.596	1175.12
943.633	892.19
948.671	835.22
953.708	834.355
958.745	890.242
963.783	1026.83
968.82	1361.15
973.857	3312.47
978.894	8949.39
983.932	16144.1
988.969	13665.3
994.006	4461.49
999.043	2542.79
1004.08	2887.35
1009.12	6385.6
1014.16	22562.7
1019.19	43749.1
1024.23	46179
1029.27	12165.1
1034.3	3474.02
1039.34	2164.34
1044.38	1725.53
1049.42	1498.3
1054.45	1436.26
1059.49	1288.29
1064.53	1303.24
1069.57	1272
1074.6	1325.31
1079.64	1351.56
1084.68	1310.32
1089.71	1277.13
1094.75	1245.38
1099.79	1224.4
1104.83	1169.68
1109.86	1085.93
1114.9	1021.53
1119.94	958.383
1124.98	886.094
1130.01	885.524
1135.05	889.391
1140.09	848.482
1145.12	847.83
1150.16	862.61
1155.2	838.073
1160.24	831.04
1165.27	831.436
1170.31	810.584
1175.35	817.198
1180.39	800.272
1185.42	794.012
1190.46	817.168
1195.5	816.533
1200.53	822.984
1205.57	768.743
1210.61	802.723
1215.65	780.363
1220.68	822.698
1225.72	835.764
1230.76	838.005
1235.8	856.109
1240.83	832.933
1245.87	817.151
1250.91	847.806
1255.94	882.856
1260.98	850.544
1266.02	848.326
1271.06	895.881
1276.09	872.506
1281.13	883.921
1286.17	905
1291.21	891.331
1296.24	896.176
1301.28	925.277
1306.32	868.426
1311.35	910.351
1316.39	887.168
1321.43	893.169
1326.47	873.484
1331.5	891.961
1336.54	891.722
1341.58	896.798
1346.62	893.605
1351.65	861.97
1356.69	878.689
1361.73	893.427
1366.76	855.933
1371.8	876.042
1376.84	852.924
1381.88	846.989
1386.91	862.55
1391.95	860.493
1396.99	847.098
1402.03	845.094
1407.06	927.833
1412.1	897.075
1417.14	916.166
1422.17	903.017
1427.21	884.453
1432.25	893.421
1437.29	912.282
1442.32	897.757
1447.36	898.287
1452.4	905.36
1457.44	894.838
1462.47	927.859
1467.51	970.518
1472.55	991.333
1477.58	924.007
1482.62	949.725
1487.66	955.454
1492.7	933.341
1497.73	965.709
1502.77	969
