Measurement: Raman, 780 nm, unoriented, Raman Data Processed
Mineral: Hagendorfite
Rruff sample: R160083
Ideal chemistry: Na_2_Mn^2+^(Fe^2+^Fe^3+^)(P^5+^O_4_)_3_
Locality: Palermo No. 1 mine, Groton, Grafton County, New Hampshire, USA
Source: Rock Currier
Description: Massive dark green crystals (Labeled originally as ferrohagendorfite).
Measured chemistry: (Na_1.51_Ca_0.25_Mg_0.24_)_∑=2_(Mn_0.78_Fe^2+^_0.21_)_∑=0.99_Fe^2+^_2.00_(PO_4_)_3_
Raman shift (cm-1)	intensity
150.74	0
153.632	7.08167
156.525	0.553101
159.418	4.97339
162.31	8.16034
165.203	5.57843
168.096	6.09558
170.988	11.97
173.881	8.86261
176.774	12.345
179.667	8.05841
182.559	5.49737
185.452	5.29633
188.345	3.41827
191.237	0.865906
194.13	0.908325
197.023	0.356689
199.916	0.550964
202.808	3.09851
205.701	1.14276
208.594	4.63159
211.486	13.0708
214.379	16.5485
217.272	20.5443
220.164	20.1394
223.057	14.3613
225.95	13.0071
228.843	13.4811
231.735	12.2723
234.628	15.4876
237.521	12.9129
240.413	17.3201
243.306	14.4459
246.199	17.3783
249.091	13.3775
251.984	11.8194
254.877	14.0956
257.769	14.9555
260.662	18.499
263.555	15.5447
266.448	17.3348
269.34	16.3425
272.233	19.9127
275.126	21.4638
278.018	25.2431
280.911	23.6597
283.804	20.1199
286.697	19.6215
289.589	14.7156
292.482	11.7676
295.375	8.48462
298.267	7.29108
301.16	3.99835
304.053	6.008
306.945	2.23126
309.838	0.118835
312.731	0.105103
315.623	1.38831
318.516	2.97284
321.409	1.44641
324.302	2.25617
327.194	2.84094
330.087	2.1853
332.98	4.42529
335.873	3.67053
338.765	1.24097
341.658	3.65485
344.551	4.66858
347.443	2.28149
350.336	2.46191
353.229	3.34112
356.121	1.77454
359.014	3.53082
361.907	3.09265
364.8	2.42517
367.692	4.22522
370.585	0.916931
373.478	1.95996
376.37	1.40674
379.263	0.481812
382.156	0.2276
385.048	0.386902
387.941	0.632813
390.834	2.63513
393.726	0.400024
396.619	3.81268
399.512	0.46106
402.405	1.00049
405.297	1.15491
408.19	1.00916
411.083	4.51678
413.975	0.77887
416.868	1.10693
419.761	2.76385
422.654	4.49017
425.546	4.95593
428.439	4.08258
431.332	3.84863
434.224	4.84827
437.117	9.71149
440.01	11.1552
442.902	10.7836
445.795	11.8681
448.688	12.8339
451.58	13.6493
454.473	15.8746
457.366	17.4703
460.259	17.2624
463.151	16.413
466.044	18.1161
468.937	18.9746
471.829	21.3386
474.722	21.745
477.615	19.7104
480.507	18.739
483.4	18.0305
486.293	20.4969
489.186	16.9443
492.078	16.1091
494.971	15.6218
497.864	14.0602
500.756	13.3984
503.649	9.91522
506.542	12.1754
509.435	13.8869
512.327	12.0547
515.22	6.84814
518.112	1.15814
521.005	0.114685
523.898	0.012085
526.791	1.40338
529.683	0.072693
532.576	0.858215
535.469	0.775452
538.361	0.460083
541.254	0.400635
544.147	1.78686
547.04	3.80847
549.932	6.091
552.825	5.32513
555.718	1.75769
558.61	4.8324
561.503	6.58673
564.396	8.14191
567.288	9.96716
570.181	9.43042
573.074	10.3317
575.967	14.3684
578.859	18.2583
581.752	22.8312
584.645	22.2709
587.537	25.1143
590.43	23.9739
593.323	23.0764
596.216	19.7562
599.108	20.9658
602.001	24.2758
604.894	19.8707
607.786	19.7497
610.679	17.3992
613.572	17.0194
616.464	15.8778
619.357	13.8108
622.25	14.2522
625.143	13.1136
628.035	14.831
630.928	14.3413
633.821	14.2391
636.713	15.8926
639.606	14.614
642.499	11.7993
645.391	8.67773
648.284	7.73547
651.177	7.93256
654.069	6.65881
656.962	9.60767
659.855	6.48749
662.748	4.8573
665.64	5.93506
668.533	4.28662
671.426	3.59662
674.318	1.23016
677.211	4.84375
680.104	3.60608
682.996	0.227661
685.889	0.414124
688.782	0.418152
691.675	1.83655
694.567	1.35385
697.46	2.26267
700.353	0.39325
703.245	0.70108
706.138	4.9378
709.031	0.052338
711.923	2.8978
714.816	1.09204
717.709	0.888855
720.602	0.291931
723.494	1.20548
726.387	0.19812
729.28	1.57373
732.172	0.496124
735.065	1.02081
737.958	2.00656
740.851	1.21472
743.743	1.1431
746.636	3.02359
749.529	1.5582
752.421	1.01923
755.314	0.271545
758.207	1.13638
761.099	1.29333
763.992	2.62152
766.885	2.39392
769.778	1.47473
772.67	0.621155
775.563	1.68668
778.456	3.84378
781.348	2.62613
784.241	0.975464
787.134	3.20358
790.026	3.0076
792.919	4.64368
795.812	1.76291
798.705	5.33148
801.597	3.50806
804.49	5.00641
807.383	6.53479
810.275	6.76318
813.168	6.29114
816.061	5.65332
818.953	8.71133
821.846	6.16705
824.739	6.0473
827.631	5.71564
830.524	5.79068
833.417	6.86472
836.31	8.29987
839.202	7.95648
842.095	9.99509
844.988	9.1217
847.88	8.4679
850.773	10.6799
853.666	8.53537
856.558	9.05411
859.451	8.31317
862.344	7.87976
865.237	8.75177
868.129	9.78079
871.022	6.5813
873.915	6.7691
876.807	6.89902
879.7	3.95435
882.593	3.57971
885.486	3.66086
888.378	3.08313
891.271	0.482635
894.164	0.949829
897.056	0.149017
899.949	0.103546
902.842	2.58768
905.734	0.200653
908.627	4.91388
911.52	1.06857
914.413	0.201111
917.305	0.302795
920.198	1.6824
923.091	0.320007
925.983	0.490692
928.876	1.4613
931.769	3.47501
934.661	2.1766
937.554	1.04834
940.447	3.46213
943.34	6.00018
946.232	7.90888
949.125	8.99463
952.018	9.76211
954.91	9.02103
957.803	10.9016
960.696	10.972
963.588	11.5802
966.481	12.5964
969.374	15.0014
972.266	12.9454
975.159	11.456
978.052	13.5735
980.945	12.3228
983.837	11.6146
986.73	12.3489
989.623	9.85687
992.515	10.9769
995.408	10.2342
998.301	11.5221
1001.19	9.16388
1004.09	9.81457
1006.98	8.66257
1009.87	6.74329
1012.76	9.72113
1015.66	8.56009
1018.55	7.41754
1021.44	8.08801
1024.34	8.45566
1027.23	10.3207
1030.12	9.04205
1033.01	11.3528
1035.91	9.56494
1038.8	7.74735
1041.69	9.05096
1044.58	6.09225
1047.48	8.1839
1050.37	3.91128
1053.26	3.28622
1056.15	3.31918
1059.05	4.68613
1061.94	3.48328
1064.83	4.43839
1067.73	3.96185
1070.62	2.9202
1073.51	4.87213
1076.4	3.86822
1079.3	3.93247
1082.19	5.49963
1085.08	5.14102
1087.97	1.01318
1090.87	3.05023
1093.76	0.877869
1096.65	0.052826
1099.55	0.709808
1102.44	2.45712
1105.33	2.12454
1108.22	1.43487
1111.12	1.10416
1114.01	1.77347
1116.9	0.411194
1119.79	0.329834
1122.69	0.877472
1125.58	0.540466
1128.47	1.42923
1131.37	1.53308
1134.26	2.87949
1137.15	2.56601
1140.04	0.397247
1142.94	0.562805
1145.83	0.491669
1148.72	4.07788
1151.61	1.0192
1154.51	0.499573
1157.4	1.13818
1160.29	1.07541
1163.18	3.57806
1166.08	6.34717
1168.97	1.34592
1171.86	6.00867
1174.76	3.71353
1177.65	3.15585
1180.54	1.12927
1183.43	1.76599
1186.33	0.002808
1189.22	2.09967
1192.11	1.59122
1195.01	2.22562
1197.9	2.02124
1200.79	1.67523
1203.68	2.99432
1206.58	1.64807
1209.47	2.4462
1212.36	1.88593
1215.25	1.55051
1218.15	1.90924
1221.04	2.24301
1223.93	1.06345
1226.82	1.09985
1229.72	1.19025
1232.61	2.56311
1235.5	2.60892
1238.39	0.589111
1241.29	1.5968
1244.18	3.16119
1247.07	0.726746
1249.97	2.87506
1252.86	2.26453
1255.75	1.81757
1258.64	3.63715
1261.54	2.62973
1264.43	1.8815
1267.32	3.76801
1270.21	1.52683
1273.11	1.51318
1276	1.77908
1278.89	1.6055
1281.79	0.410675
