Measurement: Raman, 532 nm, unoriented, Raman Data Processed
Mineral: Hagendorfite
Rruff sample: R160083
Ideal chemistry: Na_2_Mn^2+^(Fe^2+^Fe^3+^)(P^5+^O_4_)_3_
Locality: Palermo No. 1 mine, Groton, Grafton County, New Hampshire, USA
Source: Rock Currier
Description: Massive dark green crystals (Labeled originally as ferrohagendorfite).
Measured chemistry: (Na_1.51_Ca_0.25_Mg_0.24_)_∑=2_(Mn_0.78_Fe^2+^_0.21_)_∑=0.99_Fe^2+^_2.00_(PO_4_)_3_
Raman shift (cm-1)	intensity
207.702	0
210.594	3.26898
213.487	1.7077
216.38	6.32916
219.273	10.587
222.165	17.6406
225.058	16.8693
227.951	18.2966
230.843	14.7217
233.736	15.8774
236.629	11.6352
239.521	10.5639
242.414	2.80225
245.307	2.41296
248.2	0.855835
251.092	3.54425
253.985	2.43744
256.878	5.50519
259.77	5.73865
262.663	15.5267
265.556	14.7056
268.448	21.7033
271.341	27.9564
274.234	35.3045
277.127	41.0467
280.019	49.4974
282.912	51.557
285.805	47.2097
288.697	42.0282
291.59	34.4595
294.483	24.3602
297.375	18.5931
300.268	16.5347
303.161	12.5099
306.053	13.1001
308.946	6.91833
311.839	7.2973
314.732	3.4154
317.624	0.751953
320.517	0.848999
323.41	1.51404
326.302	0.462402
329.195	3.23785
332.088	3.54816
334.981	4.75787
337.873	5.62543
340.766	7.3598
343.659	10.1868
346.551	6.53101
349.444	9.45343
352.337	6.46887
355.229	9.35523
358.122	5.38415
361.015	6.74402
363.908	3.99927
366.8	10.8131
369.693	4.59125
372.586	3.2309
375.478	6.35175
378.371	6.56781
381.264	0.714905
384.156	0.393433
387.049	0.58075
389.942	1.29822
392.834	1.1239
395.727	3.27155
398.62	4.54163
401.513	11.5366
404.405	5.26325
407.298	5.03088
410.191	7.14429
413.083	10.2606
415.976	7.75971
418.869	7.19122
421.762	5.77515
424.654	5.40369
427.547	8.01013
430.44	8.47168
433.332	7.41547
436.225	9.01868
439.118	9.95514
442.01	13.1879
444.903	18.5856
447.796	20.4323
450.688	21.9474
453.581	26.5545
456.474	30.0233
459.367	28.9855
462.259	29.2299
465.152	26.8008
468.045	25.9464
470.937	26.1555
473.83	26.4935
476.723	19.8521
479.615	14.853
482.508	12.6071
485.401	9.08643
488.294	7.45538
491.186	5.51819
494.079	1.73584
496.972	0.083313
499.864	1.09351
502.757	1.65692
505.65	0.65332
508.543	2.03137
511.435	0.463806
514.328	1.44232
517.221	2.09106
520.113	0.222961
523.006	3.07178
525.899	4.4635
528.791	5.04193
531.684	11.9758
534.577	11.7964
537.47	12.6658
540.362	13.2767
543.255	10.6149
546.148	14.4004
549.04	17.8109
551.933	17.1664
554.826	18.0468
557.718	13.8768
560.611	16.6882
563.504	17.3422
566.396	18.5986
569.289	17.8224
572.182	20.6385
575.075	21.6947
577.967	21.713
580.86	27.272
583.753	26.0426
586.645	30.5283
589.538	35.5619
592.431	34.834
595.323	38.1022
598.216	36.7529
601.109	32.9625
604.002	30.3
606.894	26.9047
609.787	26.9302
612.68	26.0493
615.572	19.1925
618.465	18.0755
621.358	11.4562
624.25	13.0215
627.143	9.08801
630.036	8.02136
632.929	8.68365
635.821	8.25006
638.714	6.76379
641.607	4.62695
644.5	6.91571
647.392	7.49512
650.285	7.30707
653.178	8.77185
656.07	8.04748
658.963	5.65112
661.856	6.47577
664.748	1.62836
667.641	0.36792
670.534	1.10199
673.427	1.32812
676.319	1.17389
679.212	0.422058
682.105	0.746521
684.997	0.860718
687.89	0.908875
690.783	1.99725
693.675	1.35742
696.568	4.44623
699.461	1.83856
702.354	2.63666
705.246	3.28754
708.139	2.09418
711.032	3.22656
713.924	4.68671
716.817	3.80359
719.71	5.77936
722.602	6.24561
725.495	7.31427
728.388	5.64844
731.28	4.10449
734.173	3.81555
737.066	6.52429
739.959	5.27564
742.851	5.34601
745.744	1.01062
748.637	2.64056
751.529	2.30273
754.422	1.0321
757.315	2.28711
760.207	0.026489
763.1	0.21991
765.993	0.091675
768.886	5.16846
771.778	3.48834
774.671	3.13715
777.564	4.35504
780.456	6.99951
783.349	5.55689
786.242	4.7793
789.135	5.28558
792.027	8.97467
794.92	9.35883
797.813	7.33063
800.705	10.0654
803.598	12.8165
806.491	12.0266
809.383	11.7789
812.276	14.0239
815.169	16.2952
818.062	19.642
820.954	21.2943
823.847	21.0753
826.74	22.1658
829.632	21.4829
832.525	20.6526
835.418	22.8044
838.31	24.9093
841.203	21.1681
844.096	23.2941
846.989	20.8598
849.881	25.8326
852.774	26.7145
855.667	24.7767
858.559	25.8891
861.452	27.0737
864.345	28.7845
867.237	26.1844
870.13	23.3135
873.023	19.2795
875.915	16.5122
878.808	15.332
881.701	12.6196
884.594	11.1921
887.486	8.0993
890.379	2.19348
893.272	1.94476
896.164	2.92413
899.057	7.69086
901.95	0.868835
904.842	0.708801
907.735	5.05017
910.628	1.81415
913.521	4.92554
916.413	1.89294
919.306	0.266907
922.199	2.9505
925.091	5.41278
927.984	10.3332
930.877	15.1753
933.769	21.1034
936.662	33.7778
939.555	51.1655
942.448	74.1524
945.34	102.606
948.233	125.197
951.126	126.699
954.018	106.924
956.911	81.9091
959.804	64.4069
962.697	54.3291
965.589	46.998
968.482	44.8754
971.375	46.4221
974.267	42.8889
977.16	48.706
980.053	41.2139
982.945	33.7286
985.838	32.6711
988.731	26.2006
991.624	23.2387
994.516	22.2382
997.409	17.1209
1000.3	15.4972
1003.19	19.1545
1006.09	20.932
1008.98	21.0993
1011.87	21.838
1014.76	18.2109
1017.66	13.7411
1020.55	8.14496
1023.44	1.53119
1026.34	1.16797
1029.23	3.09161
1032.12	7.46033
1035.01	1.12817
1037.91	0.495972
1040.8	1.89911
1043.69	9.44861
1046.59	12.001
1049.48	14.4967
1052.37	14.8727
1055.26	9.54193
1058.16	5.88013
1061.05	7.62872
1063.94	9.80566
1066.83	9.30573
1069.73	16.4851
1072.62	23.4159
1075.51	43.2255
1078.4	57.4217
1081.3	81.2604
1084.19	108.95
1087.08	100.339
1089.97	72.6566
1092.87	40.5448
1095.76	18.1601
1098.65	7.55939
1101.55	4.47882
1104.44	0.942383
1107.33	0.102356
1110.22	0.580811
1113.12	0.60083
1116.01	0.444092
1118.9	0.259583
1121.8	0.883911
1124.69	2.914
1127.58	2.00708
1130.47	1.00439
1133.37	5.83356
1136.26	7.29303
1139.15	6.86719
1142.04	8.04865
1144.94	4.95636
1147.83	3.04089
1150.72	1.75415
1153.62	4.92218
1156.51	3.91254
1159.4	1.23865
1162.29	6.19141
1165.19	4.17932
1168.08	3.72449
1170.97	4.77911
1173.86	2.06604
1176.76	1.42047
1179.65	7.81659
1182.54	1.43744
1185.43	3.18182
1188.33	4.62048
1191.22	5.3858
1194.11	4.42822
1197.01	4.69208
1199.9	4.73352
1202.79	4.74029
1205.68	5.46509
1208.58	6.37256
1211.47	7.69214
1214.36	8.76355
1217.25	6.55548
1220.15	6.35608
1223.04	6.46045
1225.93	6.73846
1228.83	6.05603
1231.72	7.58374
1234.61	3.98773
1237.5	5.06146
1240.4	4.14331
1243.29	1.39246
1246.18	3.78674
1249.07	7.26721
1251.97	6.42896
1254.86	4.20764
1257.75	5.026
1260.64	6.54492
1263.54	2.77142
1266.43	4.51526
1269.32	4.00134
1272.21	3.89301
1275.11	0.553406
1278	1.74023
1280.89	0.523193
1283.79	3.1936
1286.68	4.95258
1289.57	3.12384
1292.46	4.0108
1295.36	1.38525
1298.25	3.08441
