Measurement: Raman, 780 nm, unoriented, Raman Data RAW
Mineral: Hainite-(Y)
Rruff sample: R141183
Ideal chemistry: (Ca_3_Y^3+^)Na(NaCa)Ti^4+^(Si_2_O_7_)_2_(OF)F_2_
Locality: Langesund Fjord, Norway
Source: Marcelo B. Andrade
Description: Prismatic light brown crystals embedded in albite.
Measured chemistry: Na_2.00_Ca_4.00_(Zr_0.27_Y_0.24_Ca_0.09_Mn_0.08_Fe_0.07_Ce_0.06_La_0.03_Nd^3+^_0.03_Dy_0.03_Yb_0.02_Er_0.02_Na_0.02_Pr_0.01_Lu_0.01_Sr_0.01_)_0.99_(Ti_0.79_Zr_0.15_Nd^5+^_0.06_)_1.00_(Si_2.02_O_7_)_2_OF_2.88_
Raman shift (cm-1)	intensity
98.3096	56472.4
101.684	58688.6
105.059	61282.5
108.434	63514.4
111.809	66111.8
115.184	68525.9
118.558	70794.5
121.933	73185.3
125.308	75462.1
128.683	77716.9
132.058	80014.2
135.433	82721.5
138.807	85449.5
142.182	88096
145.557	90799.6
148.932	93402.1
152.307	96002.2
155.681	98364.7
159.056	100871
162.431	103359
165.806	105595
169.181	107496
172.555	109501
175.93	111296
179.305	113068
182.68	115054
186.055	116965
189.43	118765
192.804	120123
196.179	121526
199.554	122757
202.929	124148
206.304	125310
209.678	126141
213.053	127178
216.428	127851
219.803	128458
223.178	128786
226.553	129250
229.927	129117
233.302	129114
236.677	128852
240.052	128398
243.427	127899
246.801	127538
250.176	126754
253.551	125943
256.926	125411
260.301	125424
263.675	125422
267.05	125877
270.425	126607
273.8	127233
277.175	128103
280.55	128767
283.924	129121
287.299	129549
290.674	130440
294.049	130325
297.424	130968
300.798	131425
304.173	132524
307.548	133559
310.923	134707
314.298	136444
317.673	138372
321.047	140532
324.422	142532
327.797	144733
331.172	147144
334.547	149877
337.921	153073
341.296	155608
344.671	158072
348.046	160826
351.421	163012
354.796	165889
358.17	169049
361.545	172247
364.92	175068
368.295	178324
371.67	181168
375.044	183634
378.419	186366
381.794	189574
385.169	193102
388.544	197016
391.918	201310
395.293	206035
398.668	210701
402.043	215625
405.418	221173
408.793	225805
412.167	230773
415.542	235265
418.917	239390
422.292	243922
425.667	247354
429.041	250290
432.416	252430
435.791	253531
439.166	253556
442.541	253094
445.915	250516
449.29	247315
452.665	243127
456.04	238006
459.415	233053
462.789	227593
466.164	223015
469.539	219908
472.914	217000
476.289	214151
479.664	212054
483.038	210770
486.413	208974
489.788	206958
493.163	204783
496.538	202018
499.913	198577
503.287	194933
506.662	190398
510.037	185544
513.412	179726
516.787	173910
520.161	167469
523.536	161318
526.911	155398
530.286	149449
533.661	144089
537.035	139035
540.41	134333
543.785	129729
547.16	125652
550.535	121525
553.909	118173
557.284	114557
560.659	111309
564.034	108176
567.409	105371
570.784	102748
574.158	100061
577.533	97691.4
580.908	95157.1
584.283	92814.6
587.658	90462.3
591.033	88470.7
594.407	86499.7
597.782	84795.5
601.157	82908.4
604.532	81224.3
607.907	79512.7
611.281	78150.2
614.656	76664.7
618.031	75347.1
621.406	74144.4
624.781	73012
628.155	71881.1
631.53	70731.2
634.905	69837.7
638.28	68688.5
641.655	67735.3
645.029	66658.3
648.404	65503.2
651.779	64480
655.154	63363.1
658.529	62548.4
661.904	61388.1
665.278	60245
668.653	58960
672.028	57784.8
675.403	56518.1
678.778	55439.3
682.153	54371.6
685.527	53341.2
688.902	52288.5
692.277	51369.6
695.652	50430.8
699.027	49564.6
702.401	48822.9
705.776	48111.6
709.151	47468.5
712.526	46814.5
715.901	46229.4
719.275	45674
722.65	45138.7
726.025	44614.4
729.4	44231.2
732.775	44006.5
736.149	43666.6
739.524	43376.9
742.899	43054.9
746.274	42851.5
749.649	42718.6
753.024	42539.3
756.398	42443.7
759.773	42218.7
763.148	42145.8
766.523	42175.7
769.898	42092.1
773.273	42028
776.647	41997.2
780.022	41883.2
783.397	41763.1
786.772	41669.1
790.146	41655.6
793.521	41528.1
796.896	41318.4
800.271	41153
803.646	41070.7
807.021	41099.7
810.395	40990.9
813.77	40882.3
817.145	40936.2
820.52	41012.1
823.895	40978.9
827.269	41054.5
830.644	41132.5
834.019	41173.9
837.394	41351.1
840.769	41492.9
844.144	41550.2
847.518	41517.7
850.893	41596.8
854.268	41403.1
857.643	41271.7
861.018	41050.9
864.393	40935.5
867.767	40639.6
871.142	40432.7
874.517	40175.4
877.892	39739.1
881.266	39450.6
884.641	39356
888.016	38800.7
891.391	38507.6
894.766	38105.2
898.141	37814.9
901.515	37528.3
904.89	37252.2
908.265	36995.5
911.64	36565.3
915.015	36193
918.389	35978.1
921.764	35430.7
925.139	35297.3
928.514	35022.2
931.889	34936.3
935.264	34801.4
938.638	34730.5
942.013	34676.7
945.388	34570.7
948.763	34684.2
952.138	34871.3
955.512	35117.6
958.887	35366.2
962.262	35501.2
965.637	35724.7
969.012	35943.6
972.386	36146.8
975.761	36325.9
979.136	36699.3
982.511	37176.1
985.886	37292.7
989.261	37802.9
992.635	38058
996.01	38464.9
999.385	39001.5
1002.76	39483.3
1006.13	40012.9
1009.51	40591
1012.88	41019.9
1016.26	41966.4
1019.63	42369.5
1023.01	42996.7
1026.38	43643.5
1029.76	44521.4
1033.13	45211
1036.51	46309.1
1039.88	47029.1
1043.26	47979.7
1046.63	48798.3
1050.01	49686.6
1053.38	50611.2
1056.76	51613.9
1060.13	52688
1063.51	53551.2
1066.88	54458.4
1070.26	55630.1
1073.63	56590.4
1077.01	57645.5
1080.38	59022.9
1083.76	60513.8
1087.13	62087.1
1090.51	63547.2
1093.88	65292.1
1097.26	66779.4
1100.63	68961.3
1104	71048.6
1107.38	73643.1
1110.75	75762
1114.13	78036.3
1117.5	80629.3
1120.88	83529.4
1124.25	86677.4
1127.63	90282.2
1131	93919.1
1134.38	98031.3
1137.75	102243
1141.13	106736
1144.5	111473
1147.88	116802
1151.25	122172
1154.63	128307
1158	134414
1161.38	141575
1164.75	148962
1168.13	157293
1171.5	166058
1174.88	175330
1178.25	185618
1181.62	196237
1185	207612
1188.38	219698
1191.75	232993
1195.12	247629
1198.5	262434
1201.87	278958
1205.25	295668
1208.62	313795
1212	333288
1215.37	353441
1218.75	374016
1222.12	397243
1225.5	422765
1228.87	450198
1232.25	478861
1235.62	508001
1239	538700
1242.37	571060
1245.75	604546
1249.12	639119
1252.5	673658
1255.87	709216
1259.25	742706
1262.62	773861
1265.99	803287
1269.37	829510
1272.74	851480
1276.12	871274
1279.49	888828
1282.87	907512
