Measurement: Raman, 532 nm, unoriented, Raman Data RAW
Mineral: Hainite-(Y)
Rruff sample: R141183
Ideal chemistry: (Ca_3_Y^3+^)Na(NaCa)Ti^4+^(Si_2_O_7_)_2_(OF)F_2_
Locality: Langesund Fjord, Norway
Source: Marcelo B. Andrade
Description: Prismatic light brown crystals embedded in albite.
Measured chemistry: Na_2.00_Ca_4.00_(Zr_0.27_Y_0.24_Ca_0.09_Mn_0.08_Fe_0.07_Ce_0.06_La_0.03_Nd^3+^_0.03_Dy_0.03_Yb_0.02_Er_0.02_Na_0.02_Pr_0.01_Lu_0.01_Sr_0.01_)_0.99_(Ti_0.79_Zr_0.15_Nd^5+^_0.06_)_1.00_(Si_2.02_O_7_)_2_OF_2.88_
Raman shift (cm-1)	intensity
93.6401	13778.4
97.0149	14123.3
100.39	14510.7
103.765	15168.9
107.139	16250.9
110.514	17633.5
113.889	18944.5
117.264	19878.4
120.639	20393.8
124.013	20744.8
127.388	20891.6
130.763	20918.1
134.138	20823.2
137.513	20713.7
140.888	20569.2
144.262	20368.3
147.637	20060.8
151.012	19721.5
154.387	19395.1
157.762	18950.9
161.137	18592.9
164.511	18230.2
167.886	17864.8
171.261	17483.1
174.636	17071.2
178.011	16704.6
181.385	16384.9
184.76	16160.6
188.135	15922
191.51	15781.3
194.885	15600.5
198.26	15506.9
201.634	15433.6
205.009	15394.3
208.384	15380.7
211.759	15379.3
215.133	15383.9
218.508	15282.7
221.883	15069.2
225.258	14809
228.633	14599.3
232.008	14365.8
235.382	14220.5
238.757	14120.7
242.132	14071.4
245.507	14015.6
248.882	13981.4
252.256	14016.8
255.631	14110
259.006	14270
262.381	14440.1
265.756	14648.6
269.131	14874.3
272.505	15179.7
275.88	15511.7
279.255	15832.2
282.63	16137.9
286.005	16517.9
289.38	16937.5
292.754	17360.2
296.129	17797.5
299.504	18258.1
302.879	18832.5
306.254	19436.9
309.628	20102.6
313.003	20777.3
316.378	21467
319.753	22149.7
323.128	22973.3
326.502	23832
329.877	24634.1
333.252	25465.5
336.627	26362.6
340.002	27336.3
343.377	28265.4
346.751	29181.4
350.126	30134.6
353.501	31042.9
356.876	32006.8
360.251	33059.3
363.625	33986.2
367	34873.7
370.375	35597.6
373.75	36305
377.125	37134.7
380.5	37846
383.874	38543.2
387.249	39268.4
390.624	39966.6
393.999	40646.4
397.374	41593.4
400.748	42564.6
404.123	43604.3
407.498	44515.7
410.873	45460.4
414.248	46518.5
417.623	47777.5
420.997	48883.3
424.372	49811.7
427.747	50857.6
431.122	51948.2
434.497	53216.2
437.872	54729.1
441.246	56415.5
444.621	58125.4
447.996	59945.6
451.371	61774.8
454.745	63717.6
458.12	65788
461.495	67600.1
464.87	69714.5
468.245	71895.3
471.62	74393.1
474.994	76820.1
478.369	78958.4
481.744	80792.8
485.119	82059.4
488.494	82785.3
491.868	83364.6
495.243	84309.8
498.618	85595.3
501.993	87070.8
505.368	88006.6
508.743	88177.2
512.117	87711.3
515.492	87010.3
518.867	86717
522.242	87364.5
525.617	88779.7
528.991	90234.1
532.366	91538.6
535.741	92090.7
539.116	92204.8
542.491	92308.2
545.866	92187.1
549.24	91460.4
552.615	89142.3
555.99	85247.9
559.365	80517.9
562.74	75269.6
566.115	69833.1
569.489	65204.1
572.864	61648.2
576.239	59130.9
579.614	57490.4
582.989	56423.1
586.363	55866
589.738	55239.2
593.113	54748.8
596.488	54022
599.863	53208.7
603.237	52138.5
606.612	51050.7
609.987	49846.6
613.362	48522.8
616.737	47256
620.112	46040.1
623.486	45025.4
626.861	44147.9
630.236	43427.3
633.611	42831.7
636.986	42338.2
640.361	42040.2
643.735	41882.4
647.11	41888.5
650.485	41953.9
653.86	42186.2
657.235	42253.2
660.609	42282.9
663.984	42197.1
667.359	41822.3
670.734	41194.9
674.109	40604.1
677.484	40099.4
680.858	39926.5
684.233	39759.9
687.608	39705.2
690.983	39700.8
694.357	39642.3
697.732	39711
701.107	39803.6
704.482	39870.6
707.857	39995.3
711.232	40183.6
714.606	40330.8
717.981	40450.3
721.356	40663.2
724.731	40911.3
728.106	41213.6
731.481	41434.8
734.855	41691
738.23	42126.8
741.605	42458.2
744.98	42938.2
748.355	43371
751.729	43809.8
755.104	44093.7
758.479	44327.9
761.854	44663.3
765.229	45008.2
768.604	45317.7
771.978	45658.7
775.353	45944.4
778.728	46303.1
782.103	46606.7
785.478	47078.9
788.852	47367.2
792.227	47723.2
795.602	48111.1
798.977	48476.7
802.352	48839.2
805.726	49221.8
809.101	49448.7
812.476	49447.9
815.851	49475.9
819.226	49349.1
822.601	49127.2
825.975	48693.3
829.35	48353.2
832.725	48004.5
836.1	47805.8
839.475	47710.4
842.85	47687.7
846.224	47665.8
849.599	47531.4
852.974	47443.1
856.349	47521.7
859.724	47528.2
863.098	47432.8
866.473	47255
869.848	47295.1
873.223	47273
876.598	47193.8
879.972	47154.1
883.347	47161.1
886.722	47152.8
890.097	47215.9
893.472	47336.1
896.847	47392.8
900.221	47393.1
903.596	47408.1
906.971	47430.6
910.346	47474.9
913.721	47529.3
917.096	47674.7
920.47	47775.6
923.845	48009.6
927.22	48205.7
930.595	48442.4
933.97	48775.6
937.344	49071
940.719	49464
944.094	49990.7
947.469	50492.2
950.844	50814.8
954.218	50939.5
957.593	50799.6
960.968	50238.9
964.343	49786.6
967.718	49126.9
971.092	48198.3
974.467	47332.4
977.842	46430.4
981.217	45313.9
984.592	44220.1
987.967	43062.5
991.341	41767.4
994.716	40376.1
998.091	39035
1001.47	37751.8
1004.84	36429.6
1008.22	35175.5
1011.59	33977.9
1014.97	32850.2
1018.34	31753.7
1021.72	30663.8
1025.09	29683.9
1028.46	28853.7
1031.84	27944.1
1035.21	27224.6
1038.59	26529.2
1041.96	25870.5
1045.34	25282.7
1048.71	24624.8
1052.09	24023.2
1055.46	23316.2
1058.84	22547.5
1062.21	21796.3
1065.59	20999.5
1068.96	20275.2
1072.34	19537.3
1075.71	18908.7
1079.09	18321.8
1082.46	17748.6
1085.84	17220.2
1089.21	16621.6
1092.59	16026
1095.96	15446
1099.34	14962.9
1102.71	14473.5
1106.09	14031
1109.46	13601.1
1112.84	13220.5
1116.21	12834.2
1119.58	12493.4
1122.96	12135.5
1126.33	11810.3
1129.71	11476.2
1133.08	11181.7
1136.46	10914.8
1139.83	10693.3
1143.21	10454
1146.58	10216.4
1149.96	9982.22
1153.33	9803.61
1156.71	9611.77
1160.08	9441
1163.46	9257.7
1166.83	9090.57
1170.21	8941.14
1173.58	8821.88
1176.96	8683.78
1180.33	8571.84
1183.71	8436.83
1187.08	8330.08
1190.46	8245.56
1193.83	8130.6
1197.2	8029.25
1200.58	7942.23
1203.95	7839.28
1207.33	7772.35
1210.7	7692.7
1214.08	7616.28
1217.45	7535.62
1220.83	7475.17
1224.2	7414.93
1227.58	7335.79
1230.95	7292.23
1234.33	7233.16
1237.7	7186.22
1241.08	7136.31
1244.45	7103.98
1247.83	7071.19
1251.2	7042.62
1254.58	6998.43
1257.95	6970.41
1261.33	6934.32
1264.7	6889.11
1268.08	6869.83
1271.45	6836.24
1274.83	6827.12
1278.2	6817.81
1281.58	6795.5
1284.95	6755.87
1288.33	6744.12
1291.7	6710.95
1295.08	6684.58
1298.45	6668.77
1301.83	6617.98
