Measurement: Raman, 532 nm, unoriented, Raman Data RAW
Mineral: Halite
Rruff sample: R070586
Ideal chemistry: NaCl
Locality: Heringen, Werra Valley, Hesse, Germany
Source: James Shigley
Description: Colorless to blue-tinted crystal fragments
Measured chemistry: Na_1.00_Cl_1.00_
Raman shift (cm-1)	intensity
139.245	3547.16
142.138	3557.84
145.03	3609.71
147.923	3849.28
150.816	3933.25
153.709	3966.76
156.601	3884.09
159.494	3849.65
162.387	3866.98
165.279	3939.59
168.172	3916.03
171.065	3993.41
173.958	3969.89
176.85	3986.4
179.743	3958.29
182.636	3957.13
185.528	4001.34
188.421	4004.29
191.314	4000.41
194.206	3989.84
197.099	3990.96
199.992	4033.53
202.885	4054.7
205.777	3975.01
208.67	4010.98
211.563	3989.89
214.455	4053.23
217.348	4112.4
220.241	4138.47
223.133	4160.99
226.026	4232.39
228.919	4242.74
231.811	4313.98
234.704	4347.53
237.597	4343.79
240.49	4326.18
243.382	4262.78
246.275	4309.22
249.168	4346.71
252.06	4366.44
254.953	4386.77
257.846	4409.89
260.738	4414.38
263.631	4448.89
266.524	4469.23
269.417	4475.54
272.309	4485.52
275.202	4552.81
278.095	4659.81
280.987	4654.24
283.88	4618.1
286.773	4644.96
289.665	4643.47
292.558	4687.26
295.451	4707.68
298.344	4788.77
301.236	4741.31
304.129	4779.61
307.022	4759.42
309.914	4805.46
312.807	4834.26
315.7	4837.51
318.592	4822.95
321.485	4822.99
324.378	4904.7
327.271	4852.95
330.163	4929.18
333.056	4946.38
335.949	4953.08
338.841	4947.92
341.734	4929.05
344.627	5070.81
347.519	5031.76
350.412	5007.88
353.305	4948.88
356.197	4901.34
359.09	4902.26
361.983	4829.39
364.876	4760.11
367.768	4679.58
370.661	4594.76
373.554	4555.64
376.446	4489.23
379.339	4460.32
382.232	4400.31
385.125	4428.03
388.017	4390.2
390.91	4336.8
393.803	4394.92
396.695	4339.1
399.588	4343.54
402.481	4329.29
405.373	4301.01
408.266	4334.04
411.159	4241.08
414.051	4286.15
416.944	4291.48
419.837	4262.73
422.73	4278.7
425.622	4257.76
428.515	4258.69
431.408	4294.72
434.3	4297.43
437.193	4218.83
440.086	4194.79
442.978	4187.64
445.871	4259.39
448.764	4194.19
451.657	4174.55
454.549	4107.52
457.442	4102.26
460.335	4148.81
463.227	4134.89
466.12	4063.48
469.013	4108.06
471.905	4099.41
474.798	4089.68
477.691	4094.57
480.584	3999.61
483.476	4067.74
486.369	4058.97
489.262	3987.08
492.154	4004.14
495.047	3993.63
497.94	3999.23
500.832	3993.8
503.725	3959.34
506.618	3972.99
509.51	3991.09
512.403	3917.91
515.296	3909.78
518.189	3907
521.081	3906.4
523.974	3896.01
526.867	3883.03
529.759	3891.45
532.652	3871.84
535.545	3895.72
538.438	3879.01
541.33	3824.53
544.223	3822.69
547.116	3829.9
550.008	3872.81
552.901	3805.59
555.794	3847.71
558.686	3798.69
561.579	3788.85
564.472	3799.24
567.365	3764.06
570.257	3764.72
573.15	3769.92
576.043	3771.89
578.935	3784.66
581.828	3739.51
584.721	3734.52
587.613	3769.18
590.506	3717.65
593.399	3753.09
596.291	3748.63
599.184	3743.35
602.077	3710.98
604.97	3716.5
607.862	3682.75
610.755	3705.56
613.648	3715.16
616.54	3690.13
619.433	3679.84
622.326	3627.37
625.218	3705.77
628.111	3663.01
631.004	3648.96
633.896	3627.84
636.789	3635.21
639.682	3586.48
642.575	3596.76
645.467	3608.14
648.36	3616.09
651.253	3600.4
654.145	3676.73
657.038	3635.92
659.931	3574.65
662.823	3562.28
665.716	3593.57
668.609	3564.95
671.502	3590.26
674.394	3538.03
677.287	3560.37
680.18	3590.78
683.072	3557.88
685.965	3487.53
688.858	3501.67
691.75	3510.1
694.643	3520.9
697.536	3492.03
700.429	3472.65
703.321	3480.94
706.214	3484.3
709.107	3484.48
711.999	3488.28
714.892	3437.68
717.785	3431.24
720.678	3441.24
723.57	3440.16
726.463	3403.57
729.356	3389.38
732.248	3361.23
735.141	3344.83
738.034	3326.91
740.926	3336.52
743.819	3295.25
746.712	3325.86
749.604	3318.52
752.497	3242.06
755.39	3236.89
758.283	3227.14
761.175	3205.5
764.068	3220.69
766.961	3225.61
769.853	3210.89
772.746	3215.43
775.639	3154.09
778.531	3193.65
781.424	3156.09
784.317	3144.5
787.21	3104.97
790.102	3104.69
792.995	3100.08
795.888	3029.97
798.78	3093.3
801.673	3051.94
804.566	3067.53
807.458	3018.22
810.351	2967.11
813.244	2948.84
816.136	2965.72
819.029	2939.34
821.922	2952.77
824.815	2953.03
827.707	2931.7
830.6	2940.11
833.493	2919.49
836.385	2923.72
839.278	2909.74
842.171	2872.24
845.063	2880.93
847.956	2895.49
850.849	2886.95
853.742	2867.29
856.634	2814.41
859.527	2830.47
862.42	2797.72
865.312	2808.86
868.205	2816.49
871.098	2801.19
873.99	2839.84
876.883	2775.14
879.776	2795.74
882.669	2744.71
885.561	2757.02
888.454	2797.81
891.347	2777.06
894.239	2749.97
897.132	2784.35
900.025	2715.24
902.918	2704.45
905.81	2739.86
908.703	2725.43
911.596	2700
914.488	2728.43
917.381	2766.51
920.274	2713.45
923.166	2716.84
926.059	2682.13
928.952	2712.35
931.844	2728.67
934.737	2733.31
937.63	2715.53
940.523	2675.59
943.415	2669.39
946.308	2671.43
949.201	2643.96
952.093	2686.07
954.986	2645.55
957.879	2637.09
960.771	2664.66
963.664	2663.59
966.557	2653.05
969.449	2664.56
972.342	2653.74
975.235	2633.7
978.128	2605.32
981.02	2641.33
983.913	2660.88
986.806	2621.77
989.698	2624.18
992.591	2607.23
995.484	2589.71
998.376	2629.84
1001.27	2597.32
1004.16	2614.04
1007.05	2629.03
1009.95	2601.12
1012.84	2615.17
1015.73	2553.98
1018.62	2554.01
1021.52	2538.39
1024.41	2532.02
1027.3	2545.4
1030.2	2563.92
1033.09	2569.15
1035.98	2565.91
1038.87	2534.37
1041.77	2538.17
1044.66	2550.9
1047.55	2504.26
1050.44	2486.34
1053.34	2558.81
1056.23	2468.3
1059.12	2478.67
1062.02	2511.69
1064.91	2490.82
1067.8	2461.14
1070.69	2439.13
1073.59	2477.97
1076.48	2445.39
1079.37	2477.15
1082.27	2443.63
1085.16	2421.69
1088.05	2418.09
1090.94	2395.13
1093.84	2439.49
1096.73	2440.48
1099.62	2381.79
1102.51	2358.57
1105.41	2348.41
1108.3	2377.95
1111.19	2367.95
1114.08	2367.66
1116.98	2293.95
1119.87	2316.99
1122.76	2286.17
1125.65	2298.21
1128.55	2315.4
1131.44	2319.3
1134.33	2314.73
1137.23	2281.87
1140.12	2299.59
1143.01	2303.33
1145.9	2254.04
1148.8	2265.05
1151.69	2278.66
1154.58	2265.32
1157.47	2257.84
1160.37	2216.45
1163.26	2262
1166.15	2243.55
1169.05	2192.37
1171.94	2221.84
1174.83	2190.51
1177.72	2201.93
1180.62	2218.5
1183.51	2221.78
1186.4	2188.76
1189.3	2183.97
1192.19	2211.71
1195.08	2181.26
1197.97	2189.28
1200.87	2170.47
1203.76	2187.59
1206.65	2163.58
1209.54	2187.43
1212.44	2184.43
1215.33	2186.9
1218.22	2185.15
1221.11	2174.1
1224.01	2139.13
1226.9	2161.29
1229.79	2176.42
1232.68	2196.7
1235.58	2203.69
1238.47	2202.2
1241.36	2151.3
1244.26	2175.39
1247.15	2184.81
1250.04	2151.87
1252.93	2183.92
1255.83	2186.97
1258.72	2177.63
1261.61	2165.74
1264.51	2198.71
1267.4	2149.45
1270.29	2153.66
1273.18	2149.82
1276.08	2185.17
1278.97	2164.5
1281.86	2162.77
