Measurement: Raman, 785 nm, unoriented, Raman Data RAW
Mineral: Halite
Rruff sample: R070292
Ideal chemistry: NaCl
Locality: Stassfurt, Stassfurt Deposit, Saxony-Anhalt, Germany
Source: Michael Scott
Description: Blue to colorless cube
Raman shift (cm-1)	intensity
180.802	739.954
183.695	761.227
186.587	788.259
189.48	778.38
192.373	779.453
195.265	795.099
198.158	812.306
201.051	815.114
203.944	843.92
206.836	817.73
209.729	820.241
212.622	838.887
215.514	851.42
218.407	839.705
221.3	835.833
224.192	842.791
227.085	854.117
229.978	851.885
232.87	879.245
235.763	861.296
238.656	869.594
241.549	862.905
244.441	864.215
247.334	885.319
250.227	847.084
253.119	865.682
256.012	886.293
258.905	901.935
261.798	893.594
264.69	889.364
267.583	893.642
270.476	886.377
273.368	886.654
276.261	882.694
279.154	908.313
282.046	902.779
284.939	913.59
287.832	902.43
290.724	912.189
293.617	902.84
296.51	906.252
299.403	922.78
302.295	911.5
305.188	898.647
308.081	925.941
310.973	910.693
313.866	938.384
316.759	915.72
319.651	924.737
322.544	926.068
325.437	922.886
328.33	920.388
331.222	903.176
334.115	923.874
337.008	944.258
339.9	918.35
342.793	935.36
345.686	935.135
348.579	935.214
351.471	930.342
354.364	930.648
357.257	955.851
360.149	917.211
363.042	911.184
365.935	915.572
368.827	913.789
371.72	908.568
374.613	917.619
377.505	899.48
380.398	916.641
383.291	900.298
386.184	907.677
389.076	910.156
391.969	907.825
394.862	882.62
397.754	908.144
400.647	908.368
403.54	900.116
406.433	898.402
409.325	896.337
412.218	884.769
415.111	904.652
418.003	904.153
420.896	910.246
423.789	904.908
426.681	909.083
429.574	898.25
432.467	889.436
435.36	909.635
438.252	901.22
441.145	909.889
444.038	915.048
446.93	910.465
449.823	894.189
452.716	883.415
455.608	898.371
458.501	902.583
461.394	907.398
464.286	883.962
467.179	888.388
470.072	898.638
472.965	886.409
475.857	894.926
478.75	898.431
481.643	882.012
484.535	899.751
487.428	884.689
490.321	894.087
493.214	886.949
496.106	866.689
498.999	899.074
501.892	890.683
504.784	877.376
507.677	874.951
510.57	879.602
513.462	875.276
516.355	890.478
519.248	883.318
522.14	880.032
525.033	874.29
527.926	886.207
530.819	891.999
533.711	887.414
536.604	866.018
539.497	879.029
542.389	877.787
545.282	875.812
548.175	867.712
551.067	847.526
553.96	876.487
556.853	859.672
559.745	879.268
562.638	879.913
565.531	853.568
568.424	878.961
571.316	846.506
574.209	879.479
577.102	865.167
579.994	867.517
582.887	856.77
585.78	860.177
588.673	866.493
591.565	852.301
594.458	867.747
597.351	864.028
600.243	872.413
603.136	856.68
606.029	840.585
608.921	858.23
611.814	845.269
614.707	864.02
617.6	860.025
620.492	841.355
623.385	831.223
626.278	836.811
629.17	829.229
632.063	836.668
634.956	862.633
637.848	866.886
640.741	838.097
643.634	838.225
646.527	852.993
649.419	846.42
652.312	834.464
655.205	844.611
658.097	828.757
660.99	828.554
663.883	822.002
666.775	832.16
669.668	825.667
672.561	823.078
675.454	818.196
678.346	826.069
681.239	824.218
684.132	820.79
687.024	828.786
689.917	816.725
692.81	817.132
695.702	832.04
698.595	805.447
701.488	829.989
704.381	828.015
707.273	791.506
710.166	804.71
713.059	812.48
715.951	805.102
718.844	821.666
721.737	801.982
724.63	802.924
727.522	807.329
730.415	799.734
733.308	796.167
736.2	784.027
739.093	796.192
741.986	790.97
744.878	800.675
747.771	802.146
750.664	791.114
753.557	786.334
756.449	804.553
759.342	794.281
762.235	777.899
765.127	774.898
768.02	776.444
770.913	769.563
773.805	784.903
776.698	785.138
779.591	766.512
782.484	772.317
785.376	752.867
788.269	745.767
791.162	770.458
794.054	760.045
796.947	762.191
799.84	760.014
802.732	755.231
805.625	748.377
808.518	767.086
811.41	752.794
814.303	748.978
817.196	759.989
820.089	748.478
822.981	744.165
825.874	735.994
828.767	751.106
831.659	730.593
834.552	733.989
837.445	749.953
840.337	735.178
843.23	732.027
846.123	744.806
849.016	756.546
851.908	746.019
854.801	722.607
857.694	736.972
860.586	738.741
863.479	750.265
866.372	743.888
869.264	736.082
872.157	709.855
875.05	732.024
877.943	721.556
880.835	721.727
883.728	721.428
886.621	711.587
889.513	719.303
892.406	725.669
895.299	709.942
898.192	731.93
901.084	709.915
903.977	707.361
906.87	718.672
909.762	701.89
912.655	717.338
915.548	687.957
918.44	688.294
921.333	700.041
924.226	710.831
927.119	709.948
930.011	722.275
932.904	695.349
935.797	710.024
938.689	695.586
941.582	699.36
944.475	697.234
947.367	703.953
950.26	704.662
953.153	689.333
956.045	694.13
958.938	689.711
961.831	671.933
964.724	696.339
967.616	678.203
970.509	680.523
973.402	680.833
976.294	693.23
979.187	679.717
982.08	688.452
984.972	697.163
987.865	656.786
990.758	692.208
993.651	663.961
996.543	667.979
999.436	680.526
1002.33	667.995
1005.22	677.848
1008.11	681.251
1011.01	674.415
1013.9	671.223
1016.79	656.24
1019.68	654.116
1022.58	652.271
1025.47	677.696
1028.36	657.608
1031.26	669.882
1034.15	676.243
1037.04	657.988
1039.93	633.248
1042.83	660.622
1045.72	653.957
1048.61	648.166
1051.51	651.75
1054.4	646.774
1057.29	667.38
1060.18	656.533
1063.08	673.012
1065.97	651.244
1068.86	625.156
1071.75	658.324
1074.65	651.303
1077.54	635.68
1080.43	637.103
1083.32	650.067
1086.22	650.027
1089.11	652.503
1092	640.99
1094.89	647.595
1097.79	657.765
1100.68	639.225
1103.57	641.287
1106.47	632.621
1109.36	656.903
1112.25	639.313
1115.14	641.865
1118.04	633.152
1120.93	626.231
1123.82	621.6
1126.71	631.301
1129.61	621.821
1132.5	636.689
1135.39	611.11
1138.29	619.001
1141.18	630.545
1144.07	628.092
1146.96	618.879
1149.86	620.162
1152.75	611.705
1155.64	622.929
1158.53	611.291
1161.43	624.624
1164.32	613.233
1167.21	612.097
1170.11	631.939
1173	615.077
1175.89	603.962
1178.78	617.818
1181.68	613.375
1184.57	595.427
1187.46	609.747
1190.35	615.3
1193.25	609.586
1196.14	617.984
1199.03	597.161
1201.92	605.56
1204.82	608.322
1207.71	607.687
1210.6	600.984
1213.5	604.373
1216.39	584.901
1219.28	599.291
1222.17	592.836
1225.07	601.371
1227.96	595.289
1230.85	599.462
1233.74	601.732
1236.64	597.813
