Measurement: Raman, 785 nm, unoriented, Raman Data RAW
Mineral: Halite
Rruff sample: R070534
Ideal chemistry: NaCl
Locality: Searles Lake, San Bernadino County, California, USA
Source: James Shigley
Description: Colorless cubes
Raman shift (cm-1)	intensity
154.184	49163.9
157.076	49860.7
159.969	49637.5
162.862	48822.5
165.755	48708.3
168.647	49275
171.54	49336.2
174.433	49064.7
177.325	48440.4
180.218	47673.4
183.111	47041
186.003	46425.4
188.896	46116.1
191.789	46206.6
194.681	46109.8
197.574	45984.1
200.467	45862
203.36	45793.7
206.252	45687.1
209.145	45417.9
212.038	45280.9
214.93	45102.7
217.823	44919.7
220.716	44878.5
223.608	44854.8
226.501	44809.1
229.394	44623
232.287	44239.6
235.179	44357.3
238.072	44153.6
240.965	44176
243.857	44370.9
246.75	44133.1
249.643	43616.5
252.536	43274.2
255.428	43126.3
258.321	43180.4
261.214	43075.7
264.106	43128.9
266.999	42853.2
269.892	42624.6
272.784	42424.8
275.677	42334.6
278.57	42352.2
281.462	42199
284.355	42163
287.248	42156
290.141	41796.8
293.033	41810.4
295.926	41537.4
298.819	41387.6
301.711	41445.6
304.604	41250.4
307.497	41148.2
310.389	41083.9
313.282	41069.8
316.175	40876.1
319.068	40485.7
321.96	40364.4
324.853	40288.6
327.746	40496
330.638	40343.6
333.531	40350.9
336.424	40067.5
339.317	39980.2
342.209	39643.4
345.102	39694.1
347.995	39757.4
350.887	39621.8
353.78	39419.5
356.673	39434.3
359.565	39202.3
362.458	39050.4
365.351	38864.5
368.243	38682.8
371.136	38539.9
374.029	38530.9
376.922	38423.9
379.814	38216.7
382.707	38258.6
385.6	38118.8
388.492	38015.7
391.385	37825.4
394.278	37832.3
397.171	37733.3
400.063	37749.8
402.956	37550.1
405.849	37532.1
408.741	37297.2
411.634	37004.9
414.527	36840.3
417.42	36797.2
420.312	36855.8
423.205	36626.8
426.098	36455.7
428.99	36275.2
431.883	36128.9
434.776	35889.9
437.668	35882.4
440.561	35985.5
443.454	35821.1
446.346	35699.1
449.239	35438.8
452.132	35274.2
455.025	35192.7
457.917	35112.8
460.81	34840.9
463.703	34837
466.595	34704.9
469.488	34491.6
472.381	34331.7
475.274	34420.2
478.166	34302.6
481.059	34163.8
483.952	34070.2
486.844	33938.1
489.737	33812.2
492.63	33659.8
495.522	33588.2
498.415	33596.4
501.308	33249.8
504.2	33134.8
507.093	33064.6
509.986	33023.3
512.879	32767.7
515.771	32743.9
518.664	32686.5
521.557	32362.8
524.449	32311.1
527.342	32158.7
530.235	32174
533.128	32162.1
536.02	32047.7
538.913	31824.3
541.806	31810.9
544.698	31643.3
547.591	31549.2
550.484	31561
553.376	31437.9
556.269	31345.2
559.162	31151.6
562.054	31120.8
564.947	30888.1
567.84	30868.7
570.733	30749.9
573.625	30709.5
576.518	30440.4
579.411	30360.3
582.303	30246.3
585.196	30144.1
588.089	30083.4
590.981	29971.2
593.874	29907.7
596.767	29773.7
599.66	29733.3
602.552	29669.2
605.445	29690.5
608.338	29423.2
611.23	29425.6
614.123	29221.1
617.016	29193.7
619.909	29018.8
622.801	29064.6
625.694	28918.8
628.587	28810.8
631.479	28676.7
634.372	28609.7
637.265	28541.8
640.157	28524.5
643.05	28439.4
645.943	28355.4
648.836	28126.8
651.728	28132.7
654.621	28083
657.514	28045.6
660.406	27840.3
663.299	27788.4
666.192	27644.8
669.084	27739.5
671.977	27571.7
674.87	27368.9
677.763	27274
680.655	27364.5
683.548	27297.7
686.441	27108.7
689.333	27144.9
692.226	26943.9
695.119	26863.1
698.011	26752.8
700.904	26763
703.797	26624
706.69	26594.3
709.582	26474
712.475	26316.3
715.368	26311.2
718.26	26203.6
721.153	26226.5
724.046	26160.6
726.938	26060.9
729.831	25841
732.724	25757.1
735.617	25930.1
738.509	25897.6
741.402	25744
744.295	25587.4
747.187	25520.9
750.08	25437.7
752.973	25449.8
755.865	25339.5
758.758	25293
761.651	25307.4
764.544	25196.6
767.436	25104.8
770.329	25050.4
773.222	25159
776.114	25007.4
779.007	24894.8
781.9	24820.8
784.793	24922.8
787.685	24724
790.578	24626
793.471	24610
796.363	24641
799.256	24491.2
802.149	24513.3
805.041	24379.5
807.934	24309.2
810.827	24170.4
813.72	24135.1
816.612	24102
819.505	24210.7
822.398	24029.1
825.29	23912.3
828.183	23890.6
831.076	23831.3
833.968	23859.5
836.861	23791.5
839.754	23694
842.646	23645.3
845.539	23589.7
848.432	23669.2
851.325	23488
854.217	23459.3
857.11	23365.3
860.003	23349.7
862.895	23294.2
865.788	23229.1
868.681	23294.5
871.573	23151.5
874.466	23171
877.359	23122
880.252	23076.7
883.144	22999.5
886.037	22939.9
888.93	22909.3
891.822	22800.8
894.715	22682.5
897.608	22740.1
900.5	22681.1
903.393	22598.5
906.286	22580.3
909.179	22614.7
912.071	22493.9
914.964	22462.9
917.857	22440.4
920.749	22381.8
923.642	22225.7
926.535	22363.6
929.428	22279
932.32	22225
935.213	22253.4
938.106	22106.6
940.998	22108.4
943.891	21989.1
946.784	22008.9
949.676	21966.1
952.569	21902.9
955.462	21874.1
958.355	21819.7
961.247	21815.6
964.14	21805.7
967.033	21683.2
969.925	21727.8
972.818	21630.2
975.711	21629.5
978.604	21640
981.496	21563.3
984.389	21460.6
987.282	21472.2
990.174	21452.4
993.067	21419.8
995.96	21261
998.852	21323.2
1001.75	21218.1
1004.64	21378.8
1007.53	21347.2
1010.42	21183
1013.32	21278.3
1016.21	21175.8
1019.1	21078
1021.99	21133.3
1024.89	20985.2
1027.78	20986.2
1030.67	20958
1033.57	20889.6
1036.46	20901.9
1039.35	20936.2
1042.24	20861.5
1045.13	20825.1
1048.03	20695.1
1050.92	20688
1053.81	20873.9
1056.71	20627.9
1059.6	20658.1
1062.49	20511.6
1065.38	20512.8
1068.28	20616.7
1071.17	20539.9
1074.06	20408.2
1076.95	20494.5
1079.85	20436.6
1082.74	20381.3
1085.63	20286
1088.53	20278.1
1091.42	20322.3
1094.31	20255.1
1097.2	20312.6
1100.1	20225.2
1102.99	20202.7
1105.88	20157.4
1108.78	20104
1111.67	20149.4
1114.56	20122.5
1117.45	20070
1120.35	20084.8
1123.24	19944.4
1126.13	19908
1129.02	19901.5
1131.92	19950.5
1134.81	19792.9
1137.7	19749.7
1140.6	19744.4
1143.49	19767.2
1146.38	19652.6
1149.27	19647.8
1152.17	19650.7
1155.06	19633.9
1157.95	19585.4
1160.84	19534.4
1163.74	19569
1166.63	19519.2
1169.52	19528.2
1172.41	19507.8
1175.31	19455.6
1178.2	19411.5
1181.09	19344.2
1183.98	19341.7
1186.88	19335.2
1189.77	19232.6
1192.66	19293.1
1195.56	19310.7
1198.45	19294.3
1201.34	19223.9
1204.23	19201.6
1207.13	19222.3
1210.02	19218.8
1212.91	19102.5
1215.81	19142.8
1218.7	19066.7
1221.59	19003.5
1224.48	19038.5
1227.38	19054.4
1230.27	19013.5
1233.16	18941.2
1236.05	18866.2
1238.95	18941.3
1241.84	18799.4
1244.73	18822
1247.62	18842.3
1250.52	18777.4
1253.41	18765.5
1256.3	18780.7
1259.19	18717.6
1262.09	18709.7
1264.98	18745.1
