Measurement: Raman, 780 nm, unoriented, Raman Data RAW
Mineral: Halite
Rruff sample: R070586
Ideal chemistry: NaCl
Locality: Heringen, Werra Valley, Hesse, Germany
Source: James Shigley
Description: Colorless to blue-tinted crystal fragments
Measured chemistry: Na_1.00_Cl_1.00_
Raman shift (cm-1)	intensity
91.7856	1135.49
95.1605	1278.2
98.5353	1488.51
101.91	1876.99
105.285	1923.83
108.66	1794.13
112.035	1588.53
115.409	1580.53
118.784	1504.33
122.159	1423.37
125.534	1423.25
128.909	1387.57
132.283	1384.72
135.658	1375.28
139.033	1341.06
142.408	1334.48
145.783	1312.55
149.157	1270.5
152.532	1242.93
155.907	1282.52
159.282	1252.65
162.657	1243.9
166.032	1254.65
169.406	1245.74
172.781	1280.29
176.156	1303.25
179.531	1253.93
182.906	1277.77
186.28	1260.88
189.655	1276.05
193.03	1258.13
196.405	1234.33
199.78	1252.52
203.155	1237.78
206.529	1239.15
209.904	1238.19
213.279	1222.38
216.654	1228.3
220.029	1231.74
223.404	1307.59
226.778	1285.55
230.153	1303.63
233.528	1327.05
236.903	1324.39
240.278	1286.6
243.652	1237.59
247.027	1248.63
250.402	1231.42
253.777	1245.6
257.152	1257.21
260.526	1239.46
263.901	1264.67
267.276	1231.23
270.651	1237.6
274.026	1254.92
277.401	1246.61
280.775	1237.91
284.15	1236.86
287.525	1249.32
290.9	1234.42
294.275	1225.77
297.649	1250.38
301.024	1258.44
304.399	1266.29
307.774	1249.98
311.149	1268.61
314.524	1287.49
317.898	1268.69
321.273	1247.74
324.648	1240.18
328.023	1258.36
331.398	1221.8
334.772	1268.81
338.147	1253.76
341.522	1281.51
344.897	1284.22
348.272	1269.48
351.647	1260.28
355.021	1257.28
358.396	1222.91
361.771	1182.09
365.146	1137.04
368.521	1064.27
371.896	1036.58
375.27	970.993
378.645	946.271
382.02	958.877
385.395	935.33
388.77	897.891
392.144	916.606
395.519	906.227
398.894	906.187
402.269	912.784
405.644	909.521
409.019	909.465
412.393	866.253
415.768	890.297
419.143	909.644
422.518	902.006
425.892	904.598
429.267	898.171
432.642	909.975
436.017	883.127
439.392	885.045
442.767	886.736
446.142	879.484
449.516	870.008
452.891	862.377
456.266	865.701
459.641	877.151
463.016	841.76
466.39	863.258
469.765	859.016
473.14	841.407
476.515	848.901
479.89	874.099
483.264	845.99
486.639	827.935
490.014	845.308
493.389	829.449
496.764	842.656
500.139	866.026
503.513	829.399
506.888	820.93
510.263	817.813
513.638	791.949
517.013	812.958
520.388	814.509
523.762	803.881
527.137	778.41
530.512	815.344
533.887	814.762
537.261	798.551
540.636	802.454
544.011	770.314
547.386	798.901
550.761	775.035
554.136	785.76
557.51	806.195
560.885	758.915
564.26	803.163
567.635	797.898
571.01	783.84
574.385	758.842
577.759	776.311
581.134	758.82
584.509	783.189
587.884	773.345
591.259	768.348
594.633	752.027
598.008	755.747
601.383	752.894
604.758	742.614
608.133	740.18
611.508	761.409
614.882	750.519
618.257	756.004
621.632	736.904
625.007	728.099
628.382	752.918
631.756	726.711
635.131	732.458
638.506	745.925
641.881	737.122
645.256	750.94
648.63	708.308
652.005	737.776
655.38	726.52
658.755	735.789
662.13	749.923
665.505	728.297
668.879	717.587
672.254	729.731
675.629	731.796
679.004	734.843
682.379	719.547
685.754	736.239
689.128	736.365
692.503	699.328
695.878	716.448
699.253	723.785
702.628	709.203
706.002	709.24
709.377	751.63
712.752	716.814
716.127	724.223
719.502	727.081
722.876	723.426
726.251	720.157
729.626	739.45
733.001	719.01
736.376	773.627
739.75	736.122
743.125	726.608
746.5	724.78
749.875	740.578
753.25	738.682
756.625	736.387
760	736.653
763.374	695.932
766.749	745.2
770.124	739.181
773.499	710.519
776.874	732.82
780.248	737.374
783.623	741.065
786.998	725.088
790.373	732.077
793.748	735.712
797.122	725.593
800.497	729.872
803.872	717.371
807.247	740.74
810.622	715.812
813.996	728.303
817.371	693.946
820.746	717.589
824.121	752.294
827.496	702.706
830.871	716.706
834.245	721.068
837.62	731.965
840.995	709.98
844.37	721.658
847.745	720.286
851.12	741.606
854.494	756.337
857.869	704.809
861.244	723.21
864.619	734.149
867.994	744.884
871.369	725.879
874.743	733.037
878.118	734.996
881.493	718.054
884.868	708.087
888.243	715.971
891.617	748.164
894.992	724.289
898.367	706.261
901.742	696.089
905.117	706.989
908.491	718.064
911.866	719.518
915.241	710.203
918.616	725.17
921.991	742.659
925.365	737.543
928.74	715.606
932.115	731.934
935.49	723.363
938.865	712.693
942.24	733.369
945.614	742.466
948.989	705.604
952.364	695.655
955.739	707.861
959.114	721.726
962.489	703.446
965.863	726.178
969.238	722.783
972.613	743.6
975.988	725.441
979.363	703.135
982.737	709.506
986.112	695.187
989.487	718.13
992.862	722.122
996.237	707.327
999.611	714.089
1002.99	743.909
1006.36	721.664
1009.74	721.76
1013.11	714.09
1016.49	694.984
1019.86	707.473
1023.24	708.939
1026.61	721.405
1029.98	710.139
1033.36	730.51
1036.73	730.33
1040.11	723.696
1043.48	725.981
1046.86	733.325
1050.23	727.459
1053.61	725.308
1056.98	717.274
1060.36	729.473
1063.73	716.264
1067.11	719.124
1070.48	717.393
1073.86	717.451
1077.23	739.524
1080.61	747.224
1083.98	718.271
1087.36	731.785
1090.73	747.82
1094.11	747.364
1097.48	757.297
1100.86	734.739
1104.23	735.66
1107.61	726.112
1110.98	737.078
1114.36	741.104
1117.73	753.756
1121.11	736.931
1124.48	725.475
1127.86	723.066
1131.23	743.908
1134.6	754.872
1137.98	738.496
1141.35	771.926
1144.73	742.74
1148.1	763.538
1151.48	785.231
1154.85	766.453
1158.23	775.544
1161.6	764.892
1164.98	761.718
1168.35	782.046
1171.73	756.675
1175.1	749.615
1178.48	766.358
1181.85	766.272
1185.23	749.614
1188.6	756.717
1191.98	763.987
1195.35	768.081
1198.73	757.739
1202.1	761.477
1205.47	785.393
1208.85	745.849
1212.22	789.413
1215.6	777.178
1218.97	778.395
1222.35	778.539
1225.72	764.579
1229.1	756.267
1232.47	770.104
1235.85	775.822
1239.22	781.247
1242.6	754.769
1245.97	782.23
1249.35	775.139
1252.72	762.756
1256.1	791.265
1259.47	781.113
1262.85	764.548
1266.22	791.266
1269.6	769.227
1272.97	787.99
1276.35	783.754
