Measurement: Raman, 532 nm, unoriented, Raman Data RAW
Mineral: Halite
Rruff sample: R070292
Ideal chemistry: NaCl
Locality: Stassfurt, Stassfurt Deposit, Saxony-Anhalt, Germany
Source: Michael Scott
Description: Blue to colorless cube
Raman shift (cm-1)	intensity
157.376	37.1898
160.268	35.5327
163.161	41.0286
166.054	39.9425
168.946	40.2357
171.839	39.0403
174.732	39.4774
177.625	38.8526
180.517	44.0455
183.41	43.0643
186.303	39.0485
189.195	41.6942
192.088	39.2573
194.981	42.4883
197.874	40.3464
200.766	47.5461
203.659	41.8645
206.552	42.6508
209.444	46.3575
212.337	40.0187
215.23	43.9458
218.122	45.7359
221.015	48.3168
223.908	47.3099
226.8	44.3835
229.693	42.7788
232.586	46.9601
235.479	45.0544
238.371	55.9803
241.264	48.6849
244.157	47.8353
247.049	48.7932
249.942	51.8334
252.835	49.7246
255.727	52.971
258.62	48.3665
261.513	53.5263
264.406	52.5608
267.298	53.5936
270.191	56.2231
273.084	50.5802
275.976	51.7992
278.869	50.4881
281.762	50.9978
284.655	53.0814
287.547	48.1668
290.44	55.0659
293.333	49.0413
296.225	57.3212
299.118	54.9776
302.011	51.2954
304.904	56.7532
307.796	51.513
310.689	53.8792
313.582	56.2449
316.474	48.1794
319.367	57.7039
322.26	50.8828
325.152	57.2115
328.045	60.2161
330.938	54.4979
333.83	49.5978
336.723	61.2838
339.616	58.0187
342.509	57.5774
345.401	60.1322
348.294	60.0022
351.187	57.952
354.079	54.8685
356.972	53.7885
359.865	55.7255
362.757	54.4376
365.65	54.9301
368.543	52.3343
371.436	57.2989
374.328	60.3602
377.221	60.7017
380.114	58.9465
383.006	57.9119
385.899	57.2522
388.792	57.9444
391.685	60.9081
394.577	58.1878
397.47	55.2592
400.363	52.6489
403.255	55.9206
406.148	60.1806
409.041	57.808
411.933	52.9254
414.826	58.0278
417.719	55.5661
420.611	56.6962
423.504	62.6402
426.397	59.5377
429.29	55.0008
432.182	58.1033
435.075	57.5589
437.968	58.4767
440.86	57.4675
443.753	62.6562
446.646	57.3892
449.538	60.0779
452.431	59.4786
455.324	61.2009
458.217	61.354
461.109	56.5788
464.002	64.7781
466.895	64.5714
469.787	64.7322
472.68	61.1008
475.573	61.9317
478.466	63.3696
481.358	62.1256
484.251	62.2111
487.144	60.7815
490.036	62.4446
492.929	62.9204
495.822	58.3146
498.714	63.5758
501.607	63.5343
504.5	63.5592
507.393	70.3556
510.285	63.6655
513.178	62.2957
516.071	61.8231
518.963	68.1119
521.856	64.7622
524.749	64.6973
527.641	62.1363
530.534	65.0945
533.427	60.3675
536.32	66.6426
539.212	64.0221
542.105	68.2285
544.998	63.4365
547.89	66.3673
550.783	63.8175
553.676	70.0398
556.568	67.085
559.461	64.7955
562.354	64.2352
565.247	69.1458
568.139	67.3521
571.032	64.0089
573.925	68.4595
576.817	69.1645
579.71	69.6956
582.603	68.3394
585.495	66.3439
588.388	66.2577
591.281	66.4423
594.174	68.7217
597.066	64.5412
599.959	72.2933
602.852	74.9944
605.744	70.0629
608.637	71.6534
611.53	66.1259
614.423	69.8266
617.315	69.7288
620.208	69.6322
623.101	74.4357
625.993	72.3686
628.886	66.0206
631.779	69.3531
634.671	73.7245
637.564	67.7231
640.457	70.4975
643.35	74.1799
646.242	72.3774
649.135	73.2592
652.028	72.8534
654.92	69.7382
657.813	70.215
660.706	66.0492
663.598	74.7152
666.491	74.1551
669.384	76.1562
672.277	75.8681
675.169	75.6891
678.062	73.9837
680.955	74.0502
683.847	77.2485
686.74	76.4071
689.633	79.2046
692.525	74.9233
695.418	73.6795
698.311	74.631
701.204	75.599
704.096	71.1923
706.989	79.7493
709.882	80.5873
712.774	74.9356
715.667	71.5185
718.56	85.1483
721.452	76.8863
724.345	73.942
727.238	78.7347
730.131	77.2946
733.023	73.9059
735.916	74.7695
738.809	78.8004
741.701	73.3295
744.594	76.3758
747.487	75.2493
750.38	73.5003
753.272	75.2912
756.165	79.3497
759.058	75.4666
761.95	81.9523
764.843	82.053
767.736	84.1223
770.628	74.4629
773.521	74.5008
776.414	77.9454
779.307	77.8204
782.199	75.9278
785.092	75.8013
787.985	79.4835
790.877	78.2587
793.77	71.8499
796.663	79.5022
799.555	76.1957
802.448	76.3352
805.341	77.7284
808.234	78.8737
811.126	80.3973
814.019	83.9864
816.912	83.801
819.804	81.563
822.697	81.3053
825.59	80.0276
828.482	81.1328
831.375	78.3092
834.268	86.5688
837.16	84.3898
840.053	80.3953
842.946	85.41
845.839	82.0232
848.731	82.2675
851.624	82.9497
854.517	91.3457
857.409	78.1309
860.302	81.9456
863.195	81.069
866.087	86.7827
868.98	79.1131
871.873	90.2985
874.766	85.2345
877.658	85.9776
880.551	75.0943
883.444	79.878
886.337	82.7877
889.229	89.6379
892.122	84.9565
895.015	85.0893
897.907	85.2805
900.8	86.6432
903.693	89.1387
906.585	85.6552
909.478	87.0243
912.371	91.5743
915.264	77.9519
918.156	84.4831
921.049	86.3467
923.942	89.6783
926.834	92.4345
929.727	82.7708
932.62	88.4536
935.512	95.2568
938.405	92.189
941.298	86.1081
944.191	85.3331
947.083	85.0435
949.976	80.7168
952.869	86.4947
955.761	90.1355
958.654	83.5917
961.547	87.7917
964.439	88.8382
967.332	87.5497
970.225	92.1322
973.117	86.9334
976.01	83.9248
978.903	89.6098
981.796	89.0276
984.688	83.302
987.581	90.4089
990.474	95.7857
993.366	88.0723
996.259	100.934
999.152	91.6568
1002.04	90.1928
1004.94	92.8511
1007.83	88.2898
1010.72	90.9322
1013.62	90.9198
1016.51	91.5308
1019.4	90.232
1022.29	93.9276
1025.19	91.5735
1028.08	87.9165
1030.97	95.1858
1033.86	88.4366
1036.76	94.6996
1039.65	92.6818
1042.54	92.1851
1045.43	98.677
1048.33	94.9874
1051.22	94.4958
1054.11	95.7244
1057.01	97.5839
1059.9	95.2877
1062.79	96.5697
1065.68	88.8895
1068.58	97.0503
1071.47	97.9625
1074.36	97.6351
1077.26	97.105
1080.15	95.6006
1083.04	98.5917
1085.93	96.3753
1088.83	106.846
1091.72	97.0933
1094.61	98.8675
1097.5	95.9265
1100.4	94.0989
1103.29	103.347
1106.18	98.7941
1109.07	95.9301
1111.97	98.9357
1114.86	94.9489
1117.75	99.4251
1120.64	102.696
1123.54	95.1665
1126.43	100.148
1129.32	102.784
1132.22	100.697
1135.11	99.5533
1138	100.1
1140.89	107.191
1143.79	93.5585
1146.68	97.4709
1149.57	94.5232
1152.46	101.297
1155.36	103.262
1158.25	102.345
1161.14	98.6966
1164.04	101.698
1166.93	111.241
1169.82	108.584
1172.71	98.1662
1175.61	104.65
1178.5	106.758
1181.39	99.8089
1184.29	103.712
1187.18	95.8225
1190.07	99.7888
1192.96	109.361
1195.86	104.602
1198.75	98.4022
1201.64	104.402
1204.53	112.012
1207.43	104.985
1210.32	105.982
1213.21	108.637
1216.1	105.894
1219	105.057
1221.89	112.343
1224.78	102.795
1227.67	108.769
1230.57	98.6127
1233.46	112.195
1236.35	110.73
1239.25	106.315
1242.14	109.504
1245.03	109.278
1247.92	109.658
1250.82	116.558
1253.71	112.767
1256.6	105.826
1259.49	116.243
1262.39	104.641
1265.28	111.901
1268.17	111.622
1271.07	108.434
1273.96	116.173
1276.85	111.002
1279.74	106.61
1282.64	104.808
1285.53	119.113
1288.42	111.842
1291.32	113.925
1294.21	105.853
1297.1	111.769
1299.99	116.864
1302.88	113.938
1305.78	114.75
1308.67	111.536
1311.56	119.058
