Measurement: Raman, 532 nm, unoriented, Raman Data RAW
Mineral: Halite
Rruff sample: R070534
Ideal chemistry: NaCl
Locality: Searles Lake, San Bernadino County, California, USA
Source: James Shigley
Description: Colorless cubes
Raman shift (cm-1)	intensity
154.494	31347.4
157.387	33513
160.28	33759.4
163.173	33023.6
166.065	32495.9
168.958	32283.8
171.851	32529.9
174.743	32712.3
177.636	32584.5
180.529	32443.4
183.421	32423.4
186.314	32285.3
189.207	32499.1
192.1	32557
194.992	32562.1
197.885	32525.8
200.778	32459.9
203.67	32665.6
206.563	32777.7
209.456	32806.2
212.348	32713.9
215.241	32587.2
218.134	32594.6
221.026	32748.2
223.919	33082.5
226.812	33132.5
229.705	33282.6
232.597	33274.7
235.49	33355.9
238.383	33180.7
241.275	33236.8
244.168	33321.6
247.061	33553.5
249.954	33485.2
252.846	33511.7
255.739	33604.1
258.632	33544.3
261.524	33620.9
264.417	33666.3
267.31	33862.6
270.202	33811.4
273.095	33998.9
275.988	33923.7
278.881	34049.3
281.773	34121.2
284.666	34153.2
287.559	34281.4
290.451	34138
293.344	34193.7
296.237	34270.3
299.13	34466.1
302.022	34370.6
304.915	34389.5
307.808	34533.3
310.7	34805.7
313.593	34789.8
316.486	34796.2
319.378	34954.2
322.271	35336.5
325.164	35239.4
328.057	35274.9
330.949	35219.4
333.842	35304.9
336.735	35519.6
339.627	35438
342.52	35498.3
345.413	35422.9
348.305	35492.6
351.198	35857.1
354.091	35984.1
356.983	36019.8
359.876	35998.1
362.769	35733.1
365.662	35785
368.554	36044.5
371.447	36020.7
374.34	36286.2
377.232	36191
380.125	36251.7
383.018	36151.2
385.911	36300
388.803	36551.2
391.696	36435.1
394.589	36636.4
397.481	36578.9
400.374	36645.4
403.267	36655
406.159	36739
409.052	36791.3
411.945	36905.9
414.837	36934.5
417.73	37023.8
420.623	36936.2
423.516	37095.5
426.408	37117.8
429.301	37282.8
432.194	37187.7
435.086	37322.5
437.979	37545.3
440.872	37476.1
443.764	37481.5
446.657	37558.2
449.55	37557.9
452.443	37527.4
455.335	37632.8
458.228	37881
461.121	37808.2
464.014	37673.6
466.906	37713.8
469.799	37780.6
472.692	37798.3
475.584	37696.8
478.477	37662.4
481.37	37898
484.262	38040.6
487.155	38136.1
490.048	38151.5
492.94	37934.9
495.833	38183.3
498.726	38183.2
501.619	38209.2
504.511	38116.7
507.404	38341.1
510.297	38294.6
513.189	38466.8
516.082	38676.4
518.975	38434.4
521.867	38520.1
524.76	38351.6
527.653	38593.4
530.546	38740.8
533.438	38754
536.331	38778.5
539.224	38543.6
542.116	38701.6
545.009	38894.3
547.902	38824
550.794	38826.1
553.687	38740.5
556.58	38787.3
559.473	38651.8
562.365	38687.9
565.258	38854.5
568.151	38852.6
571.043	39008.7
573.936	38954.9
576.829	38949.6
579.721	38721
582.614	38426.6
585.507	38605.5
588.4	38656.6
591.292	38788.6
594.185	38883.9
597.078	38944
599.97	38842.8
602.863	38867
605.756	39111
608.649	39086.9
611.541	39027.1
614.434	39027.6
617.327	38859.6
620.219	38919.5
623.112	38978.6
626.005	39082.3
628.897	38974.6
631.79	39061.5
634.683	39211.1
637.576	39035.4
640.468	39229
643.361	39258.8
646.254	39442.8
649.146	39381.8
652.039	39348.6
654.932	39426.1
657.824	39677.7
660.717	39810.9
663.61	39844.3
666.503	39899.7
669.395	39994.3
672.288	39931.8
675.181	40096.5
678.073	40158.7
680.966	40251.5
683.859	40235.7
686.751	40352.2
689.644	40249
692.537	40311.5
695.43	40348.8
698.322	40316.8
701.215	40517.8
704.108	40618
707	40526.9
709.893	40492.6
712.786	40528.4
715.678	40548.8
718.571	40632.3
721.464	40607.8
724.357	40483.9
727.249	40743.3
730.142	40937.3
733.035	40842.8
735.927	40724.1
738.82	40825.7
741.713	41084.5
744.606	40966.8
747.498	41190.2
750.391	41112.7
753.284	40985.2
756.176	41211.9
759.069	41354
761.962	41261.4
764.854	41259.2
767.747	41274.7
770.64	41466.6
773.533	41397.1
776.425	41345.7
779.318	41364
782.211	41330.3
785.103	41584.4
787.996	41784.6
790.889	41630.9
793.781	41413.5
796.674	41485.2
799.567	41498
802.46	41716.9
805.352	41784.1
808.245	41827.3
811.138	41865.3
814.03	41854.7
816.923	41816.7
819.816	41830.7
822.708	41925.3
825.601	42154.6
828.494	42019.3
831.386	42103.8
834.279	42058.8
837.172	42043
840.065	42143.4
842.957	42148.2
845.85	42422.8
848.743	42411.5
851.635	42482
854.528	42310.6
857.421	42404
860.313	42551.9
863.206	42823.2
866.099	42779.4
868.992	42969.2
871.884	42883
874.777	42953.3
877.67	43037.3
880.562	43025
883.455	42979.3
886.348	42915.6
889.24	42953
892.133	43144.7
895.026	43061.9
897.919	43064
900.811	42888.2
903.704	43080.8
906.597	43276.1
909.489	43275.9
912.382	43162.3
915.275	43154.9
918.168	43225.7
921.06	43301.7
923.953	43243.1
926.846	43349.5
929.738	43424.6
932.631	43340.1
935.524	43246.7
938.416	43422.3
941.309	43397.8
944.202	43496.1
947.095	43689.2
949.987	43476.4
952.88	43487.2
955.773	43664.5
958.665	43777.7
961.558	44066.9
964.451	43841.9
967.343	43993.8
970.236	44207.1
973.129	44154.7
976.021	44165.6
978.914	44073.6
981.807	44106.7
984.7	44149.9
987.592	44333.5
990.485	44420.3
993.378	44620.1
996.27	44364.6
999.163	44254.7
1002.06	44558.9
1004.95	44475.3
1007.84	44582.1
1010.73	44920.1
1013.63	44860
1016.52	44779.6
1019.41	44751.6
1022.3	44787.4
1025.2	44814.8
1028.09	45247.7
1030.98	45373.2
1033.88	45182.6
1036.77	44971.3
1039.66	45059.4
1042.55	45216.5
1045.45	45253.4
1048.34	45450.8
1051.23	45535.1
1054.12	45522.3
1057.02	45392.3
1059.91	45518.1
1062.8	45749.6
1065.69	45990.1
1068.59	46090.3
1071.48	46038.6
1074.37	46171.2
1077.27	45985.6
1080.16	46082.2
1083.05	46085.2
1085.94	46148.6
1088.84	46219.8
1091.73	46336.3
1094.62	46324.5
1097.52	46379.2
1100.41	46649.7
1103.3	46609.4
1106.19	46281
1109.09	46453
1111.98	46761.3
1114.87	46916.5
1117.76	46918.7
1120.66	46854.3
1123.55	46713.6
1126.44	46755.3
1129.34	47055.4
1132.23	47140.5
1135.12	46858.5
1138.01	47214.6
1140.91	47236.2
1143.8	47210.6
1146.69	47390.7
1149.58	47360.2
1152.48	47449
1155.37	47617.2
1158.26	47347.8
1161.15	47365.9
1164.05	47645.2
1166.94	47567.6
1169.83	47594.6
1172.72	47737
1175.62	47746
1178.51	47914.2
1181.4	47990.7
1184.3	48107
1187.19	48071.8
1190.08	48174.1
1192.97	47982.1
1195.87	48068.3
1198.76	48104.6
1201.65	48162.7
1204.55	48442.5
1207.44	48216.8
1210.33	48177.6
1213.22	48303.3
1216.12	48469.6
1219.01	49069.8
1221.9	49234.3
1224.79	49183.6
1227.69	48943.1
1230.58	48862.3
1233.47	48782.6
1236.37	48951.3
1239.26	48923.9
1242.15	49084.3
1245.04	48987.2
1247.94	49096.4
1250.83	49056.2
1253.72	49236.8
1256.61	49166.4
1259.51	49353.9
1262.4	49553.5
1265.29	49727.3
1268.18	49797.8
1271.08	49811.8
1273.97	49660.4
1276.86	49713.2
1279.76	50000.9
1282.65	50183.1
1285.54	50281.3
