Measurement: Raman, 780 nm, unoriented, Raman Data Processed
Mineral: Helvine
Rruff sample: R060621
Ideal chemistry: Mn^2+^_4_(BeSiO_4_)_3_S^2-^
Locality: Foote mine, Kings Mountain District, Cleveland County, North Carolina, USA
Source: Michael Scott
Description: Yellowish-brown tetrahedra
Measured chemistry: (Mn^2+^_3.72_Zn_0.18_Fe^3+^_0.08_Ca_0.02_)_Σ=4_Be_3.00_((Si_0.97_Al_0.03_)_Σ=1_O_4_)_3_S_1.00_; BeO assumed by stoichiometry
Raman shift (cm-1)	intensity
103.492	0
106.867	11.3549
110.242	15.7598
113.617	41.8597
116.992	92.1346
120.366	178
123.741	323.142
127.116	656.784
130.491	822.316
133.865	244.347
137.24	126.3
140.615	110.031
143.99	0.75647
147.365	6.99487
150.74	22.8707
154.114	105.32
157.489	196.46
160.864	139.807
164.239	145.258
167.614	208.289
170.988	298.407
174.363	532.944
177.738	558.195
181.113	162.467
184.488	38.3396
187.863	8.17285
191.237	9.64966
194.612	13.3865
197.987	25.8802
201.362	14.4225
204.737	0.837463
208.112	4.49695
211.486	0.096802
214.861	8.15546
218.236	17.1241
221.611	24.6832
224.986	36.7429
228.36	54.9641
231.735	87.5671
235.11	128.192
238.485	116.724
241.86	82.9853
245.234	63.1723
248.609	46.1938
251.984	33.3306
255.359	27.2384
258.734	33.1472
262.109	33.5967
265.483	40.0897
268.858	50.2249
272.233	76.1412
275.608	111.962
278.983	164.177
282.358	206.493
285.732	199.815
289.107	150.486
292.482	118.521
295.857	112.773
299.232	92.7708
302.606	71.6383
305.981	61.1777
309.356	40.0009
312.731	18.4652
316.106	8.53369
319.481	2.53388
322.855	0.614807
326.23	1.56702
329.605	1.82611
332.98	0.175171
336.355	0.356995
339.729	2.79376
343.104	1.79431
346.479	10.0288
349.854	15.395
353.229	29.3764
356.603	35.6731
359.978	49.2671
363.353	49.8583
366.728	42.7023
370.103	28.4752
373.478	22.1323
376.852	20.0255
380.227	17.3978
383.602	15.6258
386.977	13.4378
390.352	13.4027
393.726	11.4138
397.101	10.2692
400.476	8.30908
403.851	8.85004
407.226	10.0892
410.601	9.21625
413.975	9.53223
417.35	6.94965
420.725	6.96741
424.1	6.88513
427.475	5.17011
430.849	6.80768
434.224	10.2037
437.599	12.9328
440.974	26.454
444.349	40.2718
447.724	32.581
451.098	15.4673
454.473	1.3739
457.848	0.592957
461.223	1.47998
464.598	1.48285
467.972	2.71417
471.347	0.225708
474.722	0.094666
478.097	0.555542
481.472	0.762451
484.846	1.50995
488.221	4.24158
491.596	6.28729
494.971	9.49573
498.346	10.0916
501.721	12.4675
505.095	15.2305
508.47	20.3296
511.845	27.72
515.22	30.9894
518.595	40.2799
521.97	48.2559
525.344	56.8964
528.719	59.5955
532.094	59.4744
535.469	54.1238
538.844	46.3579
542.218	41.9525
545.593	43.7533
548.968	48.9876
552.343	56.5189
555.718	66.6059
559.092	87.5593
562.467	103.169
565.842	90.7846
569.217	68.376
572.592	56.6547
575.967	46.5842
579.341	35.254
582.716	24.6962
586.091	18.0022
589.466	11.7018
592.841	8.03308
596.216	9.27356
599.59	8.34741
602.965	11.2314
606.34	6.90601
609.715	5.12439
613.09	1.17481
616.464	1.16772
619.839	0.078491
623.214	0.869629
626.589	0.251892
629.964	2.50763
633.338	0.990417
636.713	3.5036
640.088	2.47699
643.463	4.88641
646.838	7.74683
650.213	8.0946
653.587	10.1056
656.962	14.1193
660.337	11.0167
663.712	13.7006
667.087	13.1945
670.462	16.8323
673.836	22.7194
677.211	27.3415
680.586	18.0906
683.961	9.64032
687.336	3.81769
690.71	1.37439
694.085	0.825562
697.46	1.68518
700.835	0.787781
704.21	0.94165
707.585	2.32721
710.959	1.94336
714.334	4.50946
717.709	4.19604
721.084	5.28503
724.459	4.21436
727.833	5.65479
731.208	5.43927
734.583	3.88123
737.958	5.02954
741.333	6.57355
744.707	7.82056
748.082	5.80554
751.457	6.4444
754.832	4.29877
758.207	3.6427
761.582	4.99261
764.956	5.49597
768.331	3.76392
771.706	1.91882
775.081	0.647339
778.456	2.2677
781.83	0.867493
785.205	1.38281
788.58	2.96539
791.955	0.658813
795.33	1.28296
798.705	0.341064
802.079	0.035034
805.454	1.58289
808.829	0.770203
812.204	0.916321
815.579	0.840088
818.953	2.8418
822.328	3.12549
825.703	0.101074
829.078	1.43603
832.453	1.65369
835.827	1.12128
839.202	4.37305
842.577	3.64764
845.952	4.93646
849.327	6.5072
852.702	7.95276
856.076	11.3582
859.451	13.2827
862.826	16.2598
866.201	22.499
869.576	33.7634
872.951	49.2882
876.325	70.6068
879.7	115.025
883.075	183.924
886.45	276.128
889.825	403.865
893.199	549.511
896.574	617.931
899.949	516.755
903.324	357.272
906.699	239.464
910.073	158.537
913.448	103.605
916.823	73.8149
920.198	52.1215
923.573	36.2702
926.948	27.2842
930.322	25.0753
933.697	23.2257
937.072	25.5607
940.447	35.8682
943.822	36.7339
947.197	23.2259
950.571	9.85455
953.946	4.2652
957.321	2.97138
960.696	0.336121
964.071	0.781372
967.445	0.164307
970.82	1.59015
974.195	0.944153
977.57	5.19421
980.945	0.615356
984.319	1.97772
987.694	0.140137
991.069	0.060913
994.444	1.50092
997.819	2.93622
1001.19	2.56763
1004.57	6.4798
1007.94	7.1236
1011.32	12.0394
1014.69	14.0881
1018.07	15.804
1021.44	13.3746
1024.82	10.5687
1028.19	8.62048
1031.57	7.25189
1034.94	6.11175
1038.32	5.66699
1041.69	6.00183
1045.07	3.55743
1048.44	3.6294
1051.82	3.54706
1055.19	5.03284
1058.57	4.93646
1061.94	4.10883
1065.32	5.18127
1068.69	2.84436
1072.07	1.43109
1075.44	0.754211
1078.81	1.18805
1082.19	2.11865
1085.56	5.35065
1088.94	2.68115
1092.31	0.714844
1095.69	0.454651
1099.06	1.89203
1102.44	0.617676
1105.81	2.61914
1109.19	0.188293
1112.56	1.14813
1115.94	0.715881
1119.31	1.49255
1122.69	1.75983
1126.06	3.29541
1129.44	2.01654
1132.81	4.25311
1136.19	2.69781
1139.56	3.72473
1142.94	4.49902
1146.31	3.13007
1149.69	3.72247
1153.06	3.97772
1156.43	2.82904
1159.81	8.08643
1163.18	7.84607
1166.56	5.43561
1169.93	4.01917
1173.31	4.16022
1176.68	5.51502
1180.06	2.76074
1183.43	3.57703
1186.81	4.54279
1190.18	2.86139
1193.56	4.44232
1196.93	3.02161
1200.31	3.21075
1203.68	7.46729
1207.06	5.38129
1210.43	2.35852
1213.81	3.38379
1217.18	1.69043
1220.56	3.55237
1223.93	3.80164
1227.31	0.016785
1230.68	1.25916
1234.06	0.583252
1237.43	0.828125
1240.81	1.77161
1244.18	2.48834
1247.56	1.14417
1250.93	0.360046
1254.31	2.01685
1257.68	2.57941
1261.05	3.91357
1264.43	1.90118
1267.8	0.169983
1271.18	2.18713
1274.55	5.08936
1277.93	0.556702
1281.3	0.18103
