Measurement: Raman, 532 nm, unoriented, Raman Data Processed
Mineral: Helvine
Rruff sample: R060621
Ideal chemistry: Mn^2+^_4_(BeSiO_4_)_3_S^2-^
Locality: Foote mine, Kings Mountain District, Cleveland County, North Carolina, USA
Source: Michael Scott
Description: Yellowish-brown tetrahedra
Measured chemistry: (Mn^2+^_3.72_Zn_0.18_Fe^3+^_0.08_Ca_0.02_)_Σ=4_Be_3.00_((Si_0.97_Al_0.03_)_Σ=1_O_4_)_3_S_1.00_; BeO assumed by stoichiometry
Raman shift (cm-1)	intensity
91.9937	0
95.3685	8.77902
98.7433	1.96777
102.118	4.27124
105.493	36.931
108.868	96.8997
112.243	180.431
115.617	260.545
118.992	335.244
122.367	463.686
125.742	711.621
129.117	1120.92
132.492	684.372
135.866	385.515
139.241	409.154
142.616	296.629
145.991	229.915
149.365	228.996
152.74	268.794
156.115	357.24
159.49	345.979
162.865	319.148
166.24	352.297
169.614	415.002
172.989	594.429
176.364	695.218
179.739	314.331
183.114	124.469
186.488	72.1007
189.863	55.7018
193.238	62.8422
196.613	87.1733
199.988	55.7731
203.363	20.4023
206.737	2.82159
210.112	0.161987
213.487	0.772644
216.862	4.33295
220.237	16.8372
223.612	28.5253
226.986	47.4742
230.361	80.5577
233.736	134.24
237.111	136.197
240.486	74.2607
243.86	31.5326
247.235	8.38788
250.61	3.76562
253.985	7.4704
257.36	7.18536
260.735	0.324402
264.109	12.8893
267.484	35.2294
270.859	65.3909
274.234	108.751
277.609	163.715
280.983	206.166
284.358	206.506
287.733	163.267
291.108	127.428
294.483	111.885
297.858	96.8441
301.232	78.1981
304.607	71.82
307.982	56.6809
311.357	27.0013
314.732	12.4006
318.106	1.25751
321.481	0.153198
324.856	0.739136
328.231	2.19897
331.606	4.70874
334.981	3.92096
338.355	7.69782
341.73	10.1569
345.105	18.3696
348.48	27.398
351.855	35.0493
355.229	47.0718
358.604	56.4844
361.979	55.9025
365.354	44.2675
368.729	30.2551
372.103	22.7293
375.478	19.7689
378.853	15.0922
382.228	9.60877
385.603	8.18957
388.978	6.25775
392.352	4.59393
395.727	3.45807
399.102	9.86487
402.477	5.16766
405.852	5.89349
409.226	8.35315
412.601	9.07489
415.976	9.31128
419.351	6.29559
422.726	2.25555
426.101	3.21832
429.475	3.59308
432.85	7.50409
436.225	11.607
439.6	20.5972
442.975	29.4621
446.349	32.4288
449.724	15.5543
453.099	5.51978
456.474	0.57428
459.849	0.64624
463.224	1.46429
466.598	4.92676
469.973	1.92212
473.348	1.55505
476.723	0.673096
480.098	0.139832
483.473	1.75531
486.847	5.02997
490.222	8.02435
493.597	8.93475
496.972	12.5274
500.347	15.4839
503.721	20.7324
507.096	27.7997
510.471	33.4449
513.846	40.1627
517.221	49.5436
520.596	60.346
523.97	68.8712
527.345	68.4707
530.72	67.4486
534.095	59.626
537.47	54.4259
540.844	52.5977
544.219	61.7772
547.594	72.7081
550.969	92.8096
554.344	116.171
557.718	144.203
561.093	162.337
564.468	154.094
567.843	122.562
571.218	99.5511
574.592	86.377
577.967	71.2005
581.342	61.1435
584.717	49.3329
588.092	40.6942
591.467	36.2961
594.841	32.4379
598.216	29.8743
601.591	26.83
604.966	23.3287
608.341	19.91
611.716	13.7915
615.09	10.1945
618.465	6.81696
621.84	2.8753
625.215	0.884338
628.59	0.757874
631.964	1.82037
635.339	1.46845
638.714	1.90826
642.089	2.10693
645.464	1.40216
648.838	2.14191
652.213	9.96112
655.588	10.2536
658.963	10.6891
662.338	12.7258
665.713	17.5034
669.087	21.8326
672.462	28.4379
675.837	28.0771
679.212	24.3664
682.587	16.6532
685.962	14.0501
689.336	11.2831
692.711	7.47034
696.086	8.84448
699.461	8.07471
702.836	4.33112
706.21	5.80689
709.585	7.31134
712.96	7.19989
716.335	7.55237
719.71	7.48352
723.085	5.56158
726.459	6.0412
729.834	4.71265
733.209	5.62689
736.584	8.6637
739.959	9.31134
743.333	10.5308
746.708	9.06744
750.083	9.36896
753.458	8.22583
756.833	8.2663
760.207	6.98035
763.582	6.01752
766.957	5.4892
770.332	4.03033
773.707	4.74731
777.082	2.78107
780.456	3.77789
783.831	2.38696
787.206	0.506653
790.581	0.517456
793.956	0.022034
797.33	0.370911
800.705	1.32294
804.08	3.05066
807.455	1.53802
810.83	1.47986
814.205	0.304382
817.579	1.97546
820.954	3.39618
824.329	4.07465
827.704	5.06689
831.079	5.16071
834.453	7.14185
837.828	10.123
841.203	13.6221
844.578	14.2515
847.953	16.983
851.328	20.2514
854.702	23.2331
858.077	28.6557
861.452	35.3216
864.827	46.8135
868.202	65.2263
871.577	91.8227
874.951	127.803
878.326	199.975
881.701	307.986
885.076	465.605
888.451	674.322
891.825	893.808
895.2	1019.15
898.575	923.543
901.95	680.162
905.325	468.982
908.699	319.515
912.074	218.656
915.449	156.453
918.824	116.998
922.199	84.8181
925.573	63.9297
928.948	53.4378
932.323	52.759
935.698	58.1773
939.073	69.4228
942.448	71.9907
945.822	46.0254
949.197	21.5859
952.572	9.6875
955.947	5.05023
959.322	2.17908
962.697	0.892151
966.071	2.07367
969.446	3.22162
972.821	0.252808
976.196	0.260803
979.571	0.297363
982.945	2.20465
986.32	1.16217
989.695	2.75671
993.07	2.23071
996.445	4.79608
999.819	5.84375
1003.19	9.10052
1006.57	14.7418
1009.94	19.2215
1013.32	23.8005
1016.69	27.0504
1020.07	20.7875
1023.44	18.9147
1026.82	15.0668
1030.19	8.04083
1033.57	10.1305
1036.94	6.34918
1040.32	6.17822
1043.69	8.04083
1047.07	7.76617
1050.44	6.0545
1053.82	5.69849
1057.19	7.47754
1060.57	8.63214
1063.94	3.22803
1067.32	4.15076
1070.69	3.1864
1074.07	5.07654
1077.44	2.07043
1080.82	2.07092
1084.19	2.31445
1087.57	3.22376
1090.94	0.41864
1094.31	0.749634
1097.69	0.124573
1101.06	1.22162
1104.44	3.32037
1107.81	0.97699
1111.19	1.07068
1114.56	0.265442
1117.94	1.73267
1121.31	1.41528
1124.69	0.913025
1128.06	1.78833
1131.44	2.2124
1134.81	0.624634
1138.19	2.55133
1141.56	1.43066
1144.94	0.812744
1148.31	0.869751
1151.69	1.09888
1155.06	2.64624
1158.44	4.1488
1161.81	5.34827
1165.19	4.71191
1168.56	4.62817
1171.93	3.45288
1175.31	2.96741
1178.68	1.57617
1182.06	4.68396
1185.43	6.61499
1188.81	5.24329
1192.18	6.69495
1195.56	7.4231
1198.93	7.38672
1202.31	6.6449
1205.68	6.06238
1209.06	5.76758
1212.43	5.26184
1215.81	3.9812
1219.18	7.10852
1222.56	6.60254
1225.93	6.24182
1229.31	4.86145
1232.68	6.09875
1236.06	0.363159
1239.43	0.153931
1242.81	0.178589
1246.18	1.3269
1249.56	4.53784
1252.93	2.07336
1256.31	2.35803
1259.68	6.18506
1263.06	4.27942
1266.43	3.00708
1269.81	6.41138
1273.18	2.9552
1276.56	0.884155
1279.93	2.07129
1283.3	1.57214
1286.68	3.98279
1290.05	5.65234
1293.43	4.61694
1296.8	1.41431
1300.18	0.003906
