Measurement: Raman, 532 nm, unoriented, Raman Data Processed
Mineral: Hessite
Rruff sample: R060226
Ideal chemistry: Ag_2_Te
Locality: Bambollita mine, Moctezuma, Sonora, Mexico
Source: Michael Scott
Description: Grayish-black metallic bleb
Raman shift (cm-1)	intensity
98.9434	0.130784
102.318	0.15972
105.693	0.021225
109.068	0.680706
112.443	0.303516
115.817	0.489331
119.192	1.16888
122.567	1.02154
125.942	1.578
129.317	1.34664
132.692	2.13949
136.066	2.59036
139.441	2.87191
142.816	3.46856
146.191	3.08241
149.566	3.13205
152.94	3.40266
156.315	3.12529
159.69	1.9104
163.065	0.802086
166.44	0.80034
169.815	0.322011
173.189	0.111882
176.564	0.381459
179.939	0.217247
183.314	0.156118
186.689	0.158124
190.064	0.149617
193.438	0.477844
196.813	0.586514
200.188	0.411757
203.563	0.136358
206.938	0.365439
210.312	0.361336
213.687	0.31218
217.062	0.209404
220.437	0.621207
223.812	0.358733
227.186	0.299908
230.561	0.892776
233.936	0.708239
237.311	0.580316
240.686	0.785586
244.06	0.701102
247.435	0.855753
250.81	0.742654
254.185	0.410322
257.56	0.872113
260.935	0.353707
264.309	0.560358
267.684	0.555397
271.059	0.615291
274.434	0.435483
277.809	0.729148
281.183	0.794168
284.558	0.814513
287.933	0.667406
291.308	0.325343
294.683	0.611853
298.058	0.554211
301.432	0.82112
304.807	0.500407
308.182	0.763354
311.557	0.285292
314.932	0.344129
318.307	0.317749
321.681	0.334461
325.056	0.366509
328.431	0.463142
331.806	0.531852
335.181	0.380131
338.555	0.36704
341.93	0.139549
345.305	0.08283
348.68	0.571305
352.055	0.058941
355.43	0.030958
358.804	0.062519
362.179	0.354154
365.554	0.215018
368.929	0.545252
372.304	0.022104
375.678	0.011194
379.053	0.046155
382.428	0.123323
385.803	0.100439
389.178	0.112159
392.553	0.019737
395.927	0.296493
399.302	0.038253
402.677	0.376946
406.052	0.07048
409.427	0.219
412.801	0.240308
416.176	0.288017
419.551	0.09281
422.926	0.002931
426.301	0.307165
429.675	0.017932
433.05	0.02729
436.425	0.226026
439.8	0.463964
443.175	0.074355
446.55	0.363967
449.924	0.424736
453.299	0.308698
456.674	0.489256
460.049	0.278378
463.424	0.324491
466.798	0.208638
470.173	0.42448
473.548	0.171351
476.923	0.441965
480.298	0.138502
483.673	0.284991
487.047	0.20421
490.422	0.256635
493.797	0.282799
497.172	0.448838
500.547	0.384302
503.921	0.22611
507.296	0.444072
510.671	0.043257
514.046	0.341472
517.421	0.108118
520.795	0.168602
524.17	0.065356
527.545	0.003
530.92	0.147084
534.295	0.028107
537.67	0.255413
541.044	0.297196
544.419	0.149655
547.794	0.269885
551.169	0.206382
554.544	0.034746
557.918	0.511061
561.293	0.390059
564.668	0.414047
568.043	0.398195
571.418	0.042934
574.793	0.199138
578.167	0.199602
581.542	0.314293
584.917	0.307114
588.292	0.088636
591.667	0.004155
595.042	0.16295
598.416	0.333665
601.791	0.100767
605.166	0.23957
608.541	0.446917
611.916	0.423632
615.29	0.387876
618.665	0.215636
622.04	0.134027
625.415	0.062453
628.79	0.054241
632.164	0.440986
635.539	0.135119
638.914	0.266096
642.289	0.427988
645.664	0.487849
649.039	0.386553
652.413	0.200534
655.788	0.238409
659.163	0.009757
662.538	0.16347
665.913	0.365902
669.288	0.5945
672.662	0.49049
676.037	0.619943
679.412	0.351852
682.787	0.2976
686.162	0.373881
689.536	0.45001
692.911	0.512534
696.286	0.222618
699.661	0.421238
703.036	0.097073
706.41	0.258214
709.785	0.346605
713.16	0.282324
716.535	0.530916
719.91	0.316866
723.284	0.446218
726.659	0.042474
730.034	0.189824
733.409	0.375231
736.784	0.4193
740.159	0.308769
743.533	0.214835
746.908	0.118474
750.283	0.486923
753.658	0.501768
757.033	0.277531
760.408	0.269395
763.782	0.19352
767.157	0.279244
770.532	0.317794
773.907	0.388072
777.282	0.383074
780.656	0.214281
784.031	0.047944
787.406	0.090113
790.781	0.135138
794.156	0.559484
797.53	0.50278
800.905	0.623413
804.28	0.247432
807.655	0.304649
811.03	0.237065
814.405	0.078287
817.779	0.442246
821.154	0.340097
824.529	0.41082
827.904	0.563409
831.279	0.225126
834.654	0.278746
838.028	0.749553
841.403	0.767681
844.778	0.155727
848.153	0.534995
851.528	0.616146
854.902	0.676923
858.277	0.616673
861.652	0.736583
865.027	0.37744
868.402	0.107254
871.777	0.508724
875.151	0.406963
878.526	0.160227
881.901	0.109001
885.276	0.401835
888.651	0.390368
892.025	0.533804
895.4	0.425995
898.775	0.154016
902.15	0.153003
905.525	0.04577
908.899	0.531575
912.274	0.311761
915.649	0.378727
919.024	0.107597
922.399	0.023348
925.774	0.420447
929.148	0.167933
932.523	0.319322
935.898	0.295295
939.273	0.416804
942.648	0.164649
946.023	0.069732
949.397	0.150515
952.772	0.217111
956.147	0.100221
959.522	0.1966
962.896	0.185029
966.271	0.396093
969.646	0.000683
973.021	0.236353
976.396	0.319862
979.771	0.490914
983.145	0.505459
986.52	1.02554
989.895	0.931509
993.27	0.444589
996.645	0.210266
1000.02	0.484213
1003.39	0.112283
1006.77	0.398018
1010.14	0.433567
1013.52	0.028851
1016.89	0.418682
1020.27	0.409963
1023.64	0.135867
1027.02	0.508307
1030.39	0.140011
1033.77	0.050741
1037.14	0.338212
1040.52	0.273306
1043.89	0.043005
1047.27	0.188055
1050.64	0.138751
1054.02	0.31176
1057.39	0.026115
1060.77	0.363177
1064.14	0.290534
1067.52	0.183326
1070.89	0.248283
1074.27	0.127923
1077.64	0.064156
1081.02	0.619457
1084.39	0.475144
1087.77	0.122715
1091.14	0.017572
1094.51	0.291508
1097.89	0.040342
1101.26	0.396437
1104.64	0.468197
1108.01	0.149895
1111.39	0.265713
1114.76	0.546293
1118.14	0.604849
1121.51	0.36996
1124.89	0.264629
1128.26	0.220163
1131.64	0.324828
1135.01	0.315795
1138.39	0.016253
1141.76	0.3461
1145.14	0.454808
1148.51	0.45398
1151.89	0.414961
1155.26	0.170457
1158.64	0.641167
1162.01	0.4504
1165.38	0.275894
1168.76	0.247153
1172.13	0.552217
1175.51	0.482951
1178.88	0.220724
1182.26	0.23196
1185.63	0.1611
1189.01	0.37604
1192.38	0.634926
1195.76	0.61433
1199.13	0.286922
1202.51	0.435775
1205.88	0.265909
1209.26	0.008798
1212.63	0.367268
1216.01	0.392075
1219.38	0.258892
1222.76	0.633204
1226.13	0.062234
1229.51	0.372632
1232.88	0.057701
1236.26	0.33869
1239.63	0.533762
1243.01	0.296983
1246.38	0.582276
1249.76	0.388618
1253.13	0.663947
1256.51	0.144531
1259.88	0.51944
1263.26	0.19434
1266.63	0.46826
1270.01	0.366152
1273.38	0.272098
1276.76	0.475477
1280.13	0.04579
1283.5	0.005062
1286.88	0.34862
1290.25	0.598169
1293.63	0.22891
1297	0.220525
1300.38	0.097727
