Measurement: Raman, 780 nm, unoriented, Raman Data Processed
Mineral: Hessite
Rruff sample: R060226
Ideal chemistry: Ag_2_Te
Locality: Bambollita mine, Moctezuma, Sonora, Mexico
Source: Michael Scott
Description: Grayish-black metallic bleb
Raman shift (cm-1)	intensity
93.9705	0
97.3453	3.9214
100.72	2.45338
104.095	0.855392
107.47	1.74391
110.845	0.51136
114.219	2.03545
117.594	1.72791
120.969	2.86639
124.344	1.38801
127.719	2.13276
131.094	2.12212
134.468	1.93051
137.843	2.16914
141.218	2.435
144.593	1.5287
147.968	1.92605
151.342	0.077873
154.717	0.543182
158.092	0.810349
161.467	0.19799
164.842	0.84375
168.216	0.001137
171.591	0.087532
174.966	0.400528
178.341	0.243988
181.716	0.6315
185.09	0.575775
188.465	1.38924
191.84	1.33417
195.215	1.19891
198.59	1.04584
201.965	1.74423
205.339	1.33927
208.714	1.77942
212.089	0.188568
215.464	1.30315
218.839	1.29047
222.214	2.04474
225.588	1.27891
228.963	1.26474
232.338	1.87551
235.713	2.00852
239.088	1.13973
242.462	2.63373
245.837	0.443306
249.212	1.28697
252.587	0.428886
255.962	0.696472
259.336	1.0285
262.711	0.311653
266.086	0.236481
269.461	1.58149
272.836	1.26946
276.211	1.1969
279.585	0.92308
282.96	0.978783
286.335	1.17088
289.71	1.22488
293.085	1.36127
296.459	0.765724
299.834	0.325859
303.209	0.945297
306.584	1.95731
309.959	0.789909
313.334	0.224335
316.708	0.71138
320.083	1.54302
323.458	1.45485
326.833	0.716995
330.207	0.653061
333.582	0.215752
336.957	1.19336
340.332	0.6987
343.707	1.04467
347.082	0.053154
350.456	0.780716
353.831	0.359299
357.206	1.0134
360.581	1.2553
363.956	0.857819
367.33	1.526
370.705	1.15424
374.08	0.115349
377.455	1.61726
380.83	0.867592
384.205	0.471619
387.579	0.077965
390.954	0.57473
394.329	0.92556
397.704	0.408882
401.079	0.417412
404.453	0.836121
407.828	0.475311
411.203	0.580574
414.578	0.184494
417.953	0.507545
421.327	0.759888
424.702	0.040092
428.077	0.720062
431.452	0.593498
434.827	1.11173
438.202	1.09547
441.576	0.192719
444.951	0.724045
448.326	0.405701
451.701	1.11905
455.076	1.48986
458.45	2.05849
461.825	1.62503
465.2	1.47354
468.575	1.11753
471.95	0.926865
475.325	0.945061
478.699	1.23222
482.074	0.916229
485.449	1.14793
488.824	0.514038
492.199	0.617599
495.573	0.978882
498.948	0.485611
502.323	0.788223
505.698	0.245857
509.073	0.368599
512.447	0.254166
515.822	0.295715
519.197	0.733574
522.572	0.478203
525.947	0.237991
529.322	0.293175
532.696	0.083305
536.071	0.980583
539.446	1.00655
542.821	0.330841
546.196	1.18237
549.57	1.03192
552.945	1.02796
556.32	1.85316
559.695	0.591476
563.07	0.640877
566.444	0.529114
569.819	0.201668
573.194	0.75029
576.569	0.743736
579.944	1.03781
583.319	0.412689
586.693	1.10082
590.068	0.064026
593.443	0.814117
596.818	0.462654
600.193	0.416458
603.567	0.573929
606.942	1.29862
610.317	2.42682
613.692	0.580048
617.067	0.587082
620.442	0.133057
623.816	0.6138
627.191	0.791527
630.566	1.34193
633.941	1.36047
637.316	0.454453
640.69	1.64455
644.065	0.578667
647.44	1.00284
650.815	0.677643
654.19	0.14019
657.564	0.365273
660.939	0.054665
664.314	0.44886
667.689	1.85969
671.064	1.49496
674.439	0.797081
677.813	0.276901
681.188	0.408257
684.563	0.755585
687.938	0.459358
691.313	1.01961
694.688	0.251717
698.062	0.814293
701.437	0.487907
704.812	0.098808
708.187	0.536308
711.562	0.759335
714.936	0.638023
718.311	1.07208
721.686	0.006226
725.061	0.356773
728.436	0.066719
731.81	0.704811
735.185	0.624397
738.56	1.24803
741.935	0.305885
745.31	0.111252
748.684	1.02476
752.059	0.37669
755.434	0.208637
758.809	0.606529
762.184	0.543594
765.559	0.70018
768.933	0.261673
772.308	1.31923
775.683	0.124691
779.058	0.124474
782.433	0.676769
785.808	0.039108
789.182	0.405945
792.557	0.886387
795.932	0.605537
799.307	0.939304
802.682	1.13513
806.056	0.553677
809.431	0.546886
812.806	0.807747
816.181	0.801846
819.556	1.15135
822.93	1.21214
826.305	0.437252
829.68	0.172077
833.055	0.141682
836.43	0.56731
839.804	0.598953
843.179	1.06015
846.554	0.62159
849.929	1.17157
853.304	0.418991
856.679	0.305836
860.053	1.32471
863.428	1.22486
866.803	1.35656
870.178	1.28334
873.553	0.695423
876.927	0.385708
880.302	0.57082
883.677	0.367081
887.052	0.777428
890.427	0.287903
893.802	1.16314
897.176	1.03484
900.551	0.991142
903.926	0.003357
907.301	0.111393
910.676	0.623188
914.05	0.59557
917.425	0.649227
920.8	1.79945
924.175	0.050404
927.55	0.806892
930.924	0.582737
934.299	0.413559
937.674	0.589802
941.049	0.159187
944.424	0.073677
947.799	0.198792
951.173	0.069275
954.548	0.224339
957.923	1.24289
961.298	0.284294
964.673	1.05811
968.047	1.10658
971.422	1.32021
974.797	0.711224
978.172	1.45793
981.547	2.65752
984.922	1.27717
988.296	1.45678
991.671	0.158421
995.046	0.699627
998.421	1.43711
1001.8	0.432739
1005.17	0.374825
1008.54	0.419525
1011.92	0.488567
1015.29	0.912388
1018.67	1.31112
1022.04	0.719795
1025.42	0.592461
1028.79	1.43094
1032.17	0.738789
1035.54	0.242737
1038.92	0.549278
1042.29	0.794071
1045.67	0.483501
1049.04	0.350788
1052.42	0.509602
1055.79	1.03828
1059.17	1.24722
1062.54	1.10419
1065.92	0.236053
1069.29	0.710129
1072.67	1.02923
1076.04	0.89555
1079.42	0.414082
1082.79	1.54463
1086.17	0.703133
1089.54	0.984985
1092.92	1.49354
1096.29	0.845257
1099.66	0.763649
1103.04	1.21952
1106.41	0.427422
1109.79	0.958126
1113.16	0.177364
1116.54	0.406116
1119.91	0.008816
1123.29	0.018776
1126.66	0.076546
1130.04	0.47438
1133.41	0.521961
1136.79	0.328754
1140.16	1.19812
1143.54	0.76038
1146.91	0.344933
1150.29	0.47963
1153.66	1.05496
1157.04	1.13949
1160.41	1.11608
1163.79	0.465973
1167.16	0.903633
1170.54	0.187752
1173.91	1.34158
1177.29	0.298824
1180.66	2.90691
1184.04	0.846119
1187.41	1.10035
1190.79	0.503971
1194.16	0.480831
1197.54	1.05652
1200.91	0.509521
1204.28	0.79884
1207.66	0.558052
1211.03	0.402168
1214.41	0.495129
1217.78	0.58313
1221.16	0.538612
1224.53	1.39939
1227.91	1.04146
1231.28	0.588585
1234.66	0.633263
1238.03	0.580112
1241.41	0.225414
1244.78	0.89024
1248.16	0.501743
1251.53	0.609379
1254.91	0.929947
1258.28	0.268829
1261.66	1.06279
1265.03	0.785355
1268.41	0.215179
1271.78	0.866917
1275.16	0.728809
1278.53	0.749264
1281.9	0.877468
