Measurement: Raman, 532 nm, unoriented, Raman Data RAW
Mineral: Hingganite-(Y)
Rruff sample: R120171
Ideal chemistry: BeY^3+^(SiO_4_)(OH)
Locality: Zagi Mountain, Hameed Abad Kafoor Dheri, Peshawar, Khyber Pakhtunkhwa, Pakistan
Source: Ikram Mineralogy
Description: Dark green to brown, dependent on light source, prismatic single crystal
Measured chemistry: Be(Y_0.490_La_0.004_Ca_0.034_Pr_0.009_Nd_0.072_Sm_0.055_Eu_0.103_Gd_0.015_Tb_0.089_Dy_0.012_Ho_0.023_Er_0.002_Tm_0.017_Yb_0.014_Lu_0.001_Fe_0.037_Ca_0.006_)(SiO_4_)(OH) ; H and Be assumed
Raman shift (cm-1)	intensity
89.3616	0
92.7365	91.2693
96.1113	83.8582
99.4861	79.766
102.861	75.0344
106.236	69.7418
109.611	65.3526
112.985	61.6806
116.36	56.4471
119.735	54.2339
123.11	51.5645
126.485	48.3726
129.859	45.9248
133.234	44.8622
136.609	41.9082
139.984	40.0609
143.359	39.2949
146.733	36.7986
150.108	35.2846
153.483	32.9316
156.858	33.6511
160.233	33.0314
163.608	34.8607
166.982	41.2287
170.357	61.4806
173.732	102.263
177.107	154.299
180.482	189.679
183.857	222.78
187.231	259.423
190.606	310.323
193.981	370.322
197.356	401.093
200.731	415.36
204.105	418.879
207.48	418.945
210.855	418.238
214.23	415.781
217.605	405.605
220.98	386.822
224.354	368.489
227.729	349.796
231.104	336.452
234.479	328.561
237.854	323.556
241.228	323.756
244.603	327.32
247.978	330.227
251.353	337.844
254.728	345.365
258.103	349.874
261.477	349.411
264.852	345.061
268.227	341.76
271.602	335.777
274.977	330.231
278.351	324.097
281.726	321.548
285.101	318.99
288.476	319.512
291.851	321.312
295.226	326.681
298.6	333.539
301.975	350.428
305.35	373.483
308.725	405.159
312.099	448.342
315.474	494.894
318.849	542.754
322.224	578.828
325.599	599.766
328.974	597.356
332.348	580.995
335.723	560.134
339.098	533.078
342.473	508.082
345.848	484.763
349.223	467.648
352.597	458.316
355.972	451.763
359.347	447.315
362.722	452.553
366.097	447.374
369.471	428.236
372.846	403.105
376.221	376.35
379.596	359.197
382.971	352.536
386.346	355.321
389.72	367.416
393.095	377.101
396.47	383.116
399.845	371.115
403.22	349.429
406.594	328.809
409.969	323.363
413.344	322.607
416.719	320.292
420.094	313.019
423.469	309.347
426.843	307.855
430.218	307.964
433.593	299.844
436.968	289.099
440.343	279.981
443.717	275.045
447.092	274.593
450.467	278.812
453.842	289.821
457.217	306.408
460.591	316.644
463.966	317.125
467.341	305.144
470.716	292.753
474.091	286.378
477.466	288.626
480.84	296.728
484.215	300.603
487.59	289.716
490.965	273.852
494.34	257.834
497.714	246.794
501.089	242.113
504.464	235.851
507.839	231.867
511.214	229.052
514.589	228.066
517.963	224.445
521.338	227.062
524.713	233.532
528.088	235.872
531.463	242.069
534.837	252.189
538.212	262.247
541.587	272.678
544.962	276.782
548.337	273.807
551.712	262.751
555.086	252.99
558.461	241.549
561.836	231.7
565.211	224.889
568.586	221.107
571.96	222.406
575.335	223.216
578.71	230.929
582.085	237.192
585.46	242.87
588.835	243.041
592.209	245.668
595.584	252.011
598.959	259.934
602.334	270.439
605.709	279.993
609.083	286.263
612.458	288.171
615.833	282.755
619.208	276.505
622.583	263.871
625.957	249.83
629.332	237.063
632.707	226.214
636.082	218.614
639.457	213.48
642.832	212.752
646.206	216.288
649.581	224.635
652.956	237.186
656.331	250.624
659.706	264.812
663.081	276.974
666.455	286.577
669.83	292.97
673.205	295.113
676.58	291.629
679.955	288.164
683.329	278.029
686.704	268.278
690.079	259.361
693.454	249.72
696.829	244.57
700.203	241.583
703.578	245.192
706.953	250.701
710.328	257.674
713.703	265.879
717.078	273.156
720.452	274.291
723.827	267.815
727.202	254.259
730.577	239.131
733.952	221.497
737.327	203.677
740.701	186.681
744.076	173.139
747.451	160.821
750.826	152.562
754.201	145.712
757.575	142.238
760.95	139.027
764.325	136.691
767.7	135.749
771.075	134.354
774.449	135.695
777.824	133.38
781.199	133.462
784.574	132.579
787.949	131.895
791.323	129.417
794.698	129.208
798.073	125.37
801.448	124.091
804.823	119.339
808.198	116.857
811.572	113.452
814.947	110.144
818.322	106.438
821.697	104.853
825.072	102.415
828.447	101.167
831.821	99.0407
835.196	96.9655
838.571	95.5138
841.946	93.855
845.321	94.4474
848.695	94.1776
852.07	94.5329
855.445	96.4163
858.82	97
862.195	98.9508
865.569	100.572
868.944	103.232
872.319	104.244
875.694	104.21
879.069	103.88
882.444	104.442
885.818	108.697
889.193	113.654
892.568	123.589
895.943	136.704
899.318	151.799
902.692	160.9
906.067	160.407
909.442	156.618
912.817	152.514
916.192	153.061
919.567	155.972
922.941	162.898
926.316	168.631
929.691	167.177
933.066	157.866
936.441	142.321
939.816	126.764
943.19	115.115
946.565	111.777
949.94	109.445
953.315	113.256
956.69	117.635
960.064	124.676
963.439	131.023
966.814	134.749
970.189	133.471
973.564	129.743
976.938	122.871
980.313	117.157
983.688	112.926
987.063	110.146
990.438	108.84
993.813	106.897
997.187	104.083
1000.56	99.5965
1003.94	94.2334
1007.31	88.3899
1010.69	85.1853
1014.06	80.7161
1017.44	76.9621
1020.81	74.3632
1024.19	71.8311
1027.56	70.0395
1030.94	68.1242
1034.31	67.0748
1037.68	65.818
1041.06	64.9676
1044.43	63.8441
1047.81	62.3693
1051.18	61.5575
1054.56	60.3499
1057.93	60.5567
1061.31	59.4001
1064.68	58.3807
1068.06	57.9102
1071.43	57.6849
1074.81	56.6963
1078.18	56.6145
1081.56	56.1493
1084.93	56.124
1088.31	55.8751
1091.68	55.3037
1095.06	56.1428
1098.43	55.1522
1101.81	55.8859
1105.18	55.6933
1108.56	55.3908
1111.93	56.1325
1115.31	56.0006
1118.68	56.1638
1122.06	57.4736
1125.43	56.9325
1128.81	57.7458
1132.18	57.6905
1135.56	59.6865
1138.93	59.28
1142.3	61.5271
1145.68	61.9417
1149.05	63.8851
1152.43	64.9404
1155.8	66.3812
1159.18	66.8521
1162.55	67.3453
1165.93	68.638
1169.3	69.176
1172.68	70.7788
1176.05	71.3136
1179.43	70.9528
1182.8	70.8545
1186.18	71.2954
1189.55	70.4109
1192.93	70.7669
1196.3	69.7591
1199.68	68.988
1203.05	68.1842
1206.43	67.3726
1209.8	65.5685
1213.18	65.822
1216.55	64.3931
1219.92	63.2751
1223.3	64.0309
1226.67	63.163
1230.05	62.5545
1233.42	63.3816
1236.8	62.7783
1240.17	62.2244
1243.55	63.066
1246.92	64.8824
1250.3	63.3385
1253.67	64.7481
1257.05	65.2462
1260.42	66.4935
1263.8	67.5767
1267.17	68.0447
1270.55	68.31
1273.92	69.3689
1277.3	69.37
1280.67	69.768
1284.05	70.0477
1287.42	70.5472
1290.8	71.0127
1294.17	71.6942
1297.55	73.9229
1300.92	73.2255
