Measurement: Raman, 785 nm, unoriented, Raman Data RAW
Mineral: Hingganite-(Y)
Rruff sample: R070466
Ideal chemistry: BeY^3+^(SiO_4_)(OH)
Locality: Tuften Quarry, Tvedalen, Larvik, Vestfold, Norway
Source: Michael Scott
Description: White prismatic crystals
Raman shift (cm-1)	intensity
54.4971	208.058
57.8719	233.313
61.2467	238.062
64.6215	234.672
67.9963	229.508
71.3712	238.345
74.746	227.217
78.1208	230.028
81.4956	224.857
84.8704	254.462
88.2452	252.492
91.6201	272.981
94.9949	244.954
98.3697	287.279
101.745	275.33
105.119	291.144
108.494	356.281
111.869	416.027
115.244	590.354
118.619	819.795
121.993	1182.04
125.368	1937.02
128.743	2800.12
132.118	3901.24
135.493	4622.54
138.868	5363.24
142.242	6915.47
145.617	9376.92
148.992	11572.8
152.367	12022
155.742	12253.5
159.116	12824.1
162.491	13911
165.866	15222.9
169.241	16131.5
172.616	16742.8
175.99	17141.9
179.365	17678.8
182.74	18213.9
186.115	18691.4
189.49	19100.5
192.864	19511.5
196.239	20012.3
199.614	20323.6
202.989	20652.5
206.364	20765.5
209.739	21029.9
213.113	21201.7
216.488	21385.5
219.863	21754.4
223.238	21893.8
226.613	21940.3
229.988	21977.5
233.362	22026.3
236.737	22121.4
240.112	22461
243.487	22474.9
246.862	22599.6
250.236	22736.5
253.611	22921.9
256.986	23031.5
260.361	23242.6
263.736	23398.5
267.111	23587
270.485	23734.8
273.86	24073
277.235	24277.1
280.61	24650
283.985	24997.4
287.359	25467.2
290.734	25919.7
294.109	26327.1
297.484	26904.8
300.859	27470.4
304.233	28171.6
307.608	28619.3
310.983	29034.2
314.358	29326.8
317.733	29432.1
321.108	29491.2
324.482	29414.3
327.857	29228.7
331.232	28918.8
334.607	28644.4
337.982	28111.7
341.356	27703.7
344.731	27297.1
348.106	26884.3
351.481	26592.9
354.856	26227.2
358.231	25901.6
361.605	25599.4
364.98	25293.6
368.355	25166.9
371.73	25017.5
375.105	24995.5
378.479	24826.2
381.854	24589.6
385.229	24561
388.604	24536.8
391.979	24529.1
395.353	24551.8
398.728	24525.1
402.103	24640.7
405.478	24663.9
408.853	24681.9
412.228	24714.1
415.602	24857.9
418.977	24802.1
422.352	24820.5
425.727	24798.2
429.102	24697.4
432.476	24593.1
435.851	24460.3
439.226	24408
442.601	24186.4
445.976	23940.8
449.351	23812.9
452.725	23718.4
456.1	23392.1
459.475	23335.6
462.85	23092
466.225	23050.2
469.599	22870.1
472.974	22739.5
476.349	22562
479.724	22376
483.099	22204.6
486.474	22174.3
489.848	22151.7
493.223	22000.9
496.598	21834
499.973	21718.1
503.348	21750.3
506.723	21672.8
510.097	21691.6
513.472	21551.3
516.847	21523.9
520.222	21376.5
523.597	21316.8
526.971	21363.6
530.346	21396.8
533.721	21308
537.096	21480
540.471	21374.2
543.846	21260.6
547.22	21189.9
550.595	21078.4
553.97	21064.8
557.345	20907
560.72	21051.2
564.094	20890.8
567.469	20777.3
570.844	20659.4
574.219	20567.9
577.594	20548.3
580.968	20444.3
584.343	20379.3
587.718	20227.9
591.093	20117.7
594.468	19989.7
597.842	19867.3
601.217	19747.3
604.592	19607.8
607.967	19506.3
611.342	19424.4
614.717	19294
618.091	19085.6
621.466	18996.2
624.841	18874.6
628.216	18837.7
631.591	18666.7
634.966	18661.8
638.34	18399.7
641.715	18310.6
645.09	18123.4
648.465	18006.7
651.84	17897.4
655.214	17795.4
658.589	17630.6
661.964	17520.4
665.339	17459.4
668.714	17370.2
672.088	17209.4
675.463	17158
678.838	17027.1
682.213	16894.2
685.588	16765.4
688.963	16688.7
692.337	16602.3
695.712	16568.2
699.087	16402.9
702.462	16357.6
705.837	16183.7
709.212	16110.1
712.586	15947.2
715.961	15911.7
719.336	15828
722.711	15626.3
726.086	15601
729.46	15523.1
732.835	15263.6
736.21	15301.3
739.585	15175.2
742.96	15143.4
746.335	15025.7
749.709	14883.5
753.084	14838.7
756.459	14731.5
759.834	14679.2
763.209	14582.2
766.583	14516.2
769.958	14389.6
773.333	14313.4
776.708	14334.5
780.083	14152.8
783.457	14210
786.832	14136.5
790.207	14071.7
793.582	14003.2
796.957	13951.1
800.332	13880.6
803.706	13812
807.081	13754.4
810.456	13727
813.831	13725.6
817.206	13673
820.58	13622.1
823.955	13578.8
827.33	13515.9
830.705	13472.5
834.08	13551.7
837.455	13470.6
840.829	13526.9
844.204	13447
847.579	13430.1
850.954	13382.9
854.329	13351.6
857.703	13423.4
861.078	13390.9
864.453	13453
867.828	13315.2
871.203	13355.5
874.577	13303.9
877.952	13363.7
881.327	13426.4
884.702	13335.8
888.077	13403.9
891.452	13287.9
894.826	13319.9
898.201	13276.4
901.576	13370.2
904.951	13342.2
908.326	13305
911.701	13219.1
915.075	13208
918.45	13197.3
921.825	13179.8
925.2	13146.7
928.575	12980.5
931.949	12981.1
935.324	12968
938.699	12892.7
942.074	12885.3
945.449	12733.4
948.823	12711.6
952.198	12706.6
955.573	12700.1
958.948	12721
962.323	12544.2
965.698	12595.9
969.072	12519.9
972.447	12509.5
975.822	12538.2
979.197	12478.4
982.572	12547.9
985.947	12537.5
989.321	12473.6
992.696	12455.6
996.071	12536.1
999.446	12452.8
1002.82	12492.7
1006.2	12527.7
1009.57	12442.6
1012.95	12508.5
1016.32	12512.4
1019.7	12594.8
1023.07	12603.2
1026.44	12574.5
1029.82	12588.2
1033.19	12657.2
1036.57	12786.8
1039.94	12726.3
1043.32	12865.3
1046.69	13007.1
1050.07	12957.2
1053.44	13138.1
1056.82	13181
1060.19	13367.4
1063.57	13416.5
1066.94	13599.4
1070.32	13747.3
1073.69	13866.2
1077.07	14138.3
1080.44	14180
1083.82	14447.3
1087.19	14719.5
1090.57	15015.3
1093.94	15189.5
1097.32	15581
1100.69	15944.9
1104.07	16321.4
1107.44	16638.4
1110.82	17042
1114.19	17487.7
1117.56	17969.6
1120.94	18529.7
1124.31	18999.9
1127.69	19609.5
1131.06	20166.9
1134.44	20975.7
1137.81	21697.3
1141.19	22439.5
1144.56	23266.5
1147.94	24163.8
1151.31	25139
1154.69	26156.6
1158.06	27039.1
1161.44	28181.9
1164.81	29402.3
1168.19	30394.7
1171.56	31520.5
1174.94	32699.3
1178.31	33918
1181.69	34946.7
1185.06	36329.7
1188.43	37308.4
1191.81	38663.2
1195.18	39611.2
1198.56	40565.6
1201.93	41294.4
1205.31	41753.3
1208.68	42106.4
1212.06	42110.4
1215.43	41776
1218.81	41453.8
1222.18	40492.7
1225.56	39619.4
1228.93	38434.6
1232.31	37167.3
1235.68	35909.9
1239.06	34641.8
1242.43	33342.3
