Measurement: Raman, 785 nm, unoriented, Raman Data RAW
Mineral: Hiortdahlite
Rruff sample: R070514
Ideal chemistry: Na_2_Ca_4_(Ca_0.5_Zr^4+^_0.5_)Zr^4+^(Si_2_O_7_)_2_OF_3_
Locality: Aroy, Langesundsfjord, near Larvik, Vestfold, Norway
Source: James Shigley
Description: Brownish-yellow massive
Measured chemistry: Na_4.00_Ca_8.00_Zr_2.00_(Zr_0.49_Nb^5+^_0.45_Fe^2+^_0.38_Ti_0.33_Mn_0.32_Mg_0.02_Al_0.01_)_Î£=2_(Si_2.00_O_7_)_4_O_3_F_5.00_
Raman shift (cm-1)	intensity
138.756	10671.4
141.649	12510.8
144.542	15388.2
147.434	18873.1
150.327	22068.2
153.22	23393.1
156.112	23804.5
159.005	24017.8
161.898	24183.2
164.791	24511.6
167.683	24287.7
170.576	24012.3
173.469	23802.6
176.361	23649.2
179.254	23621.9
182.147	23587.6
185.039	23715.6
187.932	23481.4
190.825	23384.4
193.718	23560.5
196.61	23545.3
199.503	23628.3
202.396	23761.3
205.288	23752.5
208.181	24027.6
211.074	24004.9
213.966	24239.5
216.859	24356.1
219.752	24471.8
222.644	24750
225.537	24942.7
228.43	25115.9
231.322	25157.3
234.215	25338.5
237.108	25728.9
240.001	25969.5
242.893	25984.1
245.786	26241.8
248.679	26377.4
251.571	26422.9
254.464	26576.8
257.357	26846.6
260.25	27100.2
263.142	27219.5
266.035	27486
268.928	27671.8
271.82	27822
274.713	28021.7
277.606	28388.5
280.498	28685.7
283.391	28762
286.284	29095.5
289.176	29293.2
292.069	29577.4
294.962	29882.5
297.855	29926.7
300.747	30367.5
303.64	30539
306.533	30987.5
309.425	31243.7
312.318	31536.9
315.211	31836.1
318.103	32075.4
320.996	32638.7
323.889	33020.6
326.782	33515.5
329.674	33881.5
332.567	34629.9
335.46	35046.6
338.352	35681.9
341.245	36143.1
344.138	36339.1
347.031	36809.8
349.923	36791.8
352.816	36707.6
355.709	36631.3
358.601	36100
361.494	35730.2
364.387	35055.8
367.279	34562.2
370.172	33902.5
373.065	33302.5
375.957	32966.5
378.85	32574.6
381.743	32198.9
384.636	31896.4
387.528	31578.4
390.421	31159.5
393.314	31029.2
396.206	30820.9
399.099	30625.5
401.992	30446.9
404.885	30323
407.777	30172.1
410.67	29924.7
413.562	29795.8
416.455	29437.5
419.348	29324.3
422.241	28929.5
425.133	28531.9
428.026	28397
430.919	27962.1
433.811	27681.2
436.704	27367.2
439.597	27080.7
442.49	26648.1
445.382	26387
448.275	26005.9
451.168	25520.6
454.06	25180.4
456.953	24740.3
459.846	24491.5
462.738	24145
465.631	23701.3
468.524	23301.6
471.416	22968.3
474.309	22599.2
477.202	22254
480.095	21876.8
482.987	21447.6
485.88	21080.3
488.773	20812.9
491.665	20320.4
494.558	19955.9
497.451	19576.6
500.344	19099.8
503.236	18886.7
506.129	18577.5
509.022	18195.6
511.914	17919.6
514.807	17700.9
517.7	17241.9
520.592	17013.4
523.485	16737.4
526.378	16392
529.27	16176.7
532.163	15814.6
535.056	15554.7
537.948	15257.4
540.841	15040.5
543.734	14673.5
546.627	14509
549.519	14218.5
552.412	14005.7
555.305	13735.9
558.197	13492
561.09	13258.3
563.983	13027.7
566.875	12840.1
569.768	12558.5
572.661	12567.3
575.554	12272
578.446	12171.2
581.339	12051
584.232	11967.7
587.125	11709.8
590.017	11553.7
592.91	11336.8
595.803	11195.2
598.695	10942.3
601.588	10774.5
604.481	10668.5
607.373	10464.6
610.266	10356.9
613.159	10202.4
616.052	9983.16
618.944	9888.07
621.837	9868.84
624.73	9731.65
627.622	9560.79
630.515	9649.86
633.408	9402.15
636.3	9442.7
639.193	9418.16
642.086	9380.73
644.978	9267.6
647.871	9272.47
650.764	9340.86
653.657	9370.54
656.549	9350.01
659.442	9411.23
662.335	9450.8
665.227	9417.37
668.12	9235.97
671.013	9063.71
673.905	8911.98
676.798	8741.47
679.691	8584.59
682.583	8532.44
685.476	8446.35
688.369	8389.98
691.262	8374.82
694.154	8223.72
697.047	8160.67
699.94	8191.26
702.832	8109.02
705.725	8035.97
708.618	7944.48
711.51	7865.43
714.403	7812.69
717.296	7715.69
720.189	7668.74
723.081	7585.12
725.974	7472.11
728.867	7491.83
731.759	7377.44
734.652	7328.9
737.545	7280.72
740.437	7248.27
743.33	7218.4
746.223	7177.28
749.115	7157.44
752.008	7173.06
754.901	7130.45
757.794	7115.27
760.686	7200.54
763.579	7085.15
766.472	7148.87
769.364	7077.83
772.257	7126.01
775.15	7138.31
778.043	7176.47
780.935	7248.99
783.828	7348.16
786.721	7395.98
789.613	7703.24
792.506	7603.81
795.399	7567.21
798.291	7496.86
801.184	7338.47
804.077	7105.42
806.97	6851.22
809.862	6674.68
812.755	6487.33
815.648	6394.7
818.54	6333.6
821.433	6250.51
824.326	6163.86
827.218	6130.44
830.111	6074.71
833.004	6059.15
835.896	6014.81
838.789	5998.95
841.682	5949.09
844.575	5892.27
847.467	5910.78
850.36	5870.02
853.253	5784.75
856.145	5713.09
859.038	5660.77
861.931	5603.43
864.823	5605.75
867.716	5560.05
870.609	5588.96
873.502	5532.73
876.394	5636.64
879.287	5693.68
882.18	5721.38
885.072	5753.82
887.965	5797.78
890.858	5868.34
893.75	5906.27
896.643	5922.43
899.536	5998.89
902.429	5963.29
905.321	5974.23
908.214	6029.35
911.107	6030.87
913.999	5976.05
916.892	5936.87
919.785	5908.41
922.678	5887.11
925.57	5893.23
928.463	5889.9
931.356	5956.22
934.248	5945.94
937.141	5982.29
940.034	6020.01
942.926	6109.35
945.819	6199.45
948.712	6280.59
951.604	6345.02
954.497	6364.65
957.39	6374.65
960.283	6329
963.175	6351.65
966.068	6376.84
968.961	6379.14
971.853	6356.26
974.746	6399.28
977.639	6392.44
980.531	6432.36
983.424	6498.73
986.317	6559.98
989.21	6649.74
992.102	6721.28
994.995	6811.53
997.888	6892.79
1000.78	6966.62
1003.67	7024.51
1006.57	7124.73
1009.46	7202.22
1012.35	7260.96
1015.24	7371.44
1018.14	7481.37
1021.03	7615.08
1023.92	7654.79
1026.82	7888.49
1029.71	8015.17
1032.6	8092.26
1035.49	8333.17
1038.38	8458.94
1041.28	8765.53
1044.17	9052.07
1047.06	9186.76
1049.96	9438.23
1052.85	9635.77
1055.74	9919.11
1058.63	10152.8
1061.53	10427.4
1064.42	10677
1067.31	11027.5
1070.2	11324.4
1073.1	11584.2
1075.99	11937.2
1078.88	12296
1081.78	12654.6
1084.67	13001.2
1087.56	13429
1090.45	13893.7
1093.35	14282.6
1096.24	14757
1099.13	15247
1102.03	15747.8
1104.92	16234.6
1107.81	16828.8
1110.7	17347.9
1113.6	18122.4
1116.49	18708.3
1119.38	19451.3
1122.27	20122.7
1125.17	20814.9
1128.06	21404.7
1130.95	22103.6
1133.84	22885.8
1136.74	23696
1139.63	24610.1
1142.52	25510.5
1145.41	26275
1148.31	27232.4
1151.2	27926.2
1154.09	28518
1156.99	29334
1159.88	30185.5
1162.77	30941.7
1165.66	31686.9
1168.56	32528.4
1171.45	33344.6
1174.34	34176.6
1177.23	34844.6
1180.13	35384.7
1183.02	36201.2
1185.91	36847.1
1188.81	37356.5
1191.7	37976.1
1194.59	38444.4
1197.48	38779.5
1200.38	39310.3
1203.27	39768.2
1206.16	40160.4
1209.06	40646.9
1211.95	41126.1
1214.84	41613.1
1217.73	42197.3
1220.62	42778.2
1223.52	43314
1226.41	44209.4
1229.3	44750.8
1232.2	45546.6
1235.09	46312.2
1237.98	46878.9
1240.87	47419
1243.77	48096
1246.66	48670.5
1249.55	49235.8
1252.44	49513.4
1255.34	50011.9
1258.23	50539.7
1261.12	50950.6
1264.02	51423.5
1266.91	51673.6
1269.8	52248.6
