Measurement: Raman, 780 nm, unoriented, Raman Data RAW
Mineral: Hiortdahlite
Rruff sample: R060092
Ideal chemistry: Na_2_Ca_4_(Ca_0.5_Zr^4+^_0.5_)Zr^4+^(Si_2_O_7_)_2_OF_3_
Locality: Vesuvius, Italy
Source: University of Arizona Mineral Museum
Description: Tan colored prismatic crystals, variety guarinite
Raman shift (cm-1)	intensity
93.4668	53.2081
96.8416	49.5827
100.216	43.3933
103.591	34.1435
106.966	32.0781
110.341	31.1366
113.716	28.8198
117.091	29.0535
120.465	28.9672
123.84	28.9993
127.215	28.5748
130.59	28.369
133.965	28.5249
137.339	28.3501
140.714	28.1819
144.089	27.4957
147.464	27.2767
150.839	27.37
154.214	26.8386
157.588	26.687
160.963	26.7274
164.338	26.7569
167.713	27.2727
171.088	27.1062
174.462	27.4817
177.837	27.6106
181.212	27.8004
184.587	27.8299
187.962	27.9786
191.337	28.2029
194.711	28.0349
198.086	28.1715
201.461	28.1947
204.836	28.5897
208.21	28.3378
211.585	28.5625
214.96	29.0069
218.335	29.1758
221.71	28.8681
225.085	29.6185
228.459	29.693
231.834	29.7684
235.209	30.2407
238.584	30.2171
241.959	30.8371
245.333	31.2561
248.708	31.5663
252.083	31.2102
255.458	31.8588
258.833	31.8286
262.208	32.5014
265.582	32.919
268.957	33.1052
272.332	33.4281
275.707	34.0495
279.082	34.4876
282.457	34.707
285.831	34.9721
289.206	35.0004
292.581	35.1383
295.956	35.392
299.331	35.8419
302.705	36.2651
306.08	35.8793
309.455	35.5255
312.83	35.634
316.205	35.1715
319.579	35.3807
322.954	34.6375
326.329	34.4934
329.704	34.1606
333.079	34.3145
336.454	34.1925
339.828	34.5925
343.203	35.4256
346.578	35.9398
349.953	36.3846
353.328	37.6056
356.702	38.8689
360.077	40.1802
363.452	40.9692
366.827	41.8311
370.202	42.3172
373.577	42.3958
376.951	42.6078
380.326	42.3443
383.701	42.1284
387.076	41.9195
390.451	41.4385
393.825	41.6039
397.2	41.2042
400.575	41.7545
403.95	42.0294
407.325	42.6247
410.7	42.9712
414.074	42.9619
417.449	43.4825
420.824	43.168
424.199	43.3181
427.574	43.2803
430.948	43.3158
434.323	42.9596
437.698	42.7538
441.073	42.5786
444.448	42.4409
447.822	41.8419
451.197	41.5958
454.572	41.8523
457.947	42.2264
461.322	42.1101
464.697	41.8702
468.071	41.2589
471.446	41.1896
474.821	40.5087
478.196	40.4433
481.571	39.5116
484.945	39.5269
488.32	39.2753
491.695	38.8596
495.07	38.9475
498.445	38.7797
501.82	38.8534
505.194	38.6993
508.569	39.1747
511.944	39.0342
515.319	38.8344
518.694	38.9206
522.068	38.7289
525.443	37.9187
528.818	37.5919
532.193	37.0158
535.568	36.4173
538.942	35.7481
542.317	35.1422
545.692	34.2169
549.067	33.5701
552.442	32.7505
555.817	32.3751
559.191	31.5169
562.566	30.8868
565.941	30.7625
569.316	30.4235
572.691	30.1647
576.066	30.3361
579.44	30.4241
582.815	30.0203
586.19	29.5362
589.565	29.2697
592.94	28.6863
596.314	28.1906
599.689	27.7946
603.064	27.1862
606.439	27.1864
609.814	26.7927
613.188	26.686
616.563	26.6904
619.938	26.5646
623.313	26.4802
626.688	26.5888
630.063	26.5914
633.437	27.0352
636.812	27.9153
640.187	28.2979
643.562	28.6778
646.937	29.6255
650.312	30.7502
653.686	31.5338
657.061	32.6302
660.436	32.8448
663.811	33.3795
667.186	32.0707
670.56	30.3118
673.935	28.881
677.31	27.4359
680.685	26.9174
684.06	26.5976
687.434	26.3589
690.809	26.0204
694.184	25.8129
697.559	25.7595
700.934	25.5981
704.308	25.6943
707.683	25.6915
711.058	25.2124
714.433	25.4924
717.808	25.8373
721.183	25.8123
724.557	25.5906
727.932	25.7094
731.307	25.8127
734.682	25.702
738.057	26.2262
741.432	26.5141
744.806	26.5659
748.181	26.7071
751.556	26.8063
754.931	27.0465
758.306	27.326
761.68	27.2968
765.055	27.2844
768.43	27.6744
771.805	27.3681
775.18	27.4297
778.554	27.6911
781.929	27.6777
785.304	28.0717
788.679	28.0472
792.054	28.463
795.428	28.6203
798.803	28.3215
802.178	28.5626
805.553	28.6163
808.928	28.7288
812.303	29.144
815.677	29.0943
819.052	29.6772
822.427	30.054
825.802	30.7674
829.177	31.2042
832.552	32.2908
835.926	33.1622
839.301	33.3084
842.676	33.8768
846.051	33.2077
849.426	32.7093
852.8	31.5893
856.175	30.5415
859.55	30.1419
862.925	29.6789
866.3	29.2491
869.674	28.811
873.049	28.9847
876.424	29.2321
879.799	29.2588
883.174	29.6886
886.549	30.1957
889.923	30.7527
893.298	30.8834
896.673	31.7442
900.048	31.9846
903.423	32.3677
906.798	32.7682
910.172	33.7088
913.547	33.3169
916.922	33.3008
920.297	33.3491
923.672	33.697
927.046	33.9002
930.421	34.036
933.796	33.9908
937.171	34.158
940.546	34.1749
943.92	34.5077
947.295	34.4393
950.67	33.7384
954.045	33.246
957.42	32.776
960.794	32.6562
964.169	32.0431
967.544	31.9573
970.919	31.9352
974.294	31.3172
977.669	31.2264
981.043	31.5603
984.418	31.9525
987.793	31.928
991.168	32.0602
994.543	32.187
997.918	32.2279
1001.29	32.4374
1004.67	32.4779
1008.04	32.4581
1011.42	32.5189
1014.79	32.9982
1018.17	33.1255
1021.54	33.4742
1024.92	33.4082
1028.29	34.2831
1031.67	33.8038
1035.04	34.4045
1038.41	34.8139
1041.79	34.7342
1045.16	35.1249
1048.54	35.5281
1051.91	35.9276
1055.29	35.5909
1058.66	35.9264
1062.04	36.3915
1065.41	36.3689
1068.79	36.6669
1072.16	36.8377
1075.54	37.3273
1078.91	37.4898
1082.29	38.0345
1085.66	38.4901
1089.04	38.796
1092.41	39.3215
1095.79	39.703
1099.16	40.3126
1102.54	40.4138
1105.91	40.8635
1109.29	41.4357
1112.66	42.7366
1116.04	42.5725
1119.41	42.9498
1122.79	43.2688
1126.16	43.8185
1129.54	44.5844
1132.91	45.2042
1136.29	45.802
1139.66	46.4539
1143.04	46.8294
1146.41	47.4036
1149.78	48.0769
1153.16	49.307
1156.53	50.7452
1159.91	51.5726
1163.28	52.7438
1166.66	54.0334
1170.03	54.5583
1173.41	56.391
1176.78	57.2815
1180.16	59.3051
1183.53	61.0635
1186.91	62.3521
1190.28	64.1455
1193.66	66.2381
1197.03	68.433
1200.41	70.2818
1203.78	73.1448
1207.16	74.9254
1210.53	76.9807
1213.91	79.5617
1217.28	81.2438
1220.65	83.148
1224.03	85.4104
1227.4	87.2523
1230.78	88.7863
1234.15	90.2489
1237.53	91.6267
1240.9	92.8446
1244.28	93.8712
1247.65	95.5419
1251.03	96.0552
1254.4	96.7091
1257.78	96.7222
1261.15	97.8577
1264.53	98.1942
1267.9	99.4945
1271.28	99.9102
1274.65	100.838
1278.03	101.67
1281.4	103.487
1284.78	105.24
