Measurement: Raman, 532 nm, unoriented, Raman Data RAW
Mineral: Hisingerite
Rruff sample: R070695
Ideal chemistry: Fe^3+^_2_Si_2_O_5_(OH)_4_2H_2_O
Locality: Zinc Consolidated mine, Broken Hill, New South Wales, Australia
Source: James Shigley
Description: Black to dark-brown, translucent amorphous fragments
Raman shift (cm-1)	intensity
143.584	7435.55
146.476	7393.89
149.369	7430.66
152.262	7430.74
155.154	7517.59
158.047	7339.02
160.94	7253.9
163.833	7373.23
166.725	7264.7
169.618	7326.88
172.511	7337.47
175.403	7251.73
178.296	7245.46
181.189	7169.89
184.081	6947.19
186.974	7017.7
189.867	6781.38
192.759	6882.16
195.652	6838.86
198.545	6784.52
201.438	6689.09
204.33	6691.47
207.223	6631.63
210.116	6548.57
213.008	6536.85
215.901	6532.18
218.794	6618.86
221.686	6443.35
224.579	6534.39
227.472	6653.16
230.364	6557.41
233.257	6574.59
236.15	6593.38
239.043	6533.32
241.935	6615.52
244.828	6591.49
247.721	6634.32
250.613	6653.41
253.506	6535.88
256.399	6626.82
259.291	6475.11
262.184	6553.86
265.077	6594.81
267.97	6614.96
270.862	6633.32
273.755	6649.5
276.648	6663.37
279.54	6712.87
282.433	6630.88
285.326	6647.2
288.219	6780.3
291.111	6727.28
294.004	6742.26
296.897	6763.86
299.789	6658.33
302.682	6717.29
305.575	6808.99
308.467	6675.65
311.36	6711.45
314.253	6652.59
317.146	6613.97
320.038	6646.98
322.931	6711.2
325.824	6627.6
328.716	6752.17
331.609	6673.06
334.502	6659.12
337.394	6608.49
340.287	6563.66
343.18	6600.89
346.072	6551.15
348.965	6565.04
351.858	6529.97
354.75	6541.01
357.643	6562.9
360.536	6463.63
363.429	6471.77
366.321	6488.55
369.214	6413.11
372.107	6367.29
374.999	6391.07
377.892	6324.82
380.785	6371.9
383.678	6352.54
386.57	6422.14
389.463	6246.21
392.356	6273.89
395.248	6370.83
398.141	6317.68
401.034	6342.91
403.926	6326.58
406.819	6231.1
409.712	6303.8
412.604	6226.72
415.497	6339.07
418.39	6321.16
421.283	6303.06
424.175	6309.21
427.068	6367.22
429.961	6380.37
432.853	6256.76
435.746	6360.23
438.639	6313.56
441.531	6311.35
444.424	6359.63
447.317	6310.03
450.21	6324.16
453.102	6360.1
455.995	6381.83
458.888	6423.88
461.78	6331.93
464.673	6391.31
467.566	6396.2
470.459	6416.71
473.351	6394.49
476.244	6369.1
479.137	6429.4
482.029	6458.1
484.922	6438.14
487.815	6382.41
490.707	6439.31
493.6	6448.52
496.493	6560.69
499.385	6475.46
502.278	6539.7
505.171	6565.78
508.063	6653.38
510.956	6720.14
513.849	6517.95
516.742	6588.55
519.634	6569.49
522.527	6586.6
525.42	6582.67
528.312	6697.37
531.205	6606.36
534.098	6719.39
536.99	6613.34
539.883	6649.98
542.776	6696.82
545.669	6646.49
548.561	6745.39
551.454	6786.1
554.347	6753.69
557.239	6742.91
560.132	6787.24
563.025	6761.29
565.918	6762.66
568.81	6723.3
571.703	6748.99
574.596	6848.97
577.488	6782.07
580.381	6763.42
583.274	6768.33
586.166	6790.51
589.059	6734.77
591.952	6826.35
594.845	6823.63
597.737	6750.69
600.63	6712.54
603.523	6649.67
606.415	6618.99
609.308	6583.64
612.201	6545.04
615.093	6542.07
617.986	6536.34
620.879	6422.21
623.771	6373.53
626.664	6381.65
629.557	6273.41
632.45	6294.56
635.342	6245.15
638.235	6236.1
641.128	6076.82
644.02	6095.6
646.913	6113.56
649.806	6045.6
652.698	6008.8
655.591	6001.31
658.484	5933.19
661.376	5935.77
664.269	5923.9
667.162	5878.99
670.055	5801.53
672.947	5831.13
675.84	5805.89
678.733	5822.13
681.625	5818.08
684.518	5675.38
687.411	5698.51
690.303	5710.21
693.196	5648.91
696.089	5673.63
698.982	5663.03
701.874	5574.59
704.767	5505.76
707.66	5575.36
710.552	5611.4
713.445	5579.65
716.338	5467.09
719.231	5431.46
722.123	5538.33
725.016	5466.22
727.909	5416.25
730.801	5386.47
733.694	5375.36
736.587	5466.7
739.479	5403.65
742.372	5337.38
745.265	5339.27
748.158	5328.44
751.05	5331.25
753.943	5337.65
756.836	5339.25
759.728	5328.57
762.621	5306.11
765.514	5292.95
768.406	5321.39
771.299	5312.92
774.192	5290.76
777.085	5298.55
779.977	5265.16
782.87	5257.42
785.763	5302.25
788.655	5297.05
791.548	5311.67
794.441	5266.91
797.333	5218.48
800.226	5238.99
803.119	5292.75
806.011	5320.11
808.904	5242.43
811.797	5253.52
814.69	5252.6
817.582	5251.5
820.475	5292.79
823.368	5324.48
826.26	5236.75
829.153	5270.94
832.046	5268.3
834.938	5196.85
837.831	5225.46
840.724	5267.97
843.616	5232.64
846.509	5289.5
849.402	5287.56
852.295	5291.41
855.187	5312.95
858.08	5231.97
860.973	5306.67
863.865	5297.11
866.758	5310.93
869.651	5314.56
872.543	5311.32
875.436	5299.44
878.329	5309.16
881.222	5297.14
884.114	5336.4
887.007	5367.52
889.9	5324.35
892.792	5295.57
895.685	5315.85
898.578	5374.48
901.471	5351.14
904.363	5409
907.256	5336.59
910.149	5354.6
913.041	5379.48
915.934	5369.03
918.827	5374.93
921.719	5350.5
924.612	5399.24
927.505	5383.61
930.398	5412.07
933.29	5387.31
936.183	5328.84
939.076	5436.97
941.968	5358.02
944.861	5320.82
947.754	5371.81
950.646	5414.91
953.539	5393.68
956.432	5401.26
959.324	5348.02
962.217	5424.12
965.11	5411.99
968.003	5452.67
970.895	5426.02
973.788	5499.12
976.681	5433.84
979.573	5372.85
982.466	5479.15
985.359	5523.02
988.251	5529.34
991.144	5470.6
994.037	5445.37
996.93	5450.28
999.822	5554.18
1002.72	5535.54
1005.61	5538.42
1008.5	5530.21
1011.39	5476.77
1014.29	5603
1017.18	5567.58
1020.07	5570.41
1022.96	5609.55
1025.86	5593.88
1028.75	5678.95
1031.64	5611.2
1034.54	5665.56
1037.43	5598.37
1040.32	5718.02
1043.21	5604.16
1046.11	5654.06
1049	5678.84
1051.89	5701.11
1054.78	5694.94
1057.68	5720.88
1060.57	5662.34
1063.46	5774.7
1066.35	5697.31
1069.25	5779.74
1072.14	5764.91
1075.03	5771
1077.92	5727.77
1080.82	5807.08
1083.71	5735.91
1086.6	5850.95
1089.5	5816.99
1092.39	5868.3
1095.28	5906.55
1098.17	5944.91
1101.07	5853.19
1103.96	5866.85
1106.85	5902.46
1109.74	5887.25
1112.64	5897.6
1115.53	5891.62
1118.42	5872.43
1121.32	5897.57
1124.21	5924.37
1127.1	5968.92
1129.99	5988.29
1132.89	6044.13
1135.78	6009.43
1138.67	6048.15
1141.56	6070.42
1144.46	5969.39
1147.35	5971.61
1150.24	5963.68
1153.13	6062.72
1156.03	6089.38
1158.92	6070.06
1161.81	6052.12
1164.71	6019.34
1167.6	6097.92
1170.49	6160.68
1173.38	6113.19
1176.28	6074.17
1179.17	6235.36
1182.06	6090.82
1184.95	6269.9
1187.85	6153.36
1190.74	6057.55
1193.63	6155.72
1196.53	6145.95
1199.42	6083.5
1202.31	6139.22
1205.2	6198.6
1208.1	6212.82
1210.99	6157.52
1213.88	6267.71
1216.78	6195.05
1219.67	6229.79
1222.56	6372.03
1225.45	6271.86
1228.35	6213.45
1231.24	6318.93
1234.13	6225.87
1237.02	6362.77
1239.92	6349.9
1242.81	6338.86
1245.7	6353.29
1248.59	6336.25
1251.49	6318.68
1254.38	6374.07
1257.27	6476.89
1260.16	6424.41
1263.06	6491.64
1265.95	6517.43
1268.84	6450.85
1271.74	6554.49
1274.63	6544.49
1277.52	6554.6
1280.41	6666.6
1283.31	6589.05
1286.2	6599.21
1289.09	6611.88
1291.98	6640.05
1294.88	6547.78
