Measurement: Raman, 780 nm, unoriented, Raman Data RAW
Mineral: Hisingerite
Rruff sample: R070695
Ideal chemistry: Fe^3+^_2_Si_2_O_5_(OH)_4_2H_2_O
Locality: Zinc Consolidated mine, Broken Hill, New South Wales, Australia
Source: James Shigley
Description: Black to dark-brown, translucent amorphous fragments
Raman shift (cm-1)	intensity
114.927	734826
118.302	733881
121.677	733075
125.051	731614
128.426	731782
131.801	732763
135.176	733472
138.551	733419
141.925	734999
145.3	735716
148.675	736153
152.05	737516
155.425	737146
158.8	737461
162.174	737812
165.549	737723
168.924	737386
172.299	737967
175.674	738568
179.048	737998
182.423	738102
185.798	738520
189.173	738032
192.548	738260
195.923	738352
199.297	739290
202.672	738526
206.047	737857
209.422	737578
212.797	738613
216.172	738907
219.546	739917
222.921	741218
226.296	741231
229.671	740055
233.046	740599
236.42	740628
239.795	741093
243.17	741353
246.545	741121
249.92	740235
253.294	740687
256.669	741064
260.044	740702
263.419	741167
266.794	742400
270.169	741148
273.543	741304
276.918	741523
280.293	742025
283.668	741762
287.043	742416
290.418	742563
293.792	743663
297.167	743036
300.542	743482
303.917	743327
307.292	743614
310.666	743568
314.041	744328
317.416	743698
320.791	743730
324.166	743236
327.541	743435
330.915	743741
334.29	743994
337.665	745081
341.04	744423
344.415	745783
347.789	745901
351.164	745953
354.539	745968
357.914	744434
361.289	746012
364.663	746036
368.038	747084
371.413	746331
374.788	745628
378.163	745940
381.538	746428
384.912	746196
388.287	746272
391.662	746456
395.037	746863
398.412	747662
401.786	747279
405.161	747453
408.536	749664
411.911	750720
415.286	750288
418.661	750371
422.035	751175
425.41	750472
428.785	752398
432.16	751789
435.535	750555
438.909	751688
442.284	751248
445.659	752819
449.034	751948
452.409	753759
455.784	754171
459.158	754514
462.533	753973
465.908	753498
469.283	755022
472.658	756333
476.033	756220
479.407	756170
482.782	753836
486.157	753858
489.532	754638
492.907	754844
496.281	753506
499.656	753763
503.031	753586
506.406	753658
509.781	753504
513.155	755057
516.53	754176
519.905	754110
523.28	754167
526.655	753481
530.029	753159
533.404	752826
536.779	754004
540.154	754149
543.529	753587
546.904	753830
550.278	753778
553.653	753200
557.028	753055
560.403	753845
563.778	755311
567.153	757849
570.527	756254
573.902	756383
577.277	757492
580.652	757842
584.027	758795
587.402	757924
590.776	758971
594.151	760489
597.526	760589
600.901	760088
604.276	760307
607.65	760687
611.025	762942
614.4	763428
617.775	764039
621.15	763188
624.524	763444
627.899	764985
631.274	765796
634.649	765787
638.024	767802
641.399	768263
644.773	768754
648.148	768389
651.523	768263
654.898	769185
658.273	770175
661.648	770273
665.022	771296
668.397	771340
671.772	771040
675.147	772873
678.521	774618
681.896	774157
685.271	774852
688.646	775278
692.021	775295
695.396	776167
698.77	776331
702.145	776567
705.52	778306
708.895	779214
712.27	780972
715.644	780945
719.019	780908
722.394	781836
725.769	783287
729.144	784285
732.519	784580
735.893	785194
739.268	786527
742.643	787698
746.018	786132
749.393	786955
752.768	787468
756.142	788605
759.517	789292
762.892	789538
766.267	789576
769.642	789882
773.016	790964
776.391	793000
779.766	792970
783.141	793792
786.516	794215
789.891	795254
793.265	795790
796.64	797511
800.015	798499
803.39	798535
806.765	799915
810.139	800137
813.514	799853
816.889	802287
820.264	803775
823.639	805162
827.014	804479
830.388	804428
833.763	805121
837.138	806494
840.513	807500
843.888	806969
847.263	808621
850.637	809676
854.012	810723
857.387	810030
860.762	810798
864.136	810701
867.511	812002
870.886	813024
874.261	814211
877.636	814773
881.011	814272
884.385	814995
887.76	815336
891.135	815728
894.51	816219
897.885	816001
901.26	818257
904.634	818290
908.009	820527
911.384	820945
914.759	821792
918.134	821541
921.508	823007
924.883	823200
928.258	823866
931.633	825186
935.008	825697
938.383	828277
941.757	828819
945.132	828042
948.507	829917
951.882	830858
955.257	832706
958.631	833192
962.006	833978
965.381	835188
968.756	835332
972.131	836520
975.505	835384
978.88	836120
982.255	837695
985.63	838923
989.005	840254
992.38	841241
995.755	842322
999.129	842511
1002.5	842955
1005.88	843699
1009.25	845762
1012.63	846946
1016	845422
1019.38	848133
1022.75	849259
1026.13	849758
1029.5	849903
1032.88	851217
1036.25	853441
1039.63	853383
1043	855781
1046.38	856549
1049.75	858365
1053.13	858185
1056.5	858665
1059.88	858680
1063.25	860443
1066.63	859992
1070	860667
1073.38	860894
1076.75	862298
1080.12	861542
1083.5	861604
1086.88	862680
1090.25	864967
1093.62	863596
1097	863535
1100.37	863499
1103.75	865432
1107.12	867139
1110.5	865899
1113.87	865433
1117.25	866630
1120.62	867694
1124	868762
1127.37	870430
1130.75	872061
1134.12	874249
1137.5	874462
1140.87	874345
1144.25	876838
1147.62	878795
1151	880188
1154.37	880342
1157.75	881188
1161.12	882504
1164.49	883544
1167.87	885618
1171.24	885554
1174.62	887897
1177.99	889538
1181.37	890199
1184.74	891800
1188.12	892710
1191.49	892390
1194.87	893462
1198.24	893808
1201.62	894747
1204.99	894984
1208.37	896667
1211.74	899110
1215.12	899157
1218.49	899353
1221.87	899520
1225.24	899712
1228.62	901623
1231.99	901605
1235.37	902221
1238.74	902892
1242.12	902275
1245.49	903848
1248.87	905796
1252.24	905487
1255.62	907594
1258.99	908713
1262.37	911655
1265.74	913976
1269.12	914691
1272.49	916440
1275.86	919028
1279.24	921174
1282.61	921716
1285.99	920819
