Measurement: Raman, 532 nm, unoriented, Raman Data RAW
Mineral: Hisingerite
Rruff sample: R070126
Ideal chemistry: Fe^3+^_2_Si_2_O_5_(OH)_4_2H_2_O
Locality: Nickel Plate mine, Hedley, British Columbia, Canada
Source: Lloyd Twaites
Description: Chocolate brown hexagonal prismatic crystal, appearing to have replaced quartz. Amorphous
Raman shift (cm-1)	intensity
167.056	8886.33
169.948	9073.09
172.841	9219.35
175.734	9294.07
178.627	9460.07
181.519	9416.64
184.412	9376.8
187.305	9408.14
190.197	9296.26
193.09	9272.73
195.983	9261.07
198.875	9288.34
201.768	9192.15
204.661	9204.47
207.554	9265.89
210.446	9226.56
213.339	9340.33
216.232	9239.19
219.124	9385.33
222.017	9366.74
224.91	9383.42
227.803	9414.8
230.695	9402.37
233.588	9438.35
236.481	9467.84
239.373	9432.51
242.266	9567.9
245.159	9464.72
248.051	9545.52
250.944	9627.63
253.837	9563.99
256.729	9624.37
259.622	9624.82
262.515	9617.53
265.408	9741.59
268.3	9681.76
271.193	9778.26
274.086	9745.35
276.978	9835.64
279.871	9788.85
282.764	9900.07
285.656	9930.4
288.549	9948.84
291.442	9982.17
294.335	10057.8
297.227	10049.5
300.12	10085.7
303.013	10170.7
305.905	10276.3
308.798	10238
311.691	10314.2
314.584	10292.9
317.476	10410.3
320.369	10369
323.262	10408.3
326.154	10294.9
329.047	10409.5
331.94	10363.2
334.832	10341.7
337.725	10332.9
340.618	10420.5
343.51	10454.5
346.403	10378.1
349.296	10396.4
352.189	10429.7
355.081	10432.7
357.974	10490.5
360.867	10472.2
363.76	10520.7
366.652	10551.8
369.545	10545.1
372.438	10527.7
375.33	10496.2
378.223	10583
381.116	10536.8
384.008	10537.1
386.901	10603.1
389.794	10570.6
392.687	10658.5
395.579	10776.9
398.472	10726.7
401.365	10679.2
404.257	10705.1
407.15	10695.5
410.043	10745.8
412.935	10810.3
415.828	10807.7
418.721	10771.2
421.613	10862
424.506	10888.3
427.399	10935.7
430.292	10944
433.184	10977.7
436.077	11022.9
438.97	11060.4
441.862	11096.9
444.755	11073.1
447.648	11128.1
450.541	11157.3
453.433	11201.5
456.326	11293.9
459.219	11306.6
462.111	11307.2
465.004	11306.6
467.897	11431.5
470.789	11460.4
473.682	11537.9
476.575	11597.8
479.467	11666.6
482.36	11668.3
485.253	11797.1
488.146	11854.1
491.038	11959.5
493.931	12048.6
496.824	12011.2
499.716	12191.9
502.609	12240.9
505.502	12384.9
508.394	12360.2
511.287	12502.2
514.18	12521.2
517.073	12593.2
519.965	12627.3
522.858	12702.6
525.751	12732.1
528.643	12906.9
531.536	12937.8
534.429	12995.1
537.322	12991.5
540.214	13102.3
543.107	13138.1
546	13146.9
548.892	13153.4
551.785	13369.8
554.678	13260.2
557.57	13304.6
560.463	13329.5
563.356	13511.9
566.249	13565.5
569.141	13554.4
572.034	13563
574.927	13643.2
577.819	13676.5
580.712	13755.6
583.605	13771.3
586.497	13842.5
589.39	13789.3
592.283	13851.9
595.176	13839.9
598.068	13924.3
600.961	13992.1
603.854	13837.5
606.746	13864.9
609.639	13809
612.532	13788.5
615.424	13764.3
618.317	13744.5
621.21	13690.3
624.103	13676.2
626.995	13584.2
629.888	13624.5
632.781	13578.4
635.673	13648.6
638.566	13536.6
641.459	13519.1
644.351	13533.2
647.244	13648.3
650.137	13642.6
653.03	13631.7
655.922	13577.5
658.815	13576.4
661.708	13499.7
664.6	13498.5
667.493	13444.5
670.386	13384.9
673.279	13297
676.171	13151.8
679.064	13206.1
681.957	13120.9
684.849	13154.8
687.742	13036.6
690.635	12998.1
693.527	13063.7
696.42	13000.4
699.313	12960.2
702.206	12933.1
705.098	12927.2
707.991	12905
710.884	12893.5
713.776	12924.9
716.669	12842.2
719.562	12877
722.454	12855.2
725.347	12880.8
728.24	12893.8
731.133	12906
734.025	12812.7
736.918	12842.9
739.811	12807.6
742.703	12876.8
745.596	12769.3
748.489	12819.5
751.381	12908.9
754.274	12934.6
757.167	12870.9
760.06	12917.8
762.952	12954.6
765.845	12975
768.738	12958.6
771.63	12964.4
774.523	12959.7
777.416	13074.3
780.308	12974.8
783.201	12977
786.094	13022.2
788.987	13069
791.879	13140.9
794.772	13164.2
797.665	13157.5
800.557	13191.5
803.45	13169.9
806.343	13211.4
809.236	13213.8
812.128	13207.4
815.021	13270.4
817.914	13263.7
820.806	13285
823.699	13369.7
826.592	13321
829.484	13301.7
832.377	13307.8
835.27	13458.3
838.163	13480.9
841.055	13471.5
843.948	13449.9
846.841	13534.8
849.733	13606.7
852.626	13635.4
855.519	13699.8
858.411	13612.2
861.304	13666.2
864.197	13699.6
867.09	13740.6
869.982	13817.3
872.875	13755.4
875.768	13795.4
878.66	13844.4
881.553	13825.7
884.446	13853.7
887.338	14014.7
890.231	13955.9
893.124	14030.9
896.016	14082.5
898.909	14095.1
901.802	14158.6
904.695	14206.5
907.587	14144.9
910.48	14160.1
913.373	14195.5
916.265	14318.2
919.158	14320.6
922.051	14378
924.943	14348
927.836	14378.3
930.729	14406.8
933.622	14523.7
936.514	14511.5
939.407	14632.4
942.3	14570.3
945.192	14593
948.085	14653.6
950.978	14631.5
953.87	14692.4
956.763	14697.9
959.656	14744.5
962.549	14726.2
965.441	14812.2
968.334	14806.7
971.227	14799.6
974.119	14734.5
977.012	14821
979.905	14886.2
982.798	14948.9
985.69	14951.9
988.583	14833.7
991.476	14916.3
994.368	15049.8
997.261	15020.4
1000.15	15008.8
1003.05	15157.4
1005.94	15115
1008.83	15146.9
1011.73	15236.6
1014.62	15278.6
1017.51	15251.6
1020.4	15377.6
1023.29	15435.5
1026.19	15443.5
1029.08	15523
1031.97	15609.9
1034.87	15626.8
1037.76	15721.5
1040.65	15634.4
1043.54	15781.9
1046.44	15737.9
1049.33	15861.6
1052.22	15918.4
1055.12	16010.9
1058.01	16060.5
1060.9	16145.1
1063.79	16326.4
1066.69	16380.4
1069.58	16294.8
1072.47	16418.2
1075.36	16500.2
1078.26	16558
1081.15	16545.7
1084.04	16694.5
1086.93	16764.4
1089.83	16801.5
1092.72	16820.9
1095.61	16950.1
1098.51	16940.7
1101.4	17051
1104.29	16970
1107.18	17085.9
1110.08	17165.3
1112.97	17275
1115.86	17309.7
1118.76	17294.3
1121.65	17420.8
1124.54	17466.7
1127.43	17555.1
1130.33	17599.6
1133.22	17618
1136.11	17638.6
1139	17737.1
1141.9	17890
1144.79	17829.6
1147.68	17893.2
1150.57	17919.3
1153.47	17940.1
1156.36	17900.4
1159.25	17940.3
1162.14	18019.6
1165.04	18032.8
1167.93	18185.8
1170.82	18142
1173.72	18165.8
1176.61	18227.6
1179.5	18246.9
1182.39	18309.9
1185.29	18435.2
1188.18	18373.2
1191.07	18488.8
1193.96	18473.8
1196.86	18489.2
1199.75	18461.8
1202.64	18530.9
1205.54	18676.6
1208.43	18657.6
1211.32	18755.8
1214.21	18793.4
1217.11	18821.2
1220	18838.2
1222.89	18902.8
1225.78	19008.8
1228.68	19042.7
1231.57	19137.5
1234.46	19048.7
1237.36	19189.5
1240.25	19230.6
1243.14	19272.5
1246.03	19334.8
1248.93	19544.4
1251.82	19472.4
1254.71	19566.3
1257.6	19579.6
1260.5	19652.2
1263.39	19847.7
1266.28	19855.7
1269.17	19924.1
1272.07	19933.3
1274.96	20014.4
1277.85	20085.2
1280.75	20174.4
1283.64	20234.8
1286.53	20349.4
1289.42	20350.4
1292.32	20306
