Measurement: Raman, 785 nm, unoriented, Raman Data RAW
Mineral: Hisingerite
Rruff sample: R070126
Ideal chemistry: Fe^3+^_2_Si_2_O_5_(OH)_4_2H_2_O
Locality: Nickel Plate mine, Hedley, British Columbia, Canada
Source: Lloyd Twaites
Description: Chocolate brown hexagonal prismatic crystal, appearing to have replaced quartz. Amorphous
Raman shift (cm-1)	intensity
200.859	44092.6
203.752	44637.6
206.645	44690.9
209.537	45020.8
212.43	44974.4
215.323	45142
218.215	45471.3
221.108	45978.6
224.001	46217.5
226.894	46285.8
229.786	46506.6
232.679	46717.9
235.572	46792
238.464	47034.1
241.357	47351.3
244.25	47497.8
247.143	47609.8
250.035	47719.3
252.928	47909.9
255.821	48093.2
258.713	48268.5
261.606	48701.3
264.499	48683.1
267.391	48780.2
270.284	49035.8
273.177	49000.8
276.07	49122
278.962	49105.5
281.855	49344.9
284.748	49369.5
287.64	49635.3
290.533	49614.7
293.426	49586.4
296.318	49667.5
299.211	49873.8
302.104	49848.2
304.996	50248.6
307.889	50054.9
310.782	50257.9
313.675	50367
316.567	50481.1
319.46	50467
322.353	50544.8
325.245	50661.9
328.138	50858.8
331.031	50975.3
333.923	51037.3
336.816	51296.9
339.709	51077.2
342.601	51253.8
345.494	51198.6
348.387	51233.1
351.28	51646.6
354.172	51566.2
357.065	51810.3
359.958	51779
362.85	51739.6
365.743	51604.3
368.636	51850.3
371.529	52047.3
374.421	52046.4
377.314	52237.8
380.207	52274.6
383.099	52114.1
385.992	52103.4
388.885	52260.3
391.777	52253.6
394.67	52535.7
397.563	52458.9
400.455	52581.9
403.348	52693.8
406.241	52670.5
409.134	52386.8
412.026	52584.2
414.919	52714.7
417.812	52781.9
420.704	52907.4
423.597	52941.9
426.49	52757.6
429.382	52861.2
432.275	52821.2
435.168	53155.1
438.061	52881.2
440.953	53077
443.846	52968.8
446.739	53245.4
449.631	53140.3
452.524	53121.8
455.417	53158.1
458.31	53186.5
461.202	53183.6
464.095	53278.1
466.988	53336.4
469.88	53460.6
472.773	53455.2
475.666	53514.5
478.558	53451.5
481.451	53464.6
484.344	53436.1
487.236	53526
490.129	53790.6
493.022	53775.6
495.915	53922.4
498.807	53734.8
501.7	53915.3
504.593	53803.6
507.485	53918.2
510.378	54100.9
513.271	54036.8
516.163	54138.7
519.056	54202.6
521.949	54051.8
524.842	54077.5
527.734	54084
530.627	54189
533.52	54179
536.412	54225
539.305	54119.2
542.198	54198.6
545.091	54228.5
547.983	54284.7
550.876	54282.3
553.769	54256.1
556.661	54149.7
559.554	54246.7
562.447	54084
565.339	54248.7
568.232	54205
571.125	54201.4
574.018	54095.3
576.91	54003.2
579.803	54323.1
582.696	54114.4
585.588	54146.8
588.481	54278.8
591.374	54122.2
594.266	54199.3
597.159	54243.4
600.052	54202.5
602.944	54144.3
605.837	54289.7
608.73	54148.6
611.623	54177.4
614.515	54067.5
617.408	54175.7
620.301	54227.4
623.193	54182.3
626.086	54268
628.979	54162.8
631.871	54331.8
634.764	54128.4
637.657	54170.9
640.55	54297.9
643.442	54148.4
646.335	54068.9
649.228	54272.5
652.12	54268.1
655.013	54339.7
657.906	54281
660.798	54134.4
663.691	54094.5
666.584	54084
669.477	54031.4
672.369	53972.6
675.262	53885.4
678.155	53846.9
681.047	53805.4
683.94	53658.2
686.833	53768.1
689.726	53696.5
692.618	53463.8
695.511	53635.5
698.404	53576.5
701.296	53494.4
704.189	53559.6
707.082	53397.2
709.974	53400.9
712.867	53429.3
715.76	53224.8
718.653	53385.7
721.545	53351.1
724.438	53335.5
727.331	53060.2
730.223	53112.4
733.116	52994.8
736.009	53047.3
738.901	52683.8
741.794	52845.7
744.687	52861.8
747.579	52667.7
750.472	52831.9
753.365	52780.1
756.258	52690.4
759.15	52569.8
762.043	52467.3
764.936	52281.7
767.828	52353
770.721	52316.9
773.614	52197.9
776.506	52326.7
779.399	52122.2
782.292	52236.6
785.184	52084.9
788.077	52153
790.97	52132.9
793.863	51962.3
796.755	51981.5
799.648	51687.6
802.541	51788
805.433	51750.8
808.326	51536.9
811.219	51647.1
814.111	51701.5
817.004	51691.3
819.897	51567.9
822.79	51603.6
825.682	51542.9
828.575	51463.3
831.468	51360.2
834.36	51379.6
837.253	51202.7
840.146	51411.4
843.038	51412.3
845.931	51288.1
848.824	51150.2
851.717	51141
854.609	51140.8
857.502	51003.5
860.395	50974.3
863.287	51096.2
866.18	50991.3
869.073	50990.7
871.966	51090.9
874.858	50966.6
877.751	50742.9
880.644	50930
883.536	50846.3
886.429	50639.2
889.322	50742.5
892.214	50704.7
895.107	50673.2
898	50631.5
900.893	50672.4
903.785	50785.7
906.678	50610.8
909.571	50635.5
912.463	50425.4
915.356	50493.2
918.249	50496.1
921.141	50374.4
924.034	50543
926.927	50488.5
929.819	50444.2
932.712	50452.7
935.605	50191.9
938.498	50233.1
941.39	50149.5
944.283	50118.7
947.176	50123.2
950.068	50057.7
952.961	50009.4
955.854	50052.1
958.746	50008.2
961.639	50015.2
964.532	49870.2
967.425	49570.1
970.317	49833.8
973.21	49707.5
976.103	49746.7
978.995	49783.7
981.888	49610.3
984.781	49568.4
987.673	49750.9
990.566	49378.5
993.459	49546
996.352	49398.2
999.244	49200.4
1002.14	49411.8
1005.03	49270.6
1007.92	49283.3
1010.82	49382.2
1013.71	49319.7
1016.6	49230.5
1019.49	49117.5
1022.39	49224
1025.28	49151.5
1028.17	49223
1031.06	49155.8
1033.96	49037.7
1036.85	49001
1039.74	49030.5
1042.63	48994.5
1045.53	48916.6
1048.42	49029.7
1051.31	49021.5
1054.21	48943.4
1057.1	49010.4
1059.99	49043.7
1062.88	48915.7
1065.78	48847
1068.67	48843.3
1071.56	48997.3
1074.45	48871.4
1077.35	48699.2
1080.24	48920.2
1083.13	48871.8
1086.03	48702.8
1088.92	48655.3
1091.81	48547.8
1094.7	48499.3
1097.6	48382.4
1100.49	48546
1103.38	48543.7
1106.27	48447.3
1109.17	48391.9
1112.06	48531.5
1114.95	48339.9
1117.85	48182.3
1120.74	48285.3
1123.63	48252.2
1126.52	48364.9
1129.42	48279.9
1132.31	48071.3
1135.2	48100.5
1138.09	48264.7
1140.99	48135.8
1143.88	47912.1
1146.77	48028
1149.66	47858.4
1152.56	47743.2
1155.45	47731.2
1158.34	47790.5
1161.23	47554.9
1164.13	47664.7
1167.02	47488.2
1169.91	47503.8
1172.81	47527.3
1175.7	47457.6
1178.59	47342
1181.48	47419.1
1184.38	47324.4
1187.27	47199.6
1190.16	47328.5
1193.06	47233.7
1195.95	47100.5
1198.84	47111
1201.73	46964.2
1204.63	47000.9
1207.52	46946.2
1210.41	47056.8
1213.3	46886.5
1216.2	46750.5
1219.09	46776.6
1221.98	46728.1
