Measurement: Raman, 780 nm, unoriented, Raman Data Processed
Mineral: Hoganite
Rruff sample: R190035
Ideal chemistry: Cu^2+^(CH_3_COO)_2_H_2_O
Locality: Holbrook Shaft, Level 100, Bisbee, Warren District, Cochise County, Arizona
Source: Robert Lavinsky
Raman shift (cm-1)	intensity
110.724	0
114.099	6.09233
117.473	9.47455
120.848	4.17809
124.223	10.5361
127.598	15.1538
130.972	21.1947
134.347	18.641
137.722	14.551
141.097	10.5032
144.472	10.6092
147.847	4.92003
151.221	6.48322
154.596	5.67922
157.971	6.39591
161.346	3.42198
164.721	12.1811
168.096	12.4052
171.47	18.5256
174.845	36.9427
178.22	54.391
181.595	55.3133
184.97	33.3776
188.345	30.6893
191.719	13.3711
195.094	8.76056
198.469	12.8438
201.844	0.084234
205.219	5.0694
208.593	1.18175
211.968	10.0907
215.343	13.5093
218.718	19.2282
222.093	17.2065
225.468	3.58499
228.842	20.5225
232.217	8.46524
235.592	9.53253
238.967	2.6005
242.341	6.41146
245.716	7.51483
249.091	9.98681
252.466	13.0323
255.841	5.13349
259.216	5.40773
262.591	5.27483
265.965	4.96699
269.34	1.20719
272.715	1.94529
276.09	4.62744
279.464	1.77795
282.839	11.3723
286.214	13.5206
289.589	15.1832
292.964	11.9594
296.339	7.64295
299.713	17.9667
303.088	13.688
306.463	19.8404
309.838	25.3841
313.213	26.1717
316.587	27.522
319.962	40.7466
323.337	22.6867
326.712	27.3106
330.087	7.37502
333.462	4.10947
336.837	10.0335
340.211	7.31746
343.586	9.85897
346.961	8.04326
350.336	7.24209
353.711	4.53478
357.085	2.80505
360.46	9.15874
363.835	4.81756
367.21	8.76522
370.585	18.295
373.959	13.0762
377.334	18.9215
380.709	6.5629
384.084	4.92043
387.459	8.37461
390.834	3.73368
394.208	11.6088
397.583	4.22456
400.958	8.55773
404.333	7.39495
407.708	15.5474
411.082	15.2027
414.457	11.9962
417.832	9.10724
421.207	14.8277
424.582	0.018117
427.957	10.2445
431.331	16.0045
434.706	10.8864
438.081	13.1194
441.456	5.29887
444.831	9.25468
448.205	14.6693
451.58	13.4941
454.955	12.5174
458.33	16.7445
461.705	18.722
465.079	16.6938
468.454	4.13883
471.829	4.00383
475.204	18.9901
478.579	11.9462
481.954	15.4372
485.328	15.3092
488.703	4.78292
492.078	9.5158
495.453	9.34658
498.828	0.554808
502.202	1.67363
505.577	9.73642
508.952	1.916
512.327	3.76511
515.702	9.19967
519.077	10.5512
522.451	4.41524
525.826	16.1446
529.201	8.76655
532.576	2.44913
535.951	14.0607
539.326	4.72214
542.7	6.82911
546.075	5.49845
549.45	11.1019
552.825	15.7593
556.2	6.70773
559.574	10.7255
562.949	15.9285
566.324	4.18222
569.699	9.36699
573.074	11.0752
576.448	2.04932
579.823	2.17961
583.198	1.01279
586.573	9.73541
589.948	18.5389
593.323	13.5765
596.697	11.4762
600.072	10.0085
603.447	2.40061
606.822	7.21762
610.197	4.95943
613.572	20.4682
616.946	6.63651
620.321	10.2167
623.696	9.75593
627.071	8.31515
630.446	4.50613
633.82	6.96213
637.195	8.71924
640.57	15.2254
643.945	6.22819
647.32	13.4329
650.694	8.06628
654.069	9.22395
657.444	12.2278
660.819	11.0998
664.194	4.70976
667.569	12.8374
670.943	9.35008
674.318	11.2219
677.693	13.5419
681.068	14.3212
684.443	6.22793
687.817	13.4945
691.192	13.7575
694.567	9.67336
697.942	10.5555
701.317	12.697
704.692	14.131
708.066	11.7685
711.441	10.8954
714.816	5.26079
718.191	13.3868
721.566	5.30406
724.941	14.6712
728.315	1.52334
731.69	0.586218
735.065	6.44435
738.44	4.1355
741.815	6.9266
745.189	13.2504
748.564	1.73225
751.939	7.24036
755.314	2.39149
758.689	2.26962
762.063	9.91041
765.438	6.29385
768.813	4.42343
772.188	2.24761
775.563	16.5229
778.938	3.77657
782.312	14.1325
785.687	11.5687
789.062	9.78665
792.437	18.472
795.812	3.39712
799.187	11.0681
802.561	4.27625
805.936	1.5627
809.311	3.6276
812.686	8.63066
816.061	7.77196
819.435	8.76877
822.81	13.6622
826.185	5.39266
829.56	12.8374
832.935	10.3827
836.309	4.98191
839.684	9.67463
843.059	15.1075
846.434	5.6476
849.809	3.30362
853.184	3.18464
856.558	18.3845
859.933	9.08685
863.308	13.0276
866.683	7.92575
870.058	8.78871
873.433	8.37476
876.807	0.842844
880.182	10.0351
883.557	7.12651
886.932	1.07477
890.307	14.79
893.681	13.4178
897.056	4.94331
900.431	12.5291
903.806	1.86338
907.181	10.9369
910.556	8.871
913.93	10.2724
917.305	16.2806
920.68	11.279
924.055	5.81136
927.43	10.6847
930.804	12.7887
934.179	20.2957
937.554	10.883
940.929	15.6995
944.304	22.4163
947.678	40.8702
951.053	36.8631
954.428	16.3915
957.803	20.3162
961.178	3.4504
964.553	7.88393
967.927	13.6899
971.302	5.94219
974.677	6.08704
978.052	12.2258
981.427	2.21653
984.802	10.3483
988.176	6.37375
991.551	12.3485
994.926	8.95038
998.301	15.5982
1001.68	11.9537
1005.05	6.91405
1008.42	13.7498
1011.8	3.77958
1015.17	10.3506
1018.55	6.58393
1021.92	10.947
1025.3	7.24471
1028.67	8.31425
1032.05	6.45289
1035.42	3.72805
1038.8	6.00898
1042.17	5.85616
1045.55	6.20626
1048.92	7.5939
1052.3	13.8318
1055.67	8.65811
1059.05	12.6976
1062.42	0.002534
1065.8	7.1402
1069.17	5.83817
1072.55	4.797
1075.92	5.08385
1079.3	1.31272
1082.67	7.302
1086.05	4.12777
1089.42	7.19472
1092.8	10.548
1096.17	6.10344
1099.55	1.14871
1102.92	4.7259
1106.3	0.520848
1109.67	8.72704
1113.05	10.2255
1116.42	13.7054
1119.79	13.547
1123.17	3.49664
1126.54	15.3681
1129.92	3.91788
1133.29	1.68835
1136.67	19.9181
1140.04	13.5542
1143.42	1.78967
1146.79	11.2761
1150.17	10.727
1153.54	13.8861
1156.92	0.249796
1160.29	12.5763
1163.67	23.4802
1167.04	13.0897
1170.42	8.27449
1173.79	8.91859
1177.17	10.585
1180.54	6.79821
1183.92	9.75314
1187.29	7.86434
1190.66	0.924245
1194.04	3.62853
1197.41	9.77814
1200.79	10.7662
1204.16	15.485
1207.54	13.2501
1210.91	6.21305
1214.29	11.844
1217.66	7.38122
1221.04	14.5525
1224.41	14.1103
1227.79	7.60592
1231.16	15.0876
1234.54	14.6347
1237.91	19.7609
1241.29	11.2615
1244.66	10.8069
1248.04	12.9544
1251.41	7.19156
1254.79	8.19002
1258.16	10.2789
1261.54	12.9666
1264.91	6.66009
1268.29	6.36614
1271.66	7.23426
1275.04	12.2283
1278.41	0.322077
1281.79	0.005507
