Measurement: Raman, 532 nm, unoriented, Raman Data Processed
Mineral: Hoganite
Rruff sample: R160076
Ideal chemistry: Cu^2+^(CH_3_COO)_2_H_2_O
Locality: Courtland, Cochise County, Arizona
Source: Marcus Origlieri
Description: Deep blue individual or aggregates of euhedral crystals.
Raman shift (cm-1)	intensity
88.1367	0
91.5115	31.9393
94.8863	113.392
98.2612	255.261
101.636	319.49
105.011	498.036
108.386	634.195
111.76	571.013
115.135	690.065
118.51	777.6
121.885	736.875
125.26	622.516
128.635	442.009
132.009	261.916
135.384	128.076
138.759	68.2657
142.134	38.3703
145.509	35.2372
148.883	14.7414
152.258	6.95412
155.633	12.4131
159.008	8.52617
162.383	18.6408
165.757	63.208
169.132	126.901
172.507	208.299
175.882	291.586
179.257	419.039
182.632	432.784
186.006	299.327
189.381	167.689
192.756	70.7962
196.131	13.6845
199.506	10.7885
202.881	12.3958
206.255	9.32141
209.63	68.22
213.005	141.269
216.38	150.282
219.755	192.634
223.129	289.487
226.504	331.608
229.879	339.137
233.254	334.528
236.629	211.956
240.004	82.6068
243.378	26.4643
246.753	37.9968
250.128	94.8794
253.503	162.67
256.878	71.7463
260.252	2.19832
263.627	5.30815
267.002	7.802
270.377	5.46252
273.752	13.0971
277.127	43.1777
280.501	94.4149
283.876	161.704
287.251	245.271
290.626	317.933
294.001	386.522
297.375	429.931
300.75	476.346
304.125	556.822
307.5	682.147
310.875	888.272
314.25	1205.9
317.624	1586.28
320.999	1858.89
324.374	1658.03
327.749	1126.36
331.124	660.634
334.498	383.684
337.873	230.856
341.248	147.729
344.623	88.9471
347.998	59.8863
351.373	37.4798
354.747	23.8507
358.122	21.0651
361.497	15.7443
364.872	14.1435
368.247	13.3797
371.621	10.8302
374.996	4.86498
378.371	2.7021
381.746	1.09484
385.121	5.2103
388.495	2.50548
391.87	3.22149
395.245	2.20654
398.62	1.62164
401.995	0.054489
405.37	2.82218
408.744	3.88892
412.119	7.39297
415.494	8.35805
418.869	11.7676
422.244	14.8967
425.618	14.6589
428.993	19.4365
432.368	22.5356
435.743	23.3532
439.118	25.9301
442.493	25.3058
445.867	25.3834
449.242	25.0907
452.617	23.6182
455.992	22.1843
459.367	18.5164
462.741	16.6264
466.116	15.4732
469.491	12.4873
472.866	10.9752
476.241	10.5046
479.615	10.0517
482.99	9.50395
486.365	9.45142
489.74	6.80834
493.115	7.51769
496.49	5.90829
499.864	5.24633
503.239	4.832
506.614	7.01207
509.989	4.78514
513.364	2.95267
516.739	2.79751
520.113	2.91791
523.488	2.36592
526.863	4.4667
530.238	3.55748
533.613	3.09157
536.987	6.58988
540.362	9.5223
543.737	11.8573
547.112	14.335
550.487	16.4691
553.861	12.1081
557.236	11.271
560.611	9.32773
563.986	6.57284
567.361	5.21345
570.736	3.23663
574.11	2.40096
577.485	0.608027
580.86	0.796484
584.235	0.214359
587.61	2.38742
590.985	1.60035
594.359	0.472029
597.734	0.636543
601.109	0.013937
604.484	0.005983
607.859	0.645765
611.233	0.011389
614.608	1.03421
617.983	1.6191
621.358	2.27668
624.733	2.75764
628.107	4.57728
631.482	11.9155
634.857	20.0133
638.232	7.867
641.607	2.11116
644.982	0.673128
648.356	1.5423
651.731	0.322773
655.106	1.58581
658.481	1.65532
661.856	4.87783
665.231	4.98894
668.605	11.1171
671.98	17.3558
675.355	30.8906
678.73	55.8942
682.105	85.9878
685.479	104.864
688.854	90.6958
692.229	89.9155
695.604	121.842
698.979	194.168
702.354	277.207
705.728	213.274
709.103	110.475
712.478	57.8881
715.853	34.3302
719.227	20.635
722.602	15.0519
725.977	11.4954
729.352	10.4002
732.727	8.36611
736.102	6.60298
739.476	7.11751
742.851	4.35725
746.226	5.00863
749.601	4.99955
752.976	2.17226
756.351	3.08717
759.725	1.94159
763.1	1.01228
766.475	1.67799
769.85	0.125912
773.225	0.337425
776.599	0.537952
779.974	0.118159
783.349	0.610668
786.724	0.131854
790.099	0.70319
793.473	0.988942
796.848	1.06403
800.223	0.23774
803.598	1.61547
806.973	1.88492
810.348	1.11563
813.722	1.68726
817.097	2.25416
820.472	3.57584
823.847	4.49138
827.222	4.86747
830.597	4.04443
833.971	3.99047
837.346	2.33074
840.721	3.47955
844.096	2.64004
847.471	1.59226
850.846	3.09378
854.22	1.04325
857.595	0.76524
860.97	0.044823
864.345	1.53007
867.72	1.74837
871.094	0.835389
874.469	0.595686
877.844	1.79371
881.219	0.289111
884.594	0.344667
887.968	1.31883
891.343	0.18514
894.718	0.265324
898.093	0.477224
901.468	2.04715
904.842	2.47186
908.217	3.53573
911.592	2.82284
914.967	4.3627
918.342	7.20544
921.717	11.723
925.091	20.5875
928.466	36.0442
931.841	68.2597
935.216	152.81
938.591	315.037
941.966	281.709
945.34	334.743
948.715	716.808
952.09	307.396
955.465	79.5668
958.84	34.9323
962.214	19.4143
965.589	11.1941
968.964	10.602
972.339	5.26783
975.714	5.63309
979.088	3.30426
982.463	3.80211
985.838	1.90781
989.213	0.918803
992.588	0.029848
995.963	1.96149
999.337	1.97883
1002.71	1.04714
1006.09	0.37474
1009.46	2.34621
1012.84	0.496673
1016.21	0.012207
1019.59	1.09331
1022.96	0.12095
1026.34	0.89492
1029.71	1.08174
1033.09	3.26505
1036.46	3.25773
1039.84	1.84523
1043.21	1.32292
1046.59	4.3861
1049.96	6.08133
1053.33	10.6214
1056.71	12.9816
1060.08	7.84647
1063.46	3.64269
1066.83	1.47643
1070.21	1.41083
1073.58	0.202829
1076.96	1.55702
1080.33	0.363496
1083.71	0.651273
1087.08	1.03705
1090.46	0.540185
1093.83	1.1703
1097.21	0.665175
1100.58	0.422976
1103.96	0.401942
1107.33	0.158735
1110.71	0.747542
1114.08	1.64027
1117.46	0.792979
1120.83	3.94543
1124.21	2.24541
1127.58	1.30048
1130.95	1.81024
1134.33	1.33614
1137.7	1.30423
1141.08	1.85027
1144.45	0.873577
1147.83	1.47417
1151.2	1.40754
1154.58	1.9771
1157.95	1.65911
1161.33	0.835468
1164.7	2.05248
1168.08	1.71723
1171.45	1.20283
1174.83	1.61939
1178.2	3.37557
1181.58	2.01085
1184.95	1.00053
1188.33	0.85544
1191.7	0.585464
1195.08	1.57749
1198.45	1.48984
1201.83	1.80316
1205.2	1.83208
1208.58	0.561628
1211.95	0.608292
1215.33	0.825491
1218.7	0.639389
1222.08	0.470984
1225.45	1.85677
1228.83	1.48899
1232.2	1.16367
1235.58	0.416809
1238.95	1.98663
1242.32	2.88453
1245.7	2.03572
1249.07	3.49275
1252.45	5.93699
1255.82	6.64869
1259.2	6.06397
1262.57	4.76017
1265.95	5.19255
1269.32	3.17213
1272.7	3.87348
1276.07	1.6877
1279.45	2.01039
1282.82	1.00136
1286.2	0.154862
1289.57	1.03081
1292.95	1.85232
1296.32	0.260839
1299.7	0.729541
