Measurement: Raman, 780 nm, unoriented, Raman Data Processed
Mineral: Hoganite
Rruff sample: R160076
Ideal chemistry: Cu^2+^(CH_3_COO)_2_H_2_O
Locality: Courtland, Cochise County, Arizona
Source: Marcus Origlieri
Description: Deep blue individual or aggregates of euhedral crystals.
Raman shift (cm-1)	intensity
116.027	0
119.402	1.228
122.777	4.34364
126.151	12.9538
129.526	9.55055
132.901	13.3276
136.276	17.8964
139.651	9.39787
143.025	16.2139
146.4	8.55005
149.775	1.03819
153.15	0.306728
156.525	8.49087
159.9	3.39655
163.274	6.45462
166.649	18.5413
170.024	13.1073
173.399	21.0677
176.774	44.5515
180.149	49.2588
183.523	38.1284
186.898	26.7585
190.273	7.96528
193.648	12.2225
197.023	12.8207
200.397	10.5017
203.772	5.77797
207.147	10.182
210.522	5.75836
213.897	15.7332
217.272	19.7417
220.646	2.37383
224.021	14.1143
227.396	15.3684
230.771	13.6248
234.146	12.4333
237.52	0.558712
240.895	0.024809
244.27	6.56926
247.645	15.5066
251.02	15.5012
254.394	6.9718
257.769	3.62222
261.144	0.735933
264.519	2.96857
267.894	1.19811
271.269	14.476
274.643	4.42219
278.018	1.93285
281.393	1.63588
284.768	8.20823
288.143	9.3447
291.517	11.6898
294.892	9.78926
298.267	16.4621
301.642	12.9584
305.017	8.58887
308.392	15.8404
311.766	15.4133
315.141	27.4335
318.516	26.8141
321.891	31.7257
325.266	27.2732
328.64	6.16295
332.015	14.1143
335.39	0.137081
338.765	5.72631
342.14	6.79498
345.515	2.63774
348.889	5.06797
352.264	9.71413
355.639	6.86029
359.014	7.68447
362.389	0.763008
365.764	10.3824
369.138	14.4517
372.513	2.0772
375.888	12.6571
379.263	8.60346
382.637	14.089
386.012	13.1356
389.387	9.70297
392.762	8.78683
396.137	17.5248
399.512	9.86556
402.886	7.09159
406.261	4.72887
409.636	12.8385
413.011	1.2221
416.386	11.2786
419.76	11.9809
423.135	7.79846
426.51	10.3178
429.885	15.1065
433.26	16.7553
436.635	10.532
440.01	16.275
443.384	15.2303
446.759	5.09067
450.134	14.525
453.509	17.0772
456.884	5.64124
460.258	5.46737
463.633	18.0025
467.008	11.0226
470.383	10.5447
473.758	12.022
477.132	17.577
480.507	15.1239
483.882	16.7341
487.257	3.02881
490.632	7.89218
494.007	10.2286
497.381	1.20524
500.756	4.90499
504.131	4.85802
507.506	8.52541
510.881	12.2244
514.255	12.7664
517.63	7.68713
521.005	1.04046
524.38	20.7718
527.755	5.99014
531.13	0.046816
534.504	11.2662
537.879	9.0007
541.254	8.08875
544.629	10.284
548.004	7.38362
551.378	2.77641
554.753	7.7667
558.128	1.49578
561.503	14.0827
564.878	26.1477
568.253	14.9661
571.627	16.7377
575.002	3.15704
578.377	6.51868
581.752	7.61001
585.127	11.2316
588.501	13.9548
591.876	4.39093
595.251	5.41091
598.626	10.8324
602.001	8.40226
605.375	21.771
608.75	6.39591
612.125	10.9228
615.5	3.35971
618.875	11.2909
622.25	12.8808
625.625	8.98212
628.999	11.7256
632.374	13.406
635.749	2.91336
639.124	12.3166
642.499	12.3369
645.873	5.37237
649.248	16.9369
652.623	2.60807
655.998	15.8428
659.373	8.46492
662.747	1.44874
666.122	8.12828
669.497	13.3536
672.872	6.5381
676.247	13.9001
679.621	12.8965
682.996	8.67424
686.371	10.2
689.746	14.9373
693.121	9.05083
696.496	13.9975
699.87	16.503
703.245	7.64452
706.62	8.97466
709.995	7.74774
713.37	5.12183
716.745	5.90986
720.119	11.2251
723.494	7.65508
726.869	7.12805
730.244	14.6829
733.619	9.98375
736.993	5.01911
740.368	8.5242
743.743	9.09501
747.118	8.61247
750.493	1.4976
753.867	7.4308
757.242	13.1797
760.617	17.2108
763.992	0.862743
767.367	9.6155
770.742	9.06852
774.116	10.928
777.491	12.385
780.866	2.01666
784.241	3.34459
787.616	14.3626
790.99	7.46874
794.365	5.75932
797.74	9.05137
801.115	11.6732
804.49	7.27566
807.865	2.43522
811.239	0.331223
814.614	1.35018
817.989	10.0239
821.364	7.7107
824.739	2.73553
828.114	7.79692
831.488	0.268892
834.863	10.9445
838.238	13.5907
841.613	2.00088
844.988	10.1659
848.362	9.51865
851.737	1.25246
855.112	6.06663
858.487	4.81125
861.862	1.47966
865.236	8.7902
868.611	8.58826
871.986	0.478352
875.361	4.51956
878.736	5.3953
882.111	3.49585
885.485	14.1608
888.86	17.7466
892.235	2.78614
895.61	22.8721
898.985	13.4459
902.36	3.55817
905.734	5.3088
909.109	10.1683
912.484	5.33469
915.859	12.8871
919.234	13.5347
922.608	11.7858
925.983	13.4212
929.358	20.5065
932.733	11.4987
936.108	6.45213
939.482	15.0755
942.857	17.3705
946.232	27.6805
949.607	46.2347
952.982	15.5824
956.357	8.91009
959.731	23.795
963.106	4.22128
966.481	8.79168
969.856	7.40191
973.231	17.471
976.606	3.384
979.98	4.57285
983.355	7.65859
986.73	15.2094
990.105	12.3995
993.48	13.1465
996.854	14.3462
1000.23	4.80319
1003.6	7.93386
1006.98	11.9709
1010.35	6.48055
1013.73	11.5965
1017.1	10.6813
1020.48	4.59558
1023.85	3.95025
1027.23	17.1879
1030.6	6.18465
1033.98	5.66624
1037.35	9.78296
1040.73	15.1518
1044.1	14.6588
1047.48	2.33297
1050.85	17.0103
1054.23	2.25204
1057.6	7.44716
1060.98	7.56288
1064.35	7.75168
1067.73	1.33152
1071.1	3.13018
1074.47	0.51284
1077.85	7.26792
1081.22	12.6264
1084.6	9.80077
1087.97	6.42729
1091.35	8.68714
1094.72	2.72905
1098.1	5.08385
1101.47	2.12994
1104.85	0.434627
1108.22	6.33599
1111.6	9.6123
1114.97	5.30349
1118.35	5.66652
1121.72	14.5918
1125.1	12.59
1128.47	0.7322
1131.85	10.5221
1135.22	13.8808
1138.6	0.698256
1141.97	3.22496
1145.35	2.02984
1148.72	8.03234
1152.1	1.15047
1155.47	4.62722
1158.85	4.47079
1162.22	9.37614
1165.6	8.71266
1168.97	10.5639
1172.35	19.721
1175.72	1.41176
1179.1	18.7915
1182.47	17.4394
1185.84	14.633
1189.22	16.7963
1192.59	5.21981
1195.97	9.27997
1199.34	8.84976
1202.72	3.45555
1206.09	11.7989
1209.47	16.1543
1212.84	19.0423
1216.22	7.83519
1219.59	7.48519
1222.97	7.99369
1226.34	5.77562
1229.72	5.06274
1233.09	11.9591
1236.47	15.8745
1239.84	6.83693
1243.22	11.579
1246.59	12.8788
1249.97	12.5087
1253.34	8.17944
1256.71	14.3595
1260.09	13.6743
1263.46	9.78094
1266.84	8.52217
1270.21	16.1392
1273.59	5.20028
1276.96	14.9046
1280.34	15.0875
