Measurement: Raman, 532 nm, unoriented, Raman Data Processed
Mineral: Hoganite
Rruff sample: R190035
Ideal chemistry: Cu^2+^(CH_3_COO)_2_H_2_O
Locality: Holbrook Shaft, Level 100, Bisbee, Warren District, Cochise County, Arizona
Source: Robert Lavinsky
Raman shift (cm-1)	intensity
88.1367	0
91.5115	20.45
94.8863	41.9953
98.2612	95.3966
101.636	108.274
105.011	141.718
108.386	163.96
111.76	131.254
115.135	152.116
118.51	173.936
121.885	169.683
125.26	173.004
128.635	140.028
132.009	87.6833
135.384	54.5829
138.759	43.7975
142.134	48.2333
145.509	45.6073
148.883	28.2046
152.258	9.54662
155.633	2.1874
159.008	8.01826
162.383	1.02653
165.757	19.2912
169.132	47.526
172.507	81.8317
175.882	127.072
179.257	193.175
182.632	209.775
186.006	173.357
189.381	128.566
192.756	68.0853
196.131	18.547
199.506	1.70356
202.881	8.55176
206.255	1.41161
209.63	34.3382
213.005	79.4069
216.38	78.6104
219.755	92.9076
223.129	140.406
226.504	157.65
229.879	158.574
233.254	163.838
236.629	100.652
240.004	34.3336
243.378	4.86948
246.753	1.9946
250.128	22.5055
253.503	49.264
256.878	19.7756
260.252	2.72566
263.627	2.04569
267.002	9.74198
270.377	11.0433
273.752	13.2935
277.127	26.4797
280.501	55.5578
283.876	95.09
287.251	139.403
290.626	188.477
294.001	216.047
297.375	240.122
300.75	257.645
304.125	291.628
307.5	345.707
310.875	443.175
314.25	581.875
317.624	758.569
320.999	895.593
324.374	801.073
327.749	548.028
331.124	315.312
334.498	181.636
337.873	110.439
341.248	64.7362
344.623	38.9484
347.998	23.6305
351.373	15.6486
354.747	10.1827
358.122	8.12532
361.497	7.34812
364.872	7.77189
368.247	5.48004
371.621	4.33358
374.996	2.55051
378.371	0.691399
381.746	1.80537
385.121	1.46249
388.495	0.997486
391.87	1.98253
395.245	0.87307
398.62	1.53187
401.995	0.169538
405.37	1.07004
408.744	2.18699
412.119	3.45679
415.494	4.82561
418.869	5.67886
422.244	6.63352
425.618	7.41884
428.993	9.02782
432.368	10.723
435.743	11.8023
439.118	12.7699
442.493	11.7496
445.867	11.9299
449.242	12.1027
452.617	12.0856
455.992	10.3981
459.367	9.82404
462.741	7.9532
466.116	6.56317
469.491	5.57185
472.866	4.91841
476.241	6.00855
479.615	4.66383
482.99	5.18206
486.365	5.52972
489.74	3.66607
493.115	2.7571
496.49	3.46182
499.864	2.25008
503.239	3.69323
506.614	2.70102
509.989	1.99519
513.364	1.59933
516.739	1.50297
520.113	0.574237
523.488	0.744784
526.863	1.05638
530.238	0.338364
533.613	0.288682
536.987	2.68072
540.362	3.73147
543.737	5.16827
547.112	6.25287
550.487	8.55674
553.861	6.81024
557.236	5.80354
560.611	3.80259
563.986	3.08542
567.361	3.11274
570.736	1.82865
574.11	2.01428
577.485	0.085569
580.86	0.18843
584.235	0.482804
587.61	0.090245
590.985	1.16491
594.359	0.461679
597.734	0.431304
601.109	0.09013
604.484	0.141653
607.859	0.800287
611.233	0.01092
614.608	0.21977
617.983	0.923156
621.358	1.3371
624.733	1.11836
628.107	2.66009
631.482	6.49723
634.857	9.69303
638.232	3.91556
641.607	1.18812
644.982	0.396468
648.356	0.199603
651.731	0.456946
655.106	0.546882
658.481	1.07956
661.856	1.98784
665.231	1.2674
668.605	3.25706
671.98	6.88018
675.355	10.0677
678.73	18.6495
682.105	29.7317
685.479	39.2218
688.854	43.2703
692.229	52.2764
695.604	79.154
698.979	138.412
702.354	206.557
705.728	169.784
709.103	88.0354
712.478	44.4107
715.853	26.5211
719.227	16.5083
722.602	12.0453
725.977	8.66102
729.352	7.42997
732.727	6.52025
736.102	4.32606
739.476	4.5417
742.851	3.00634
746.226	2.46339
749.601	2.97176
752.976	2.20059
756.351	2.50751
759.725	1.74395
763.1	0.881721
766.475	1.73179
769.85	0.068683
773.225	0.337833
776.599	0.206756
779.974	0.390613
783.349	0.184427
786.724	0.770546
790.099	0.362063
793.473	0.163129
796.848	1.2691
800.223	0.530756
803.598	1.03723
806.973	1.52141
810.348	1.34336
813.722	1.30791
817.097	1.89505
820.472	2.69163
823.847	2.8971
827.222	2.73632
830.597	1.92762
833.971	2.1076
837.346	1.31775
840.721	2.06784
844.096	1.99065
847.471	1.38458
850.846	1.60796
854.22	0.494345
857.595	0.062268
860.97	0.855165
864.345	0.891085
867.72	1.53389
871.094	1.16054
874.469	0.554746
877.844	1.14627
881.219	0.727257
884.594	0.294703
887.968	0.227603
891.343	0.633288
894.718	0.229257
898.093	0.57677
901.468	0.831688
904.842	0.735676
908.217	1.93836
911.592	2.04256
914.967	3.52291
918.342	4.27113
921.717	5.77132
925.091	12.1928
928.466	20.1715
931.841	33.5751
935.216	63.1731
938.591	127.893
941.966	146.516
945.34	245.233
948.715	632.071
952.09	310.568
955.465	79.6691
958.84	34.202
962.214	17.9542
965.589	10.8918
968.964	8.49391
972.339	4.39714
975.714	3.57102
979.088	3.24922
982.463	3.04724
985.838	1.73319
989.213	0.494764
992.588	1.14984
995.963	0.288198
999.337	0.41097
1002.71	0.760254
1006.09	0.198639
1009.46	0.94839
1012.84	0.403844
1016.21	0.109561
1019.59	0.071639
1022.96	0.406764
1026.34	1.07462
1029.71	1.13897
1033.09	1.7827
1036.46	1.26885
1039.84	1.31294
1043.21	1.68575
1046.59	2.23892
1049.96	3.08535
1053.33	6.40882
1056.71	8.90794
1060.08	7.11403
1063.46	2.4114
1066.83	1.54486
1070.21	1.75422
1073.58	0.864023
1076.96	1.18449
1080.33	0.043515
1083.71	0.393799
1087.08	0.193877
1090.46	0.234445
1093.83	0.284901
1097.21	0.728193
1100.58	1.09322
1103.96	1.0132
1107.33	0.759568
1110.71	0.670317
1114.08	1.73612
1117.46	0.463064
1120.83	1.29975
1124.21	1.40972
1127.58	1.88915
1130.95	1.15382
1134.33	0.793696
1137.7	1.842
1141.08	0.841222
1144.45	0.23104
1147.83	0.609392
1151.2	0.969237
1154.58	1.14943
1157.95	0.976884
1161.33	1.34433
1164.7	1.46015
1168.08	1.52771
1171.45	0.710403
1174.83	0.440263
1178.2	1.08566
1181.58	1.10936
1184.95	0.728616
1188.33	0.679143
1191.7	0.52487
1195.08	1.37657
1198.45	0.745596
1201.83	1.05737
1205.2	1.50277
1208.58	0.673656
1211.95	0.200532
1215.33	0.700206
1218.7	0.636099
1222.08	0.712871
1225.45	1.17309
1228.83	1.46098
1232.2	0.690531
1235.58	1.08066
1238.95	1.80606
1242.32	2.15703
1245.7	1.00996
1249.07	2.09557
1252.45	3.23183
1255.82	3.20582
1259.2	2.44893
1262.57	3.40423
1265.95	2.74904
1269.32	2.67843
1272.7	1.47668
1276.07	0.743668
1279.45	1.14057
1282.82	0.188735
1286.2	0.934466
1289.57	0.803547
1292.95	1.66179
1296.32	0.346053
1299.7	0.700995
