Measurement: Raman, 785 nm, unoriented, Raman Data RAW
Mineral: Holtedahlite
Rruff sample: R060710
Ideal chemistry: Mg_12_(PO_3_OH,CO_3_)(PO_4_)_5_(OH,O)_6_
Locality: Tingelstadtjern, Modum, Norway
Source: Bob Jenkins
Description: Pale grey crystals embedded in matrix
Raman shift (cm-1)	intensity
122.009	293.725
124.902	436.572
127.795	543.841
130.688	649.694
133.58	645.633
136.473	696.536
139.366	903.69
142.258	1127.43
145.151	1363.24
148.044	1557.75
150.936	1566.17
153.829	1590.2
156.722	1672.64
159.615	1863.75
162.507	2138.99
165.4	2451.57
168.293	2814.22
171.185	3078.75
174.078	3362.84
176.971	3556.11
179.863	3658.47
182.756	3655.02
185.649	3572.35
188.542	3513.41
191.434	3406.17
194.327	3463.56
197.22	3555.39
200.112	3740.34
203.005	3996.38
205.898	4268.26
208.79	4517.5
211.683	4962.81
214.576	5423.23
217.469	6022.01
220.361	6607.18
223.254	7139.56
226.147	7677.18
229.039	7971.89
231.932	8390.91
234.825	8883.09
237.717	9231.34
240.61	9664.57
243.503	10016.4
246.396	10350.2
249.288	10525
252.181	10637.8
255.074	10730.1
257.966	10657.9
260.859	10623.6
263.752	10406.5
266.645	10219.2
269.537	9935
272.43	9696.36
275.323	9540.67
278.215	9495.56
281.108	9501.87
284.001	9530.53
286.893	9511.62
289.786	9508.4
292.679	9646.87
295.572	9631.4
298.464	9779.08
301.357	9923.75
304.25	9869.52
307.142	9771.44
310.035	9590.32
312.928	9371.96
315.82	9182.08
318.713	9198.92
321.606	9233.36
324.499	9388.85
327.391	9658.41
330.284	9761.15
333.177	9793.06
336.069	9839.04
338.962	9949.52
341.855	9972.84
344.747	9958.92
347.64	10035.7
350.533	10025
353.426	9959.12
356.318	9769.95
359.211	9560.48
362.104	9351.76
364.996	9145.35
367.889	8883.55
370.782	8712.46
373.674	8443.28
376.567	8149.28
379.46	7841.81
382.353	7529.13
385.245	7196.75
388.138	7049.5
391.031	6820.85
393.923	6626.61
396.816	6373.88
399.709	6131.74
402.602	5969.79
405.494	5767.32
408.387	5604.23
411.28	5499.39
414.172	5418.43
417.065	5410.26
419.958	5355.56
422.85	5513.73
425.743	5664.76
428.636	5572.48
431.529	5296.9
434.421	4949.84
437.314	4672.43
440.207	4546.51
443.099	4424.9
445.992	4267.01
448.885	4155.21
451.777	3990.72
454.67	3828.66
457.563	3667.7
460.456	3483.76
463.348	3347.11
466.241	3271.04
469.134	3230.34
472.026	3156.97
474.919	3036.45
477.812	2996.14
480.704	2999.09
483.597	2954.34
486.49	2950.82
489.383	2992.73
492.275	2990.3
495.168	2969.62
498.061	3005.47
500.953	3065.23
503.846	3044.96
506.739	3089.24
509.631	3160.03
512.524	3194.49
515.417	3217.49
518.31	3300.73
521.202	3323.07
524.095	3402.95
526.988	3446.63
529.88	3473.41
532.773	3461.58
535.666	3453.13
538.558	3541.14
541.451	3507.71
544.344	3514.49
547.237	3531.55
550.129	3566.38
553.022	3632.48
555.915	3632.88
558.807	3737.22
561.7	3738.47
564.593	3767.98
567.485	3854.16
570.378	3882.99
573.271	4009.57
576.164	4133.13
579.056	4344.67
581.949	4436.98
584.842	4642.06
587.734	4900.08
590.627	4811.12
593.52	4384.52
596.412	4025.55
599.305	3897.38
602.198	3952.26
605.091	4004.28
607.983	4054.39
610.876	3897.62
613.769	3795.55
616.661	3791.6
619.554	3714.88
622.447	3705.09
625.339	3640.19
628.232	3633.41
631.125	3624.21
634.018	3575.35
636.91	3584.98
639.803	3586.42
642.696	3602.45
645.588	3586.93
648.481	3599.14
651.374	3553.21
654.266	3563.98
657.159	3535.49
660.052	3494.13
662.945	3408.19
665.837	3352.41
668.73	3272
671.623	3149.66
674.515	3047.99
677.408	2917.1
680.301	2781.82
683.193	2631.21
686.086	2549.66
688.979	2448.37
691.872	2334.38
694.764	2248.87
697.657	2116.72
700.55	1979.46
703.442	1928.43
706.335	1842.96
709.228	1795.12
712.12	1711.61
715.013	1639.5
717.906	1613.77
720.799	1574.7
723.691	1480.98
726.584	1441.47
729.477	1397.77
732.369	1350.66
735.262	1328.55
738.155	1330.18
741.047	1266.34
743.94	1261.66
746.833	1219.14
749.726	1257.41
752.618	1209.27
755.511	1216.14
758.404	1193.43
761.296	1163.38
764.189	1174.82
767.082	1156.79
769.974	1137.66
772.867	1146.11
775.76	1128.24
778.653	1126.28
781.545	1146.28
784.438	1126.42
787.331	1106.34
790.223	1116.57
793.116	1097.58
796.009	1071.78
798.901	1033.34
801.794	1040.83
804.687	1040.18
807.58	1018.76
810.472	1049.64
813.365	1043.88
816.258	1017.01
819.15	1000.03
822.043	985.031
824.936	974.523
827.828	1004.46
830.721	968.712
833.614	968.213
836.507	975.092
839.399	968.518
842.292	971.626
845.185	971.162
848.077	978.89
850.97	993.558
853.863	966.805
856.755	963.722
859.648	1003.53
862.541	988.681
865.434	1008.27
868.326	1002.52
871.219	1010.43
874.112	995.341
877.004	1006.53
879.897	1006.01
882.79	1004.63
885.682	1006.2
888.575	1041.12
891.468	1048.47
894.361	1056.35
897.253	1048.9
900.146	1081.48
903.039	1071.92
905.931	1120.62
908.824	1146.65
911.717	1158.51
914.609	1204.63
917.502	1192.23
920.395	1247.55
923.288	1295.08
926.18	1334.69
929.073	1380.58
931.966	1421.68
934.858	1505.86
937.751	1594.46
940.644	1704.96
943.536	1846.77
946.429	2096.72
949.322	2523.44
952.215	3626.37
955.107	5670.52
958	8893.71
960.893	11186.5
963.785	7853.26
966.678	4764.13
969.571	3512.92
972.464	2860.78
975.356	2646.78
978.249	2654.68
981.142	2704.39
984.034	2837.42
986.927	2871.77
989.82	2994.99
992.712	3085.8
995.605	3246.22
998.498	3391.8
1001.39	3549.05
1004.28	3689.84
1007.18	3799.03
1010.07	3961.2
1012.96	4047.97
1015.85	4291.49
1018.75	4426.39
1021.64	4611.21
1024.53	4796.53
1027.42	5020.67
1030.32	5307.11
1033.21	5567.05
1036.1	5936.78
1039	6355.21
1041.89	6797.83
1044.78	7237.65
1047.67	7273.32
1050.57	7063.44
1053.46	7241.36
1056.35	7428.89
1059.24	7705.73
1062.14	7936.1
1065.03	8356.71
1067.92	8869.51
1070.82	9461.67
1073.71	9911.01
1076.6	10314.4
1079.49	10373
1082.39	10473.3
1085.28	10663.3
1088.17	10838.5
1091.06	10976
1093.96	11181.3
1096.85	11339.9
1099.74	11573
1102.63	11744.1
1105.53	12072.4
1108.42	12437.3
1111.31	12893.1
1114.21	13427.7
1117.1	13902.5
1119.99	14390.7
1122.88	14987
1125.78	15462.8
1128.67	16190.1
1131.56	16736.9
1134.45	17487.3
1137.35	18131.8
1140.24	19004.1
1143.13	19800.4
1146.03	20684.3
1148.92	21540.5
1151.81	22476.6
1154.7	23473
1157.6	24515.3
1160.49	25873.5
1163.38	27101.7
1166.27	28369.6
1169.17	29856.8
1172.06	31650.5
1174.95	33368.6
1177.85	35557.1
1180.74	38012
1183.63	41124.4
1186.52	44656.8
1189.42	48940.7
1192.31	54235.7
1195.2	60751.1
1198.09	68928
1200.99	79322.6
1203.88	92353.5
1206.77	108519
1209.66	128280
1212.56	151597
1215.45	176458
1218.34	199860
1221.24	217837
1224.13	229688
1227.02	231512
1229.91	225597
1232.81	214170
1235.7	202389
1238.59	193776
1241.48	192995
1244.38	202683
1247.27	220896
1250.16	242730
1253.06	261910
1255.95	275526
1258.84	284835
1261.73	291773
1264.63	295124
1267.52	292369
1270.41	281308
