Measurement: Raman, 532 nm, unoriented, Raman Data Processed
Mineral: Howardevansite
Rruff sample: R130739
Ideal chemistry: NaCu^2+^Fe^3+^_2_(V^5+^O_4_)_3_
Locality: 'Y' Fumerol, Izalco Volcano, Sonsonate Department, El Salvador
Source: Rock Currier
Description: Black granular or tabular crystals embeded in th√©nardite, associated with black bladed or prismatic lyonsite. Crystal is twinned by a 2-fold rotation about [-1 -1 1].
Raman shift (cm-1)	intensity
93.44	0
96.8148	0.492249
100.19	14.4407
103.564	22.8888
106.939	83.8495
110.314	76.785
113.689	95.1787
117.064	118.325
120.439	119.341
123.813	153.116
127.188	151.977
130.563	181.685
133.938	192.061
137.313	208.848
140.687	219.414
144.062	197.565
147.437	190.693
150.812	177.139
154.187	167.685
157.561	143.88
160.936	128.832
164.311	119.546
167.686	104.236
171.061	102.696
174.436	96.2356
177.81	84.3325
181.185	77.2327
184.56	67.0446
187.935	57.3301
191.31	54.0036
194.685	49.6733
198.059	45.2458
201.434	42.4705
204.809	38.7668
208.184	35.3507
211.559	32.9296
214.933	33.2707
218.308	28.5242
221.683	21.6707
225.058	20.1199
228.433	14.1697
231.808	11.1237
235.182	12.5385
238.557	10.6757
241.932	3.59259
245.307	0.820007
248.682	3.13702
252.056	2.29175
255.431	0.852661
258.806	2.44513
262.181	3.7168
265.556	1.02747
268.93	2.6969
272.305	0.355042
275.68	2.11346
279.055	7.53235
282.43	8.18787
285.805	11.5479
289.179	12.1549
292.554	10.9071
295.929	8.4447
299.304	15.2656
302.679	9.51977
306.053	6.28424
309.428	3.26514
312.803	2.80444
316.178	1.05573
319.553	5.38769
322.928	2.42804
326.302	1.4071
329.677	3.80939
333.052	10.1851
336.427	10.7463
339.802	15.9316
343.176	22.0685
346.551	28.3908
349.926	37.0957
353.301	47.5015
356.676	49.1204
360.051	49.9049
363.425	52.0541
366.8	52.7104
370.175	49.9821
373.55	42.3135
376.925	40.5267
380.3	40.1157
383.674	34.1723
387.049	31.9865
390.424	25.5361
393.799	19.7172
397.174	17.1508
400.548	10.9961
403.923	11.506
407.298	4.47003
410.673	4.23053
414.048	0.460144
417.423	1.10779
420.797	1.99853
424.172	1.84528
427.547	0.665405
430.922	1.55304
434.296	0.237976
437.671	0.052124
441.046	4.255
444.421	4.93805
447.796	11.8076
451.171	12.6102
454.545	12.7766
457.92	22.6232
461.295	13.6909
464.67	13.4006
468.045	14.2341
471.42	12.6084
474.794	16.9432
478.169	14.6074
481.544	12.4681
484.919	10.7653
488.294	8.84045
491.668	7.26276
495.043	2.80109
498.418	0.279785
501.793	5.1756
505.168	2.60266
508.543	2.82959
511.917	4.31787
515.292	0.374695
518.667	0.452393
522.042	0.518799
525.417	1.44971
528.791	4.01599
532.166	4.26489
535.541	4.78619
538.916	1.11627
542.291	4.40204
545.665	4.51862
549.04	6.38
552.415	4.51379
555.79	6.45483
559.165	6.78162
562.54	5.84479
565.914	3.96381
569.289	4.36572
572.664	8.70862
576.039	7.2608
579.414	5.36658
582.788	4.07812
586.163	3.64819
589.538	4.52771
592.913	1.59741
596.288	2.51654
599.663	2.61591
603.037	2.43878
606.412	2.19684
609.787	5.1546
613.162	5.87592
616.537	5.04114
619.912	7.94879
623.286	9.02936
626.661	10.822
630.036	8.59131
633.411	9.14215
636.786	3.69977
640.16	4.0957
643.535	2.78351
646.91	4.27063
650.285	7.95825
653.66	9.61658
657.034	4.58362
660.409	4.80377
663.784	3.80365
667.159	1.01129
670.534	1.60791
673.909	1.98486
677.283	1.52612
680.658	0.893127
684.033	0.474426
687.408	0.583618
690.783	1.92065
694.158	3.6189
697.532	3.82873
700.907	2.02264
704.282	2.28778
707.657	8.82617
711.032	11.7256
714.406	16.1209
717.781	22.2121
721.156	26.6343
724.531	33.4978
727.906	42.7681
731.28	44.6125
734.655	55.1736
738.03	63.058
741.405	68.4247
744.78	72.359
748.154	75.2803
751.529	80.1558
754.904	75.4617
758.279	77.7587
761.654	72.1421
765.029	65.4768
768.403	59.5846
771.778	61.4902
775.153	46.5043
778.528	38.3543
781.903	28.99
785.278	18.3181
788.652	14.4397
792.027	8.56079
795.402	6.37891
798.777	0.890259
802.152	2.07532
805.526	3.53491
808.901	1.99182
812.276	0.726074
815.651	4.03821
819.026	9.9519
822.4	4.39441
825.775	8.24915
829.15	8.01538
832.525	9.13977
835.9	10.6389
839.275	11.8594
842.649	11.7406
846.024	12.8926
849.399	15.8596
852.774	19.0319
856.149	20.7778
859.524	20.5797
862.898	28.9104
866.273	29.8618
869.648	32.9768
873.023	36.0234
876.398	38.0382
879.773	46.0452
883.147	53.8379
886.522	65.1493
889.897	76.6725
893.272	79.7511
896.646	84.0176
900.021	81.1005
903.396	76.424
906.771	74.882
910.146	64.8729
913.521	53.7849
916.895	44.1783
920.27	38.8509
923.645	32.2028
927.02	28.9669
930.395	21.8616
933.769	12.8698
937.144	9.2544
940.519	4.33972
943.894	3.30536
947.269	0.325134
950.644	4.79358
954.018	0.645081
957.393	2.55682
960.768	8.46234
964.143	15.705
967.518	21.1782
970.893	20.0594
974.267	21.911
977.642	26.8733
981.017	35.0624
984.392	44.9286
987.767	49.1007
991.141	49.5192
994.516	38.9639
997.891	22.9753
1001.27	11.083
1004.64	7.24915
1008.02	2.36121
1011.39	1.08978
1014.76	0.537354
1018.14	2.78351
1021.51	0.822693
1024.89	2.67377
1028.26	4.90314
1031.64	4.80658
1035.01	5.57977
1038.39	7.33588
1041.76	10.8808
1045.14	8.86871
1048.51	10.147
1051.89	12.2315
1055.26	8.34393
1058.64	10.6534
1062.01	15.1824
1065.39	16.0469
1068.76	12.9838
1072.14	10.0903
1075.51	13.4489
1078.89	10.3049
1082.26	9.49304
1085.64	7.78833
1089.01	9.8869
1092.39	8.56482
1095.76	7.33453
1099.14	7.53113
1102.51	4.53705
1105.88	2.98834
1109.26	5.84186
1112.63	5.38605
1116.01	2.10974
1119.38	3.13519
1122.76	1.80926
1126.13	2.87091
1129.51	0.957825
1132.88	1.8078
1136.26	0.988831
1139.63	3.59576
1143.01	2.31506
1146.38	1.51929
1149.76	0.957397
1153.13	2.1521
1156.51	2.237
1159.88	3.02271
1163.26	5.20044
1166.63	4.98651
1170.01	2.51483
1173.38	2.61621
1176.76	0.986145
1180.13	1.6994
1183.51	3.98969
1186.88	3.50299
1190.26	6.9726
1193.63	6.62854
1197.01	6.97852
1200.38	3.51446
1203.76	3.66492
1207.13	4.4057
1210.51	6.46643
1213.88	2.83118
1217.25	5.36822
1220.63	3.95514
1224	4.53479
1227.38	1.60968
1230.75	1.65094
1234.13	1.77643
1237.5	1.01984
1240.88	2.13477
1244.25	1.21991
1247.63	6.95929
1251	1.70019
1254.38	5.99042
1257.75	1.74676
1261.13	2.68622
1264.5	0.86853
1267.88	4.02911
1271.25	3.87231
1274.63	4.67615
1278	0.627197
1281.38	2.45612
1284.75	3.68701
1288.12	5.59399
1291.5	3.8078
1294.88	1.92059
1298.25	2.53864
