Measurement: Raman, 780 nm, unoriented, Raman Data Processed
Mineral: Howardevansite
Rruff sample: R130739
Ideal chemistry: NaCu^2+^Fe^3+^_2_(V^5+^O_4_)_3_
Locality: 'Y' Fumerol, Izalco Volcano, Sonsonate Department, El Salvador
Source: Rock Currier
Description: Black granular or tabular crystals embeded in th√©nardite, associated with black bladed or prismatic lyonsite. Crystal is twinned by a 2-fold rotation about [-1 -1 1].
Raman shift (cm-1)	intensity
93.3677	0
96.7425	2.62353
100.117	10.2822
103.492	4.54773
106.867	23.1294
110.242	0.630615
113.617	10.8033
116.992	4.84375
120.366	10.4832
123.741	25.9613
127.116	16.4756
130.491	16.1289
133.865	11.7888
137.24	10.59
140.615	7.94897
143.99	1.92041
147.365	4.50098
150.74	3.01257
154.114	5.33106
157.489	6.84827
160.864	14.5123
164.239	12.8536
167.614	10.0463
170.988	15.2698
174.363	16.1088
177.738	17.6513
181.113	20.3832
184.488	21.202
187.863	26.8312
191.237	24.5298
194.612	25.557
197.987	27.6785
201.362	37.8307
204.737	36.4298
208.112	34.2241
211.486	38.0081
214.861	38.8026
218.236	39.9742
221.611	34.5568
224.986	28.8091
228.36	24.3129
231.735	23.3716
235.11	21.868
238.485	18.6883
241.86	11.5675
245.234	11.3914
248.609	12.2977
251.984	3.8147
255.359	4.14465
258.734	11.6278
262.109	20.5847
265.483	14.4429
268.858	17.2366
272.233	20.3182
275.608	22.9755
278.983	22.0801
282.358	18.4133
285.732	22.1746
289.107	20.2443
292.482	11.6608
295.857	13.5761
299.232	5.5708
302.606	1.53796
305.981	3.18079
309.356	1.91528
312.731	0.00061
316.106	1.42419
319.481	1.95703
322.855	0.577148
326.23	4.57715
329.605	0.101929
332.98	3.97217
336.355	6.94287
339.729	3.32043
343.104	10.1545
346.479	12.9523
349.854	17.3738
353.229	24.4935
356.603	28.663
359.978	32.4085
363.353	28.9867
366.728	39.2887
370.103	31.8561
373.478	31.9154
376.852	29.4638
380.227	23.5773
383.602	24.8788
386.977	19.5925
390.352	25.431
393.726	19.3987
397.101	15.0384
400.476	8.64673
403.851	16.0797
407.226	6.04883
410.601	3.56616
413.975	2.24744
417.35	0.504395
420.725	3.91296
424.1	1.77209
427.475	0.682129
430.849	0.483032
434.224	0.853149
437.599	0.204956
440.974	0.052734
444.349	1.98157
447.724	2.24072
451.098	3.89954
454.473	0.106445
457.848	4.11646
461.223	5.46899
464.598	6.62488
467.972	6.552
471.347	13.9938
474.722	6.4596
478.097	14.3635
481.472	9.50049
484.846	9.77283
488.221	7.81689
491.596	7.88977
494.971	11.2415
498.346	6.78699
501.721	4.06921
505.095	8.12146
508.47	9.91748
511.845	5.23669
515.22	1.06848
518.595	6.98975
521.97	0.448608
525.344	1.25928
528.719	4.68543
532.094	0.624756
535.469	4.41833
538.844	6.19263
542.218	4.11072
545.593	6.07312
548.968	4.68457
552.343	3.99646
555.718	0.185181
559.092	0.426758
562.467	2.0293
565.842	5.72852
569.217	1.49133
572.592	7.27869
575.967	7.9231
579.341	14.1838
582.716	18.0347
586.091	13.9432
589.466	12.3816
592.841	9.69836
596.216	6.72766
599.59	9.58435
602.965	13.9215
606.34	10.9186
609.715	7.64258
613.09	7.28015
616.464	6.1416
619.839	9.15613
623.214	6.05774
626.589	8.45496
629.964	4.89551
633.338	8.35083
636.713	10.7859
640.088	11.6819
643.463	8.1394
646.838	10.1914
650.213	5.56787
653.587	8.25244
656.962	10.7341
660.337	6.87781
663.712	8.01257
667.087	4.81665
670.462	3.52258
673.836	2.26416
677.211	6.09827
680.586	5.38415
683.961	0.447266
687.336	2.53259
690.71	2.89966
694.085	2.50452
697.46	5.41663
700.835	0.252197
704.21	1.78833
707.585	7.76184
710.959	6.42358
714.334	6.2052
717.709	5.22375
721.084	5.96838
724.459	5.04407
727.833	12.0369
731.208	10.0154
734.583	11.2407
737.958	13.1913
741.333	16.8433
744.707	14.5874
748.082	24.3109
751.457	11.5275
754.832	14.2927
758.207	10.8989
761.582	21.1758
764.956	18.1941
768.331	9.62195
771.706	2.68469
775.081	2.30652
778.456	3.16235
781.83	0.198975
785.205	1.80591
788.58	3.50122
791.955	2.36646
795.33	1.10681
798.705	1.30322
802.079	0.406738
805.454	4.17151
808.829	6.6582
812.204	2.24255
815.579	7.81946
818.953	12.7036
822.328	9.31396
825.703	14.6135
829.078	8.88562
832.453	9.84961
835.827	14.7819
839.202	17.5267
842.577	13.5765
845.952	11.2498
849.327	16.1138
852.702	12.6743
856.076	18.4453
859.451	12.2091
862.826	9.72607
866.201	13.8213
869.576	16.1825
872.951	23.3679
876.325	18.9968
879.7	23.082
883.075	36.6273
886.45	31.2658
889.825	33.7199
893.199	27.2335
896.574	32.5897
899.949	30.0284
903.324	31.5505
906.699	27.7748
910.073	22.0236
913.448	15.986
916.823	18.6688
920.198	9.59729
923.573	10.0358
926.948	11.9428
930.322	12.4657
933.697	10.2277
937.072	3.87268
940.447	3.6532
943.822	1.70007
947.197	5.38354
950.571	1.69836
953.946	1.73193
957.321	7.01428
960.696	2.94836
964.071	3.80981
967.445	4.73901
970.82	1.4447
974.195	0.995239
977.57	3.16821
980.945	6.57959
984.319	1.39038
987.694	7.20679
991.069	2.78845
994.444	8.35547
997.819	8.45862
1001.19	3.82202
1004.57	2.31433
1007.94	1.00623
1011.32	2.95264
1014.69	12.7051
1018.07	8.70044
1021.44	1.36841
1024.82	6.17932
1028.19	6.82654
1031.57	6.36853
1034.94	11.4651
1038.32	8.73023
1041.69	10.5835
1045.07	10.7522
1048.44	6.08106
1051.82	10.991
1055.19	11.4312
1058.57	15.3533
1061.94	12.1948
1065.32	12.364
1068.69	8.88257
1072.07	9.8645
1075.44	4.69824
1078.81	11.218
1082.19	15.6067
1085.56	14.3989
1088.94	9.82275
1092.31	2.02148
1095.69	1.70679
1099.06	7.33301
1102.44	6.38599
1105.81	9.16284
1109.19	6.46655
1112.56	4.22632
1115.94	1.021
1119.31	1.06201
1122.69	1.2356
1126.06	6.60547
1129.44	6.57886
1132.81	6.11279
1136.19	10.554
1139.56	8.88599
1142.94	15.1055
1146.31	6.4812
1149.69	11.283
1153.06	12.5435
1156.43	8.75708
1159.81	15.1287
1163.18	15.6614
1166.56	22.7956
1169.93	19.1426
1173.31	19.4875
1176.68	16.9036
1180.06	14.3674
1183.43	8.5188
1186.81	10.7124
1190.18	14.4482
1193.56	18.01
1196.93	14.6953
1200.31	14.8423
1203.68	11.4768
1207.06	18.2649
1210.43	4.07178
1213.81	2.68603
1217.18	7.77441
1220.56	14.0185
1223.93	12.217
1227.31	0.718018
1230.68	0.611816
1234.06	8.01709
1237.43	4.6001
1240.81	2.27148
1244.18	10.4585
1247.56	0.135254
1250.93	2.30444
1254.31	7.7771
1257.68	11.0801
1261.05	14.832
1264.43	7.44629
1267.8	3.77685
1271.18	6.88428
1274.55	11.1589
1277.93	0.108643
1281.3	1.54761
