Measurement: Raman, 780 nm, unoriented, Raman Data Processed
Mineral: Howieite
Rruff sample: R060031
Ideal chemistry: Na(Fe^2+^,Fe^3+^,Al,Mg)_12_(Si_6_O_17_)_2_(O,OH)_10_
Locality: Laytonville quarry, near Longvale, California, USA
Source: University of Arizona Mineral Museum
Description: Black bladed crystals associated with quartz and siderite
Measured chemistry: Na_1.00_(Fe^3+^_4.41_Mn_2.68_Fe^2+^_3.89_Al_0.59_Mg_0.43_)_Î£=12_(Si_6.00_O_17_)_2_(OH)_10_
Raman shift (cm-1)	intensity
154.235	0
157.128	4.24783
160.02	0.296936
162.913	2.66467
165.806	3.39819
168.698	2.2544
171.591	5.65356
174.484	4.57135
177.377	6.71701
180.269	7.6871
183.162	10.1957
186.055	9.73386
188.947	10.0907
191.84	7.33978
194.733	6.83197
197.625	3.65665
200.518	0.640503
203.411	2.30038
206.304	1.98465
209.196	0.57312
212.089	0.473755
214.982	2.9281
217.874	5.8288
220.767	7.38525
223.66	5.23386
226.553	7.99911
229.445	13.1945
232.338	16.5149
235.231	18.0801
238.123	21.8515
241.016	26.0379
243.909	28.4351
246.801	29.2956
249.694	30.6696
252.587	26.8445
255.48	22.0126
258.372	18.3176
261.265	16.5468
264.158	14.3334
267.05	11.2241
269.943	6.64696
272.836	3.44722
275.728	0.92218
278.621	2.61215
281.514	2.6781
284.406	2.75845
287.299	5.50362
290.192	6.90587
293.085	9.5909
295.977	8.22852
298.87	10.1964
301.763	9.71402
304.655	6.73431
307.548	5.97133
310.441	3.69316
313.334	2.61409
316.226	0.799667
319.119	0.007172
322.012	0.582474
324.904	0.213333
327.797	1.85553
330.69	0.960085
333.582	1.01266
336.475	1.39397
339.368	2.36815
342.26	4.55945
345.153	4.7309
348.046	3.76393
350.938	3.29008
353.831	2.3141
356.724	2.15738
359.617	0.694611
362.509	3.03787
365.402	2.50763
368.295	3.42433
371.187	4.53421
374.08	3.63435
376.973	4.71576
379.865	3.00589
382.758	3.0343
385.651	4.49483
388.544	4.84145
391.436	7.43304
394.329	9.3289
397.222	8.94589
400.114	10.4864
403.007	12.5609
405.9	13.2535
408.793	13.8178
411.685	11.5054
414.578	10.9226
417.471	11.8816
420.363	10.5394
423.256	10.832
426.149	11.2594
429.041	13.453
431.934	13.0359
434.827	13.5556
437.719	15.6675
440.612	16.5089
443.505	19.2825
446.398	18.957
449.29	19.7479
452.183	17.7014
455.076	14.6494
457.968	12.0608
460.861	9.44424
463.754	6.17155
466.647	4.69517
469.539	1.06222
472.432	1.66751
475.325	0.17926
478.217	2.50121
481.11	0.921844
484.003	2.61771
486.895	4.06331
489.788	4.71722
492.681	5.48764
495.573	4.52875
498.466	3.89531
501.359	2.69467
504.252	0.583008
507.144	1.44353
510.037	1.06055
512.93	0.3116
515.822	0.493637
518.715	0.706299
521.608	1.44527
524.5	0.90538
527.393	0.529434
530.286	1.81335
533.178	0.717529
536.071	3.04201
538.964	2.86977
541.857	3.21475
544.749	3.57927
547.642	5.62587
550.535	4.53943
553.427	5.30266
556.32	6.0705
559.213	6.9554
562.106	6.27528
564.998	3.72642
567.891	3.99411
570.784	3.34409
573.676	2.78738
576.569	3.47966
579.462	1.07941
582.354	1.85779
585.247	0.124077
588.14	0.776924
591.033	0.593414
593.925	0.180466
596.818	1.63374
599.711	2.05983
602.603	2.76876
605.496	2.30828
608.389	2.95303
611.281	3.54909
614.174	3.68603
617.067	4.58124
619.96	2.57381
622.852	5.30793
625.745	2.80229
628.638	2.63836
631.53	3.32986
634.423	2.61076
637.316	2.77711
640.208	4.39615
643.101	4.12881
645.994	4.85998
648.886	6.87345
651.779	11.239
654.672	17.1762
657.564	22.7384
660.457	29.0068
663.35	34.5408
666.243	36.211
669.135	32.9751
672.028	26.3246
674.921	15.7546
677.813	10.8881
680.706	4.75314
683.599	3.15522
686.491	1.08182
689.384	0.485031
692.277	0.270546
695.17	1.42564
698.062	2.57072
700.955	2.37106
703.848	3.4258
706.74	6.27579
709.633	5.66171
712.526	6.18479
715.418	5.46431
718.311	5.45078
721.204	4.16504
724.097	3.4432
726.989	0.885185
729.882	0.773224
732.775	0.227501
735.667	0.546181
738.56	0.082184
741.453	0.070229
744.346	1.3345
747.238	0.790192
750.131	0.244858
753.024	0.464752
755.916	0.086815
758.809	0.23999
761.702	0.483505
764.594	1.52271
767.487	0.990753
770.38	2.24261
773.273	2.15157
776.165	2.99778
779.058	2.39094
781.951	4.47957
784.843	3.62366
787.736	5.00343
790.629	5.37017
793.521	4.73511
796.414	6.23052
799.307	6.99762
802.199	7.58814
805.092	7.85217
807.985	8.20663
810.878	7.92157
813.77	8.79854
816.663	8.52993
819.556	9.4144
822.448	9.38
825.341	9.86457
828.234	11.8496
831.126	11.6369
834.019	12.0207
836.912	12.3329
839.804	14.274
842.697	13.3189
845.59	14.9756
848.483	15.5048
851.375	16.2712
854.268	15.108
857.161	15.0317
860.053	15.1608
862.946	15.6563
865.839	15.4586
868.731	15.9035
871.624	14.4005
874.517	15.4576
877.409	12.6755
880.302	12.5991
883.195	11.3245
886.088	11.1566
888.98	8.57159
891.873	8.01646
894.766	8.02209
897.658	5.41623
900.551	3.30779
903.444	2.48207
906.337	3.15237
909.229	1.52297
912.122	0.585266
915.015	0.139381
917.907	0.362099
920.8	0.264282
923.693	0.049591
926.585	0.039162
929.478	0.939255
932.371	0.526093
935.264	1.57863
938.156	0.294212
941.049	1.1969
943.942	1.00691
946.834	1.25491
949.727	2.46571
952.62	1.78399
955.512	2.70901
958.405	4.39924
961.298	4.62173
964.191	3.58325
967.083	4.99279
969.976	5.53579
972.869	5.97227
975.761	6.19131
978.654	7.17388
981.547	8.46657
984.439	7.34557
987.332	9.72659
990.225	8.56278
993.117	9.27676
996.01	11.142
998.903	12.6054
1001.8	13.5055
1004.69	15.8859
1007.58	16.8462
1010.47	16.3884
1013.37	17.0437
1016.26	15.3589
1019.15	13.3974
1022.04	11.9118
1024.94	9.90168
1027.83	8.28827
1030.72	6.62391
1033.62	7.39612
1036.51	6.60095
1039.4	6.92213
1042.29	7.49981
1045.19	6.59035
1048.08	6.18915
1050.97	5.35277
1053.86	6.70895
1056.76	3.78277
1059.65	3.6416
1062.54	3.04825
1065.43	1.86698
1068.33	1.60339
1071.22	2.05347
1074.11	1.08656
1077.01	1.47112
1079.9	0.808411
1082.79	2.08513
1085.68	0.562782
1088.58	0.964294
1091.47	1.28387
1094.36	0.01004
1097.26	0.076096
1100.15	1.5246
1103.04	0.38237
1105.93	0.526199
1108.83	0.499855
1111.72	0.939781
1114.61	0.860748
1117.5	1.00876
1120.4	1.20669
1123.29	0.279203
1126.18	0.605568
1129.07	0.849838
1131.97	0.528076
1134.86	2.77753
1137.75	0.32502
1140.64	0.506447
1143.54	0.083054
1146.43	1.56637
1149.32	1.26561
1152.22	1.63563
1155.11	0.995377
1158	1.31813
1160.89	1.4459
1163.79	1.0545
1166.68	1.96901
1169.57	2.12974
1172.46	2.57938
1175.36	2.10226
1178.25	1.4147
1181.14	1.50198
1184.04	3.30518
1186.93	2.6092
1189.82	2.53878
1192.71	1.25787
1195.61	2.59865
1198.5	2.00695
1201.39	2.93512
1204.28	2.03481
1207.18	2.1563
1210.07	1.42526
1212.96	1.86569
1215.86	2.0357
1218.75	1.37943
1221.64	2.83149
1224.53	1.0779
1227.43	0.283516
1230.32	1.50427
1233.21	0.659782
1236.1	2.72495
1239	2.35368
1241.89	1.3333
1244.78	1.43242
1247.67	0.532127
1250.57	1.87502
1253.46	1.30432
1256.35	0.397331
1259.25	0.423027
1262.14	0.439919
1265.03	0.637695
1267.92	1.24508
1270.82	0.575752
1273.71	0.708809
1276.6	1.83528
1279.49	0.97097
1282.39	0.628983
