Measurement: Raman, 780 nm, unoriented, Raman Data Processed
Mineral: Humboldtine
Rruff sample: R130689
Ideal chemistry: Fe^2+^(C_2_)^6+^O_4_2H_2_O
Locality: Minas Gerais, Brazil
Source: Bob Jenkins
Description: Sample needs to be returned to Bob Jenkins after a picture can be taken of it. Label shows doubt as to the sample coming specifically from Minas Gerais.
Raman shift (cm-1)	intensity
102.046	0
105.421	41.9202
108.796	161.68
112.17	369.3
115.545	540.776
118.92	426.172
122.295	254.705
125.67	176.835
129.044	124.547
132.419	84.5458
135.794	40.4696
139.169	20.1301
142.544	1.5614
145.918	10.0051
149.293	8.91284
152.668	5.07471
156.043	4.54272
159.418	2.32068
162.792	26.583
166.167	70.0253
169.542	81.4774
172.917	64.7214
176.292	73.0361
179.667	92.249
183.041	117.441
186.416	153.631
189.791	186.364
193.166	236.512
196.541	300.464
199.916	386.645
203.29	453.885
206.665	396.255
210.04	246.666
213.415	141.487
216.79	96.5607
220.164	78.312
223.539	79.4785
226.914	92.3661
230.289	118.388
233.664	152.998
237.038	212.864
240.413	266.606
243.788	291.097
247.163	244.685
250.538	155.016
253.913	90.8483
257.287	58.1135
260.662	39.1943
264.037	27.3617
267.412	15.6249
270.787	11.0153
274.161	8.9198
277.536	11.5393
280.911	15.2278
284.286	17.5328
287.661	16.7861
291.036	15.4576
294.41	9.95752
297.785	6.69556
301.16	10.1559
304.535	5.75061
307.91	4.57886
311.284	5.48572
314.659	2.66101
318.034	2.14258
321.409	0.399292
324.784	1.46057
328.159	1.40283
331.533	3.11975
334.908	1.86804
338.283	1.43335
341.658	0.009521
345.033	4.44482
348.408	9.41711
351.782	2.40466
355.157	4.65356
358.532	4.64319
361.907	5.33923
365.282	4.90674
368.656	9.24597
372.031	5.84277
375.406	5.3468
378.781	7.52905
382.156	5.28809
385.531	3.22022
388.905	6.46863
392.28	4.30139
395.655	2.67175
399.03	3.80701
402.405	5.79407
405.779	2.67883
409.154	9.7699
412.529	5.80652
415.904	5.59253
419.279	7.48303
422.654	4.56616
426.028	5.21265
429.403	4.98206
432.778	2.52368
436.153	0.737549
439.528	4.61804
442.902	1.01904
446.277	0.262939
449.652	0.544556
453.027	2.50311
456.402	0.985657
459.776	3.53064
463.151	7.75812
466.526	5.29785
469.901	4.57159
473.276	3.77454
476.651	5.31726
480.025	6.98645
483.4	9.28168
486.775	11.0742
490.15	15.9344
493.525	22.1666
496.899	25.9878
500.274	27.8805
503.649	32.5864
507.024	37.5511
510.399	39.0497
513.774	39.7991
517.148	43.2966
520.523	44.4797
523.898	42.4697
527.273	39.4337
530.648	32.1824
534.022	24.5637
537.397	17.2832
540.772	9.50311
544.147	8.43945
547.522	2.30859
550.896	3.0495
554.271	0.465332
557.646	0.414246
561.021	0.609863
564.396	9.51337
567.771	10.9246
571.145	17.6652
574.52	31.5798
577.895	49.508
581.27	78.521
584.645	88.1303
588.019	53.1375
591.394	21.902
594.769	12.5718
598.144	8.41974
601.519	7.68994
604.894	5.2077
608.268	3.08325
611.643	3.32013
615.018	0.068176
618.393	0.135559
621.768	1.50952
625.143	1.97119
628.517	0.610413
631.892	1.65076
635.267	4.21802
638.642	3.34174
642.017	0.756104
645.391	0.470581
648.766	1.24951
652.141	0.666748
655.516	2.85895
658.891	2.08136
662.265	0.734009
665.64	3.72296
669.015	3.48279
672.39	3.30322
675.765	3.83765
679.14	5.65503
682.514	4.99146
685.889	5.01685
689.264	3.4408
692.639	6.21124
696.014	7.37384
699.389	6.18359
702.763	6.77924
706.138	2.70587
709.513	3.88019
712.888	2.60211
716.263	1.34381
719.637	1.28198
723.012	1.39661
726.387	0.288208
729.762	2.41962
733.137	0.681396
736.511	0.230469
739.886	2.12042
743.261	1.68018
746.636	2.28674
750.011	1.73505
753.386	1.54114
756.76	1.27319
760.135	3.66705
763.51	5.79303
766.885	0.698914
770.26	1.9906
773.635	0.310181
777.009	0.515259
780.384	1.99457
783.759	0.714233
787.134	2.66022
790.509	1.60828
793.883	2.77008
797.258	0.703247
800.633	1.63843
804.008	3.99353
807.383	2.31873
810.757	1.69525
814.132	2.16388
817.507	1.20215
820.882	0.693726
824.257	0.452881
827.631	1.7323
831.006	1.55646
834.381	1.56665
837.756	3.32794
841.131	2.54059
844.506	0.034973
847.88	0.253052
851.255	1.40631
854.63	2.95233
858.005	4.86237
861.38	4.37976
864.755	0.185486
868.129	2.26434
871.504	5.97784
874.879	1.93854
878.254	2.58191
881.629	6.25385
885.003	10.2712
888.378	10.8767
891.753	18.225
895.128	23.8072
898.503	38.7611
901.878	64.8582
905.252	97.9397
908.627	152.138
912.002	212.765
915.377	222.303
918.752	152.141
922.126	78.9846
925.501	45.3029
928.876	24.5305
932.251	17.582
935.626	10.8292
939	11.4387
942.375	4.14813
945.75	1.82318
949.125	0.227173
952.5	6.04388
955.875	0.248169
959.249	0.263855
962.624	0.469604
965.999	1.48706
969.374	2.3385
972.749	0.697449
976.124	0.348755
979.498	0.580627
982.873	2.30524
986.248	1.32825
989.623	0.991028
992.998	4.5257
996.372	1.26785
999.747	2.7999
1003.12	1.22565
1006.5	2.41315
1009.87	2.76858
1013.25	2.72186
1016.62	1.05731
1020	2.34152
1023.37	2.34647
1026.75	1.83276
1030.12	2.35834
1033.49	3.03479
1036.87	2.37039
1040.24	2.16428
1043.62	1.94565
1046.99	4.78125
1050.37	1.92154
1053.74	4.2858
1057.12	2.13855
1060.49	2.14304
1063.87	3.69492
1067.24	1.84058
1070.62	2.04388
1073.99	2.66339
1077.37	1.51199
1080.74	0.801117
1084.12	2.78537
1087.49	0.836609
1090.87	0.830902
1094.24	0.690033
1097.62	1.77588
1100.99	1.59259
1104.37	0.835052
1107.74	3.659
1111.12	1.72409
1114.49	2.35815
1117.87	0.466766
1121.24	2.37824
1124.62	1.10144
1127.99	1.73419
1131.37	3.01019
1134.74	1.95316
1138.12	2.65817
1141.49	1.23981
1144.86	2.06345
1148.24	3.83106
1151.61	1.66202
1154.99	3.25513
1158.36	2.36246
1161.74	3.0788
1165.11	3.76724
1168.49	2.00336
1171.86	3.24387
1175.24	3.48224
1178.61	2.90469
1181.99	1.0054
1185.36	3.59418
1188.74	2.80731
1192.11	2.66611
1195.49	3.12225
1198.86	2.14291
1202.24	1.41638
1205.61	1.65167
1208.99	1.62567
1212.36	1.63888
1215.73	0.181732
1219.11	0.09967
1222.48	1.2009
1225.86	0.075043
1229.23	1.36591
1232.61	4.34796
1235.98	0.598572
1239.36	0.194763
1242.73	0.954681
1246.11	1.04834
1249.48	1.00561
1252.86	0.184906
1256.23	8.41824
1259.61	2.02463
1262.98	2.28845
1266.36	0.734619
1269.73	3.06982
1273.11	2.19742
1276.48	1.06494
1279.86	0.243317
