Measurement: Raman, 532 nm, unoriented, Raman Data Processed
Mineral: Humboldtine
Rruff sample: R130689
Ideal chemistry: Fe^2+^(C_2_)^6+^O_4_2H_2_O
Locality: Minas Gerais, Brazil
Source: Bob Jenkins
Description: Sample needs to be returned to Bob Jenkins after a picture can be taken of it. Label shows doubt as to the sample coming specifically from Minas Gerais.
Raman shift (cm-1)	intensity
140.205	0
143.58	75.1484
146.955	56.6328
150.33	49.4219
153.705	28.8008
157.079	71.2383
160.454	34.3438
163.829	292.328
167.204	629.945
170.579	513.492
173.953	278.812
177.328	453.418
180.703	675.477
184.078	887.125
187.453	1230.47
190.828	1884.33
194.202	2458.08
197.577	3266.65
200.952	4301.07
204.327	4753.54
207.702	3512.31
211.077	1917.99
214.451	993.934
217.826	560.207
221.201	506.606
224.576	529.809
227.951	853.144
231.325	1420.3
234.7	2211.31
238.075	3019.38
241.45	3613.43
244.825	3603.92
248.2	2703.11
251.574	1730.33
254.949	977.008
258.324	590.867
261.699	429.57
265.074	284.32
268.448	123.715
271.823	158.094
275.198	161.438
278.573	217.57
281.948	207.887
285.322	346.043
288.697	305.363
292.072	164.703
295.447	33.9766
298.822	4.42188
302.197	154.047
305.571	93.8398
308.946	0.046875
312.321	68.7344
315.696	61.9141
319.071	21.0625
322.445	15.0781
325.82	110.887
329.195	98.8867
332.57	142.66
335.945	183.301
339.32	167.207
342.694	96.8828
346.069	96.6445
349.444	159.637
352.819	197.164
356.194	131.914
359.568	114.617
362.943	94.6367
366.318	188.766
369.693	146.262
373.068	55.4766
376.442	139.394
379.817	5.50391
383.192	1.08203
386.567	70.1016
389.942	83.6055
393.317	135.828
396.691	193.727
400.066	185.504
403.441	220.481
406.816	56.2461
410.191	173.688
413.565	207.805
416.94	231
420.315	211.332
423.69	92.2539
427.065	153.394
430.44	145.172
433.814	124.637
437.189	36.6016
440.564	22.2461
443.939	14.6953
447.314	103.719
450.688	37.25
454.063	50.2695
457.438	118.879
460.813	146.707
464.188	22.7734
467.563	11.6719
470.937	5.60547
474.312	51.7383
477.687	53.3984
481.062	24.2695
484.437	89.5859
487.812	268.438
491.186	408.289
494.561	381.836
497.936	414.57
501.311	581.059
504.686	710.609
508.06	780.535
511.435	782.527
514.81	880.957
518.185	947.812
521.56	857.168
524.934	796.039
528.309	788.156
531.684	813.312
535.059	628.695
538.434	478.832
541.809	385.211
545.183	345.621
548.558	353.301
551.933	284.664
555.308	288.527
558.683	270.09
562.058	249.379
565.432	261.606
568.807	385.555
572.182	646.625
575.557	966.305
578.932	1367.55
582.306	1691.25
585.681	1594.86
589.056	849.438
592.431	395.113
595.806	181.734
599.181	185.535
602.555	176.07
605.93	176.629
609.305	116.723
612.68	138.969
616.055	44.2773
619.429	108.148
622.804	37.4336
626.179	57.1562
629.554	107.836
632.929	100.941
636.303	30.7734
639.678	80.2734
643.053	39.3672
646.428	15.1914
649.803	102.641
653.178	165.047
656.552	107.492
659.927	33.3633
663.302	23.9922
666.677	16.8398
670.052	32.9531
673.427	25.1484
676.801	21.8398
680.176	94.2344
683.551	63.375
686.926	136.152
690.301	124.426
693.675	144.156
697.05	234.035
700.425	147.148
703.8	92.3164
707.175	152.863
710.549	118.277
713.924	52.4375
717.299	80.1328
720.674	84.8555
724.049	66.0508
727.423	83.5586
730.798	115.656
734.173	118.969
737.548	230.082
740.923	233.738
744.298	159.441
747.672	108.078
751.047	172.168
754.422	83.2188
757.797	26
761.172	2.09766
764.547	49.9297
767.921	9.46094
771.296	143.137
774.671	171.406
778.046	203.953
781.421	298.902
784.795	200.273
788.17	120.856
791.545	107.926
794.92	109.336
798.295	147.051
801.669	55.0352
805.044	99.4688
808.419	120.434
811.794	78.7148
815.169	75.9883
818.544	197.484
821.918	174.82
825.293	125.648
828.668	55.0977
832.043	79.2734
835.418	74.2305
838.793	80.4922
842.167	87.543
845.542	20.0352
848.917	3.48828
852.292	104.184
855.667	43.6289
859.041	34.3672
862.416	130.566
865.791	112.109
869.166	275.32
872.541	42.8867
875.915	42.418
879.29	90.3047
882.665	104.519
886.04	140.742
889.415	250.957
892.79	520.84
896.164	908.727
899.539	1531.41
902.914	2207.48
906.289	3314.22
909.664	4627.79
913.038	5587.5
916.413	4850.31
919.788	2961.31
923.163	1683.14
926.538	1120.91
929.913	701.062
933.287	442.746
936.662	327.324
940.037	284.465
943.412	317.945
946.787	173.769
950.162	14.1211
953.536	4.11719
956.911	138.559
960.286	245.434
963.661	178.754
967.036	109.656
970.41	14.8906
973.785	88.4258
977.16	225.668
980.535	76.5977
983.91	62.8633
987.284	11.2266
990.659	31.0977
994.034	42.4609
997.409	8.74609
1000.78	28.3906
1004.16	48.9297
1007.53	92.2305
1010.91	61.8242
1014.28	139.59
1017.66	170.613
1021.03	63.3125
1024.41	81.6758
1027.78	194.438
1031.16	102.285
1034.53	110.965
1037.91	134.527
1041.28	192.93
1044.66	339.551
1048.03	299.215
1051.41	279.469
1054.78	237.406
1058.16	256.504
1061.53	289.023
1064.9	272.219
1068.28	277.543
1071.65	247.148
1075.03	253.348
1078.4	249.629
1081.78	180.523
1085.15	190.117
1088.53	319.809
1091.9	193.414
1095.28	206.648
1098.65	150.465
1102.03	109.211
1105.4	94.3281
1108.78	53.0312
1112.15	95.7227
1115.53	113.566
1118.9	39.5156
1122.28	69.0586
1125.65	0.398438
1129.03	22.1641
1132.4	35.1523
1135.78	65.1055
1139.15	183.473
1142.53	215.426
1145.9	87.8945
1149.28	100.016
1152.65	174.18
1156.03	264.848
1159.4	277.637
1162.78	328.969
1166.15	308.148
1169.53	414.715
1172.9	272.238
1176.27	274.434
1179.65	301.805
1183.02	304.863
1186.4	355.609
1189.77	437.559
1193.15	515.223
1196.52	476.527
1199.9	362.5
1203.27	367.914
1206.65	360.016
1210.02	398.68
1213.4	285.102
1216.77	285.805
1220.15	326.68
1223.52	351.188
1226.9	249.234
1230.27	194.18
1233.65	206.43
1237.02	128.219
1240.4	51.9219
1243.77	90.7422
1247.14	115.734
1250.52	211.203
1253.89	160.289
1257.27	246.43
1260.64	213.391
1264.02	116.812
1267.39	201.062
1270.77	132.992
1274.14	7.07031
1277.52	34.3359
1280.89	105.445
1284.27	136.898
1287.64	196.141
1291.02	179.641
1294.39	116.906
1297.77	1.95312
