Measurement: Raman, 514 nm, unoriented, Raman Data RAW
Mineral: Huttonite
Rruff sample: X050103
Ideal chemistry: ThSiO_4_
Locality: synthetic, grown by Boatner 1963
Source: Caltech
Raman shift (cm-1)	intensity
150.558	120
155.597	142.293
160.635	205.535
165.673	298.404
170.712	543.292
175.75	963.137
180.789	1317.93
185.827	1718.81
190.865	2629.97
195.904	3838.88
200.942	4118.44
205.981	3230.62
211.019	1779.4
216.058	1178.23
221.096	965.955
226.134	929.569
231.173	998.345
236.211	1247.02
241.25	1862.77
246.288	3767.35
251.327	6859
256.365	8336.18
261.403	7161.55
266.442	3400.61
271.48	1708.34
276.519	1570.51
281.557	1743.2
286.595	1751.43
291.634	1475.7
296.672	1155.52
301.711	1086.38
306.749	1318.65
311.787	2024.57
316.826	2990.67
321.864	3473.98
326.903	3003.63
331.941	1972.35
336.979	1429.3
342.018	1280.72
347.056	1414.94
352.095	2110.57
357.133	3185.1
362.172	3680.54
367.21	3180.39
372.248	2443.26
377.287	2863.86
382.325	4020.35
387.364	4581.36
392.402	3843.42
397.44	2271.82
402.479	1349.2
407.517	1054.11
412.556	999.797
417.594	1093.45
422.632	1380.95
427.671	2080.68
432.709	2812.81
437.748	2946.55
442.786	2361.14
447.825	1572.12
452.863	1253.28
457.901	1356.68
462.94	1486.6
467.978	1446.04
473.017	1099.3
478.055	914.936
483.094	804.615
488.132	771.696
493.17	728.729
498.209	758.841
503.247	756.501
508.286	798.482
513.324	849.604
518.362	815.415
523.401	783.114
528.439	754.593
533.478	763.915
538.516	803.74
543.554	841.323
548.593	778.595
553.631	770.591
558.67	782.64
563.708	964.491
568.747	1403.88
573.785	1905.06
578.823	2060.88
583.862	1654.12
588.9	1098.21
593.939	821.19
598.977	741.922
604.015	707.971
609.054	688.256
614.092	662.018
619.131	668.213
624.169	676.007
629.207	644
634.246	666.497
639.284	674.814
644.323	672.784
649.361	619.907
654.4	637.395
659.438	653
664.476	638.085
669.515	654.342
674.553	664.326
679.592	652.615
684.63	649.506
689.668	638.255
694.707	644.027
699.745	653.597
704.784	636.53
709.822	636.338
714.861	649.956
719.899	660.424
724.937	662.356
729.976	683.252
735.014	678.543
740.053	650.032
745.091	670.14
750.13	667.189
755.168	710.515
760.206	700.209
765.245	698.203
770.283	698.327
775.322	696.362
780.36	723.082
785.398	725.56
790.437	759.11
795.475	755.647
800.514	760.858
805.552	815.436
810.59	759.271
815.629	767.467
820.667	793.358
825.706	803.254
830.744	813
835.783	821.958
840.821	890.512
845.859	919.842
850.898	974.372
855.936	1160.27
860.975	1408.25
866.013	2105.49
871.051	2942.95
876.09	3467.42
881.128	3540.95
886.167	4837.14
891.205	11144.2
896.244	17240
901.282	17640.9
906.32	10502.8
911.359	4560.53
916.397	2966.33
921.436	1943.01
926.474	1579.32
931.512	1507.74
936.551	1712.32
941.589	2591.25
946.628	5187.32
951.666	8147.19
956.704	8588.25
961.743	5978.19
966.781	3627.06
971.82	3436.32
976.858	3362.32
981.896	2679.51
986.935	1747.83
991.973	1388.73
997.012	1225
1002.05	1088.97
1007.09	1068.91
1012.13	1036.13
1017.17	961.648
1022.2	958.864
1027.24	955.931
1032.28	940.189
1037.32	964.925
1042.36	992.794
1047.4	970.8
1052.43	988.901
1057.47	974.624
1062.51	947.054
1067.55	946.583
1072.59	942.799
1077.63	917.487
1082.66	906.936
1087.7	907
1092.74	923.308
1097.78	919.372
1102.82	903.029
1107.86	875.354
1112.9	868.755
1117.93	850.449
1122.97	855.551
1128.01	853.521
1133.05	836.815
1138.09	850.237
1143.13	856.018
1148.16	865.944
1153.2	858.233
1158.24	877.175
1163.28	898.192
1168.32	882.347
1173.36	878.808
1178.39	880.548
1183.43	871.888
1188.47	903.456
1193.51	840.697
1198.55	869.447
1203.59	885.535
1208.63	905.009
1213.66	853.919
1218.7	869.704
1223.74	850.402
1228.78	858.551
1233.82	885.525
1238.86	848
1243.89	886.451
1248.93	894.969
1253.97	874.241
1259.01	857.39
1264.05	869.565
1269.09	855.858
1274.12	857.101
1279.16	838.378
1284.2	837.664
1289.24	854.241
1294.28	864.593
1299.32	878.06
1304.36	863.451
1309.39	849.767
1314.43	870.825
1319.47	849.097
1324.51	884.157
1329.55	883.025
1334.59	908.833
1339.62	913.243
1344.66	909
1349.7	962.897
1354.74	941.617
1359.78	915.41
1364.82	909.339
1369.85	932.665
1374.89	964.594
1379.93	969.281
1384.97	949.742
1390.01	944.758
1395.05	940.381
1400.08	943.544
1405.12	963.769
1410.16	978.252
1415.2	970.166
1420.24	943.252
1425.28	987.595
1430.32	980.845
1435.35	999.645
1440.39	988.284
1445.43	981.338
1450.47	968.797
1455.51	988.517
1460.55	1039.95
1465.58	988.528
1470.62	1006.75
1475.66	1003.75
1480.7	1001.12
1485.74	1013.55
1490.78	1000.66
1495.81	1043.14
1500.85	996
