Measurement: Raman, 532 nm, unoriented, Raman Data Processed
Mineral: Hydrotalcite
Rruff sample: R060527
Ideal chemistry: Mg_6_Al_2_CO_3_(OH)_16_(H_2_O)_4_
Locality: Jacupiranga Pegmatite, Sao Paulo State, Brazil
Source: Michael Scott
Description: Orange hexagonal prisms topped with steep pyramids
Raman shift (cm-1)	intensity
97.2969	0
100.672	2.13525
104.047	20.7629
107.421	157.323
110.796	178.419
114.171	286.088
117.546	425.212
120.921	546.5
124.296	736.746
127.67	963.188
131.045	1317.96
134.42	1723.57
137.795	2250.38
141.17	2711.14
144.544	3189.67
147.919	3714.4
151.294	4115.02
154.669	4103.71
158.044	3608.86
161.418	2935.09
164.793	2254.64
168.168	1637.27
171.543	1295.05
174.918	1092.58
178.293	966.438
181.667	831.751
185.042	658.02
188.417	503.838
191.792	404.983
195.167	355.33
198.542	318.346
201.916	286.553
205.291	272.518
208.666	225.694
212.041	197.154
215.416	170.451
218.79	127.237
222.165	90.5112
225.54	65.7481
228.915	43.584
232.29	31.27
235.664	33.2393
239.039	31.3149
242.414	7.36426
245.789	4.90918
249.164	19.5039
252.538	21.1211
255.913	9.31543
259.288	8.16748
262.663	11.3296
266.038	5.854
269.413	10.1382
272.787	7.98535
276.162	3.50391
279.537	15.543
282.912	18.293
286.287	38.542
289.661	46.8852
293.036	38.5708
296.411	54.8955
299.786	83.8506
303.161	105.394
306.536	96.8794
309.91	83.6616
313.285	57.5273
316.66	56.0347
320.035	44.6504
323.41	50.7368
326.784	53.0679
330.159	46.6675
333.534	58.2236
336.909	50.6352
340.284	57.8643
343.659	33.0161
347.033	50.4888
350.408	65.6548
353.783	76.6162
357.158	84.2148
360.533	76.9326
363.908	91.6309
367.282	84.5312
370.657	55.3955
374.032	38.9795
377.407	43.5391
380.782	41.8203
384.156	52.3291
387.531	71.5181
390.906	88.9653
394.281	90.4951
397.656	116.052
401.031	106.425
404.405	50.4097
407.78	25.1836
411.155	25.0727
414.53	17.4517
417.905	7.85107
421.279	8.65723
424.654	3.83301
428.029	4.68066
431.404	9.92969
434.779	16.1465
438.154	10.54
441.528	8.95215
444.903	5.52637
448.278	14.4849
451.653	20.7393
455.028	31.2915
458.402	44.5532
461.777	62.7988
465.152	70.4941
468.527	113.456
471.902	148.889
475.276	197.025
478.651	220.405
482.026	196.062
485.401	142.744
488.776	109.77
492.151	70.959
495.525	34.9429
498.9	15.5693
502.275	15.9199
505.65	19.8584
509.025	8.20703
512.399	6.9375
515.774	20.5156
519.149	17.5034
522.524	27.519
525.899	60.8501
529.274	127.932
532.648	203.851
536.023	283.972
539.398	456.677
542.773	700.244
546.148	1017.99
549.523	1417.78
552.897	1901.35
556.272	2205.96
559.647	1815.58
563.022	1011.59
566.396	496.634
569.771	267.957
573.146	156.639
576.521	107.713
579.896	68.9082
583.271	51.1748
586.645	35.4062
590.02	31.7891
593.395	10.812
596.77	7.35498
600.145	5
603.519	6.81445
606.894	6.56104
610.269	11.6548
613.644	1.35205
617.019	7.45312
620.394	0.778809
623.768	1.09863
627.143	2.38184
630.518	10.6255
633.893	2.58594
637.268	1.5957
640.643	6.34717
644.017	4.86328
647.392	7.34277
650.767	13.7407
654.142	12.6655
657.517	16.4834
660.891	17.9971
664.266	2.97022
667.641	19.9263
671.016	18.1079
674.391	14.5923
677.765	8.51367
681.14	9.18359
684.515	14.5645
687.89	36.1313
691.265	32.3169
694.64	37.8555
698.014	51.3677
701.389	27.7134
704.764	9.32031
708.139	15.1133
711.514	2.83935
714.889	5.59277
718.263	5.49463
721.638	1.93603
725.013	3.4956
728.388	2.35693
731.763	8.30371
735.137	14.3203
738.512	32.9609
741.887	31.7764
745.262	33.0874
748.637	17.8164
752.011	28.7964
755.386	15.3652
758.761	11.4937
762.136	16.582
765.511	29.4873
768.886	32.0654
772.26	52.1763
775.635	44.6895
779.01	63.9639
782.385	61.0376
785.76	54.7759
789.135	55.5474
792.509	74.9878
795.884	59.5698
799.259	54.9424
802.634	60.0747
806.009	70.6006
809.383	85.3623
812.758	70.4365
816.133	74.4058
819.508	103.471
822.883	82.231
826.257	77.4961
829.632	74.5171
833.007	80.3433
836.382	81.9273
839.757	83.874
843.132	70.1035
846.506	61.8916
849.881	75.5718
853.256	69.562
856.631	57.0889
860.006	53.9282
863.38	72.543
866.755	63.3486
870.13	69.8193
873.505	34.4336
876.88	11.0039
880.255	3.26269
883.629	11.7891
887.004	9.57227
890.379	2.87891
893.754	6.23096
897.129	11.6484
900.504	7.71875
903.878	6.06445
907.253	3.18066
910.628	2.83838
914.003	5.08691
917.378	4.46875
920.752	14.3345
924.127	18.7085
927.502	27.8086
930.877	29.5859
934.252	16.8227
937.626	31.6528
941.001	41.7769
944.376	49.1079
947.751	39.5308
951.126	32.3486
954.5	39.5356
957.875	62.8608
961.25	69.9707
964.625	60.3906
968	30.2031
971.375	32.4497
974.75	32.9233
978.124	40.4683
981.499	9.85059
984.874	15.9956
988.249	15.4004
991.624	12.626
994.998	5.76221
998.373	10.0098
1001.75	1.01465
1005.12	8.02148
1008.5	9.8208
1011.87	1.38672
1015.25	30.79
1018.62	36.4175
1022	35.4077
1025.37	44.5151
1028.75	68.3525
1032.12	75.5083
1035.5	89.0034
1038.87	101.54
1042.25	153.517
1045.62	196.831
1048.99	292.341
1052.37	449.974
1055.74	671.485
1059.12	856.146
1062.49	834.523
1065.87	575.305
1069.24	318.194
1072.62	173.851
1075.99	110.142
1079.37	65.3936
1082.74	43.2622
1086.12	42.5381
1089.49	35.5869
1092.87	24.0596
1096.24	9.96875
1099.62	15.0015
1102.99	17.2788
1106.37	13.8682
1109.74	28.8735
1113.12	14.9644
1116.49	13.7695
1119.87	22.9375
1123.24	5.29443
1126.62	13.0249
1129.99	6.17627
1133.37	4.34082
1136.74	7.18652
1140.12	20.3877
1143.49	27.8477
1146.87	15.73
1150.24	8.80762
1153.62	26.2529
1156.99	29.9629
1160.36	34.832
1163.74	41.2315
1167.11	47.331
1170.49	48.9214
1173.86	48.2334
1177.24	44.4512
1180.61	48.0625
1183.99	56.0991
1187.36	46.793
1190.74	56.0791
1194.11	64.479
1197.49	53.7832
1200.86	50.4106
1204.24	49.1895
1207.61	32.2544
1210.99	44.9502
1214.36	42.4072
1217.74	38.897
1221.11	55.9849
1224.49	41.6636
1227.86	28.9824
1231.24	27.2222
1234.61	32.8188
1237.98	7.55957
1241.36	18.9873
1244.73	28.3355
1248.11	15.8052
1251.48	20.5469
1254.86	27.3657
1258.23	30.2261
1261.61	19.1523
1264.98	3.14941
1268.36	21.4536
1271.73	12.98
1275.11	2.25342
1278.48	0.290039
1281.86	7.77734
1285.23	14.1152
1288.61	37.7026
1291.98	16.8442
1295.36	3.39209
1298.73	4.58838
