Measurement: Raman, 780 nm, unoriented, Raman Data Processed
Mineral: Hydrotalcite
Rruff sample: R060527
Ideal chemistry: Mg_6_Al_2_CO_3_(OH)_16_(H_2_O)_4_
Locality: Jacupiranga Pegmatite, Sao Paulo State, Brazil
Source: Michael Scott
Description: Orange hexagonal prisms topped with steep pyramids
Raman shift (cm-1)	intensity
93.8499	0
97.2247	3.14264
100.6	4.17773
103.974	10.5751
107.349	25.9255
110.724	1.11841
114.099	2.66412
117.474	0.328491
120.848	4.46637
124.223	29.7562
127.598	47.0276
130.973	86.5268
134.348	131.839
137.722	201.717
141.097	288.982
144.472	408.113
147.847	559.805
151.222	679.98
154.597	713.721
157.971	628.286
161.346	486.486
164.721	332.192
168.096	203.35
171.471	138.43
174.845	106.89
178.22	87.4016
181.595	65.1775
184.97	38.7024
188.345	15.8184
191.72	6.50378
195.094	1.17801
198.469	0.605499
201.844	5.70236
205.219	10.2614
208.594	10.4273
211.969	9.96815
215.343	3.02397
218.718	1.32256
222.093	1.12184
225.468	0.964264
228.843	0.163055
232.217	0.649063
235.592	0.443314
238.967	2.70175
242.342	2.91644
245.717	5.52986
249.091	2.45184
252.466	0.985519
255.841	0.904785
259.216	1.23346
262.591	2.45252
265.966	1.3848
269.34	0.274673
272.715	0.159302
276.09	0.342102
279.465	2.27065
282.84	1.5508
286.214	0.824783
289.589	3.80963
292.964	4.31375
296.339	7.22307
299.714	10.1261
303.089	15.6558
306.463	13.9992
309.838	12.9425
313.213	7.83147
316.588	4.39696
319.963	2.86923
323.337	0.933868
326.712	2.5663
330.087	3.19229
333.462	2.20738
336.837	2.0605
340.212	2.78563
343.586	2.88986
346.961	4.59093
350.336	3.84898
353.711	6.60791
357.086	7.36574
360.46	9.39668
363.835	11.2072
367.21	8.72177
370.585	5.23383
373.96	4.24057
377.334	2.43655
380.709	4.43768
384.084	6.33212
387.459	10.1383
390.834	13.2591
394.209	15.2261
397.583	19.4717
400.958	16.8148
404.333	9.83688
407.708	4.83491
411.083	2.92934
414.457	0.704971
417.832	0.156357
421.207	0.832413
424.582	0.987762
427.957	0.341568
431.332	0.785019
434.706	0.785294
438.081	0.050522
441.456	0
444.831	0.091537
448.206	0.73349
451.58	3.28593
454.955	3.67223
458.33	4.28949
461.705	7.22865
465.08	9.14899
468.455	12.6724
471.829	14.9145
475.204	21.4477
478.579	23.5372
481.954	22.6501
485.329	18.2181
488.704	15.5097
492.078	13.6991
495.453	8.7568
498.828	5.69305
502.203	3.40518
505.577	2.01799
508.952	0.651917
512.327	1.62328
515.702	1.2805
519.077	2.09483
522.452	4.69943
525.826	8.39337
529.201	12.7243
532.576	20.9463
535.951	33.5808
539.326	53.2849
542.701	80.4389
546.075	115.939
549.45	166.722
552.825	240.559
556.2	309.138
559.575	271.016
562.949	157.631
566.324	78.0851
569.699	42.3429
573.074	23.5042
576.449	13.5795
579.823	8.1499
583.198	4.91797
586.573	3.42836
589.948	1.51789
593.323	0.757339
596.698	1.6846
600.072	1.80139
603.447	0.07283
606.822	0.5597
610.197	0.303894
613.572	0.140129
616.947	0.108841
620.321	0.67524
623.696	0.673134
627.071	0.249344
630.446	0.160149
633.821	1.35965
637.195	1.11437
640.57	1.79429
643.945	1.21434
647.32	0.192726
650.695	1.34093
654.069	1.87438
657.444	0.768127
660.819	1.81194
664.194	0.737183
667.569	1.70512
670.944	3.1244
674.318	3.33647
677.693	4.08512
681.068	4.03136
684.443	4.84812
687.818	3.17299
691.192	5.21631
694.567	5.07407
697.942	4.83538
701.317	3.6246
704.692	2.47321
708.067	4.85619
711.441	0.397034
714.816	0.978218
718.191	0.474396
721.566	0.424477
724.941	0.125099
728.316	0.218521
731.69	0.282394
735.065	0.236137
738.44	1.86562
741.815	1.166
745.19	2.14365
748.564	2.71864
751.939	1.77995
755.314	2.03822
758.689	4.24592
762.064	4.08649
765.438	4.05843
768.813	5.34567
772.188	6.04022
775.563	6.69952
778.938	7.46457
782.313	8.11985
785.687	7.84078
789.062	7.96973
792.437	9.28207
795.812	8.07077
799.187	8.63528
802.562	8.58917
805.936	8.48167
809.311	8.78621
812.686	8.91512
816.061	8.51272
819.436	8.6001
822.81	8.76902
826.185	8.97019
829.56	7.47425
832.935	7.97048
836.31	10.1845
839.684	9.28052
843.059	9.49316
846.434	9.73899
849.809	7.95495
853.184	7.94215
856.558	9.66672
859.933	9.09988
863.308	9.01303
866.683	8.1608
870.058	6.77305
873.433	5.86124
876.807	3.9731
880.182	3.62284
883.557	3.15291
886.932	3.40906
890.307	0.952713
893.682	0.119316
897.056	0.230774
900.431	1.16683
903.806	0.082993
907.181	0.187317
910.556	0.013672
913.93	0.057167
917.305	0.327698
920.68	0.537064
924.055	0.045418
927.43	0.172119
930.804	0.856705
934.179	1.84221
937.554	2.16087
940.929	1.92767
944.304	2.48382
947.679	3.06309
951.053	4.10168
954.428	4.89413
957.803	4.14742
961.178	3.60241
964.553	4.57025
967.928	3.94365
971.302	3.39521
974.677	2.46291
978.052	2.19765
981.427	1.58397
984.802	1.28367
988.176	1.02801
991.551	1.72406
994.926	1.03973
998.301	1.05618
1001.68	1.1634
1005.05	1.45703
1008.42	1.48753
1011.8	2.9481
1015.17	3.70345
1018.55	5.24702
1021.92	7.18844
1025.3	10.1744
1028.67	11.2378
1032.05	14.2773
1035.42	15.6717
1038.8	17.885
1042.17	21.5003
1045.55	28.2463
1048.92	36.6789
1052.3	54.7492
1055.67	79.5245
1059.05	111.589
1062.42	114.595
1065.8	77.1454
1069.17	38.5492
1072.55	19.7047
1075.92	10.1355
1079.3	4.93684
1082.67	3.38325
1086.05	2.59283
1089.42	1.23261
1092.8	0.54155
1096.17	0.482101
1099.55	0.134186
1102.92	0.05249
1106.3	0.27655
1109.67	0.900055
1113.05	0.809952
1116.42	1.08981
1119.79	0.612755
1123.17	0.517487
1126.54	0.28968
1129.92	0.054459
1133.29	1.19299
1136.67	0.212379
1140.04	0.363792
1143.42	0.948456
1146.79	1.05492
1150.17	1.09716
1153.54	1.45436
1156.92	1.81248
1160.29	1.66682
1163.67	0.992912
1167.04	0.970299
1170.42	1.30538
1173.79	0.641174
1177.17	1.19705
1180.54	1.58888
1183.92	2.05595
1187.29	1.82759
1190.66	0.506203
1194.04	0.628677
1197.41	0.778656
1200.79	0.833549
1204.16	0.789413
1207.54	1.09103
1210.91	1.22369
1214.29	0.690536
1217.66	0.988884
1221.04	0.268181
1224.41	0.288773
1227.79	1.58005
1231.16	1.21072
1234.54	1.1227
1237.91	0.96801
1241.29	0.407288
1244.66	0.73674
1248.04	0.973404
1251.41	1.04275
1254.79	0.388741
1258.16	0.375488
1261.54	1.07886
1264.91	1.13074
1268.29	1.38407
1271.66	1.00478
1275.04	1.22031
1278.41	1.33591
1281.79	0.034241
