Measurement: Raman, 532 nm, unoriented, Raman Data RAW
Mineral: Hydrokenoelsmoreite
Rruff sample: R061044
Ideal chemistry: [box]_2_W^6+^_2_O_6_(H_2_O)
Locality: Hemerdon mine, Sparkwell, Plympton, Devon, England
Source: Michael Scott
Description: Pale orange crust on ferberite with quartz
Raman shift (cm-1)	intensity
132.129	13722.2
135.021	14347
137.914	15240.8
140.807	16872.2
143.7	18825.6
146.592	20803.3
149.485	21860.2
152.378	22405
155.27	22302.9
158.163	22155.2
161.056	21939.8
163.948	21456.7
166.841	21006.8
169.734	20404.7
172.626	20103.8
175.519	19936.6
178.412	20017.4
181.305	20003.8
184.197	20077.7
187.09	20223.4
189.983	20318.7
192.875	20340.2
195.768	20382.6
198.661	20482.5
201.554	20687.9
204.446	20996.2
207.339	21013.5
210.232	21154.9
213.124	21243.8
216.017	21573.4
218.91	21704.5
221.802	21676.7
224.695	22000.4
227.588	22193.4
230.481	22342.7
233.373	22662.8
236.266	22847.3
239.159	23023.5
242.051	23232.5
244.944	23507.2
247.837	23765.3
250.729	23730.6
253.622	23828.8
256.515	24052.9
259.407	24567.7
262.3	25056.2
265.193	25373.2
268.086	25807.4
270.978	26185.1
273.871	26624.9
276.764	27217.7
279.656	27753.5
282.549	28103.2
285.442	28127.3
288.334	28183.3
291.227	27935
294.12	27283.3
297.012	26360.7
299.905	25440.4
302.798	24278.6
305.691	23128.8
308.583	21783.9
311.476	20587.4
314.369	19537.5
317.261	18563.6
320.154	17609.9
323.047	16904.2
325.94	16441.9
328.832	15641.5
331.725	15021.9
334.618	14479.8
337.51	14058.6
340.403	13539.7
343.296	13085.3
346.188	12782.4
349.081	12327.3
351.974	12066.1
354.866	11689.5
357.759	11435
360.652	11210.9
363.545	10971
366.437	10734.3
369.33	10492.6
372.223	10348.9
375.115	10195.1
378.008	10019.9
380.901	9894.76
383.793	9772.9
386.686	9682.9
389.579	9523.68
392.472	9347.1
395.364	9252.14
398.257	9219.69
401.15	9129.27
404.042	9021.1
406.935	8916.69
409.828	8839.85
412.721	8759.5
415.613	8650.21
418.506	8522.45
421.399	8376.07
424.291	8323.63
427.184	8189.14
430.077	8109.34
432.969	8066.68
435.862	7936.52
438.755	7877.42
441.647	7820.29
444.54	7731.06
447.433	7676.91
450.326	7587.44
453.218	7506.93
456.111	7526.24
459.004	7396.82
461.896	7337.3
464.789	7386.52
467.682	7320.25
470.575	7246.11
473.467	7237.29
476.36	7168.57
479.253	7157.1
482.145	7153.06
485.038	7170.86
487.931	7115.57
490.823	7080.22
493.716	7002.21
496.609	7021.44
499.501	6977.97
502.394	7002.29
505.287	6928.7
508.18	6903.86
511.072	6906.17
513.965	6907.56
516.858	6915.29
519.75	6867.44
522.643	6847.02
525.536	6790.7
528.428	6759.46
531.321	6804.16
534.214	6784.34
537.106	6719.47
539.999	6694.09
542.892	6732.29
545.785	6688.68
548.677	6704.53
551.57	6675.74
554.463	6662.62
557.355	6647.47
560.248	6683.29
563.141	6672.16
566.034	6749.18
568.926	6696.38
571.819	6665.77
574.712	6695.61
577.604	6678.07
580.497	6724.69
583.39	6739.15
586.282	6740.07
589.175	6752.72
592.068	6731.97
594.961	6791.04
597.853	6786.36
600.746	6863
603.639	6850.69
606.531	6884.8
609.424	6943.74
612.317	6958.62
615.209	7014.1
618.102	7028.5
620.995	7025.32
623.888	7093.15
626.78	7131.59
629.673	7139.28
632.566	7204.56
635.458	7255.59
638.351	7235.35
641.244	7279.43
644.136	7390.47
647.029	7386.56
649.922	7508.25
652.814	7541.57
655.707	7682.19
658.6	7710.55
661.493	7778.81
664.385	7937.31
667.278	8057.29
670.171	8273.4
673.063	8441.01
675.956	8490.68
678.849	8707.84
681.741	8950.59
684.634	9217.95
687.527	9406.38
690.42	9629.39
693.312	9799.8
696.205	9939.03
699.098	10035.8
701.99	10206.5
704.883	10319.8
707.776	10375.3
710.668	10404
713.561	10492.8
716.454	10494.3
719.347	10583.6
722.239	10520
725.132	10458.4
728.025	10493.7
730.917	10460
733.81	10426.5
736.703	10478.5
739.596	10516.5
742.488	10655.2
745.381	10794.5
748.274	11006
751.166	11222.1
754.059	11557.7
756.952	11946.1
759.844	12296.4
762.737	12801.5
765.63	13433.3
768.522	14224.2
771.415	14951.3
774.308	15750.5
777.201	16652.6
780.093	17627.8
782.986	18593.2
785.879	19506.4
788.771	20369.7
791.664	21019.8
794.557	21434.6
797.449	21552.9
800.342	21677.4
803.235	21485.2
806.128	21313.7
809.02	20755.5
811.913	20365.4
814.806	19578.3
817.698	18917.9
820.591	18068.2
823.484	17208.3
826.376	16380.4
829.269	15555.1
832.162	14752.5
835.054	13883.9
837.947	13240.9
840.84	12581.3
843.733	11901.4
846.625	11342.9
849.518	10875.8
852.411	10395.4
855.303	9897.96
858.196	9656.62
861.089	9386.96
863.981	9103.8
866.874	8955.39
869.767	8722.91
872.66	8642.63
875.552	8474.5
878.445	8277.37
881.338	8054.81
884.23	7871.76
887.123	7697.02
890.016	7431.73
892.908	7170.75
895.801	7040
898.694	6768.45
901.587	6616.9
904.479	6415.72
907.372	6189.92
910.265	6054.04
913.157	5947.77
916.05	5782.42
918.943	5657.9
921.835	5515.68
924.728	5433.21
927.621	5282.73
930.514	5226.08
933.406	5056.21
936.299	4943.76
939.192	4843.2
942.084	4791.59
944.977	4626.58
947.87	4508.71
950.763	4419.03
953.655	4305.01
956.548	4218.45
959.441	4136.97
962.333	4083.49
965.226	3930.61
968.119	3865.42
971.011	3768.63
973.904	3748.38
976.797	3655.59
979.689	3626.99
982.582	3498.12
985.475	3499.12
988.368	3442.75
991.26	3342.31
994.153	3341.39
997.046	3332.12
999.938	3324.25
1002.83	3237.47
1005.72	3180.32
1008.62	3191.8
1011.51	3170.82
1014.4	3145.58
1017.29	3068.91
1020.19	3017.84
1023.08	2972.76
1025.97	2951.72
1028.87	2948.26
1031.76	2904.36
1034.65	2861.26
1037.54	2884.21
1040.44	2826.91
1043.33	2789.61
1046.22	2850.92
1049.11	2751.89
1052.01	2774.05
1054.9	2788.23
1057.79	2782.01
1060.68	2729.93
1063.58	2676.72
1066.47	2651.81
1069.36	2640.63
1072.26	2660.98
1075.15	2629.15
1078.04	2587.7
1080.93	2593.16
1083.83	2593.09
1086.72	2562.53
1089.61	2539.02
1092.51	2567.05
1095.4	2545.07
1098.29	2528.54
1101.18	2546.79
1104.08	2492.8
1106.97	2495.05
1109.86	2465.46
1112.75	2489.54
1115.65	2449.55
1118.54	2424.99
1121.43	2441.76
1124.32	2365.63
1127.22	2422.8
1130.11	2451.7
1133	2407.64
1135.89	2399.91
1138.79	2375.37
1141.68	2366.22
1144.57	2359.06
1147.47	2366.5
1150.36	2309.63
1153.25	2343.97
1156.14	2348.13
1159.04	2311.99
1161.93	2299.79
1164.82	2282.99
1167.71	2284.74
1170.61	2263.79
1173.5	2286.52
1176.39	2265.12
1179.29	2272.35
1182.18	2244.37
1185.07	2228.99
1187.96	2210.06
1190.86	2209.56
1193.75	2222.88
1196.64	2217.68
1199.54	2177.1
1202.43	2174.87
1205.32	2206.76
1208.21	2204.4
1211.11	2182.74
1214	2175.92
1216.89	2176.9
1219.78	2120.44
1222.68	2119.74
1225.57	2149.26
1228.46	2169.06
1231.35	2155.35
1234.25	2127.36
1237.14	2131.54
1240.03	2112.89
1242.92	2124.24
1245.82	2132.9
1248.71	2108.17
1251.6	2113.42
1254.5	2101.54
1257.39	2154.8
1260.28	2095.34
1263.17	2066.32
1266.07	2090.38
1268.96	2105.99
1271.85	2117.3
1274.74	2079.47
1277.64	2091.08
1280.53	2094.06
1283.42	2129.25
1286.32	2065.24
