Measurement: Raman, 785 nm, unoriented, Raman Data RAW
Mineral: Hydroxylbastnasite-(Ce)
Rruff sample: R060283
Ideal chemistry: CeCO_3_(OH)
Locality: Trimouns, Luzenac, France
Source: Herb Obodda
Description: Brown hexagonal tablet
Measured chemistry: (Ce_0.50_Nd_0.24_(La,Pr)_0.23_Y_0.03_)_Σ=1_CO_3_((OH)_0.65_F_0.35_)_Σ=1_
Raman shift (cm-1)	intensity
151.393	1415.06
154.286	1457.92
157.178	1493.95
160.071	1581.2
162.964	1691.74
165.856	1815.39
168.749	1901.03
171.642	1988.98
174.534	2060.53
177.427	2108.01
180.32	2127.22
183.212	2215.51
186.105	2269.08
188.998	2357.47
191.891	2354.35
194.783	2417.96
197.676	2479.26
200.569	2540.91
203.461	2586.64
206.354	2607.15
209.247	2654.63
212.139	2650.25
215.032	2742.84
217.925	2774.66
220.818	2850.62
223.71	2890.75
226.603	2923.92
229.496	2968.52
232.388	2981.27
235.281	3028.83
238.174	3097.92
241.066	3203.95
243.959	3213.42
246.852	3273.88
249.745	3297.47
252.637	3349.49
255.53	3414.12
258.423	3417.81
261.315	3460.23
264.208	3475.04
267.101	3507.09
269.993	3551.34
272.886	3539.53
275.779	3594.33
278.672	3565
281.564	3608.13
284.457	3613.07
287.35	3609.8
290.242	3602.59
293.135	3608.05
296.028	3578.02
298.921	3564.43
301.813	3633.21
304.706	3618.46
307.599	3615.2
310.491	3614.11
313.384	3662.57
316.277	3640.53
319.169	3672.52
322.062	3692.05
324.955	3725.71
327.847	3739.45
330.74	3785.14
333.633	3795.75
336.526	3802.22
339.418	3741.62
342.311	3734.87
345.204	3734.18
348.096	3732.76
350.989	3742.08
353.882	3732.53
356.774	3684.45
359.667	3672.42
362.56	3623.34
365.452	3592.79
368.345	3596.95
371.238	3556.38
374.131	3502.26
377.023	3482.23
379.916	3416
382.809	3380.95
385.701	3305.13
388.594	3251.39
391.487	3200.33
394.38	3149.22
397.272	3070.92
400.165	3013.97
403.058	2981.1
405.95	2895.78
408.843	2869.06
411.736	2806.77
414.628	2768.12
417.521	2680.28
420.414	2632.99
423.307	2633.01
426.199	2607.99
429.092	2594.32
431.985	2570.08
434.877	2596.99
437.77	2608.83
440.663	2555.72
443.555	2612.4
446.448	2633.19
449.341	2634.49
452.234	2659.21
455.126	2708.71
458.019	2681.34
460.912	2728.92
463.804	2765.55
466.697	2734.7
469.59	2731.02
472.483	2730.86
475.375	2706.61
478.268	2698.11
481.161	2666.61
484.053	2647.74
486.946	2635.03
489.839	2610.02
492.731	2608.58
495.624	2574.28
498.517	2534.12
501.409	2498.53
504.302	2486.09
507.195	2427.69
510.088	2429.95
512.98	2383.92
515.873	2326.99
518.766	2288.7
521.658	2283.86
524.551	2279.67
527.444	2243.22
530.337	2250.53
533.229	2232.11
536.122	2202.16
539.015	2178.32
541.907	2166.49
544.8	2157.93
547.693	2148.78
550.585	2121.73
553.478	2082.9
556.371	2116.57
559.263	2116.84
562.156	2067.53
565.049	2068.79
567.942	2053.39
570.834	2027.28
573.727	2000.78
576.62	1997.1
579.512	1994.99
582.405	1981.1
585.298	1948.08
588.19	1942.63
591.083	1908.65
593.976	1879.74
596.869	1865.3
599.761	1823.08
602.654	1777.85
605.547	1775.94
608.439	1728.86
611.332	1719.32
614.225	1671.29
617.117	1668.31
620.01	1641.64
622.903	1584.6
625.795	1570.64
628.688	1553.19
631.581	1514.06
634.474	1496.83
637.366	1441.39
640.259	1450.72
643.152	1415.98
646.044	1382.02
648.937	1383.17
651.83	1344.03
654.722	1339.64
657.615	1285.04
660.508	1240.79
663.401	1230.9
666.293	1196.53
669.186	1180.41
672.079	1156.4
674.971	1120.98
677.864	1109.56
680.757	1080.9
683.649	1047.12
686.542	1033
689.435	1001.48
692.328	936.124
695.22	907.36
698.113	870.526
701.006	858.104
703.898	823.315
706.791	792.231
709.684	776.945
712.577	748.47
715.469	767.459
718.362	766.1
721.255	790.556
724.147	816.658
727.04	851.438
729.933	838.058
732.825	722.987
735.718	700.558
738.611	659.769
741.504	626.324
744.396	613.554
747.289	603.249
750.182	597.462
753.074	595.068
755.967	606.186
758.86	586.022
761.752	593.554
764.645	603.91
767.538	589.143
770.431	591.654
773.323	590.364
776.216	602.061
779.109	608.781
782.001	607.182
784.894	599.225
787.787	637.081
790.679	617.461
793.572	625.349
796.465	637.81
799.357	646.304
802.25	655.777
805.143	687.462
808.036	679.093
810.928	683.094
813.821	699.199
816.714	703.328
819.606	713.123
822.499	725.616
825.392	744.865
828.284	769.437
831.177	789.511
834.07	811.568
836.963	802.958
839.855	850.395
842.748	847.484
845.641	862.445
848.533	904.06
851.426	915.948
854.319	932.051
857.212	954.603
860.104	987.792
862.997	1018.42
865.89	1055.99
868.782	1103.66
871.675	1124.8
874.568	1143.07
877.46	1178.98
880.353	1234.04
883.246	1277.15
886.139	1324.11
889.031	1380.65
891.924	1418.65
894.817	1453.72
897.709	1526.8
900.602	1546.22
903.495	1609.17
906.388	1661.94
909.28	1706.26
912.173	1725.09
915.066	1778.24
917.958	1760.49
920.851	1803.64
923.744	1854.85
926.636	1877.67
929.529	1912.74
932.422	1938.9
935.314	1973.01
938.207	2011.35
941.1	2057.03
943.993	2124.1
946.885	2163.96
949.778	2214.49
952.671	2286.15
955.563	2368.26
958.456	2389.86
961.349	2502.87
964.241	2561.66
967.134	2613.24
970.027	2726.54
972.92	2772.89
975.812	2860.15
978.705	2943.82
981.598	3005.42
984.49	3088.8
987.383	3149.6
990.276	3212.21
993.168	3281.92
996.061	3357.39
998.954	3387.38
1001.85	3463.92
1004.74	3515.99
1007.63	3562.38
1010.52	3664.66
1013.42	3677.81
1016.31	3825.28
1019.2	3913.01
1022.1	3965.57
1024.99	4131.8
1027.88	4282.15
1030.77	4353.7
1033.67	4524.42
1036.56	4696.23
1039.45	4813.15
1042.34	5031.66
1045.24	5233.75
1048.13	5463.28
1051.02	5725.84
1053.91	5926.35
1056.81	6179.45
1059.7	6474.62
1062.59	6774.21
1065.49	7045.78
1068.38	7341.31
1071.27	7809.07
1074.16	8321.11
1077.06	8933.85
1079.95	9528.6
1082.84	9843.92
1085.73	10255.1
1088.63	10736.8
1091.52	11210.5
1094.41	11806.1
1097.31	12606.3
1100.2	13526.5
1103.09	14327.7
1105.98	15250
1108.88	16638.8
1111.77	18275.6
1114.66	20262.3
1117.56	22813.6
1120.45	25817.3
1123.34	29332.5
1126.23	33645.1
1129.12	38283
1132.02	43526.4
1134.91	49464.2
1137.8	55447.3
1140.7	61392.2
1143.59	66838.1
