Measurement: Raman, 785 nm, unoriented, Raman Data RAW
Mineral: Hydrokenoelsmoreite
Rruff sample: R061044
Ideal chemistry: [box]_2_W^6+^_2_O_6_(H_2_O)
Locality: Hemerdon mine, Sparkwell, Plympton, Devon, England
Source: Michael Scott
Description: Pale orange crust on ferberite with quartz
Raman shift (cm-1)	intensity
144.187	5364.86
147.08	6648.11
149.973	7285.51
152.865	7491.82
155.758	7474.99
158.651	7529.48
161.543	7706.39
164.436	7657.29
167.329	7410.17
170.221	7044.05
173.114	6748.33
176.007	6492.48
178.9	6486.4
181.792	6569.72
184.685	6625.39
187.578	6856.97
190.47	7061.58
193.363	7241.15
196.256	7522.93
199.149	7803.86
202.041	8068.11
204.934	8353.79
207.827	8533.23
210.719	8715.12
213.612	8821.24
216.505	9028.66
219.397	9188.21
222.29	9342.42
225.183	9423.12
228.076	9417.77
230.968	9420.95
233.861	9531.82
236.754	9613.04
239.646	9784.91
242.539	9995.52
245.432	10195.7
248.324	10499.1
251.217	10856.1
254.11	11148.9
257.002	11317.9
259.895	11445.8
262.788	11474.8
265.681	11426.9
268.573	11342.6
271.466	11390.3
274.359	11640.3
277.251	11927.3
280.144	12254.6
283.037	12244.4
285.93	12296.8
288.822	12197.2
291.715	12347.2
294.608	12597
297.5	13166
300.393	14060.7
303.286	14803.3
306.178	15253.2
309.071	14640.9
311.964	13141.1
314.856	11800
317.749	10807.8
320.642	10143
323.535	9667.51
326.427	9343.05
329.32	8949.9
332.213	8525.34
335.105	8067.8
337.998	7626.06
340.891	7189.47
343.783	6887.28
346.676	6579.75
349.569	6298.26
352.462	6073.62
355.354	5824.35
358.247	5593.84
361.14	5365.74
364.032	5195.42
366.925	5014.78
369.818	4890.07
372.71	4753.8
375.603	4630.01
378.496	4525.15
381.389	4435.21
384.281	4285.2
387.174	4185.05
390.067	4132.35
392.959	4096.52
395.852	4080.69
398.745	4079.14
401.637	4073.04
404.53	4108.58
407.423	4159.83
410.315	4288.86
413.208	4249.34
416.101	4338.08
418.994	4236.41
421.886	4123.28
424.779	3931.16
427.672	3732.57
430.564	3617.24
433.457	3493.11
436.35	3387.72
439.243	3309.12
442.135	3265.28
445.028	3249.23
447.921	3150.5
450.813	3112.64
453.706	3039.84
456.599	2995.69
459.491	2964.54
462.384	2917.23
465.277	2907.56
468.17	2845.52
471.062	2810.16
473.955	2756.19
476.848	2765.59
479.74	2721.7
482.633	2687.54
485.526	2652.9
488.418	2620.65
491.311	2580.51
494.204	2587.64
497.096	2569.21
499.989	2574.9
502.882	2544.63
505.775	2541.41
508.667	2530.11
511.56	2547.26
514.453	2576.43
517.345	2563.77
520.238	2544.52
523.131	2549.71
526.024	2540.83
528.916	2501.05
531.809	2437.3
534.702	2434.17
537.594	2432
540.487	2437.23
543.38	2428.12
546.272	2371.16
549.165	2391.69
552.058	2333.47
554.951	2341.45
557.843	2330.74
560.736	2324.06
563.629	2308.58
566.521	2342.72
569.414	2305.04
572.307	2336.03
575.199	2334.69
578.092	2385.55
580.985	2408.2
583.877	2451.8
586.77	2467.43
589.663	2477.82
592.556	2477.9
595.448	2555.72
598.341	2541.2
601.234	2536.23
604.126	2551.03
607.019	2580.26
609.912	2577.28
612.804	2564.06
615.697	2582.03
618.59	2607.28
621.482	2610.8
624.375	2618.72
627.268	2653.57
630.161	2680.37
633.053	2695.16
635.946	2753.68
638.839	2782.48
641.731	2837.98
644.624	2878.48
647.517	2931.82
650.409	3003.09
653.302	3058.12
656.195	3186.94
659.088	3258.95
661.98	3305.08
664.873	3469.01
667.766	3609.22
670.658	3755.25
673.551	3966.29
676.444	4145.33
679.337	4418.15
682.229	4696.39
685.122	4965.8
688.015	5288.27
690.907	5615.3
693.8	5950.19
696.693	6266.05
699.585	6481.75
702.478	6617.72
705.371	6725.25
708.264	6726.73
711.156	6798.52
714.049	6866.57
716.942	7018.02
719.834	7114.09
722.727	7155.38
725.62	7164
728.512	7108.8
731.405	6858.52
734.298	6637.54
737.191	6524.22
740.083	6361.38
742.976	6278.61
745.869	6238.74
748.761	6289.46
751.654	6271.95
754.547	6366.07
757.439	6545.27
760.332	6603.91
763.225	6860.95
766.117	7042.16
769.01	7334.96
771.903	7567.18
774.796	7830.06
777.688	8183.3
780.581	8603.54
783.474	9073.53
786.366	9623.6
789.259	10050.9
792.152	10315
795.044	10225.7
797.937	9982.25
800.83	9580.87
803.723	9195.22
806.615	8948.82
809.508	8755.17
812.401	8678.59
815.293	8679.86
818.186	8615.3
821.079	8455.32
823.971	8183.22
826.864	7902.78
829.757	7596.57
832.65	7239.66
835.542	6789.25
838.435	6459.6
841.328	6095.69
844.22	5853.22
847.113	5533.31
850.006	5330.52
852.899	5066.28
855.791	4870.08
858.684	4678.54
861.577	4503.66
864.469	4389.4
867.362	4284.12
870.255	4236.48
873.147	4247.91
876.04	4228.35
878.933	4230.63
881.825	4110.61
884.718	3926.63
887.611	3660.82
890.504	3460
893.396	3307.92
896.289	3164.91
899.182	3033.58
902.074	2970.3
904.967	2892.15
907.86	2819.3
910.752	2734.87
913.645	2626.2
916.538	2568.4
919.431	2488.17
922.323	2452.1
925.216	2395.33
928.109	2347.61
931.001	2300.66
933.894	2264.02
936.787	2191.94
939.679	2164
942.572	2108.65
945.465	2117.87
948.357	2038.99
951.25	2039.1
954.143	1970.01
957.036	1900.13
959.928	1898.57
962.821	1833.67
965.714	1756.09
968.606	1716.56
971.499	1658.83
974.392	1627.51
977.284	1578.81
980.177	1498.38
983.07	1420.77
985.963	1407.3
988.855	1339.95
991.748	1286.82
994.641	1275.85
997.533	1270.91
1000.43	1233.02
1003.32	1214.79
1006.21	1196.32
1009.1	1180
1012	1156.92
1014.89	1141.1
1017.78	1107.92
1020.67	1136.5
1023.57	1116.13
1026.46	1090.52
1029.35	1096.8
1032.25	1065.62
1035.14	1067.51
1038.03	1058.58
1040.92	1046.01
1043.82	1041.25
1046.71	1042.71
1049.6	1025.73
1052.49	1005.41
1055.39	1007.32
1058.28	1041.92
1061.17	1022.21
1064.07	1038.06
1066.96	1018
1069.85	985.929
1072.74	1005.26
1075.64	1010.77
1078.53	1018.43
1081.42	994.275
1084.31	985.05
1087.21	1012.65
1090.1	991.483
1092.99	963.501
1095.88	1008.95
1098.78	969.265
1101.67	996.801
1104.56	979.497
1107.46	996.009
1110.35	980.067
1113.24	987.372
1116.13	979.54
1119.03	981.602
1121.92	959.572
1124.81	973.544
1127.7	979.935
1130.6	966.533
1133.49	973.872
1136.38	989.431
1139.28	969.213
1142.17	981.431
1145.06	952.595
1147.95	992.833
1150.85	972.244
1153.74	983.748
1156.63	968.907
1159.53	989.622
1162.42	996.375
1165.31	1005.52
1168.2	1009.66
1171.1	1010.03
1173.99	994.899
1176.88	1004.77
1179.77	1026.46
1182.67	1031.37
1185.56	1035.7
1188.45	1066.6
1191.34	1057.59
1194.24	1071.29
1197.13	1090.47
1200.02	1084.96
1202.91	1088.93
1205.81	1081.57
1208.7	1075.88
1211.59	1101.66
1214.49	1155.94
1217.38	1165.95
1220.27	1128.88
1223.16	1116.05
1226.06	1141.15
1228.95	1134.33
1231.84	1159.96
1234.73	1138.89
1237.63	1143.1
1240.52	1161.17
1243.41	1173.92
1246.31	1202.74
1249.2	1206.64
1252.09	1193.58
1254.98	1222.46
1257.88	1228.96
1260.77	1265.13
1263.66	1273.02
