Measurement: Raman, 532 nm, unoriented, Raman Data Processed
Mineral: Hydroxylapatite
Rruff sample: R130713
Ideal chemistry: Ca_5_(P^5+^O_4_)_3_OH
Locality: Wessels mine, Kalahari manganese field, Northern Cape Province, South Africa
Source: Robert Lavinsky
Description: Transparent pale green hexagonal tablets
Raman shift (cm-1)	intensity
153.423	0
156.315	10.3561
159.208	3.74536
162.101	1.48645
164.993	3.00781
167.886	6.09625
170.779	8.10211
173.672	3.552
176.564	4.33441
179.457	2.18903
182.35	0.964417
185.242	0.436279
188.135	1.03534
191.028	1.12756
193.92	2.29254
196.813	5.63287
199.706	7.44501
202.599	12.895
205.491	15.9643
208.384	21.6309
211.277	17.555
214.169	12.9772
217.062	13.8609
219.955	13.5513
222.847	14.9515
225.74	18.4187
228.633	22.6293
231.525	16.9835
234.418	19.8105
237.311	17.6965
240.204	19.7733
243.096	18.6882
245.989	7.67389
248.882	4.29932
251.774	2.49396
254.667	0.958557
257.56	12.3685
260.452	7.73492
263.345	14.049
266.238	19.6209
269.131	21.7196
272.023	28.5751
274.916	31.0328
277.809	32.4435
280.701	36.4204
283.594	32.2544
286.487	35.3733
289.38	32.0957
292.272	29.1266
295.165	20.5471
298.058	13.4554
300.95	8.35681
303.843	9.15576
306.736	7.24658
309.628	9.823
312.521	6.21204
315.414	7.4397
318.307	11.5964
321.199	12.4113
324.092	14.8849
326.985	20.4008
329.877	26.7614
332.77	26.6589
335.663	27.8799
338.555	23.5653
341.448	17.6315
344.341	12.5173
347.233	8.98389
350.126	3.99622
353.019	0.164917
355.912	1.10327
358.804	2.60144
361.697	3.15942
364.59	0.668335
367.482	3.02917
370.375	2.39282
373.268	0.144287
376.161	0.225952
379.053	4.83594
381.946	5.16931
384.839	6.5929
387.731	4.42114
390.624	0.254883
393.517	0.435791
396.409	5.56653
399.302	10.4917
402.195	12.1285
405.087	20.3816
407.98	22.1743
410.873	37.4305
413.766	66.5944
416.658	104.889
419.551	148.364
422.444	201.378
425.336	266.506
428.229	339.341
431.122	374.668
434.014	342.289
436.907	297.934
439.8	284.605
442.693	297.818
445.585	308.41
448.478	289.755
451.371	241.585
454.263	177.088
457.156	124.916
460.049	88.1914
462.942	63.7133
465.834	45.3851
468.727	37.8423
471.62	28.8425
474.512	23.1382
477.405	17.3896
480.298	9.99463
483.19	12.979
486.083	15.584
488.976	10.1249
491.868	6.73193
494.761	4.98816
497.654	4.48071
500.547	1.77344
503.439	0.869629
506.332	3.37329
509.225	3.23596
512.117	3.97192
515.01	2.74853
517.903	3.56494
520.795	3.75842
523.688	1.9635
526.581	0.903564
529.474	2.77502
532.366	0.400146
535.259	2.28357
538.152	0.570923
541.044	0.684326
543.937	1.31689
546.83	6.50659
549.722	9.06873
552.615	6.28308
555.508	8.13611
558.401	12.7406
561.293	24.0281
564.186	43.2715
567.079	73.3889
569.971	106.075
572.864	148.746
575.757	227.845
578.649	330.51
581.542	387.678
584.435	262.209
587.328	200.873
590.22	221.615
593.113	208.327
596.006	109.707
598.898	69.793
601.791	77.9043
604.684	97.0625
607.577	127.001
610.469	112.154
613.362	94.2711
616.255	92.2719
619.147	63.4465
622.04	20.7692
624.933	5.76465
627.825	2.24573
630.718	2.75403
633.611	4.04138
636.504	1.38367
639.396	0.131104
642.289	0.776733
645.182	2.41065
648.074	7.5354
650.967	5.80579
653.86	4.73242
656.752	0.4021
659.645	2.73999
662.538	3.62073
665.431	3.56152
668.323	3.97571
671.216	6.27661
674.109	4.40942
677.001	0.802246
679.894	0.773438
682.787	0.38147
685.679	0.720947
688.572	2.50073
691.465	4.92432
694.357	2.72937
697.25	0.335327
700.143	0.402954
703.036	3.31616
705.928	5.64404
708.821	5.24683
711.714	9.40234
714.606	8.05078
717.499	6.33276
720.392	7.68506
723.284	9.03857
726.177	13.4338
729.07	10.3972
731.963	9.37293
734.855	9.58252
737.748	7.40979
740.641	8.33301
743.533	11.2794
746.426	11.5674
749.319	12.0386
752.212	15.8547
755.104	10.4836
757.997	7.45764
760.89	3.83838
763.782	6.02881
766.675	3.823
769.568	5.53735
772.46	7.44629
775.353	1.74036
778.246	2.07153
781.139	2.75854
784.031	1.70764
786.924	2.13525
789.817	8.06384
792.709	0.05542
795.602	1.32788
798.495	0.774292
801.388	2.50952
804.28	3.8512
807.173	8.42944
810.066	7.47082
812.958	3.2489
815.851	5.29748
818.744	4.61438
821.636	7.94202
824.529	2.51758
827.422	1.53577
830.314	1.06775
833.207	0.994751
836.1	1.71399
838.993	5.50122
841.885	17.8138
844.778	24.0117
847.671	36.1888
850.563	49.7825
853.456	63.3066
856.349	70.7162
859.241	60.2029
862.134	51.843
865.027	44.416
867.92	37.2841
870.812	37.7522
873.705	31.5373
876.598	29.9465
879.49	24.5619
882.383	19.4061
885.276	9.56628
888.168	8.22461
891.061	7.25171
893.954	8.55615
896.847	3.79468
899.739	4.45862
902.632	0.093506
905.525	1.72693
908.417	2.16418
911.31	0.782104
914.203	3.64905
917.096	0.781616
919.988	0.44812
922.881	6.92383
925.774	7.43384
928.666	8.7793
931.559	11.628
934.452	15.8957
937.344	26.8541
940.237	40.184
943.13	71.1842
946.023	127.344
948.915	247.602
951.808	579.816
954.701	989.665
957.593	1574.65
960.486	2760.11
963.379	3797.06
966.271	2304.65
969.164	903.226
972.057	388.208
974.949	152.13
977.842	67.4196
980.735	35.514
983.628	18.0447
986.52	13.8354
989.413	8.74463
992.306	1.2511
995.198	0.05603
998.091	0.880981
1000.98	1.72705
1003.88	0.737061
1006.77	1.60754
1009.66	4.15356
1012.55	4.85205
1015.45	14.1575
1018.34	30.5049
1021.23	63.3149
1024.12	100.034
1027.02	174.856
1029.91	236.44
1032.8	208.219
1035.7	174.807
1038.59	199.943
1041.48	225.933
1044.37	205.553
1047.27	183.504
1050.16	185.797
1053.05	182.992
1055.94	191.016
1058.84	160.927
1061.73	95.324
1064.62	54.4265
1067.52	34.3855
1070.41	35.1671
1073.3	36.7786
1076.19	55.6338
1079.09	50.6027
1081.98	23.1035
1084.87	10.5055
1087.77	8.89075
1090.66	5.59106
1093.55	0.503906
1096.44	2.12451
1099.34	0.176147
1102.23	1.78308
1105.12	1.40027
1108.01	1.11987
1110.91	7.18543
1113.8	2.74036
1116.69	4.68994
1119.58	5.62061
1122.48	9.70996
1125.37	5.19324
1128.26	1.85669
1131.15	0.779053
1134.05	1.12708
1136.94	2.95911
1139.83	9.28357
1142.73	9.11426
1145.62	5.646
1148.51	4.38647
1151.4	7.36194
1154.3	12.8405
1157.19	13.4109
1160.08	12.5832
1162.97	8.28882
1165.87	3.51904
1168.76	6.40649
1171.65	6.0437
1174.55	7.01343
1177.44	8.99902
1180.33	6.01733
1183.22	5.28223
1186.12	4.82178
1189.01	7.43408
1191.9	8.8794
1194.8	8.9895
1197.69	6.54614
1200.58	7.06128
1203.47	5.59814
1206.37	6.09814
1209.26	5.88403
1212.15	9.34644
1215.04	8.84082
1217.94	6.0188
1220.83	9.15869
1223.72	4.93481
1226.61	6.1084
1229.51	4.38696
1232.4	2.04883
1235.29	0.310059
1238.18	0.453613
1241.08	4.43408
1243.97	2.88086
1246.86	3.25537
1249.76	5.34912
1252.65	4.87476
1255.54	5.86987
1258.43	4.34521
1261.33	3.51538
1264.22	2.02832
1267.11	2.52856
1270.01	1.55786
1272.9	1.86157
1275.79	0.295654
1278.68	5.01392
1281.58	4.41186
1284.47	10.6838
1287.36	5.51514
1290.25	5.8916
1293.15	9.10645
1296.04	0.337891
1298.93	1.64356
1301.83	0
