Measurement: Raman, 780 nm, unoriented, Raman Data Processed
Mineral: Hydroxylapatite
Rruff sample: R130713
Ideal chemistry: Ca_5_(P^5+^O_4_)_3_OH
Locality: Wessels mine, Kalahari manganese field, Northern Cape Province, South Africa
Source: Robert Lavinsky
Description: Transparent pale green hexagonal tablets
Raman shift (cm-1)	intensity
153.753	0
156.646	4.14096
159.538	1.07083
162.431	0.481094
165.324	3.11883
168.216	2.69891
171.109	3.31085
174.002	4.50096
176.894	2.72713
179.787	2.43124
182.68	1.20609
185.573	0.182251
188.465	0.57196
191.358	0.57663
194.251	0.133102
197.143	2.67139
200.036	2.9025
202.929	4.89375
205.821	6.92381
208.714	6.68987
211.607	3.47871
214.5	2.55435
217.392	2.6859
220.285	3.76106
223.178	5.43553
226.07	7.84912
228.963	9.04088
231.856	10.9621
234.749	12.4134
237.641	11.8424
240.534	12.1117
243.427	9.05794
246.319	6.37363
249.212	4.4476
252.105	2.28966
254.997	2.03166
257.89	2.79494
260.783	5.16222
263.675	6.80516
266.568	7.7484
269.461	6.17824
272.354	5.12198
275.246	4.01356
278.139	4.34894
281.032	2.78633
283.924	4.12952
286.817	2.71637
289.71	3.86169
292.602	2.80051
295.495	2.83203
298.388	1.17796
301.281	1.20244
304.173	1.09697
307.066	1.76909
309.959	1.78215
312.851	3.51295
315.744	3.67519
318.637	6.0672
321.529	7.30975
324.422	8.44591
327.315	10.3767
330.207	11.9361
333.1	13.1919
335.993	14.0669
338.886	10.2977
341.778	7.61714
344.671	6.01063
347.564	3.39358
350.456	3.03134
353.349	0.423233
356.242	0.758667
359.135	0.884445
362.027	0.721268
364.92	0.56163
367.813	0.426117
370.705	0.637253
373.598	0.500214
376.491	0.363541
379.383	1.01186
382.276	0.263275
385.169	0.08017
388.062	1.1198
390.954	1.5948
393.847	2.17333
396.74	2.97128
399.632	3.40019
402.525	4.04442
405.418	5.76395
408.31	8.18466
411.203	11.8657
414.096	18.3118
416.988	23.6825
419.881	34.8193
422.774	49.1068
425.667	66.9443
428.559	85.0278
431.452	95.8672
434.345	90.8792
437.237	87.3779
440.13	91.4481
443.023	101.473
445.915	107.394
448.808	102.612
451.701	85.413
454.594	62.6757
457.486	44.3613
460.379	31.415
463.272	23.2211
466.164	16.5045
469.057	11.6805
471.95	10.3018
474.842	7.86784
477.735	6.62771
480.628	6.74082
483.521	5.35637
486.413	2.68127
489.306	3.13423
492.199	1.59287
495.091	1.94949
497.984	0.858261
500.877	0.033798
503.769	0.585197
506.662	0.035728
509.555	0.124832
512.447	0.181351
515.34	1.22605
518.233	0.329018
521.126	1.08379
524.018	0.339432
526.911	0.772926
529.804	0.406685
532.696	0.150238
535.589	0.071106
538.482	0.66391
541.375	0.944717
544.267	0.561897
547.16	0.527061
550.053	0.839394
552.945	1.62505
555.838	3.13493
558.731	4.01554
561.623	7.38744
564.516	11.9902
567.409	20.435
570.302	28.4892
573.194	43.4459
576.087	67.9745
578.98	103.728
581.872	106.645
584.765	68.2783
587.658	53.4995
590.55	61.236
593.443	55.1803
596.336	33.2402
599.229	29.9987
602.121	33.1776
605.014	48.8778
607.907	57.7924
610.799	43.6767
613.692	31.2017
616.585	29.3653
619.477	16.7115
622.37	6.42335
625.263	1.52905
628.155	0.151588
631.048	0.20237
633.941	0.854179
636.833	0.109116
639.726	0.299957
642.619	0.629509
645.512	0.221062
648.404	0.176598
651.297	0.848091
654.19	0.03849
657.082	0.949501
659.975	0.687874
662.868	1.16253
665.76	0.760689
668.653	0.783768
671.546	0.566658
674.439	0.409531
677.331	0.518036
680.224	0.842033
683.117	0.276665
686.009	0.544167
688.902	1.78391
691.795	1.48926
694.688	0.306877
697.58	0.442619
700.473	1.75113
703.366	0.053055
706.258	0.226028
709.151	1.24171
712.044	0.674217
714.936	0.347038
717.829	1.12399
720.722	0.960182
723.614	0.246071
726.507	0.358543
729.4	0.824699
732.293	0.413521
735.185	1.20736
738.078	0.112419
740.971	0.113625
743.863	0.006561
746.756	0.02224
749.649	1.2308
752.541	0.726578
755.434	0.72863
758.327	0.29924
761.22	0.046867
764.112	0.382553
767.005	0.035072
769.898	1.36671
772.79	0.663307
775.683	0.123428
778.576	0.640541
781.468	1.06763
784.361	1.07316
787.254	1.36825
790.146	0.835777
793.039	0.965157
795.932	1.97995
798.825	1.1494
801.717	1.42027
804.61	1.25484
807.503	1.26952
810.395	1.723
813.288	1.16127
816.181	1.45081
819.073	1.97323
821.966	1.92945
824.859	1.29249
827.752	2.00531
830.644	2.04073
833.537	1.71825
836.43	3.55303
839.322	4.91354
842.215	7.21768
845.108	10.5796
848	14.574
850.893	19.7379
853.786	26.4373
856.679	24.8359
859.571	19.9453
862.464	15.5696
865.357	12.8445
868.249	11.151
871.142	10.5388
874.035	8.83348
876.927	8.44363
879.82	8.65532
882.713	7.17506
885.606	4.47421
888.498	3.37979
891.391	1.72389
894.284	1.34994
897.176	0.09359
900.069	0.299019
902.962	0.78875
905.854	0.128975
908.747	0.320534
911.64	0.348091
914.533	0.199196
917.425	0.415695
920.318	0.71698
923.211	0.928482
926.103	1.91852
928.996	2.77937
931.889	3.60807
934.781	6.27328
937.674	10.2295
940.567	17.4362
943.46	26.7961
946.352	47.6168
949.245	98.5136
952.138	183.238
955.03	297.637
957.923	553.172
960.816	1030.7
963.708	1245.07
966.601	669.086
969.494	271.746
972.386	111.233
975.279	44.0745
978.172	19.1502
981.065	9.96729
983.957	6.13877
986.85	3.46275
989.743	1.77224
992.635	0.667397
995.528	0.20343
998.421	0.377228
1001.31	0.230408
1004.21	0.377037
1007.1	0.161911
1009.99	0.535393
1012.88	0.555908
1015.78	3.94457
1018.67	6.69757
1021.56	12.8275
1024.45	23.3342
1027.35	39.7522
1030.24	49.2807
1033.13	38.6975
1036.03	31.6648
1038.92	35.1544
1041.81	39.5079
1044.7	36.6031
1047.6	35.883
1050.49	38.4788
1053.38	38.5482
1056.28	41.7185
1059.17	32.758
1062.06	19.9882
1064.95	12.4773
1067.85	9.65433
1070.74	9.17519
1073.63	11.7706
1076.52	19.8833
1079.42	15.4781
1082.31	7.29868
1085.2	3.30079
1088.09	1.69929
1090.99	0.84153
1093.88	0.071678
1096.77	0.490402
1099.66	0.003151
1102.56	0.338821
1105.45	0.294113
1108.34	0.508141
1111.24	0.295517
1114.13	0.031754
1117.02	0.576057
1119.91	0.480583
1122.81	0.686821
1125.7	1.36424
1128.59	1.61288
1131.48	2.8383
1134.38	2.45372
1137.27	2.52599
1140.16	3.69984
1143.06	2.42256
1145.95	3.29717
1148.84	3.38463
1151.73	3.53803
1154.63	4.38392
1157.52	4.22269
1160.41	4.37831
1163.31	5.53625
1166.2	4.83327
1169.09	5.64661
1171.98	5.67052
1174.88	5.99538
1177.77	5.54222
1180.66	4.81692
1183.55	6.25492
1186.45	6.26399
1189.34	6.00909
1192.23	5.57173
1195.12	5.87033
1198.02	5.96746
1200.91	5.45515
1203.8	5.077
1206.69	4.48434
1209.59	3.41426
1212.48	2.8808
1215.37	2.52611
1218.27	1.58555
1221.16	1.38483
1224.05	0.201904
1226.94	0.387573
1229.84	0.124084
1232.73	0.251389
1235.62	0.436295
1238.52	0.689667
1241.41	0.570122
1244.3	2.34348
1247.19	3.22118
1250.09	4.19547
1252.98	6.35648
1255.87	8.07661
1258.76	8.29681
1261.66	8.33991
1264.55	9.20399
1267.44	7.36458
1270.33	6.61198
1273.23	4.95485
1276.12	2.20786
1279.01	1.10016
1281.9	0.817596
1284.8	0
