Measurement: Raman, 532 nm, unoriented, Raman Data RAW
Mineral: Ilmenite
Rruff sample: R060149
Ideal chemistry: Fe^2+^Ti^4+^O_3_
Locality: Faraday Property, Bancroft District, Ontario, Canada
Source: Marcus Origlieri
Description: Black thick tabular crystal
Measured chemistry: Fe^2+^_0.96_Mn_0.07_Mg_0.01_Ti_0.98_O_3_
Raman shift (cm-1)	intensity
89.7816	0
93.1564	18.9405
96.5312	18.4633
99.906	16.9066
103.281	16.3344
106.656	16.0611
110.031	16.1682
113.405	14.555
116.78	13.438
120.155	13.2278
123.53	18.0271
126.905	15.6722
130.279	17.6358
133.654	18.7169
137.029	25.3292
140.404	27.954
143.779	28.3909
147.154	31.2348
150.528	34.322
153.903	35.5679
157.278	32.8683
160.653	33.1302
164.028	32.6018
167.402	33.1599
170.777	31.999
174.152	32.325
177.527	30.8007
180.902	30.7298
184.277	30.7207
187.651	30.8326
191.026	30.0796
194.401	30.1771
197.776	30.1167
201.151	29.3537
204.525	30.0304
207.9	28.8223
211.275	29.6286
214.65	29.0651
218.025	30.2959
221.4	31.0652
224.774	31.8624
228.149	31.8445
231.524	31.9584
234.899	31.3235
238.274	31.4909
241.649	31.8467
245.023	30.0222
248.398	30.5174
251.773	31.3953
255.148	29.1121
258.523	28.4723
261.897	26.4712
265.272	25.9154
268.647	25.3672
272.022	25.4266
275.397	24.6465
278.772	24.6331
282.146	23.9154
285.521	24.4872
288.896	25.0519
292.271	24.5299
295.646	24.8521
299.02	25.1755
302.395	24.7914
305.77	24.9991
309.145	25.171
312.52	25.2252
315.895	26.5351
319.269	27.9602
322.644	26.0234
326.019	28.923
329.394	28.6299
332.769	26.8381
336.144	25.4702
339.518	24.9158
342.893	23.5
346.268	22.8289
349.643	22.5442
353.018	22.5439
356.392	22.7014
359.767	21.9633
363.142	22.7301
366.517	25.0506
369.892	24.744
373.267	23.0629
376.641	22.0473
380.016	21.3131
383.391	21.0438
386.766	21.8768
390.141	19.6097
393.515	20.3965
396.89	20.2151
400.265	20.7134
403.64	20.5312
407.015	21.208
410.39	19.414
413.764	19.9241
417.139	19.8346
420.514	20.1099
423.889	19.6129
427.264	20.5442
430.639	20.3187
434.013	20.7801
437.388	20.3626
440.763	21.1832
444.138	21.1424
447.513	20.5713
450.887	21.1462
454.262	21.3032
457.637	20.6755
461.012	19.2953
464.387	18.4576
467.762	19.0952
471.136	17.7952
474.511	18.5689
477.886	18.4825
481.261	18.1147
484.636	18.852
488.01	17.6634
491.385	17.9537
494.76	18.2269
498.135	16.6319
501.51	17.3982
504.885	18.0183
508.259	18.2073
511.634	17.8357
515.009	17.6782
518.384	17.8617
521.759	17.9087
525.134	17.1162
528.508	18.5335
531.883	18.195
535.258	18.091
538.633	17.5861
542.008	18.5704
545.382	17.436
548.757	18.4269
552.132	18.0692
555.507	18.317
558.882	19.5161
562.256	19.1976
565.631	19.8289
569.006	18.5885
572.381	19.5719
575.756	19.7504
579.131	20.7874
582.505	20.0744
585.88	21.584
589.255	20.1724
592.63	20.9477
596.005	20.55
599.38	20.7038
602.754	20.9389
606.129	20.4737
609.504	21.3443
612.879	20.7373
616.254	20.2504
619.629	21.7841
623.003	20.5543
626.378	22.648
629.753	21.8822
633.128	22.2655
636.503	23.5957
639.877	23.9469
643.252	24.3626
646.627	24.3779
650.002	25.3801
653.377	26.0939
656.751	28.4556
660.126	29.8491
663.501	31.7274
666.876	34.3744
670.251	37.1509
673.626	38.9674
677	40.6885
680.375	41.5463
683.75	38.4275
687.125	36.2768
690.5	33.9813
693.875	32.6263
697.249	30.3672
700.624	28.6048
703.999	26.4104
707.374	26.2953
710.749	24.489
714.124	25.9719
717.498	25.2887
720.873	24.7184
724.248	23.5541
727.623	22.8196
730.998	22.9804
734.372	23.2494
737.747	22.714
741.122	22.3895
744.497	22.4657
747.872	22.2618
751.246	21.0419
754.621	21.6851
757.996	20.5434
761.371	21.0277
764.746	21.3756
768.121	21.3153
771.495	21.4397
774.87	20.6213
778.245	20.784
781.62	20.5538
784.995	21.7723
788.37	20.2258
791.744	20.6632
795.119	21.4981
798.494	20.7284
801.869	20.9086
805.244	21.3237
808.619	21.2953
811.993	20.7059
815.368	21.4886
818.743	20.9063
822.118	20.7487
825.493	20.6841
828.867	20.3643
832.242	21.2956
835.617	22.5743
838.992	20.5642
842.367	21.3644
845.741	21.1876
849.116	21.3356
852.491	20.8491
855.866	20.6284
859.241	20.6844
862.616	21.0202
865.99	19.2768
869.365	20.0571
872.74	19.8932
876.115	19.1366
879.49	18.6364
882.865	18.3241
886.239	18.7049
889.614	17.4957
892.989	17.656
896.364	18.1366
899.739	17.1607
903.113	17.6791
906.488	16.1424
909.863	16.7687
913.238	16.1525
916.613	16.654
919.987	17.2146
923.362	15.8175
926.737	14.6229
930.112	15.6569
933.487	16.4755
936.862	16.116
940.236	15.5131
943.611	14.7244
946.986	15.6099
950.361	14.6407
953.736	15.3865
957.111	16.0752
960.485	14.7701
963.86	15.9265
967.235	15.0532
970.61	14.8685
973.985	14.9597
977.36	15.7522
980.734	16.0595
984.109	15.071
987.484	15.9422
990.859	14.6305
994.234	15.3541
997.608	15.8513
1000.98	15.4553
1004.36	15.6088
1007.73	15.4384
1011.11	15.5428
1014.48	15.1408
1017.86	15.3551
1021.23	16.0001
1024.61	15.5378
1027.98	15.894
1031.36	14.9888
1034.73	14.9211
1038.11	15.3813
1041.48	16.2638
1044.86	14.516
1048.23	14.9846
1051.61	14.2021
1054.98	15.999
1058.36	14.705
1061.73	14.4155
1065.11	15.3588
1068.48	13.8145
1071.85	14.6453
1075.23	14.4008
1078.6	13.7311
1081.98	14.8103
1085.35	14.7614
1088.73	14.3544
1092.1	14.115
1095.48	13.8093
1098.85	14.1703
1102.23	13.4854
1105.6	14.2575
1108.98	13.3802
1112.35	12.5208
1115.73	12.6558
1119.1	12.6771
1122.48	13.4931
1125.85	13.607
1129.23	13.5615
1132.6	13.6051
1135.98	12.5732
1139.35	12.7531
1142.73	12.0469
1146.1	12.0246
1149.47	12.7425
1152.85	12.2276
1156.22	12.9191
1159.6	12.5387
1162.97	12.1261
1166.35	12.8349
1169.72	13.0609
1173.1	12.5019
1176.47	12.4849
1179.85	11.7126
1183.22	11.9054
1186.6	12.8915
1189.97	11.9072
1193.35	11.7294
1196.72	13.2613
1200.1	12.0318
1203.47	12.6008
1206.85	11.7194
1210.22	12.4212
1213.6	11.7759
1216.97	12.9922
1220.35	12.7081
1223.72	12.3757
1227.1	12.7919
1230.47	12.096
1233.85	12.5413
1237.22	11.8511
1240.6	12.8206
1243.97	13.5603
1247.35	11.6586
1250.72	12.2015
1254.1	12.888
1257.47	12.4933
1260.84	12.8204
1264.22	11.9488
1267.59	13.9424
1270.97	13.6678
1274.34	13.3363
1277.72	13.4977
1281.09	14.1215
1284.47	14.8122
1287.84	13.3102
1291.22	13.5993
1294.59	13.7152
1297.97	13.5784
1301.34	14.1073
