Measurement: Raman, 780 nm, unoriented, Raman Data RAW
Mineral: Inderite
Rruff sample: R050195
Ideal chemistry: MgB_3_O_3_(OH)_5_5H_2_O
Locality: Boron, Kern County, California, USA
Source: Dave Bunk Minerals
Description: Colorless prismatic crystal
Measured chemistry: Mg_1.00_B_3.00_O_3_(OH)_5_Â·5H_2_O ; Mg measured, only
Raman shift (cm-1)	intensity
92.9658	502.933
96.3406	499.275
99.7155	451.831
103.09	459.411
106.465	487.097
109.84	385.202
113.215	351.895
116.59	313.892
119.964	321.783
123.339	366.733
126.714	456.86
130.089	491.69
133.464	402.046
136.838	397.218
140.213	420.497
143.588	419.063
146.963	418.409
150.338	431.262
153.713	403.345
157.087	404.502
160.462	435.883
163.837	511.182
167.212	588.12
170.587	529.91
173.961	392.395
177.336	322.436
180.711	303.789
184.086	306.71
187.461	290.429
190.835	278.881
194.21	266.746
197.585	245.173
200.96	228.704
204.335	207.793
207.709	202.857
211.084	200.719
214.459	206.796
217.834	213.512
221.209	215.796
224.584	219.265
227.958	226.543
231.333	230.33
234.708	225.967
238.083	230.684
241.458	236.331
244.833	243.781
248.207	247.245
251.582	242.694
254.957	234.79
258.332	226.69
261.707	217.723
265.081	214.463
268.456	211.323
271.831	214.923
275.206	218.874
278.581	225.487
281.955	227.72
285.33	230.094
288.705	236.279
292.08	245.043
295.455	259.32
298.83	273.656
302.204	276.148
305.579	269.728
308.954	273.38
312.329	284.699
315.704	289.116
319.079	274.309
322.453	261.604
325.828	261.516
329.203	260.753
332.578	244.986
335.952	230.02
339.327	236.589
342.702	244.067
346.077	248.813
349.452	243.59
352.827	238.711
356.201	236.062
359.576	238.787
362.951	245.784
366.326	250.452
369.701	257.284
373.075	270.12
376.45	279.624
379.825	290.417
383.2	290.833
386.575	290.472
389.95	289.659
393.324	288.862
396.699	290.318
400.074	295.377
403.449	301.526
406.824	321.101
410.199	347.431
413.573	382.566
416.948	430.854
420.323	470.946
423.698	477.724
427.072	434.801
430.447	392.07
433.822	373.942
437.197	376.616
440.572	396.724
443.947	375.934
447.321	311.493
450.696	269.941
454.071	247.763
457.446	236.208
460.821	229.828
464.195	233.036
467.57	236.224
470.945	250.669
474.32	276.254
477.695	307.061
481.07	345.19
484.444	404.143
487.819	494.243
491.194	598.857
494.569	606.612
497.944	473.982
501.318	346.161
504.693	274.637
508.068	237.839
511.443	213.828
514.818	198.257
518.193	189.744
521.567	184.578
524.942	178.303
528.317	178.632
531.692	176.521
535.067	175.354
538.442	174.606
541.816	175.536
545.191	177.247
548.566	179.517
551.941	184.96
555.316	188.029
558.69	195.708
562.065	206.335
565.44	215.739
568.815	228.125
572.19	237.564
575.564	246.653
578.939	255.679
582.314	260.336
585.689	256.687
589.064	242.033
592.438	224.102
595.813	211.736
599.188	208.439
602.563	205.482
605.938	210.455
609.313	219.784
612.687	229.484
616.062	246.837
619.437	270.73
622.812	297.525
626.187	327.816
629.562	360.626
632.936	381.425
636.311	392.943
639.686	387.555
643.061	368.868
646.436	341.215
649.81	307.086
653.185	281.59
656.56	260.149
659.935	240.764
663.31	222.855
666.684	211.304
670.059	200.95
673.434	192.38
676.809	184.687
680.184	178.099
683.558	174.295
686.933	170.503
690.308	167.662
693.683	166.889
697.058	162.585
700.433	160.507
703.807	159.303
707.182	156.784
710.557	157.766
713.932	156.943
717.307	158.533
720.682	162.453
724.056	172.652
727.431	183.677
730.806	200.148
734.181	224.123
737.556	260.322
740.93	298.347
744.305	314.915
747.68	280.382
751.055	234.686
754.43	200.877
757.804	177.764
761.179	166.898
764.554	161.043
767.929	156.544
771.304	150.527
774.678	147.767
778.053	145.87
781.428	143.138
784.803	141.713
788.178	141.283
791.553	142.809
794.927	140.297
798.302	142.348
801.677	142.951
805.052	145.53
808.427	148.202
811.802	150.424
815.176	147.486
818.551	145.432
821.926	143.136
825.301	138.399
828.676	138.366
832.05	135.575
835.425	134.278
838.8	131.76
842.175	133.205
845.55	134.054
848.924	136.596
852.299	139.677
855.674	144.11
859.049	147.172
862.424	152.312
865.799	155.109
869.173	159.635
872.548	163.368
875.923	166.299
879.298	171.708
882.673	167.838
886.047	163.292
889.422	155.667
892.797	150.154
896.172	143.229
899.547	138.907
902.922	134.728
906.296	133.214
909.671	129.232
913.046	128.28
916.421	126.797
919.796	126.168
923.17	124.69
926.545	126.235
929.92	126.543
933.295	130.022
936.67	134.44
940.044	142.021
943.419	149.391
946.794	155.893
950.169	156.672
953.544	150.712
956.919	142.089
960.293	135.779
963.668	130.91
967.043	126.825
970.418	123.849
973.793	121.478
977.168	119.689
980.542	120.138
983.917	122.12
987.292	124.773
990.667	126.467
994.042	130.238
997.416	136.75
1000.79	138.406
1004.17	140.516
1007.54	140.572
1010.92	139.939
1014.29	138.513
1017.66	133.266
1021.04	129.983
1024.41	125.39
1027.79	120.336
1031.16	118.774
1034.54	117.814
1037.91	115.877
1041.29	118.084
1044.66	117.339
1048.04	120.985
1051.41	123.606
1054.79	125.771
1058.16	127.374
1061.54	126.603
1064.91	124.205
1068.29	121.191
1071.66	117.715
1075.04	116.599
1078.41	115.351
1081.79	116.229
1085.16	114.714
1088.54	114.445
1091.91	112.986
1095.29	112.514
1098.66	110.684
1102.04	109.444
1105.41	108.924
1108.79	109.193
1112.16	111.559
1115.54	112.632
1118.91	112.971
1122.29	117.556
1125.66	119.632
1129.03	122.412
1132.41	125.316
1135.78	127.629
1139.16	128.727
1142.53	129.696
1145.91	128.415
1149.28	129.236
1152.66	126.727
1156.03	126.635
1159.41	130.531
1162.78	131.824
1166.16	134.607
1169.53	135.067
1172.91	135.623
1176.28	133.727
1179.66	133.087
1183.03	130.79
1186.41	131.021
1189.78	131.468
1193.16	127.191
1196.53	128.55
1199.9	126.612
1203.28	123.21
1206.65	120.859
1210.03	116.632
1213.4	113.133
1216.78	110.812
1220.15	110.409
1223.53	107.713
1226.9	107.278
1230.28	107.93
1233.65	106.585
1237.03	107.299
1240.4	107.668
1243.78	107.437
1247.15	107.648
1250.53	108.621
1253.9	107.489
1257.28	109.468
1260.65	109.602
1264.03	111.18
1267.4	109.668
1270.78	109.503
1274.15	109.209
1277.53	109.902
1280.9	110.167
1284.28	109.865
