Measurement: Raman, 532 nm, unoriented, Raman Data Processed
Mineral: Iodargyrite
Rruff sample: R061056
Ideal chemistry: Ag^1+^I^1-^
Locality: Capitana, Chile
Source: Bob Jenkins
Description: Transparent colorless prismatic crystals
Raman shift (cm-1)	intensity
88.1367	0
91.5115	5.44214
94.8863	22.216
98.2612	76.9718
101.636	161.586
105.011	222.294
108.386	312.003
111.76	384.371
115.135	433.631
118.51	473.676
121.885	432.126
125.26	446.272
128.635	437.167
132.009	435.942
135.384	393.151
138.759	384.305
142.134	348.117
145.509	300.38
148.883	265.182
152.258	240.269
155.633	187.894
159.008	139.523
162.383	126.638
165.757	75.7556
169.132	60.5911
172.507	31.7417
175.882	30.0894
179.257	20.3342
182.632	11.9458
186.006	8.52365
189.381	10.0077
192.756	5.7579
196.131	5.68494
199.506	3.74542
202.881	23.2747
206.255	19.3425
209.63	16.1425
213.005	13.857
216.38	20.8235
219.755	18.678
223.129	14.355
226.504	29.1212
229.879	26.3211
233.254	26.3068
236.629	36.6622
240.004	49.0509
243.378	33.7789
246.753	29.9251
250.128	34.5539
253.503	35.1518
256.878	21.8051
260.252	18.0647
263.627	20.1934
267.002	35.705
270.377	9.49637
273.752	20.1687
277.127	2.46787
280.501	36.5766
283.876	16.2844
287.251	27.3673
290.626	21.5182
294.001	9.03314
297.375	27.7327
300.75	9.18607
304.125	20.1413
307.5	29.561
310.875	18.1679
314.25	21.7811
317.624	28.8073
320.999	23.6091
324.374	9.43683
327.749	2.73126
331.124	32.0364
334.498	16.1515
337.873	31.8599
341.248	16.118
344.623	38.9933
347.998	33.0698
351.373	31.3875
354.747	15.3841
358.122	12.003
361.497	22.4115
364.872	13.206
368.247	21.8399
371.621	34.1289
374.996	7.08514
378.371	14.7754
381.746	28.4089
385.121	3.25919
388.495	15.542
391.87	1.7995
395.245	30.5693
398.62	27.7383
401.995	35.2711
405.37	14.7166
408.744	31.2171
412.119	17.7799
415.494	30.5031
418.869	30.8066
422.244	20.2223
425.618	14.1345
428.993	15.6409
432.368	25.5435
435.743	36.0077
439.118	56.3192
442.493	34.9434
445.867	15.9884
449.242	18.3165
452.617	1.66952
455.992	19.4944
459.367	34.5751
462.741	23.6146
466.116	20.1218
469.491	46.5637
472.866	15.6579
476.241	31.3732
479.615	23.3847
482.99	17.5238
486.365	6.56012
489.74	11.9913
493.115	15.1521
496.49	23.5098
499.864	30.8142
503.239	22.858
506.614	11.4287
509.989	18.7297
513.364	1.44253
516.739	5.32639
520.113	17.6228
523.488	10.931
526.863	26.1704
530.238	5.63797
533.613	25.2619
536.987	24.8838
540.362	15.1053
543.737	35.2259
547.112	17.3478
550.487	11.9295
553.861	9.84793
557.236	13.5314
560.611	12.86
563.986	17.8528
567.361	11.2884
570.736	10.5675
574.11	32.0434
577.485	22.8721
580.86	15.9669
584.235	3.59384
587.61	7.52301
590.985	21.5678
594.359	10.0469
597.734	8.80295
601.109	31.1514
604.484	0.177429
607.859	9.38397
611.233	11.0968
614.608	6.4809
617.983	28.1839
621.358	12.5258
624.733	5.09936
628.107	5.0274
631.482	12.0434
634.857	23.983
638.232	22.5229
641.607	19.5968
644.982	0.241547
648.356	12.8127
651.731	11.8216
655.106	13.3521
658.481	24.0095
661.856	41.648
665.231	10.9111
668.605	14.2747
671.98	21.1693
675.355	5.49518
678.73	23.7437
682.105	16.4892
685.479	14.0582
688.854	27.4485
692.229	4.17786
695.604	19.3611
698.979	38.8528
702.354	26.5447
705.728	14.0012
709.103	10.1708
712.478	17.7622
715.853	13.5614
719.227	21.7163
722.602	26.5071
725.977	18.8161
729.352	17.3253
732.727	11.0885
736.102	2.79062
739.476	3.35797
742.851	27.5031
746.226	2.50342
749.601	7.1872
752.976	16.0873
756.351	23.774
759.725	17.2101
763.1	25.4329
766.475	14.5468
769.85	2.86911
773.225	2.70407
776.599	15.3045
779.974	14.3368
783.349	34.8248
786.724	10.7339
790.099	21.5626
793.473	5.30725
796.848	0.39978
800.223	19.6332
803.598	19.5966
806.973	32.6467
810.348	15.8937
813.722	28.443
817.097	16.8497
820.472	4.29306
823.847	26.7
827.222	17.8752
830.597	9.17038
833.971	6.18253
837.346	16.6089
840.721	1.24548
844.096	9.8244
847.471	12.4361
850.846	37.4155
854.22	13.7609
857.595	26.4493
860.97	15.0562
864.345	16.0767
867.72	8.33017
871.094	3.78635
874.469	19.9159
877.844	25.6328
881.219	24.8077
884.594	41.9515
887.968	10.2012
891.343	15.4208
894.718	14.5112
898.093	4.3707
901.468	25.6383
904.842	12.9395
908.217	27.7705
911.592	19.0782
914.967	13.2246
918.342	12.9999
921.717	10.7332
925.091	28.5301
928.466	32.6685
931.841	19.2154
935.216	14.6276
938.591	12.7083
941.966	10.0271
945.34	29.153
948.715	10.2693
952.09	16.8116
955.465	18.7645
958.84	16.0962
962.214	14.6242
965.589	31.4371
968.964	19.8265
972.339	13.3254
975.714	9.1424
979.088	22.0448
982.463	1.90085
985.838	7.06439
989.213	19.6662
992.588	22.5137
995.963	0.361359
999.337	5.57581
1002.71	30.6989
1006.09	19.18
1009.46	45.4708
1012.84	27.8834
1016.21	19.8778
1019.59	19.7009
1022.96	2.95142
1026.34	15.5918
1029.71	18.8052
1033.09	16.0547
1036.46	27.3212
1039.84	19.7666
1043.21	6.98651
1046.59	19.5792
1049.96	30.9594
1053.33	8.42911
1056.71	15.3935
1060.08	11.3059
1063.46	22.8748
1066.83	4.31528
1070.21	10.0882
1073.58	3.37466
1076.96	11.2
1080.33	19.8226
1083.71	6.703
1087.08	15.5235
1090.46	16.9586
1093.83	21.2006
1097.21	16.327
1100.58	1.03506
1103.96	16.2495
1107.33	6.82239
1110.71	10.3443
1114.08	8.38696
1117.46	10.9534
1120.83	37.7066
1124.21	0.205688
1127.58	11.1585
1130.95	3.81119
1134.33	16.1722
1137.7	9.53091
1141.08	12.8156
1144.45	11.5709
1147.83	9.9725
1151.2	10.9692
1154.58	2.61438
1157.95	16.1093
1161.33	22.1787
1164.7	19.5608
1168.08	19.5541
1171.45	18.5152
1174.83	0.52951
1178.2	21.0583
1181.58	22.5993
1184.95	41.8088
1188.33	20.5842
1191.7	32.4686
1195.08	15.3608
1198.45	7.2522
1201.83	18.9682
1205.2	5.23889
1208.58	33.0445
1211.95	18.7006
1215.33	20.1208
1218.7	35.2012
1222.08	8.78635
1225.45	33.2615
1228.83	33.1657
1232.2	45.5599
1235.58	28.7687
1238.95	25.8934
1242.32	24.4122
1245.7	15.7888
1249.07	2.45483
1252.45	2.27258
1255.82	38.5188
1259.2	13.7551
1262.57	17.008
1265.95	27.9008
1269.32	24.9887
1272.7	16.688
1276.07	0.091736
1279.45	20.618
1282.82	27.2294
1286.2	17.5062
1289.57	30.6345
1292.95	17.1358
1296.32	6.10724
1299.7	7.71487
