Measurement: Raman, 780 nm, unoriented, Raman Data Processed
Mineral: Iodargyrite
Rruff sample: R061056
Ideal chemistry: Ag^1+^I^1-^
Locality: Capitana, Chile
Source: Bob Jenkins
Description: Transparent colorless prismatic crystals
Raman shift (cm-1)	intensity
94.332	0
97.7068	18.0551
101.082	79.1318
104.456	154.178
107.831	224.702
111.206	267.146
114.581	267.528
117.956	234.337
121.331	193.583
124.705	163.732
128.08	140.295
131.455	126.05
134.83	114.385
138.205	104.359
141.579	93.8488
144.954	72.4841
148.329	51.7017
151.704	36.8735
155.079	23.3416
158.453	17.2422
161.828	10.3818
165.203	3.93605
168.578	0.431152
171.953	2.33824
175.328	3.12402
178.702	4.34338
182.077	6.01538
185.452	3.36865
188.827	0.416992
192.202	6.97882
195.577	13.8548
198.951	22.1592
202.326	28.3453
205.701	35.7972
209.076	41.7259
212.451	49.5613
215.825	53.9329
219.2	58.2618
222.575	60.8436
225.95	63.088
229.325	62.2642
232.7	61.778
236.074	58.6504
239.449	54.5471
242.824	48.6103
246.199	44.8324
249.574	42.1651
252.948	40.5288
256.323	38.4557
259.698	35.7755
263.073	33.7112
266.448	31.659
269.822	29.2332
273.197	26.4464
276.572	24.8327
279.947	23.1711
283.322	20.1497
286.697	18.8287
290.071	15.5825
293.446	14.9023
296.821	13.0474
300.196	11.3623
303.571	9.64176
306.945	7.95174
310.32	7.99645
313.695	6.50604
317.07	5.91611
320.445	5.54908
323.82	4.19347
327.194	3.90793
330.569	2.70654
333.944	2.10303
337.319	1.83228
340.694	0.858902
344.068	0.176842
347.443	0.215065
350.818	0.198219
354.193	1.09497
357.568	0.497643
360.942	0.097755
364.317	0.023659
367.692	0.557785
371.067	0.005028
374.442	0.812973
377.817	0.099846
381.191	0.14991
384.566	0.123566
387.941	0.564934
391.316	0.34346
394.691	0.21785
398.065	0.188522
401.44	0.164642
404.815	0.372322
408.19	1.20824
411.565	0.211372
414.94	1.04691
418.314	1.57099
421.689	1.71118
425.064	0.941887
428.439	0.624191
431.814	2.10332
435.188	1.55987
438.563	1.52059
441.938	1.56699
445.313	1.56808
448.688	1.84982
452.063	1.14628
455.437	2.51519
458.812	2.01696
462.187	1.77287
465.562	2.22125
468.937	1.09669
472.312	1.6216
475.686	1.49204
479.061	2.00756
482.436	1.63603
485.811	1.46908
489.186	1.96188
492.56	1.64827
495.935	1.9841
499.31	0.897469
502.685	1.49197
506.06	0.596977
509.435	0.73494
512.809	0.994392
516.184	0.74028
519.559	1.63333
522.934	0.294167
526.308	1.32404
529.683	0.857178
533.058	0.078949
536.433	1.77739
539.808	0.680336
543.183	0.604111
546.557	0.112358
549.932	0.861153
553.307	0.864388
556.682	0.820473
560.057	0.076218
563.432	0.335258
566.806	0.894302
570.181	0.03437
573.556	1.30588
576.931	0.309479
580.306	1.0311
583.681	1.05357
587.055	0.752167
590.43	0.497726
593.805	0.204033
597.18	0.633095
600.555	0.025635
603.929	1.17365
607.304	1.01202
610.679	1.10165
614.054	0.469971
617.429	1.6478
620.803	0.68029
624.178	0.018906
627.553	1.41013
630.928	0.370491
634.303	1.68484
637.678	0.610809
641.052	0.659981
644.427	0.837517
647.802	0.794899
651.177	0.649719
654.552	0.770966
657.927	1.25022
661.301	1.07649
664.676	1.49099
668.051	0.456512
671.426	0.267586
674.801	1.23595
678.175	0.208641
681.55	1.37215
684.925	0.438568
688.3	0.574745
691.675	0.783028
695.049	1.43584
698.424	0.887856
701.799	0.891014
705.174	0.502243
708.549	0.83683
711.923	0.978874
715.298	0.090843
718.673	1.16204
722.048	0.632835
725.423	0.161133
728.798	1.10352
732.172	0.443726
735.547	0.403519
738.922	0.839317
742.297	1.31554
745.672	0.233215
749.047	0.49028
752.421	0.052048
755.796	0.93808
759.171	0.421814
762.546	1.13136
765.921	0.20594
769.295	0.486694
772.67	0.876472
776.045	0.727646
779.42	0.954399
782.795	0.873085
786.169	0.608101
789.544	0.222061
792.919	0.353073
796.294	0.355789
799.669	0.706657
803.044	0.497009
806.418	0.879425
809.793	2.5104
813.168	1.4902
816.543	0.98922
819.918	1.06737
823.293	0.577736
826.667	0.616684
830.042	0.186897
833.417	1.29321
836.792	1.60514
840.167	1.26061
843.541	1.33326
846.916	0.420219
850.291	0.82563
853.666	1.20325
857.041	1.55612
860.415	0.623108
863.79	0.511909
867.165	0.631775
870.54	0.541344
873.915	0.541893
877.29	0.082924
880.664	0.657692
884.039	1.35052
887.414	0.828362
890.789	0.48764
894.164	0.354149
897.538	1.25562
900.913	1.22756
904.288	1.20194
907.663	0.12323
911.038	0.846344
914.413	0.717697
917.787	0.189476
921.162	0.163788
924.537	0.86837
927.912	1.32789
931.287	0.704247
934.661	0.843925
938.036	0.073128
941.411	0.03022
944.786	0.096542
948.161	0.773438
951.535	0.391968
954.91	0.289879
958.285	0.212463
961.66	0.369957
965.035	1.19537
968.41	0.962059
971.784	0.404785
975.159	0.407005
978.534	0.890648
981.909	0.485954
985.284	0.655823
988.659	0.940788
992.033	1.04813
995.408	0.276741
998.783	0.472977
1002.16	0.56604
1005.53	0.141106
1008.91	0.212692
1012.28	0.860229
1015.66	0.803558
1019.03	0.245598
1022.41	2.88153
1025.78	0.275429
1029.16	0.881462
1032.53	0.665932
1035.91	0.865746
1039.28	0.660156
1042.66	0.784111
1046.03	0.098656
1049.4	0.733261
1052.78	1.38043
1056.15	0.714264
1059.53	1.14593
1062.9	0.219551
1066.28	0.329678
1069.65	0.810555
1073.03	0.140453
1076.4	0.349514
1079.78	1.3729
1083.15	0.662724
1086.53	0.521702
1089.9	1.46046
1093.28	0.415829
1096.65	0.121037
1100.03	0.539692
1103.4	0.657948
1106.78	0.624817
1110.15	0.665703
1113.53	0.004734
1116.9	0.612724
1120.28	0.574028
1123.65	0.255699
1127.03	0.611584
1130.4	1.14309
1133.78	0.766319
1137.15	1.41341
1140.53	0.545799
1143.9	0.946739
1147.28	0.364525
1150.65	0.980003
1154.03	0.230213
1157.4	1.04655
1160.77	0.783478
1164.15	0.679745
1167.52	0.451679
1170.9	1.04371
1174.27	1.23533
1177.65	1.24703
1181.02	0.460411
1184.4	0.680695
1187.77	0.215656
1191.15	0.19157
1194.52	0.958054
1197.9	0.605995
1201.27	0.601593
1204.65	0.856537
1208.02	1.19688
1211.4	0.764324
1214.77	0.001987
1218.15	0.761044
1221.52	1.01076
1224.9	0.136784
1228.27	0.035454
1231.64	0.348885
1235.02	0.375107
1238.39	0.445236
1241.77	0.175903
1245.14	0.843609
1248.52	0.31847
1251.89	0.556099
1255.27	0.474949
1258.64	1.16424
1262.02	0.298279
1265.39	0.93507
1268.77	0.076794
1272.14	0.340691
1275.52	0.368206
1278.89	0.030735
1282.27	0
