Measurement: Raman, 532 nm, unoriented, Raman Data Processed
Mineral: Itsiite
Rruff sample: R160010
Ideal chemistry: Ba_2_Ca(BSi_2_O_7_)_2_
Locality: Gun claim, Yukon Territory, Canada
Source: Gunnar FÃ¤rber
Description: White milky massive, associated with cerchiaraite-(Fe), diopside, pyrite, quartz, sphalerite, and witherite
Raman shift (cm-1)	intensity
89.7832	0
93.158	77.4136
96.5328	53.8213
99.9077	43.9153
103.282	192.088
106.657	110.725
110.032	1.21655
113.407	2.83472
116.782	34.9028
120.157	98.8581
123.531	92.1875
126.906	68.397
130.281	65.5774
133.656	69.8391
137.031	74.0178
140.405	53.251
143.78	23.2991
147.155	6.64404
150.53	1.91455
153.905	9.20532
157.28	7.76416
160.654	0.415771
164.029	2.28174
167.404	3.6687
170.779	2.98413
174.154	4.74121
177.528	6.19482
180.903	2.45972
184.278	20.5933
187.653	33.2307
191.028	49.187
194.403	78.9954
197.777	163.994
201.152	129.144
204.527	39.4844
207.902	25.9868
211.277	40.4683
214.651	75.823
218.026	119.089
221.401	179.642
224.776	239.083
228.151	301.257
231.525	234.901
234.9	115.699
238.275	96.3018
241.65	154.961
245.025	149.782
248.4	117.164
251.774	160.866
255.149	263.509
258.524	241.356
261.899	95.553
265.274	24.5774
268.649	22.0373
272.023	25.4238
275.398	35.2388
278.773	35.6482
282.148	39.2341
285.523	56.7393
288.897	91.1414
292.272	127.711
295.647	105.629
299.022	66.0925
302.397	50.7837
305.772	73.8584
309.146	69.0393
312.521	32.0207
315.896	12.9797
319.271	4.67969
322.646	0.168213
326.02	1.80103
329.395	3.16138
332.77	0.765137
336.145	11.1189
339.52	33.7927
342.894	33.7351
346.269	27.8037
349.644	20.0061
353.019	21.3184
356.394	30.4573
359.769	45.4502
363.143	73.0046
366.518	93.6863
369.893	119.182
373.268	136.035
376.643	110.379
380.017	64.6653
383.392	34.3582
386.767	16.6304
390.142	9.94531
393.517	3.6311
396.892	7.83862
400.266	2.46216
403.641	23.718
407.016	27.8401
410.391	47.6519
413.766	76.239
417.14	125.324
420.515	193.692
423.89	307.412
427.265	361.75
430.64	305.415
434.014	287.731
437.389	362.815
440.764	430.582
444.139	301.572
447.514	157.007
450.889	100.165
454.263	114.191
457.638	179.148
461.013	236.173
464.388	287.845
467.763	399.445
471.137	444.649
474.512	248.537
477.887	81.7769
481.262	35.5879
484.637	18.5073
488.012	14.958
491.386	14.1738
494.761	6.47363
498.136	4.50391
501.511	5.12695
504.886	24.6186
508.26	23.4565
511.635	0.546875
515.01	4.93066
518.385	7.73486
521.76	9.48975
525.135	3.43652
528.509	6.00879
531.884	55.4976
535.259	120.715
538.634	207.71
542.009	377.999
545.384	602.47
548.758	546.322
552.133	242.358
555.508	88.1953
558.883	38.5869
562.258	34.5566
565.632	18.4858
569.007	15.4477
572.382	3.36719
575.757	11.4819
579.132	15.5264
582.506	10.6265
585.881	14.334
589.256	6.40625
592.631	11.5234
596.006	0.697266
599.381	0.461426
602.755	0.699219
606.13	2.39307
609.505	14.293
612.88	18.7554
616.255	11.9702
619.63	19.1597
623.004	30.1899
626.379	53.7173
629.754	75.2285
633.129	107.328
636.504	151.825
639.878	126.226
643.253	56.4165
646.628	35.7373
650.003	28.4219
653.378	33.3833
656.752	10.521
660.127	9.18652
663.502	19.8052
666.877	14.5523
670.252	10.7563
673.626	0.772461
677.001	0.728516
680.376	0.671387
683.751	3.62647
687.126	4.50586
690.501	7.49365
693.875	2.3794
697.25	4.13574
700.625	5.16162
704	9.25098
707.375	24.668
710.75	21.9521
714.124	24.8218
717.499	19.7285
720.874	27.2866
724.249	40.4082
727.624	55.5889
730.998	43.3389
734.373	46.9863
737.748	51.0381
741.123	38.7212
744.498	43.5601
747.872	59.2861
751.247	66.0024
754.622	46.1582
757.997	36.2871
761.372	38.1611
764.747	36.6812
768.121	34.3433
771.496	27.8623
774.871	23.1201
778.246	19.8057
781.621	18.3179
784.995	25.5269
788.37	16.832
791.745	16.0435
795.12	15.9761
798.495	6.38672
801.87	7.32519
805.244	22.5015
808.619	35.5483
811.994	13.3623
815.369	19.0332
818.744	20.227
822.119	29.8442
825.493	11.8813
828.868	0.220703
832.243	3.31934
835.618	3.22607
838.993	9.01172
842.367	18.0205
845.742	21.0523
849.117	7.72266
852.492	9.26758
855.867	16.4497
859.241	23.2637
862.616	17.8198
865.991	17.5718
869.366	3.3291
872.741	18.1753
876.115	9.00049
879.49	4.71094
882.865	2.15332
886.24	5.78076
889.615	7.41846
892.99	13.5674
896.364	12.4409
899.739	17.6367
903.114	4.65869
906.489	8.07031
909.864	3.71289
913.239	0.923828
916.613	6.51367
919.988	2.69434
923.363	6.55127
926.738	6.34229
930.113	9.31055
933.487	15.1318
936.862	33.9678
940.237	47.4102
943.612	71.3286
946.987	91.0449
950.361	100.149
953.736	114.285
957.111	100.437
960.486	76.1426
963.861	62.5869
967.236	62.3911
970.61	30.0444
973.985	18.0356
977.36	6.47021
980.735	0.8125
984.11	6.71094
987.485	13.4185
990.859	20.085
994.234	5.7793
997.609	1.50488
1000.98	12.3574
1004.36	9.72412
1007.73	5.69287
1011.11	10.4165
1014.48	11.5376
1017.86	13.5894
1021.23	8.12305
1024.61	8.62646
1027.98	0.381836
1031.36	1.67334
1034.73	22.4717
1038.11	51.9517
1041.48	109.332
1044.86	196.157
1048.23	323.217
1051.61	584.29
1054.98	751.327
1058.36	422.733
1061.73	156.155
1065.11	65.0039
1068.48	29.7446
1071.86	16.1836
1075.23	20.8794
1078.6	21.4277
1081.98	19.6284
1085.35	22.2915
1088.73	36.4199
1092.1	33.4111
1095.48	27.5483
1098.85	58.4697
1102.23	58.3877
1105.6	53.4824
1108.98	53.0889
1112.35	41.9419
1115.73	21.5747
1119.1	19.9282
1122.48	25.707
1125.85	7.17822
1129.23	0.616211
1132.6	6.02686
1135.98	1.58887
1139.35	8.74414
1142.73	12.3852
1146.1	19.9736
1149.48	16.6494
1152.85	24.6333
1156.22	35.4927
1159.6	33.7852
1162.97	28.2686
1166.35	26.2798
1169.72	26.8828
1173.1	32.9458
1176.47	41.8023
1179.85	31.3184
1183.22	34.0977
1186.6	35.6758
1189.97	39.7212
1193.35	29.7417
1196.72	34.3843
1200.1	12.4175
1203.47	21.0547
1206.85	30.4888
1210.22	24.814
1213.6	14.1035
1216.97	16.0337
1220.35	24.4311
1223.72	19.6509
1227.1	1.3418
1230.47	6.17432
1233.85	3.75781
1237.22	7.94385
1240.6	15.1079
1243.97	10.081
1247.35	18.73
1250.72	32.1602
1254.1	23.8013
1257.47	27.8008
1260.85	20.5093
1264.22	8.49414
1267.59	0.762695
1270.97	8.50684
1274.34	12.0591
1277.72	15.1738
1281.09	8.12549
1284.47	13.6558
1287.84	7.95752
1291.22	14.3862
1294.59	14.3315
1297.97	7.32568
1301.34	0.009766
