Measurement: Raman, 780 nm, unoriented, Raman Data Processed
Mineral: Itsiite
Rruff sample: R160010
Ideal chemistry: Ba_2_Ca(BSi_2_O_7_)_2_
Locality: Gun claim, Yukon Territory, Canada
Source: Gunnar FÃ¤rber
Description: White milky massive, associated with cerchiaraite-(Fe), diopside, pyrite, quartz, sphalerite, and witherite
Raman shift (cm-1)	intensity
91.5599	0
94.9347	86.7285
98.3096	55.4977
101.684	66.9342
105.059	85.8769
108.434	23.8262
111.809	2.10486
115.184	2.38867
118.558	3.43603
121.933	18.5189
125.308	11.3699
128.683	9.49438
132.058	8.61853
135.433	9.8844
138.807	13.1512
142.182	4.9082
145.557	0.155151
148.932	5.55627
152.307	5.82385
155.681	3.46802
159.056	3.91553
162.431	2.42883
165.806	1.52917
169.181	2.20398
172.555	4.44458
175.93	7.52271
179.305	9.23413
182.68	19.073
186.055	21.6237
189.43	24.7684
192.804	29.7078
196.179	42.6346
199.554	49.7877
202.929	36.4937
206.304	32.7206
209.678	26.6553
213.053	32.7786
216.428	32.7428
219.803	45.939
223.178	58.2462
226.553	70.0338
229.927	70.1363
233.302	46.8242
236.677	29.6128
240.052	34.8299
243.427	35.4637
246.801	28.9155
250.176	31.4905
253.551	37.5356
256.926	45.5605
260.301	28.4243
263.675	11.2385
267.05	4.10315
270.425	2.95013
273.8	4.04767
277.175	7.97467
280.55	5.01636
283.924	10.1796
287.299	19.5583
290.674	24.157
294.049	25.8517
297.424	21.1832
300.798	17.9846
304.173	17.8782
307.548	18.8792
310.923	11.4592
314.298	3.79492
317.673	2.52771
321.047	0.246704
324.422	0.293152
327.797	0.395386
331.172	0.179565
334.547	0.266052
337.921	6.35779
341.296	10.2071
344.671	7.07422
348.046	4.71777
351.421	4.26544
354.796	3.46533
358.17	6.98828
361.545	5.18085
364.92	10.9653
368.295	17.4535
371.67	23.5473
375.044	18.6122
378.419	11.1291
381.794	5.69122
385.169	2.52869
388.544	0.933044
391.918	1.18915
395.293	3.49359
398.668	2.68042
402.043	0.080933
405.418	1.40845
408.793	4.35101
412.167	9.17407
415.542	15.1041
418.917	27.5126
422.292	44.9871
425.667	68.0194
429.041	65.5975
432.416	59.8912
435.791	69.2732
439.166	85.8202
442.541	91.4125
445.915	70.0781
449.29	64.9344
452.665	74.8958
456.04	91.1149
459.415	108.308
462.789	127.055
466.164	142.475
469.539	156.968
472.914	138.668
476.289	91.7325
479.664	61.8869
483.038	39.991
486.413	30.2325
489.788	21.9064
493.163	20.9629
496.538	14.5692
499.913	14.9255
503.287	15.5068
506.662	16.7346
510.037	17.0438
513.412	16.0159
516.787	16.8057
520.161	18.193
523.536	12.332
526.911	12.8198
530.286	14.7542
533.661	16.6476
537.035	24.7239
540.41	37.7682
543.785	70.0084
547.16	91.4426
550.535	55.102
553.909	21.6851
557.284	4.99939
560.659	1.38617
564.034	2.40314
567.409	0.687378
570.784	0.038879
574.158	1.08429
577.533	2.85785
580.908	1.7923
584.283	0.951111
587.658	2.79138
591.033	0.512878
594.407	0.130798
597.782	3.17358
601.157	0.421509
604.532	2.51446
607.907	4.50226
611.281	0.458008
614.656	2.55975
618.031	3.26917
621.406	4.33795
624.781	6.54602
628.155	6.41669
631.53	10.9429
634.905	20.8856
638.28	24.5721
641.655	18.0726
645.029	8.33203
648.404	4.57092
651.779	4.90039
655.154	3.20825
658.529	5.70898
661.904	6.94409
665.278	4.62799
668.653	2.21698
672.028	2.58197
675.403	0.08844
678.778	3.09454
682.153	1.85138
685.527	0.593689
688.902	3.26123
692.277	1.78723
695.652	2.22742
699.027	3.396
702.401	2.99927
705.776	4.42059
709.151	7.34943
712.526	5.69971
715.901	7.53082
719.275	14.9497
722.65	9.04858
726.025	8.43195
729.4	9.65454
732.775	12.8021
736.149	10.9044
739.524	10.5106
742.899	10.6538
746.274	7.61102
749.649	4.27576
753.024	6.57068
756.398	8.46783
759.773	2.43237
763.148	3.5929
766.523	2.57062
769.898	1.1167
773.273	0.46106
776.647	6.92499
780.022	0.183838
783.397	0.536743
786.772	0.145386
790.146	0.447083
793.521	0.952454
796.896	1.84448
800.271	1.63501
803.646	1.62408
807.021	2.88025
810.395	3.47974
813.77	1.54089
817.145	3.2746
820.52	3.26819
823.895	5.07141
827.269	6.25647
830.644	4.87946
834.019	2.79962
837.394	2.6781
840.769	5.34265
844.144	4.24585
847.518	0.799561
850.893	3.01385
854.268	5.35242
857.643	7.36981
861.018	4.97333
864.393	4.41742
867.767	4.23157
871.142	3.43805
874.517	2.86957
877.892	5.06824
881.266	3.15973
884.641	4.01398
888.016	4.56909
891.391	4.36462
894.766	2.67932
898.141	2.76587
901.515	1.77185
904.89	1.2926
908.265	1.80969
911.64	0.337646
915.015	0.836792
918.389	0.597656
921.764	1.10809
925.139	0.620789
928.514	5.82507
931.889	9.25677
935.264	4.33057
938.638	9.20904
942.013	7.2132
945.388	9.06848
948.763	11.6542
952.138	14.144
955.512	16.0407
958.887	17.0849
962.262	14.5568
965.637	12.2792
969.012	4.77533
972.386	3.10144
975.761	0.581726
979.136	0.434509
982.511	1.66632
985.886	0.993103
989.261	2.9043
992.635	1.03003
996.01	2.35522
999.385	2.86883
1002.76	0.550049
1006.13	1.13599
1009.51	2.0224
1012.88	2.93329
1016.26	2.9967
1019.63	2.23615
1023.01	2.01758
1026.38	0.5672
1029.76	1.32251
1033.13	4.13446
1036.51	4.98999
1039.88	9.28326
1043.26	18.361
1046.63	25.5273
1050.01	44.18
1053.38	73.8196
1056.76	66.9677
1060.13	33.0482
1063.51	13.4115
1066.88	5.98178
1070.26	4.92847
1073.63	0.248749
1077.01	1.38782
1080.38	1.77054
1083.76	3.14868
1087.13	4.48883
1090.51	3.18066
1093.88	3.21829
1097.26	1.15457
1100.63	2.79205
1104	4.60367
1107.38	5.63947
1110.75	5.35168
1114.13	1.53604
1117.5	1.96024
1120.88	0.220032
1124.25	2.10812
1127.63	0.787842
1131	2.15695
1134.38	5.09338
1137.75	4.55475
1141.13	4.37128
1144.5	5.61621
1147.88	3.80414
1151.25	5.55261
1154.63	6.16025
1158	6.20718
1161.38	7.45453
1164.75	8.38138
1168.13	7.08389
1171.5	11.4794
1174.88	12.5863
1178.25	12.061
1181.62	13.3762
1185	13.2156
1188.38	13.6679
1191.75	12.0621
1195.12	12.0093
1198.5	12.0882
1201.87	12.3004
1205.25	11.5225
1208.62	10.3099
1212	10.0142
1215.37	7.75674
1218.75	3.4111
1222.12	1.776
1225.5	0.187714
1228.87	0.21701
1232.25	1.58661
1235.62	0.111816
1239	1.9361
1242.37	0.949768
1245.75	0.675171
1249.12	4.68231
1252.5	6.19592
1255.87	8.87311
1259.25	7.88202
1262.62	5.68311
1265.99	5.28577
1269.37	4.33942
1272.74	3.25098
1276.12	1.8017
1279.49	2.29004
1282.87	0.014526
