Measurement: Raman, 532 nm, unoriented, Raman Data Processed
Mineral: Jamesite
Rruff sample: R060274
Ideal chemistry: Pb^2+^_2_Zn^2+^Fe^3+^_2_(Fe^3+^,Zn^2+^)_4_(As^5+^O_4_)_4_(OH)_8_(OH,O)_2_
Locality: Tsumeb mine, Tsumeb, Otavi District, Oshikoto, Namibia
Source: Michael Scott
Description: Reddish-brown bladed crystals coated with white dolomite and associated with dark green duftite
Raman shift (cm-1)	intensity
90.2653	0
93.6401	506.906
97.0149	411.237
100.39	172.686
103.765	57.0264
107.139	104.909
110.514	189.635
113.889	109.98
117.264	436.559
120.639	356.705
124.013	632.639
127.388	575.797
130.763	624.05
134.138	551.593
137.513	576.999
140.888	932.523
144.262	855.063
147.637	903.428
151.012	736.543
154.387	646.431
157.762	538.222
161.137	390.857
164.511	363.106
167.886	313.231
171.261	361.856
174.636	304.641
178.011	241.637
181.385	270.694
184.76	339.763
188.135	523.334
191.51	545.451
194.885	549.264
198.26	585.829
201.634	471.096
205.009	364.769
208.384	261.527
211.759	240.496
215.133	255.511
218.508	294.195
221.883	355.315
225.258	342.093
228.633	264.104
232.008	178.03
235.382	181.856
238.757	257.224
242.132	220.381
245.507	239.867
248.882	234.787
252.256	355.044
255.631	441.566
259.006	576.006
262.381	643.874
265.756	735.806
269.131	851.919
272.505	997.975
275.88	1115.93
279.255	1180.85
282.63	1092.15
286.005	988.775
289.38	812.859
292.754	592.606
296.129	350.506
299.504	131.289
302.879	47.2685
306.254	60.9385
309.628	64.8691
313.003	77.2686
316.378	38.1289
319.753	79.249
323.128	176.611
326.502	395.737
329.877	549.235
333.252	721.511
336.627	1009.59
340.002	1217.55
343.377	1456.03
346.751	1633.49
350.126	1741.65
353.501	1808.48
356.876	1800.56
360.251	1822.61
363.625	1740.67
367	1586.81
370.375	1407.49
373.75	1187.84
377.125	1050.12
380.5	899.189
383.874	701.523
387.249	530.91
390.624	267.802
393.999	67.0225
397.374	20.9053
400.748	123.31
404.123	35.9316
407.498	53.0029
410.873	4.01465
414.248	12.331
417.623	156.029
420.997	215.784
424.372	214.424
427.747	289.514
431.122	309.356
434.497	359.393
437.872	366.415
441.246	321.135
444.621	223.884
447.996	89.5732
451.371	74.5752
454.745	158.673
458.12	267.952
461.495	500.392
464.87	912.941
468.245	1416.42
471.62	2091.74
474.994	2889.71
478.369	3609.8
481.744	4336.27
485.119	4969.87
488.494	5449.41
491.868	5845.21
495.243	6132.31
498.618	6355.42
501.993	6668.11
505.368	6829.58
508.743	6783.61
512.117	6588.89
515.492	6161.7
518.867	5474.36
522.242	4823.26
525.617	4059.6
528.991	3283.37
532.366	2646.95
535.741	2059.29
539.116	1545.35
542.491	1142.74
545.866	810.942
549.24	560.065
552.615	358.547
555.99	186.193
559.365	91.9912
562.74	39.9683
566.115	18.1089
569.489	87.9688
572.864	12.8398
576.239	26.0107
579.614	46.8833
582.989	64.4458
586.363	16.2441
589.738	32.9546
593.113	25.6108
596.488	70.7124
599.863	67.208
603.237	189.707
606.612	211.577
609.987	262.971
613.362	358.666
616.737	409.926
620.112	394.985
623.486	556.822
626.861	616.034
630.236	634.438
633.611	689.96
636.986	682.553
640.361	728.329
643.735	667.517
647.11	654.479
650.485	603.852
653.86	553.12
657.235	477.65
660.609	478.199
663.984	440.151
667.359	423.375
670.734	402.346
674.109	350.02
677.484	316.813
680.858	293.642
684.233	327.76
687.608	308.065
690.983	294.84
694.357	247.417
697.732	231.682
701.107	243.283
704.482	209.064
707.857	183.553
711.232	146.685
714.606	99.8589
717.981	89.8369
721.356	60.2778
724.731	38.9062
728.106	48.2808
731.481	1.22803
734.855	8.73486
738.23	47.2212
741.605	77.5127
744.98	97.8691
748.355	61.3882
751.729	73.0181
755.104	7.22949
758.479	56.9185
761.854	126.38
765.229	323.022
768.604	486.646
771.978	710.135
775.353	909.618
778.728	1103.65
782.103	1284.28
785.478	1437.71
788.852	1480.55
792.227	1478.51
795.602	1389.48
798.977	1272.05
802.352	1190.35
805.726	1138.44
809.101	1147.71
812.476	1270.83
815.851	1541.58
819.226	2069.01
822.601	2748.72
825.975	3647.92
829.35	4787.98
832.725	6202.26
836.1	7610.04
839.475	8890.32
842.85	9866.57
846.224	10303.4
849.599	10210.5
852.974	9796.57
856.349	9231.9
859.724	8816.54
863.098	8383.95
866.473	7920.95
869.848	7325.26
873.223	6567.09
876.598	5516.29
879.972	4635.62
883.347	3702.15
886.722	3006.53
890.097	2368.66
893.472	1899.25
896.847	1450.21
900.221	1053.4
903.596	758.808
906.971	427.431
910.346	221.374
913.721	53.7105
917.096	13.1773
920.47	89.0254
923.845	97.4917
927.22	90.7827
930.595	82.2012
933.97	62.3208
937.344	85.9956
940.719	8.22315
944.094	53.6255
947.469	79.8071
950.844	131.371
954.218	220.148
957.593	228.359
960.968	237.431
964.343	274.3
967.718	357.174
971.092	396.981
974.467	459.206
977.842	445.325
981.217	420.644
984.592	408.599
987.967	443.509
991.341	364.458
994.716	361.175
998.091	334.373
1001.47	345.328
1004.84	345.769
1008.22	297.494
1011.59	287.788
1014.97	276.481
1018.34	267.957
1021.72	253.868
1025.09	233.431
1028.46	238.474
1031.84	198.022
1035.21	202.878
1038.59	221.928
1041.96	179.857
1045.34	158.749
1048.71	163.611
1052.09	146.678
1055.46	115.253
1058.84	45.7251
1062.21	50.9429
1065.59	58.5713
1068.96	59.5488
1072.34	55.6172
1075.71	46.2886
1079.09	45.2925
1082.46	24.0796
1085.84	102.527
1089.21	131.127
1092.59	276.438
1095.96	420.416
1099.34	299.931
1102.71	90.1035
1106.09	22.4346
1109.46	23.2847
1112.84	27.4873
1116.21	20.9731
1119.58	4.46338
1122.96	10.7212
1126.33	17.5674
1129.71	9.18994
1133.08	21.6875
1136.46	4.51074
1139.83	18.2622
1143.21	31.5024
1146.58	12.5288
1149.96	25.0376
1153.33	46.2568
1156.71	37.7685
1160.08	53.2554
1163.46	43.3198
1166.83	5.82031
1170.21	37.4287
1173.58	48.7065
1176.96	79.7773
1180.33	30.8257
1183.71	11.8989
1187.08	34.2881
1190.46	22.9683
1193.83	57.6318
1197.2	24.501
1200.58	39.9502
1203.95	13.064
1207.33	43.835
1210.7	6.78271
1214.08	65.9219
1217.45	45.5391
1220.83	12.6836
1224.2	16.9702
1227.58	46.0649
1230.95	20.4072
1234.33	17.5723
1237.7	8.31641
1241.08	41.9458
1244.45	8.66797
1247.83	22.4097
1251.2	14.8135
1254.58	71.5171
1257.95	32.169
1261.33	13.4941
1264.7	58.4565
1268.08	47.6382
1271.45	14.5952
1274.83	65.0117
1278.2	72.2109
1281.58	72.2515
1284.95	37.7485
1288.33	15.5737
1291.7	28.2319
1295.08	31.5718
1298.45	37.8613
1301.83	0
