Measurement: Raman, 780 nm, unoriented, Raman Data Processed
Mineral: Jamesite
Rruff sample: R060274
Ideal chemistry: Pb^2+^_2_Zn^2+^Fe^3+^_2_(Fe^3+^,Zn^2+^)_4_(As^5+^O_4_)_4_(OH)_8_(OH,O)_2_
Locality: Tsumeb mine, Tsumeb, Otavi District, Oshikoto, Namibia
Source: Michael Scott
Description: Reddish-brown bladed crystals coated with white dolomite and associated with dark green duftite
Raman shift (cm-1)	intensity
91.5599	0
94.9347	344.604
98.3096	152.099
101.684	33.7026
105.059	241.118
108.434	393.879
111.809	107.762
115.184	17.3691
118.558	42.9697
121.933	13.5088
125.308	181.737
128.683	285.813
132.058	415.119
135.433	375.694
138.807	448.927
142.182	609.046
145.557	694.316
148.932	799.352
152.307	721.212
155.681	576.57
159.056	453.052
162.431	390.387
165.806	368.281
169.181	413.939
172.555	419.195
175.93	262.364
179.305	61.5222
182.68	36.3799
186.055	72.5444
189.43	135.285
192.804	183.497
196.179	200.081
199.554	234.412
202.929	172.461
206.304	78.1797
209.678	6.76196
213.053	24.0623
216.428	2.14038
219.803	55.7293
223.178	91.7991
226.553	158.802
229.927	166.531
233.302	181.131
236.677	233.568
240.052	322.706
243.427	321.805
246.801	363.537
250.176	338.253
253.551	389.642
256.926	377.572
260.301	422.3
263.675	408.586
267.05	406.913
270.425	463.57
273.8	545.841
277.175	654.483
280.55	754.221
283.924	797.332
287.299	847.032
290.674	817.083
294.049	736.284
297.424	594.952
300.798	343.657
304.173	163.466
307.548	30.8186
310.923	9.54224
314.298	51.3831
317.673	48.7219
321.047	86.0352
324.422	150.87
327.797	287.437
331.172	358.765
334.547	440.18
337.921	491.725
341.296	568.304
344.671	674.401
348.046	755.78
351.421	797.983
354.796	833.049
358.17	847.984
361.545	849.098
364.92	838.392
368.295	780.884
371.67	729.491
375.044	643.817
378.419	580.777
381.794	538.657
385.169	447.271
388.544	393.932
391.918	270.381
395.293	204.492
398.668	97.8618
402.043	42.208
405.418	53.4477
408.793	71.5967
412.167	80.5129
415.542	91.7595
418.917	139.324
422.292	178.039
425.667	194.138
429.041	235.416
432.416	207.423
435.791	143.064
439.166	102.672
442.541	68.7981
445.915	0.591064
449.29	28.3018
452.665	27.6174
456.04	6.42505
459.415	25.387
462.789	96.0342
466.164	177.867
469.539	340.147
472.914	517.04
476.289	754.449
479.664	986.849
483.038	1238.21
486.413	1426.63
489.788	1522.82
493.163	1569.67
496.538	1573.78
499.913	1587.77
503.287	1587.24
506.662	1619.86
510.037	1698.81
513.412	1725.46
516.787	1632.11
520.161	1542.81
523.536	1364.53
526.911	1172.69
530.286	968.146
533.661	777.355
537.035	593.85
540.41	423.758
543.785	312.469
547.16	202.024
550.535	115.421
553.909	56.8303
557.284	37.1395
560.659	19.5027
564.034	10.2974
567.409	12.8259
570.784	1.35474
574.158	4.98914
577.533	6.53943
580.908	8.2262
584.283	19.7889
587.658	11.2866
591.033	12.5574
594.407	40.2948
597.782	33.0383
601.157	57.4493
604.532	60.2844
607.907	94.852
611.281	110.754
614.656	126.212
618.031	100.794
621.406	137.358
624.781	147.06
628.155	137.068
631.53	172.729
634.905	175.126
638.28	198.653
641.655	203.593
645.029	201.14
648.404	190.511
651.779	166.34
655.154	141.039
658.529	150.543
661.904	110.703
665.278	108.954
668.653	107.721
672.028	81.0494
675.403	72.0031
678.778	63.4785
682.153	82.1435
685.527	96.333
688.902	87.1485
692.277	74.6066
695.652	83.2778
699.027	85.9783
702.401	68.2106
705.776	57.4425
709.151	46.4112
712.526	59.2349
715.901	48.6851
719.275	44.1637
722.65	54.1461
726.025	44.3628
729.4	5.31396
732.775	24.3919
736.149	30.7251
739.524	23.019
742.899	34.938
746.274	18.7661
749.649	27.8854
753.024	8.54578
756.398	22.2296
759.773	37.2433
763.148	113.374
766.523	174.461
769.898	237.698
773.273	332.787
776.647	393.061
780.022	497.584
783.397	546.773
786.772	657.303
790.146	711.274
793.521	732.473
796.896	686.129
800.271	653.072
803.646	557.022
807.021	507.266
810.395	406.711
813.77	407.528
817.145	484.086
820.52	577.012
823.895	757.822
827.269	1038.44
830.644	1414.41
834.019	1823.81
837.394	2291.7
840.769	2714.02
844.144	3015.24
847.518	3063.63
850.893	2881.89
854.268	2601.76
857.643	2304.76
861.018	2077.54
864.393	1876.11
867.767	1802.35
871.142	1705.15
874.517	1639.31
877.892	1500.29
881.266	1286.42
884.641	1054.31
888.016	823.804
891.391	634.039
894.766	492.844
898.141	359.321
901.515	259.605
904.89	169.137
908.265	101.5
911.64	42.8583
915.015	5.64471
918.389	11.6987
921.764	22.66
925.139	39.625
928.514	39.9211
931.889	24.7405
935.264	14.0615
938.638	19.6159
942.013	26.3436
945.388	28.641
948.763	14.5685
952.138	33.1393
955.512	65.7299
958.887	68.8513
962.262	110.424
965.637	121.413
969.012	101.817
972.386	114.53
975.761	126.111
979.136	132.086
982.511	113.122
985.886	121.186
989.261	107.605
992.635	116.339
996.01	98.9191
999.385	87.658
1002.76	76.1807
1006.13	70.1608
1009.51	81.2952
1012.88	75.0126
1016.26	51.9443
1019.63	59.4836
1023.01	51.8422
1026.38	60.7433
1029.76	48.7043
1033.13	56.981
1036.51	33.4767
1039.88	33.0997
1043.26	38.8903
1046.63	6.51862
1050.01	17.6374
1053.38	28.0773
1056.76	26.8661
1060.13	14.7642
1063.51	23.6303
1066.88	39.4293
1070.26	32.6383
1073.63	26.3157
1077.01	26.0592
1080.38	43.4681
1083.76	76.9497
1087.13	174.266
1090.51	246.594
1093.88	442.081
1097.26	572.784
1100.63	343.918
1104	143.668
1107.38	45.6883
1110.75	20.469
1114.13	7.55685
1117.5	5.33099
1120.88	10.7632
1124.25	6.3764
1127.63	8.86304
1131	1.25885
1134.38	2.72861
1137.75	8.85059
1141.13	19.7303
1144.5	15.4635
1147.88	13.3279
1151.25	16.7484
1154.63	2.21265
1158	18.3473
1161.38	19.6954
1164.75	3.38962
1168.13	0.705963
1171.5	14.2876
1174.88	21.8464
1178.25	36.1803
1181.62	18.071
1185	16.522
1188.38	26.8481
1191.75	38.1582
1195.12	2.1062
1198.5	44.364
1201.87	31.7412
1205.25	23.1732
1208.62	28.5679
1212	21.3464
1215.37	19.2832
1218.75	19.8291
1222.12	0.86615
1225.5	28.2791
1228.87	7.05942
1232.25	11.9379
1235.62	21.7784
1239	37.2272
1242.37	15.7623
1245.75	6.97107
1249.12	21.9252
1252.5	11.7071
1255.87	14.14
1259.25	4.57999
1262.62	24.6414
1265.99	8.76932
1269.37	9.22839
1272.74	27.3931
1276.12	13.4019
1279.49	21.7686
1282.87	12.7822
