Measurement: Raman, 780 nm, unoriented, Raman Data RAW
Mineral: Jinshajiangite
Rruff sample: R130031
Ideal chemistry: BaNaFe^2+^_4_Ti^4+^_2_(Si_2_O_7_)_2_O_2_(OH)_2_F
Locality: Dmitrievka village, Mariupol' Massif, Azov Sea Region, Donets'k Oblast', Ukraine
Source: Don Doell
Description: Reddish brown massive, exhibiting good cleavage
Raman shift (cm-1)	intensity
89.7532	0
93.1281	1756.94
96.5029	1732.2
99.8777	1703.19
103.252	1723.97
106.627	1724.82
110.002	1691.97
113.377	1670.29
116.752	1616.35
120.127	1581.01
123.501	1575.89
126.876	1587.33
130.251	1613.36
133.626	1628.33
137.001	1604.3
140.375	1564.86
143.75	1578.43
147.125	1611.62
150.5	1639.26
153.875	1675.08
157.25	1706.94
160.624	1750.72
163.999	1787.28
167.374	1746.07
170.749	1646.8
174.124	1582.89
177.498	1566.02
180.873	1563.87
184.248	1573.35
187.623	1585.33
190.998	1605.2
194.373	1619.65
197.747	1628.41
201.122	1634.12
204.497	1646.26
207.872	1644.76
211.247	1635.82
214.621	1625.72
217.996	1628.21
221.371	1644.4
224.746	1670.59
228.121	1698.53
231.495	1730.24
234.87	1763.78
238.245	1796.86
241.62	1815.83
244.995	1844.41
248.369	1864.75
251.744	1879.75
255.119	1869.79
258.494	1831.88
261.869	1785.56
265.244	1738.69
268.618	1701.22
271.993	1674.43
275.368	1670.04
278.743	1682.88
282.118	1699.48
285.493	1713.25
288.867	1738.96
292.242	1754.64
295.617	1782.64
298.992	1822.84
302.366	1887.11
305.741	1968.33
309.116	2035.82
312.491	2076.54
315.866	2103.58
319.241	2078.68
322.615	2032.02
325.99	1979.34
329.365	1948.03
332.74	1916.69
336.115	1882.16
339.49	1839.37
342.864	1788.09
346.239	1741.5
349.614	1707.15
352.989	1662.66
356.364	1630.44
359.738	1595.61
363.113	1582.52
366.488	1585.44
369.863	1605.71
373.238	1626.28
376.613	1646.51
379.987	1656.97
383.362	1642.88
386.737	1630.22
390.112	1612.98
393.486	1594.48
396.861	1576.47
400.236	1558.19
403.611	1540.95
406.986	1527.69
410.361	1518.24
413.735	1499.25
417.11	1483.07
420.485	1468.97
423.86	1444.38
427.235	1426.33
430.61	1409.37
433.984	1383.01
437.359	1357.26
440.734	1340.15
444.109	1324.39
447.484	1306.32
450.858	1301.81
454.233	1298.87
457.608	1297.34
460.983	1302.7
464.358	1302.5
467.733	1304.96
471.107	1303.43
474.482	1292.38
477.857	1289.71
481.232	1278.03
484.606	1271.49
487.981	1262.07
491.356	1255.87
494.731	1249.13
498.106	1239.38
501.481	1238.08
504.855	1235.89
508.23	1233.92
511.605	1230.51
514.98	1233.36
518.355	1228.54
521.73	1223.91
525.104	1222.68
528.479	1218.17
531.854	1210.78
535.229	1213.99
538.604	1214.69
541.978	1223
545.353	1228.1
548.728	1240.61
552.103	1253.7
555.478	1269.89
558.852	1290.49
562.227	1317.57
565.602	1352.68
568.977	1401.84
572.352	1464.88
575.726	1546.21
579.101	1630.69
582.476	1664.64
585.851	1619.94
589.226	1515.35
592.601	1416.81
595.975	1345.59
599.35	1301.25
602.725	1275.16
606.1	1256.79
609.475	1240.96
612.85	1222.47
616.224	1219.49
619.599	1216.11
622.974	1217.96
626.349	1215.08
629.723	1217.4
633.098	1222.53
636.473	1223.17
639.848	1233.63
643.223	1239.23
646.598	1253.78
649.972	1255.38
653.347	1269.52
656.722	1289.37
660.097	1303.91
663.472	1324.52
666.846	1352.39
670.221	1377.05
673.596	1412.13
676.971	1448.65
680.346	1490.3
683.721	1542.05
687.095	1593.96
690.47	1649.55
693.845	1704.58
697.22	1759.34
700.595	1809.69
703.97	1841.14
707.344	1858.24
710.719	1851.33
714.094	1828.96
717.469	1818.89
720.843	1814.82
724.218	1797.88
727.593	1785.41
730.968	1758.58
734.343	1719.15
737.718	1667.64
741.092	1619.48
744.467	1559.4
747.842	1510.49
751.217	1463.86
754.592	1408.59
757.966	1370.56
761.341	1336.04
764.716	1295.32
768.091	1265.67
771.466	1239.84
774.841	1211.58
778.215	1184.77
781.59	1169.43
784.965	1153.74
788.34	1143.09
791.715	1126.8
795.089	1118.2
798.464	1113.68
801.839	1094.76
805.214	1093.24
808.589	1086.65
811.963	1078.34
815.338	1073.61
818.713	1073.2
822.088	1065.2
825.463	1062.92
828.838	1059.86
832.212	1055.96
835.587	1052.81
838.962	1050.88
842.337	1043.81
845.712	1045.11
849.087	1048.4
852.461	1049.56
855.836	1053.21
859.211	1059.01
862.586	1060.83
865.961	1065.09
869.335	1068.9
872.71	1071.3
876.085	1071.54
879.46	1077.45
882.835	1092.16
886.209	1113.05
889.584	1145.8
892.959	1183.15
896.334	1229.75
899.709	1288
903.083	1344.85
906.458	1399.88
909.833	1448.75
913.208	1475.96
916.583	1467.38
919.958	1425.76
923.332	1372.48
926.707	1305.09
930.082	1239.17
933.457	1185.35
936.832	1143.96
940.207	1113.51
943.581	1094.22
946.956	1084.86
950.331	1091.02
953.706	1108.51
957.081	1139.12
960.455	1157.02
963.83	1151.22
967.205	1114.99
970.58	1060.9
973.955	1018.86
977.329	991.582
980.704	970.987
984.079	962.273
987.454	953.014
990.829	954.138
994.203	956.494
997.578	966.09
1000.95	981.867
1004.33	1005.81
1007.7	1033.22
1011.08	1081.12
1014.45	1151.57
1017.83	1225.44
1021.2	1299.04
1024.58	1318.58
1027.95	1267.05
1031.33	1173.44
1034.7	1084.22
1038.08	1028.51
1041.45	988.562
1044.83	960.333
1048.2	938.776
1051.58	928.262
1054.95	917.353
1058.33	906.561
1061.7	901.013
1065.08	894.825
1068.45	890.634
1071.82	885.179
1075.2	880.817
1078.57	875.008
1081.95	875.136
1085.32	870.881
1088.7	868.564
1092.07	865.089
1095.45	861.037
1098.82	856.382
1102.2	854.231
1105.57	852.968
1108.95	849.619
1112.32	848.78
1115.7	848.41
1119.07	847.912
1122.45	846.347
1125.82	840.6
1129.2	842.776
1132.57	841.854
1135.95	840.465
1139.32	841.866
1142.69	841.116
1146.07	841.02
1149.44	839.347
1152.82	838.83
1156.19	841.026
1159.57	836.474
1162.94	839.724
1166.32	839.744
1169.69	840.874
1173.07	836.313
1176.44	839.076
1179.82	835.177
1183.19	830.961
1186.57	834.48
1189.94	831.722
1193.32	829.893
1196.69	831.935
1200.07	829.057
1203.44	827.478
1206.82	824.654
1210.19	821.871
1213.57	822.343
1216.94	820.376
1220.32	815.475
1223.69	816.353
1227.07	815.616
1230.44	814.493
1233.82	811.459
1237.19	812.972
1240.57	807.862
1243.94	808.144
1247.32	805.497
1250.69	806.056
1254.06	805.815
1257.44	803.479
1260.81	802.36
1264.19	802.37
1267.56	805.019
1270.94	807.295
1274.31	803.982
1277.69	807.336
1281.06	807.74
