Measurement: Raman, 532 nm, unoriented, Raman Data RAW
Mineral: Jinshajiangite
Rruff sample: R130031
Ideal chemistry: BaNaFe^2+^_4_Ti^4+^_2_(Si_2_O_7_)_2_O_2_(OH)_2_F
Locality: Dmitrievka village, Mariupol' Massif, Azov Sea Region, Donets'k Oblast', Ukraine
Source: Don Doell
Description: Reddish brown massive, exhibiting good cleavage
Raman shift (cm-1)	intensity
89.3616	0
92.7365	239.482
96.1113	218.115
99.4861	206.928
102.861	192.015
106.236	182.934
109.611	171.177
112.985	156.665
116.36	144.418
119.735	138.72
123.11	132.42
126.485	121.463
129.859	116.89
133.234	108.964
136.609	106.165
139.984	96.531
143.359	92.8422
146.733	88.4034
150.108	84.3844
153.483	81.5735
156.858	76.0777
160.233	74.78
163.608	71.9299
166.982	70.7423
170.357	69.6899
173.732	76.7106
177.107	86.0646
180.482	98.9315
183.857	108.655
187.231	114.814
190.606	133.59
193.981	150.551
197.356	159.385
200.731	166.305
204.105	170.686
207.48	177.184
210.855	176.174
214.23	175.757
217.605	175.718
220.98	176.934
224.354	180.802
227.729	186.371
231.104	195.862
234.479	204.422
237.854	212.339
241.228	216.836
244.603	219.179
247.978	222.744
251.353	227.207
254.728	232.005
258.103	227.109
261.477	220.598
264.852	209.521
268.227	194.201
271.602	184.277
274.977	181.086
278.351	182.539
281.726	186.656
285.101	193.606
288.476	203.183
291.851	209.794
295.226	213.898
298.6	225.875
301.975	243.813
305.35	273.534
308.725	300.519
312.099	328.078
315.474	346.079
318.849	347.859
322.224	334.712
325.599	313.221
328.974	298.904
332.348	288.809
335.723	280.945
339.098	268.567
342.473	251.537
345.848	232.16
349.223	217.153
352.597	202.204
355.972	189.081
359.347	181.389
362.722	178.318
366.097	178.87
369.471	185.728
372.846	197.372
376.221	210.626
379.596	220.957
382.971	220.152
386.346	212.233
389.72	206.287
393.095	202.506
396.47	197.517
399.845	191.895
403.22	186.44
406.594	183.526
409.969	181.665
413.344	180.672
416.719	177.931
420.094	174.45
423.469	166.55
426.843	161.111
430.218	151.501
433.593	143.427
436.968	131.666
440.343	121.872
443.717	114.57
447.092	109.254
450.467	106.064
453.842	104.293
457.217	106.522
460.591	110.136
463.966	113.838
467.341	119.433
470.716	121.435
474.091	119.999
477.466	115.788
480.84	111.425
484.215	108.416
487.59	102.381
490.965	98.3796
494.34	96.7651
497.714	94.921
501.089	94.9808
504.464	91.593
507.839	91.4944
511.214	91.7424
514.589	93.6624
517.963	94.1016
521.338	93.5651
524.713	92.7301
528.088	92.8529
531.463	91.9458
534.837	94.0458
538.212	95.5207
541.587	97.6055
544.962	101.903
548.337	106.97
551.712	113.574
555.086	122.922
558.461	134.292
561.836	148.338
565.211	165.843
568.586	189.888
571.96	225.514
575.335	272.312
578.71	325.338
582.085	365.265
585.46	364.9
588.835	321.206
592.209	260.342
595.584	214.896
598.959	185.215
602.334	168.905
605.709	157.771
609.083	150.294
612.458	144.684
615.833	139.881
619.208	141.792
622.583	143.845
625.957	149.291
629.332	153.849
632.707	159.183
636.082	167.41
639.457	173.738
642.832	182.089
646.206	192.099
649.581	202.874
652.956	215.792
656.331	229.626
659.706	247.218
663.081	264.247
666.455	287.749
669.83	315.458
673.205	343.623
676.58	375.668
679.955	413.919
683.329	453.059
686.704	501.049
690.079	548.855
693.454	598.436
696.829	651.363
700.203	703.6
703.578	746.606
706.953	783.071
710.328	803.706
713.703	813.102
717.078	821.604
720.452	829.572
723.827	834.729
727.202	830.236
730.577	812.638
733.952	781.17
737.327	740.308
740.701	696.06
744.076	643.452
747.451	595.745
750.826	546.886
754.201	495.888
757.575	452.788
760.95	418.234
764.325	384.382
767.7	352.374
771.075	323.942
774.449	298.852
777.824	277.535
781.199	259.121
784.574	242.391
787.949	228.318
791.323	218.354
794.698	207.152
798.073	198.52
801.448	192.922
804.823	185.002
808.198	180.063
811.572	174.631
814.947	170.075
818.322	166.506
821.697	162.017
825.072	160.309
828.447	156.743
831.821	152.657
835.196	153.567
838.571	149.625
841.946	151.333
845.321	150.985
848.695	149.941
852.07	151.259
855.445	154.681
858.82	156.936
862.195	160.423
865.569	163.574
868.944	168.348
872.319	170.547
875.694	173.485
879.069	174.889
882.444	182.36
885.818	193.413
889.193	213.503
892.568	238.571
895.943	269.922
899.318	306.872
902.692	351.743
906.067	394.228
909.442	437.284
912.817	468.331
916.192	482.469
919.567	470.56
922.941	439.463
926.316	399.991
929.691	355.273
933.066	310.671
936.441	280.695
939.816	258.926
943.19	244.381
946.565	238.802
949.94	243.315
953.315	261.032
956.69	291.796
960.064	331.997
963.439	360.808
966.814	347.698
970.189	301.843
973.564	251.715
976.938	212.496
980.313	187.107
983.688	169.703
987.063	165.489
990.438	167.07
993.813	172.966
997.187	185.914
1000.56	209.972
1003.94	242.603
1007.31	291.111
1010.69	366.91
1014.06	473.34
1017.44	615.247
1020.81	784.622
1024.19	921.312
1027.56	946.61
1030.94	815.574
1034.31	623.906
1037.68	462.435
1041.06	352.409
1044.43	282.406
1047.81	236.474
1051.18	200.638
1054.56	178.878
1057.93	160.773
1061.31	148.755
1064.68	139.251
1068.06	130.61
1071.43	123.849
1074.81	116.637
1078.18	113.05
1081.56	106.298
1084.93	103.146
1088.31	98.021
1091.68	94.1108
1095.06	90.4728
1098.43	89.0708
1101.81	86.9042
1105.18	84.915
1108.56	83.3483
1111.93	82.5123
1115.31	80.6062
1118.68	81.7075
1122.06	79.8104
1125.43	78.7113
1128.81	79.7405
1132.18	79.0139
1135.56	80.648
1138.93	78.0658
1142.3	77.0988
1145.68	77.1634
1149.05	76.6028
1152.43	75.7253
1155.8	75.4569
1159.18	75.6823
1162.55	76.617
1165.93	75.4322
1169.3	74.9948
1172.68	74.3935
1176.05	74.768
1179.43	74.1058
1182.8	73.9126
1186.18	73.4166
1189.55	73.0643
1192.93	73.3144
1196.3	73.1343
1199.68	73.4921
1203.05	73.2099
1206.43	73.3243
1209.8	72.9251
1213.18	73.2828
1216.55	72.753
1219.92	71.7522
1223.3	71.8274
1226.67	71.6878
1230.05	71.7567
1233.42	70.9802
1236.8	70.6971
1240.17	71.3808
1243.55	71.3779
1246.92	72.5023
1250.3	70.6395
1253.67	72.1302
1257.05	69.8811
1260.42	70.8481
1263.8	70.4814
1267.17	70.5035
1270.55	70.8926
1273.92	69.7608
1277.3	69.9811
1280.67	70.5851
1284.05	70.0052
1287.42	69.8496
1290.8	70.8942
1294.17	69.232
1297.55	68.6958
1300.92	69.119
