Measurement: Raman, 514 nm, unoriented, Raman Data RAW
Mineral: Joaquinite-(Ce)
Rruff sample: X050026
Ideal chemistry: NaBa_2_Fe^2+^Ti^4+^_2_Ce^3+^_2_(Si_4_O_12_)_2_O_2_(OH)H_2_O
Locality: San Benito, California, USA
Source: G.R. Rossman
Raman shift (cm-1)	intensity
150.544	25460.6
155.583	25181.9
160.621	25193.7
165.66	25084.3
170.698	25208.6
175.737	25464.1
180.775	25559.9
185.814	25724.7
190.852	26060.2
195.89	25979.5
200.929	25678.1
205.967	25503
211.006	25641.8
216.044	25527.8
221.082	25592.6
226.121	26197.1
231.159	25996.4
236.198	25558.9
241.236	25716.8
246.274	26564
251.313	27172.7
256.351	27270.3
261.39	27877.4
266.428	27915.5
271.467	27984.4
276.505	28958.4
281.543	30987
286.582	31479.7
291.62	28852.8
296.659	26554.1
301.697	25745.1
306.736	25568.2
311.774	25957.3
316.812	26768.5
321.851	27191.4
326.889	28020.5
331.928	28565.4
336.966	27972.2
342.005	27697.4
347.043	29215.4
352.081	31772.5
357.12	32002.7
362.158	30033.7
367.197	29164.6
372.235	29148.7
377.274	28727
382.312	28404.9
387.35	29260.8
392.389	30608.9
397.427	31872.8
402.466	31518.2
407.504	30325.7
412.542	28770.9
417.581	28727
422.619	28998.1
427.658	28601.1
432.696	27749.4
437.735	27016.9
442.773	26372.6
447.811	26620.9
452.85	27465.2
457.888	28486.8
462.927	29853.6
467.965	31260.2
473.003	31320.3
478.042	29533.9
483.08	27642.8
488.119	26722.7
493.157	26366.6
498.196	26371.3
503.234	26272.5
508.272	26079
513.311	26089.3
518.349	26080.3
523.388	26107.7
528.426	25860.5
533.465	25704.9
538.503	25689.5
543.541	25708.3
548.58	25618.4
553.618	25862.7
558.657	25960.9
563.695	26055.2
568.734	26246
573.772	26828.6
578.81	27902.5
583.849	30137.8
588.887	33158.2
593.926	34974
598.964	33317.3
604.002	31460.4
609.041	31334.1
614.079	32492
619.118	34436.9
624.156	36138.3
629.194	36047.1
634.233	34684.2
639.271	34360.8
644.31	35690.9
649.348	37612.1
654.387	38324.2
659.425	36696.7
664.463	33827
669.502	31561.1
674.54	30438.6
679.579	30508.2
684.617	31996.8
689.656	34059.4
694.694	33923
699.732	33023.7
704.771	33233.8
709.809	32831.7
714.848	30875.6
719.886	29259.4
724.925	27844
729.963	26889
735.001	26482.9
740.04	26219
745.078	25906.6
750.117	25606
755.155	25515.6
760.193	25587.5
765.232	25768.8
770.27	26176.5
775.309	26097.5
780.347	25858.4
785.386	25552.5
790.424	25454.2
795.462	25274.3
800.501	25420.8
805.539	25396
810.578	25200.3
815.616	25152.8
820.654	25246.2
825.693	25313
830.731	25380.8
835.77	25456.7
840.808	25351.1
845.847	25404.7
850.885	25453.8
855.923	25464.3
860.962	25636.5
866	25817.7
871.039	26075.9
876.077	26471.9
881.116	27671.6
886.154	29709
891.192	31322.1
896.231	30923.7
901.269	29747.8
906.308	29819.7
911.346	30052.9
916.385	28850.6
921.423	27631.2
926.461	27257.3
931.5	28003.5
936.538	29832.2
941.577	31062.7
946.615	30161.9
951.654	29130.2
956.692	30056.4
961.73	32756.3
966.769	37512
971.807	40821.4
976.846	38593.2
981.884	34552.1
986.922	31884.8
991.961	30169.5
996.999	28928.2
1002.04	27877.8
1007.08	27358.6
1012.11	27207.4
1017.15	27413.9
1022.19	28622
1027.23	30208.4
1032.27	31599.8
1037.31	30734.9
1042.35	28911.4
1047.38	27859.6
1052.42	26784.5
1057.46	25967.8
1062.5	25549.9
1067.54	25422.6
1072.58	25395.3
1077.61	25459.9
1082.65	25404.4
1087.69	25321.4
1092.73	25453.2
1097.77	25469.8
1102.81	25825.7
1107.84	26304.3
1112.88	27165.4
1117.92	27487.4
1122.96	26530.9
1128	25834.8
1133.04	25379.2
1138.08	25450.1
1143.11	25488.8
1148.15	25626.5
1153.19	25437.4
1158.23	25438.4
1163.27	25605.9
1168.31	25583.8
1173.34	25578.2
1178.38	25622.8
1183.42	25473
1188.46	25739.1
1193.5	25491.6
1198.54	25569
1203.57	25387.6
1208.61	25367.4
1213.65	25573.2
1218.69	25428.2
1223.73	25353.2
1228.77	25515.4
1233.81	25613.8
1238.84	25497.4
1243.88	25322
1248.92	25344.3
1253.96	25670
1259	25416.6
1264.04	25418.9
1269.07	25341.4
1274.11	25463.4
1279.15	25498.3
1284.19	25494.9
1289.23	25531.7
1294.27	25381.4
1299.3	25509.3
1304.34	25396.3
1309.38	25361.5
1314.42	25388.9
1319.46	25514.6
1324.5	25447.2
1329.54	25375.4
1334.57	25481.6
1339.61	25288.6
1344.65	25448
1349.69	25600.5
1354.73	25371.2
1359.77	25424.2
1364.8	25468.2
1369.84	25487.5
1374.88	25489
1379.92	25338.5
1384.96	25373.5
1390	25561.8
1395.03	25489.6
1400.07	25229.4
1405.11	25291.9
1410.15	25525.8
1415.19	25404.1
1420.23	25415.8
1425.27	25437
1430.3	25443.8
1435.34	25554.2
1440.38	25411.1
1445.42	25427.9
1450.46	25514.5
1455.5	25453.8
1460.53	25430
1465.57	25508.1
1470.61	25372.8
1475.65	25366.1
1480.69	25385.1
1485.73	25432.9
1490.76	25511.8
1495.8	25369.6
1500.84	25460.6
