Measurement: Raman, 532 nm, unoriented, Raman Data Processed
Mineral: Karibibite
Rruff sample: R060307
Ideal chemistry: Fe^3+^_3_(As^3+^O_2_)_4_(As^3+^_2_O_5_)(OH)
Locality: Urucum, Municipio de Galilea, Minas Gerais, Brazil
Source: Michael Scott
Description: Yellowish-brown acicular crystals lining cavities
Raman shift (cm-1)	intensity
88.6188	0
91.9937	15.2732
95.3685	24.8987
98.7433	0.447754
102.118	1.09149
105.493	11.4518
108.868	28.1283
112.243	62.0519
115.617	58.4426
118.992	44.909
122.367	60.3332
125.742	64.0037
129.117	78.8891
132.492	110.106
135.866	149.493
139.241	152.99
142.616	166.018
145.991	169.01
149.365	113.907
152.74	78.0971
156.115	71.4307
159.49	74.463
162.865	93.9306
166.24	117.169
169.614	157.047
172.989	214.81
176.364	292.127
179.739	333.666
183.114	246.851
186.488	171.64
189.863	157.36
193.238	180.131
196.613	200.978
199.988	155.631
203.363	79.3
206.737	45.222
210.112	41.1874
213.487	68.1366
216.862	97.2392
220.237	114.054
223.612	129.662
226.986	106.154
230.361	45.9999
233.736	15.1857
237.111	2.18433
240.486	4.19031
243.86	6.61179
247.235	0.224731
250.61	2.02835
253.985	0.469788
257.36	2.95972
260.735	9.76733
264.109	18.4956
267.484	31.8033
270.859	50.6887
274.234	69.7755
277.609	77.9255
280.983	70.9093
284.358	62.0488
287.733	62.6586
291.108	47.3329
294.483	22.1879
297.858	7.49353
301.232	4.13025
304.607	1.62497
307.982	2.40277
311.357	3.83499
314.732	3.61233
318.106	6.72061
321.481	16.402
324.856	20.4872
328.231	26.7578
331.606	36.6723
334.981	51.098
338.355	67.2576
341.73	88.7216
345.105	107.335
348.48	118.605
351.855	103.588
355.229	69.7314
358.604	44.1139
361.979	24.4055
365.354	13.9517
368.729	3.39868
372.103	1.28683
375.478	1.13687
378.853	5.54807
382.228	11.6322
385.603	19.3596
388.978	26.7109
392.352	34.1968
395.727	38.1296
399.102	34.6002
402.477	29.7109
405.852	20.3799
409.226	13.8943
412.601	13.5923
415.976	16.2029
419.351	19.0813
422.726	24.5328
426.101	31.2751
429.475	36.6169
432.85	41.3707
436.225	43.4358
439.6	47.3504
442.975	49.4742
446.349	50.0291
449.724	47.6928
453.099	44.5706
456.474	37.5017
459.849	31.1688
463.224	23.0129
466.598	19.1769
469.973	17.0364
473.348	20.2948
476.723	16.9302
480.098	17.1209
483.473	11.1548
486.847	4.86148
490.222	0.239777
493.597	1.65372
496.972	4.22162
500.347	1.06342
503.721	2.5155
507.096	5.49951
510.471	6.07675
513.846	10.4594
517.221	14.4719
520.596	17.0133
523.97	20.1851
527.345	23.4741
530.72	31.305
534.095	35.9182
537.47	34.8103
540.844	34.5433
544.219	27.8032
547.594	18.4953
550.969	9.11188
554.344	4.63727
557.718	1.9274
561.093	0.202972
564.468	0.194672
567.843	1.94733
571.218	7.26251
574.592	12.628
577.967	15.7482
581.342	15.9361
584.717	20.1111
588.092	15.3578
591.467	13.1802
594.841	7.11359
598.216	4.64075
601.591	2.04633
604.966	2.82974
608.341	2.67209
611.716	5.88699
615.09	6.71387
618.465	7.0163
621.84	7.05212
625.215	5.64712
628.59	6.76868
631.964	3.74506
635.339	2.04501
638.714	0.286469
642.089	0.730194
645.464	0.391846
648.838	0.923309
652.213	0.693665
655.588	1.12375
658.963	2.56744
662.338	2.17596
665.713	0.623047
669.087	0.94754
672.462	1.53567
675.837	1.44498
679.212	1.16681
682.587	1.05463
685.962	3.7374
689.336	0.568237
692.711	1.35825
696.086	2.76834
699.461	2.84323
702.836	0.231812
706.21	1.51382
709.585	0.999359
712.96	0.203583
716.335	0.803162
719.71	0.929199
723.085	0.01947
726.459	1.64587
729.834	1.44043
733.209	1.66562
736.584	3.6485
739.959	4.0105
743.333	3.93774
746.708	4.51578
750.083	6.47015
753.458	4.80039
756.833	6.91763
760.207	9.06299
763.582	11.9639
766.957	16.2036
770.332	20.0812
773.707	22.1108
777.082	24.0447
780.456	29.5654
783.831	30.9271
787.206	32.1499
790.581	33.6891
793.956	38.3673
797.33	39.248
800.705	47.9927
804.08	53.546
807.455	57.0331
810.83	63.5502
814.205	62.2637
817.579	57.8779
820.954	50.5944
824.329	40.3236
827.704	30.9921
831.079	23.3945
834.453	21.4594
837.828	14.6755
841.203	10.2142
844.578	8.1037
847.953	6.13953
851.328	6.19125
854.702	2.74219
858.077	1.72485
861.452	2.58933
864.827	0.347931
868.202	3.02872
871.577	0.87793
874.951	1.25131
878.326	2.49155
881.701	0.930817
885.076	0.784302
888.451	0.180176
891.825	1.28821
895.2	4.58102
898.575	0.210632
901.95	2.59524
905.325	2.61719
908.699	1.67053
912.074	1.42786
915.449	4.15964
918.824	3.31488
922.199	4.35132
925.573	4.91681
928.948	5.54712
932.323	2.88913
935.698	3.3988
939.073	3.28891
942.448	3.57144
945.822	1.28217
949.197	1.26221
952.572	2.46756
955.947	0.548401
959.322	2.95035
962.697	1.50647
966.071	0.536163
969.446	0.333923
972.821	1.9985
976.196	0.491364
979.571	0.723816
982.945	0.041626
986.32	1.81509
989.695	1.00079
993.07	1.58456
996.445	0.509155
999.819	1.70254
1003.19	0.701447
1006.57	2.48853
1009.94	0.881531
1013.32	3.42725
1016.69	2.70801
1020.07	3.31686
1023.44	0.491943
1026.82	2.00415
1030.19	3.77945
1033.57	0.334717
1036.94	3.02206
1040.32	2.49094
1043.69	2.35114
1047.07	3.19122
1050.44	2.51517
1053.82	2.41742
1057.19	3.99381
1060.57	1.76123
1063.94	1.80164
1067.32	2.12195
1070.69	1.51453
1074.07	1.09653
1077.44	0.468658
1080.82	1.07767
1084.19	0.713043
1087.57	1.89313
1090.94	3.28656
1094.31	0.44812
1097.69	1.66071
1101.06	3.58508
1104.44	4.547
1107.81	3.30524
1111.19	6.00915
1114.56	5.8866
1117.94	6.43823
1121.31	4.6922
1124.69	4.2774
1128.06	4.29108
1131.44	4.75543
1134.81	1.90979
1138.19	3.5448
1141.56	5.84515
1144.94	2.59747
1148.31	0.450684
1151.69	1.99609
1155.06	0.047607
1158.44	1.79559
1161.81	3.87744
1165.19	0.967529
1168.56	0.396057
1171.93	1.31134
1175.31	0.955994
1178.68	1.90088
1182.06	0.448975
1185.43	7.57483
1188.81	4.11523
1192.18	2.4657
1195.56	3.97571
1198.93	2.84167
1202.31	6.13269
1205.68	4.52832
1209.06	2.97223
1212.43	3.51013
1215.81	1.30249
1219.18	2.48969
1222.56	2.38818
1225.93	0.846619
1229.31	1.51587
1232.68	3.58649
1236.06	0.993042
1239.43	3.25336
1242.81	2.72974
1246.18	1.3103
1249.56	2.3429
1252.93	1.08069
1256.31	2.97522
1259.68	3.92401
1263.06	2.21069
1266.43	1.70471
1269.81	2.04156
1273.18	0.342102
1276.56	0.795349
1279.93	0.094055
1283.3	2.07532
1286.68	4.06793
1290.05	5.48273
1293.43	2.1676
1296.8	4.15308
1300.18	0.016602
