Measurement: Raman, 780 nm, unoriented, Raman Data Processed
Mineral: Karibibite
Rruff sample: R060380
Ideal chemistry: Fe^3+^_3_(As^3+^O_2_)_4_(As^3+^_2_O_5_)(OH)
Locality: Tsumeb mine, Tsumeb, Otavi District, Oshikoto, Namibia
Source: Michael Scott
Description: Matted coating of orange-yellow thin hairs
Raman shift (cm-1)	intensity
118.438	0
121.812	12.205
125.187	16.9825
128.562	16.0774
131.937	40.3207
135.312	114.029
138.686	78.2872
142.061	93.3113
145.436	142.52
148.811	52.4778
152.186	2.69049
155.56	8.60516
158.935	7.88977
162.31	41.5126
165.685	63.8978
169.06	113.231
172.435	198.823
175.809	277.053
179.184	377.964
182.559	244.286
185.934	134.879
189.309	114.765
192.684	131.771
196.058	196.63
199.433	245.312
202.808	168.344
206.183	125.003
209.558	155.087
212.932	232.827
216.307	309.829
219.682	283.88
223.057	363.545
226.432	366.056
229.806	203.555
233.181	116.856
236.556	46.9001
239.931	31.3875
243.306	39.7944
246.681	66.7295
250.055	59.4277
253.43	19.7085
256.805	1.19757
260.18	3.75928
263.555	15.7272
266.93	22.9472
270.304	32.8351
273.679	52.3653
277.054	73.7611
280.429	46.2996
283.804	18.7536
287.178	13.5557
290.553	12.669
293.928	2.68591
297.303	5.64447
300.678	3.67969
304.053	1.49997
307.427	0.946289
310.802	0.68219
314.177	4.54849
317.552	9.04727
320.927	20.9543
324.301	25.3012
327.676	23.8282
331.051	27.8739
334.426	40.2571
337.801	51.8233
341.175	71.2652
344.55	95.4497
347.925	123.351
351.3	146.469
354.675	121.883
358.05	67.7451
361.424	31.3767
364.799	17.0453
368.174	5.64056
371.549	1.79181
374.924	3.41217
378.298	2.49689
381.673	14.5789
385.048	30.4371
388.423	53.9539
391.798	78.4684
395.173	97.2712
398.547	104.021
401.922	88.5767
405.297	58.6243
408.672	30.1601
412.047	12.6937
415.421	6.18195
418.796	11.662
422.171	16.8884
425.546	27.0604
428.921	42.675
432.296	53.7696
435.67	59.5945
439.045	54.0037
442.42	51.5919
445.795	49.9382
449.17	46.4943
452.545	45.9047
455.919	43.645
459.294	39.007
462.669	36.4707
466.044	35.2957
469.419	39.9798
472.793	45.175
476.168	60.2818
479.543	75.8481
482.918	62.0781
486.293	35.3976
489.668	14.3847
493.042	3.52936
496.417	2.01776
499.792	1.43832
503.167	1.44488
506.542	3.55063
509.916	9.61096
513.291	13.9031
516.666	19.0444
520.041	21.7332
523.416	21.0996
526.79	20.5569
530.165	18.2935
533.54	23.3736
536.915	24.131
540.29	21.8656
543.665	17.8716
547.039	9.21457
550.414	7.26614
553.789	2.10998
557.164	0.35495
560.539	1.76672
563.913	1.65845
567.288	0.31842
570.663	3.44897
574.038	8.28827
577.413	13.8254
580.788	17.8
584.162	18.4432
587.537	21.4315
590.912	20.7389
594.287	21.8812
597.662	15.8669
601.037	14.2283
604.411	13.0686
607.786	15.1339
611.161	17.4109
614.536	21.8542
617.911	22.7369
621.285	25.3957
624.66	22.3715
628.035	15.8677
631.41	12.8707
634.785	10.4903
638.159	10.0026
641.534	7.70688
644.909	4.66226
648.284	4.95975
651.659	0.926239
655.034	2.3656
658.408	2.86523
661.783	0.773651
665.158	0.199036
668.533	1.70886
671.908	2.20807
675.283	1.96246
678.657	1.36136
682.032	3.54217
685.407	4.71976
688.782	7.00577
692.157	3.92236
695.531	4.40985
698.906	6.05487
702.281	7.60263
705.656	9.63983
709.031	8.03567
712.405	9.80051
715.78	11.0153
719.155	12.3238
722.53	12.7765
725.905	11.4658
729.279	15.1393
732.654	14.8448
736.029	19.5715
739.404	23.3378
742.779	29.9179
746.154	28.5994
749.528	24.1897
752.903	17.4795
756.278	10.2387
759.653	10.5398
763.028	3.9444
766.403	0.466675
769.777	2.03955
773.152	0.041016
776.527	0.457062
779.902	0.088776
783.277	1.98615
786.652	0.395721
790.026	0.161041
793.401	0.749481
796.776	2.40897
800.151	1.18515
803.526	1.04605
806.9	2.06769
810.275	2.40564
813.65	3.92029
817.025	4.7262
820.4	6.18631
823.774	1.95792
827.149	0.934479
830.524	0.37793
833.899	1.44705
837.274	2.42343
840.649	3.35413
844.023	1.9024
847.398	1.12289
850.773	0.261475
854.148	2.10834
857.523	3.83047
860.898	4.54617
864.272	2.35812
867.647	1.30508
871.022	3.1456
874.397	2.36545
877.771	2.72412
881.146	3.28113
884.521	2.77167
887.896	1.40439
891.271	1.71698
894.646	2.2963
898.02	3.04111
901.395	0.325653
904.77	1.07507
908.145	0.330719
911.52	0.197601
914.894	1.66183
918.269	2.71024
921.644	1.31342
925.019	0.991608
928.394	2.45334
931.769	0.56189
935.143	4.23911
938.518	2.86462
941.893	0.860931
945.268	4.0719
948.643	1.65396
952.018	3.02624
955.392	1.44992
958.767	0.406555
962.142	2.52072
965.517	1.31421
968.892	2.64474
972.266	0.594666
975.641	0.466736
979.016	3.57352
982.391	2.9375
985.766	2.07358
989.141	0.417969
992.515	0.922546
995.89	1.32831
999.265	2.01877
1002.64	4.64392
1006.01	4.29413
1009.39	5.00085
1012.76	6.69836
1016.14	4.02823
1019.51	3.24683
1022.89	3.06964
1026.26	5.91174
1029.64	2.52383
1033.01	1.85187
1036.39	1.10309
1039.76	1.53732
1043.14	3.71301
1046.51	2.61084
1049.89	2.08774
1053.26	2.52057
1056.64	3.8555
1060.01	0.493042
1063.39	5.08575
1066.76	4.54096
1070.14	0.004639
1073.51	2.19705
1076.89	2.31509
1080.26	2.04752
1083.63	2.57126
1087.01	1.90122
1090.38	3.17483
1093.76	0.815643
1097.13	0.445282
1100.51	3.32342
1103.88	0.561218
1107.26	2.65305
1110.63	1.29242
1114.01	0.144684
1117.38	0.91217
1120.76	2.84967
1124.13	1.03235
1127.51	0.879242
1130.88	0.888611
1134.26	3.28989
1137.63	4.32501
1141.01	2.8562
1144.38	5.08081
1147.76	2.80893
1151.13	4.82648
1154.51	3.79367
1157.88	2.88956
1161.26	3.78867
1164.63	0.729187
1168.01	3.90564
1171.38	4.61301
1174.76	3.38629
1178.13	4.1875
1181.51	3.01892
1184.88	3.80637
1188.26	5.06848
1191.63	4.20157
1195	3.11072
1198.38	4.39725
1201.75	2.44046
1205.13	2.23151
1208.5	2.77393
1211.88	2.45071
1215.25	1.89551
1218.63	1.81787
1222	4.12537
1225.38	2.65299
1228.75	1.44162
1232.13	0.018951
1235.5	1.40109
1238.88	3.73575
1242.25	1.23498
1245.63	1.82828
1249	1.50778
1252.38	0.881897
1255.75	2.83145
1259.13	1.54684
1262.5	3.14117
1265.88	3.46667
1269.25	2.53989
1272.62	0.689331
1276	2.14862
1279.38	2.59375
