Measurement: Raman, 780 nm, unoriented, Raman Data Processed
Mineral: Karibibite
Rruff sample: R060307
Ideal chemistry: Fe^3+^_3_(As^3+^O_2_)_4_(As^3+^_2_O_5_)(OH)
Locality: Urucum, Municipio de Galilea, Minas Gerais, Brazil
Source: Michael Scott
Description: Yellowish-brown acicular crystals lining cavities
Raman shift (cm-1)	intensity
93.3677	0
96.7425	89.8599
100.117	1.17334
103.492	8.03271
106.867	29.5762
110.242	26.3189
113.617	167.716
116.992	44.8879
120.366	8.75854
123.741	51.6728
127.116	52.3196
130.491	38.0713
133.865	57.8259
137.24	146.76
140.615	77.2412
143.99	164.861
147.365	274.087
150.74	50.4321
154.114	8.45642
157.489	4.86426
160.864	19.0625
164.239	46.7329
167.614	66.4791
170.988	160.963
174.363	344.96
177.738	694.837
181.113	1091.39
184.488	666.359
187.863	345.034
191.237	253.571
194.612	321.94
197.987	493.974
201.362	537.075
204.737	250.51
208.112	111.406
211.486	106.838
214.861	199.979
218.236	355.702
221.611	365.102
224.986	455.038
228.36	379.806
231.735	167.15
235.11	79.9325
238.485	40.4033
241.86	48.9816
245.234	66.8585
248.609	115.84
251.984	114.602
255.359	28.447
258.734	1.98022
262.109	7.55969
265.483	4.40894
268.858	8.81006
272.233	48.8778
275.608	92.562
278.983	130.572
282.358	86.8159
285.732	48.3585
289.107	25.7799
292.482	10.4114
295.857	7.32471
299.232	4.57959
302.606	8.77918
305.981	14.5886
309.356	8.95679
312.731	2.38965
316.106	7.25952
319.481	8.57117
322.855	23.407
326.23	24.0725
329.605	20.0321
332.98	22.5895
336.355	31.937
339.729	44.1108
343.104	78.7659
346.479	146.451
349.854	233.75
353.229	272.718
356.603	189.033
359.978	92.445
363.353	44.898
366.728	19.8785
370.103	8.15137
373.478	3.17407
376.852	6.85828
380.227	1.52734
383.602	6.17944
386.977	25.223
390.352	50.2433
393.726	78.9945
397.101	99.1014
400.476	112.476
403.851	102.233
407.226	75.7201
410.601	45.1757
413.975	25.9434
417.35	20.1865
420.725	26.6258
424.1	33.5503
427.475	42.2534
430.849	53.4172
434.224	64.2982
437.599	63.9999
440.974	64.4042
444.349	66.5769
447.724	68.0089
451.098	68.4724
454.473	73.8773
457.848	65.8468
461.223	53.5155
464.598	38.5873
467.972	30.7122
471.347	31.2699
474.722	37.4965
478.097	55.6594
481.472	64.9823
484.846	57.0826
488.221	37.3575
491.596	16.3184
494.971	6.2113
498.346	1.50745
501.721	0.853271
505.095	1.26111
508.47	5.4314
511.845	11.6815
515.22	14.287
518.595	16.6245
521.97	17.3662
525.344	13.4037
528.719	15.4347
532.094	13.443
535.469	17.2662
538.844	19.4294
542.218	21.0356
545.593	20.0172
548.968	13.4862
552.343	6.45178
555.718	0.890015
559.092	0.830688
562.467	1.99731
565.842	3.56738
569.217	0.307861
572.592	1.25537
575.967	8.02502
579.341	11.2835
582.716	10.5992
586.091	11.0841
589.466	17.3281
592.841	14.1079
596.216	12.67
599.59	11.6409
602.965	8.65418
606.34	8.66113
609.715	6.64648
613.09	8.56433
616.464	15.0709
619.839	16.5491
623.214	20.1932
626.589	10.0396
629.964	10.8619
633.338	7.13037
636.713	9.70312
640.088	9.12012
643.463	3.28308
646.838	4.19983
650.213	3.60193
653.587	9.94702
656.962	5.78491
660.337	0.933716
663.712	2.88135
667.087	1.35144
670.462	1.93518
673.836	1.93848
677.211	3.33264
680.586	0.073975
683.961	0.661133
687.336	0.880615
690.71	0.586548
694.085	0.686523
697.46	1.68103
700.835	0.766724
704.21	2.72913
707.585	7.2417
710.959	12.8649
714.334	12.2965
717.709	10.7703
721.084	11.509
724.459	16.8796
727.833	19.5105
731.208	20.2707
734.583	28.6799
737.958	32.0122
741.333	45.2168
744.707	51.7238
748.082	54.9198
751.457	50.0928
754.832	39.9603
758.207	28.1873
761.582	16.3414
764.956	10.753
768.331	6.25281
771.706	2.57922
775.081	1.79944
778.456	1.57141
781.83	0.964722
785.205	1.68066
788.58	3.49292
791.955	2.69775
795.33	5.05273
798.705	3.82165
802.079	0.435181
805.454	8.26086
808.829	10.9369
812.204	10.0846
815.579	11.279
818.953	11.7615
822.328	11.8331
825.703	12.8901
829.078	9.41455
832.453	7.70654
835.827	9.0437
839.202	9.14636
842.577	6.63892
845.952	8.85596
849.327	5.4696
852.702	6.44348
856.076	5.29102
859.451	4.84375
862.826	2.01685
866.201	0.537598
869.576	5.08386
872.951	4.73743
876.325	1.09778
879.7	4.83252
883.075	4.8324
886.45	3.49585
889.825	4.17346
893.199	0.624634
896.574	2.57764
899.949	2.96472
903.324	3.54785
906.699	3.79077
910.073	4.20752
913.448	0.681152
916.823	3.43274
920.198	2.26514
923.573	2.4635
926.948	4.5929
930.322	5.75745
933.697	3.65936
937.072	1.43292
940.447	1.91949
943.822	1.19537
947.197	2.20154
950.571	2.35944
953.946	3.62097
957.321	6.1759
960.696	4.32495
964.071	2.54437
967.445	0.866089
970.82	1.66229
974.195	0.622009
977.57	1.13794
980.945	1.37585
984.319	0.288574
987.694	0.905579
991.069	2.61725
994.444	4.44177
997.819	3.28992
1001.19	3.44586
1004.57	4.84094
1007.94	4.06799
1011.32	4.94025
1014.69	4.76495
1018.07	6.28815
1021.44	4.79022
1024.82	5.02875
1028.19	7.49017
1031.57	3.24225
1034.94	3.69812
1038.32	0.195374
1041.69	0.176636
1045.07	2.41626
1048.44	4.42261
1051.82	3.59003
1055.19	2.05762
1058.57	5.05438
1061.94	5.15595
1065.32	5.63983
1068.69	3.61719
1072.07	4.30908
1075.44	4.23853
1078.81	4.75928
1082.19	3.5484
1085.56	3.89398
1088.94	2.79291
1092.31	2.98309
1095.69	4.65894
1099.06	5.92999
1102.44	4.17047
1105.81	5.37122
1109.19	0.180603
1112.56	0.458923
1115.94	1.06622
1119.31	0.121765
1122.69	0.140015
1126.06	0.788086
1129.44	0.551208
1132.81	4.59924
1136.19	1.96875
1139.56	1.78711
1142.94	1.7547
1146.31	4.2475
1149.69	2.30591
1153.06	1.62006
1156.43	2.30969
1159.81	4.72882
1163.18	3.54108
1166.56	3.94916
1169.93	6.20923
1173.31	5.19013
1176.68	3.06769
1180.06	5.83343
1183.43	6.16412
1186.81	4.42438
1190.18	1.5622
1193.56	5.66016
1196.93	3.82233
1200.31	4.30432
1203.68	3.40808
1207.06	2.57953
1210.43	3.82617
1213.81	5.07104
1217.18	2.20746
1220.56	1.21478
1223.93	0.296082
1227.31	2.03369
1230.68	2.93341
1234.06	2.65875
1237.43	7.03497
1240.81	3.22406
1244.18	0.361694
1247.56	0.408752
1250.93	0.562134
1254.31	2.63812
1257.68	2.64246
1261.05	6.99011
1264.43	3.08911
1267.8	4.71094
1271.18	5.53961
1274.55	3.58765
1277.93	2.07947
1281.3	0.648499
