Measurement: Raman, 532 nm, unoriented, Raman Data Processed
Mineral: Karibibite
Rruff sample: R060380
Ideal chemistry: Fe^3+^_3_(As^3+^O_2_)_4_(As^3+^_2_O_5_)(OH)
Locality: Tsumeb mine, Tsumeb, Otavi District, Oshikoto, Namibia
Source: Michael Scott
Description: Matted coating of orange-yellow thin hairs
Raman shift (cm-1)	intensity
156.597	0
159.49	0.376976
162.383	4.12951
165.275	17.2252
168.168	28.7147
171.061	46.7
173.953	74.854
176.846	111.026
179.739	155.08
182.632	156.617
185.524	82.9588
188.417	48.7514
191.31	43.919
194.202	55.9596
197.095	82.4113
199.988	112.366
202.881	106.679
205.773	55.3636
208.666	30.6058
211.559	35.4354
214.451	55.7208
217.344	75.6239
220.237	76.0373
223.129	82.5085
226.022	110.267
228.915	95.3075
231.808	51.2926
234.7	25.3334
237.593	5.67069
240.486	2.3438
243.378	2.6711
246.271	2.03778
249.164	8.03348
252.056	7.99024
254.949	1.10352
257.842	1.0625
260.735	3.42517
263.627	9.83576
266.52	16.7313
269.413	24.0161
272.305	34.6473
275.198	53.79
278.091	75.4039
280.983	73.8883
283.876	54.7702
286.769	46.9158
289.661	50.95
292.554	51.4693
295.447	28.4309
298.34	8.79777
301.232	3.08054
304.125	0.672997
307.018	0.198067
309.91	2.39916
312.803	1.16847
315.696	0.472145
318.589	2.63716
321.481	8.39207
324.374	14.0168
327.267	16.784
330.159	19.0004
333.052	22.0007
335.945	28.28
338.837	37.5822
341.73	47.6703
344.623	60.4537
347.515	71.9647
350.408	86.9407
353.301	96.8462
356.194	84.7681
359.086	55.1463
361.979	31.8672
364.872	18.8321
367.764	10.6008
370.657	4.09267
373.55	0.577332
376.442	2.20368
379.335	1.00046
382.228	4.19877
385.121	10.5373
388.013	18.7322
390.906	28.4291
393.799	40.3391
396.691	50.4729
399.584	55.9712
402.477	55.0907
405.37	45.6961
408.262	30.3279
411.155	19.348
414.048	12.4746
416.94	10.4151
419.833	10.7708
422.726	14.802
425.618	21.0724
428.511	29.1149
431.404	37.8069
434.296	47.0798
437.189	49.208
440.082	50.4588
442.975	50.4854
445.867	52.7801
448.76	56.0123
451.653	58.654
454.545	58.0631
457.438	55.9364
460.331	47.706
463.224	40.2302
466.116	32.0629
469.009	26.0724
471.902	23.5225
474.794	23.6062
477.687	26.2306
480.58	30.1481
483.473	30.4369
486.365	18.8805
489.258	8.71687
492.151	2.23523
495.043	0.220764
497.936	2.55754
500.829	2.23979
503.721	1.33324
506.614	2.54286
509.507	4.89732
512.399	8.89613
515.292	12.8574
518.185	15.4166
521.078	18.5736
523.97	19.6869
526.863	22.7731
529.756	25.131
532.648	30.8239
535.541	36.136
538.434	42.1657
541.327	43.0092
544.219	39.0023
547.112	30.8874
550.005	21.1501
552.897	12.0526
555.79	6.9269
558.683	1.30856
561.575	0.296249
564.468	0.889008
567.361	1.46994
570.254	4.21655
573.146	8.92851
576.039	13.6672
578.932	18.5813
581.824	22.2909
584.717	26.9543
587.61	28.6354
590.502	28.3039
593.395	22.3084
596.288	18.0984
599.181	12.2709
602.073	7.89848
604.966	3.80817
607.859	2.93633
610.751	3.06969
613.644	3.48393
616.537	6.23928
619.429	9.04711
622.322	8.66721
625.215	8.87156
628.107	6.56654
631	4.23712
633.893	2.75813
636.786	2.64405
639.678	1.6395
642.571	1.81732
645.464	0.807175
648.356	0.830978
651.249	0.373573
654.142	0.146652
657.034	0.483452
659.927	0.376923
662.82	0.478577
665.713	0.112648
668.605	0.02742
671.498	0.422935
674.391	0.175079
677.283	0.577293
680.176	0.587227
683.069	0.049347
685.962	1.46247
688.854	1.53372
691.747	1.18701
694.64	2.04028
697.532	0.645111
700.425	1.19054
703.318	1.19876
706.21	1.16058
709.103	1.14107
711.996	2.2671
714.889	1.17511
717.781	0.0737
720.674	0.869308
723.567	0.325653
726.459	0.147675
729.352	0.265488
732.245	1.43397
735.137	1.57344
738.03	2.90439
740.923	2.08551
743.816	2.72967
746.708	2.94267
749.601	2.95709
752.494	3.9657
755.386	3.39233
758.279	4.48366
761.172	5.52318
764.064	8.41975
766.957	9.82983
769.85	13.2446
772.742	15.4599
775.635	19.6178
778.528	22.7374
781.421	23.2538
784.313	24.9916
787.206	23.3982
790.099	23.8998
792.991	23.9437
795.884	23.4216
798.777	26.477
801.669	28.1939
804.562	30.7602
807.455	34.9177
810.348	38.1243
813.24	40.6203
816.133	41.034
819.026	38.382
821.918	30.9403
824.811	22.3986
827.704	17.688
830.597	9.95721
833.489	8.03462
836.382	4.40448
839.275	4.01056
842.167	1.9342
845.06	1.81245
847.953	1.00169
850.846	0.923706
853.738	0.435135
856.631	1.08664
859.524	0.685654
862.416	0.172043
865.309	0.398407
868.202	0.085403
871.094	0.270599
873.987	0.39418
876.88	0.507843
879.773	0.068497
882.665	1.25903
885.558	0.206161
888.451	0.345795
891.343	1.40297
894.236	0.478119
897.129	1.22646
900.021	1.10922
902.914	1.06418
905.807	0.801956
908.699	0.851151
911.592	0.611908
914.485	0.472794
917.378	1.81284
920.27	1.9245
923.163	0.566452
926.056	1.99004
928.948	1.541
931.841	0.650162
934.734	0.980194
937.626	1.19786
940.519	1.37794
943.412	0.586777
946.305	0.669724
949.197	0.5495
952.09	1.59555
954.983	0.298752
957.875	0.976151
960.768	0.36145
963.661	1.17844
966.553	0.197983
969.446	1.35757
972.339	0.847336
975.232	1.31786
978.124	2.03648
981.017	0.502075
983.91	1.7439
986.802	0.691147
989.695	0.175797
992.588	0.521881
995.481	1.99069
998.373	1.91971
1001.27	1.6516
1004.16	1.64636
1007.05	1.01337
1009.94	1.86195
1012.84	2.10288
1015.73	2.39749
1018.62	2.66016
1021.51	2.09541
1024.41	1.43062
1027.3	1.54974
1030.19	1.50804
1033.09	2.44118
1035.98	1.41684
1038.87	0.464828
1041.76	1.52637
1044.66	0.478546
1047.55	1.18507
1050.44	1.53628
1053.33	1.2001
1056.23	1.58668
1059.12	2.25883
1062.01	1.71872
1064.9	0.586731
1067.8	4.85288
1070.69	3.54228
1073.58	3.13594
1076.48	1.74864
1079.37	1.60548
1082.26	0.906952
1085.15	0.808731
1088.05	1.04251
1090.94	1.3533
1093.83	0.341156
1096.72	0.206635
1099.62	1.73784
1102.51	2.29896
1105.4	1.8656
1108.3	0.819901
1111.19	0.093506
1114.08	1.00815
1116.97	0.720352
1119.87	1.9231
1122.76	1.67322
1125.65	0.18985
1128.55	0.05838
1131.44	0.793991
1134.33	1.51288
1137.22	1.4791
1140.12	1.70552
1143.01	3.43355
1145.9	1.22658
1148.79	0.872803
1151.69	1.35745
1154.58	0.286423
1157.47	1.05472
1160.36	1.78891
1163.26	1.70137
1166.15	0.946426
1169.04	0.866226
1171.93	1.28299
1174.83	2.23015
1177.72	1.26744
1180.61	1.10231
1183.51	0.96756
1186.4	0.995148
1189.29	1.44145
1192.18	1.33122
1195.08	1.08678
1197.97	1.90024
1200.86	2.76585
1203.76	1.71883
1206.65	0.592957
1209.54	1.30611
1212.43	1.04565
1215.33	1.20616
1218.22	1.32259
1221.11	1.43013
1224	1.8967
1226.9	1.45665
1229.79	1.02315
1232.68	0.424286
1235.58	1.03143
1238.47	1.29538
1241.36	2.35674
1244.25	1.49222
1247.14	2.82938
1250.04	3.08983
1252.93	2.5417
1255.82	3.68477
1258.72	1.70003
1261.61	1.02115
1264.5	1.75026
1267.39	1.94717
1270.29	0.802826
1273.18	0.376038
1276.07	0.268326
1278.96	1.28609
1281.86	1.76973
1284.75	2.19
1287.64	1.51065
1290.54	0.06192
1293.43	0.221283
1296.32	2.33556
1299.21	0.218277
