Measurement: Raman, 780 nm, unoriented, Raman Data RAW
Mineral: Karnasurtite-(Ce)
Rruff sample: R080037
Ideal chemistry: Ce^3+^Ti^4+^AlSi_2_O_7_(OH)_4_3H_2_O
Locality: Karnasurt Mountain, Lovozero, Kola, Russia
Source: Michael Scott
Description: Honey yellow platey crystals (metamict)
Raman shift (cm-1)	intensity
152.306	53235
155.199	53056.1
158.091	53045.5
160.984	52950.1
163.877	52783.6
166.77	52740.2
169.662	52611.6
172.555	52476.6
175.448	52513
178.34	52391.2
181.233	52252.8
184.126	52206.7
187.018	52144.4
189.911	52109.3
192.804	51886.8
195.697	51842
198.589	51765.9
201.482	51704.9
204.375	51500.9
207.267	51503.5
210.16	51271.2
213.053	51188.7
215.946	50988.2
218.838	50891
221.731	50752.4
224.624	50678.8
227.516	50455.7
230.409	50351.4
233.302	50158.5
236.194	49951.4
239.087	49753.3
241.98	49628
244.873	49449.5
247.765	49330.7
250.658	49322.2
253.551	49046.4
256.443	48944.4
259.336	48769.6
262.229	48652.9
265.121	48519.4
268.014	48478.3
270.907	48326.3
273.8	48230.5
276.692	48004.7
279.585	47938.7
282.478	47694.5
285.37	47556.1
288.263	47381.6
291.156	47119.6
294.048	46984.9
296.941	46753.6
299.834	46717.4
302.726	46549.8
305.619	46227.6
308.512	46094.5
311.405	46012
314.297	45825.1
317.19	45724.7
320.083	45580.1
322.975	45457.1
325.868	45326.4
328.761	45171
331.654	45046.6
334.546	44927.5
337.439	44835.9
340.332	44705.7
343.224	44543.3
346.117	44396.9
349.01	44315.3
351.902	44232.4
354.795	44116.1
357.688	43961.8
360.58	43808.3
363.473	43653.6
366.366	43505.7
369.259	43360.6
372.151	43275.3
375.044	43111.6
377.937	42963.5
380.829	42817.5
383.722	42692.3
386.615	42596.9
389.507	42405.4
392.4	42277.9
395.293	42166.2
398.185	42058.1
401.078	41917.5
403.971	41855.4
406.864	41773.8
409.756	41650.4
412.649	41561.8
415.542	41468.8
418.434	41402.8
421.327	41334.6
424.22	41304.1
427.113	41155.6
430.005	40982.5
432.898	40871.2
435.791	40829.3
438.683	40725.8
441.576	40735.7
444.469	40579.4
447.361	40438.8
450.254	40366.6
453.147	40246.9
456.039	40127.6
458.932	40080.3
461.825	40028.6
464.718	39864.1
467.61	39769.4
470.503	39626.9
473.396	39512.9
476.288	39472.8
479.181	39303.8
482.074	39116.3
484.966	39104.7
487.859	38881.3
490.752	38747
493.645	38585.9
496.537	38543.6
499.43	38451
502.323	38338.6
505.215	38130.1
508.108	38055.9
511.001	37902.5
513.894	37788.1
516.786	37696.8
519.679	37475.4
522.572	37390
525.464	37280
528.357	37114.7
531.25	37046.6
534.142	36895.6
537.035	36782.5
539.928	36712.6
542.821	36530
545.713	36397.1
548.606	36277.6
551.499	36160.6
554.391	36006.8
557.284	35850
560.177	35826.1
563.069	35722
565.962	35511.3
568.855	35436.1
571.747	35321.9
574.64	35207
577.533	35088.7
580.426	34962.8
583.318	34817
586.211	34727.2
589.104	34642.8
591.996	34510.1
594.889	34478.4
597.782	34274.1
600.674	34202.1
603.567	34032.7
606.46	33960.7
609.352	33772.9
612.245	33661.3
615.138	33611.3
618.031	33462.2
620.923	33372.2
623.816	33225.2
626.709	33109.9
629.601	33032.8
632.494	32825.8
635.387	32707.6
638.279	32587.2
641.172	32471.1
644.065	32363.9
646.958	32235.9
649.85	32103.6
652.743	31987.4
655.636	31878.2
658.528	31726.8
661.421	31610.5
664.314	31450.8
667.207	31354.7
670.099	31249.4
672.992	31140.6
675.885	31032.6
678.777	30935.1
681.67	30743
684.563	30633.7
687.455	30569.9
690.348	30411.6
693.241	30305.9
696.134	30261.9
699.026	30156
701.919	30019.6
704.812	29935
707.704	29799.8
710.597	29634.2
713.49	29565.4
716.382	29406.4
719.275	29299.9
722.168	29226.8
725.061	29113.9
727.953	28961.8
730.846	28869.7
733.739	28822.5
736.631	28620.9
739.524	28580.9
742.417	28493
745.309	28384.5
748.202	28249.9
751.095	28209.8
753.987	28011.8
756.88	27918.5
759.773	27814
762.666	27663.9
765.558	27560.8
768.451	27460.7
771.344	27367.6
774.236	27346
777.129	27233.1
780.022	27137
782.914	27036.4
785.807	26962.2
788.7	26897.8
791.593	26763.9
794.485	26744.2
797.378	26650.7
800.271	26528.4
803.163	26438.5
806.056	26306.7
808.949	26312.3
811.841	26242.5
814.734	26147.1
817.627	26002
820.52	25951.7
823.412	25893.3
826.305	25765.3
829.198	25636.8
832.09	25630.5
834.983	25570.1
837.876	25430.8
840.769	25372.5
843.661	25318.3
846.554	25178.9
849.447	25060.6
852.339	24959
855.232	24858.3
858.125	24781.4
861.017	24712.3
863.91	24603.5
866.803	24554.2
869.696	24507.5
872.588	24357.8
875.481	24270.1
878.374	24216.4
881.266	24116.1
884.159	23986.9
887.052	23927.1
889.944	23865
892.837	23808
895.73	23734.7
898.622	23588.2
901.515	23477.8
904.408	23422.1
907.301	23322.5
910.193	23271.6
913.086	23168.2
915.979	23103.8
918.871	22993.8
921.764	22903.3
924.657	22873
927.549	22722.7
930.442	22715.4
933.335	22629.6
936.227	22572
939.12	22470.9
942.013	22475.4
944.906	22360.6
947.798	22330.1
950.691	22281.3
953.584	22170.6
956.476	22144.5
959.369	22050
962.262	21926.2
965.154	21912.2
968.047	21793.7
970.94	21729.8
973.833	21675.4
976.725	21615.4
979.618	21507.7
982.511	21428.5
985.403	21417.9
988.296	21381.7
991.189	21324.5
994.082	21256.4
996.974	21152
999.867	21058.5
1002.76	21065.7
1005.65	21015.9
1008.54	20959.5
1011.44	20911.1
1014.33	20821.2
1017.22	20818.3
1020.12	20736.7
1023.01	20716.7
1025.9	20683.5
1028.79	20604.3
1031.69	20531.6
1034.58	20557.4
1037.47	20453.1
1040.37	20406.8
1043.26	20354.2
1046.15	20293.1
1049.04	20264.4
1051.94	20218.9
1054.83	20147.1
1057.72	20134.6
1060.61	20034.4
1063.51	20017.2
1066.4	19953.1
1069.29	19930.2
1072.18	19900.5
1075.08	19855.1
1077.97	19751.6
1080.86	19736.1
1083.76	19719.4
1086.65	19710.9
1089.54	19654.2
1092.43	19572.3
1095.33	19535.1
1098.22	19509.2
1101.11	19411.5
1104	19417.5
1106.9	19375.3
1109.79	19342.6
1112.68	19277.3
1115.58	19201.7
1118.47	19209.6
1121.36	19124.4
1124.25	19145.6
1127.15	19148.5
1130.04	19078.5
1132.93	19118.4
1135.82	19045.1
1138.72	19054
1141.61	19033.3
1144.5	19051.4
1147.39	19070.6
1150.29	19071
1153.18	19060
1156.07	19031.2
1158.96	19062.6
1161.86	19115.7
1164.75	19119.3
1167.64	19126.6
1170.54	19200.7
1173.43	19181
1176.32	19258.8
1179.21	19288.7
1182.11	19408
1185	19425.4
1187.89	19512.9
1190.79	19617.7
1193.68	19666.6
1196.57	19769.1
1199.46	19831.1
1202.36	19897.9
1205.25	19973.6
1208.14	20064.9
1211.03	20098.3
1213.93	20192.7
1216.82	20195.3
1219.71	20231.2
1222.61	20228.8
1225.5	20212.2
1228.39	20268.5
1231.28	20250.3
1234.18	20222.9
1237.07	20114.8
1239.96	20039
1242.85	19940.3
1245.75	19859.3
1248.64	19812.4
1251.53	19677
1254.42	19594.2
1257.32	19587.2
1260.21	19509.1
1263.1	19441.9
1265.99	19387.7
1268.89	19387.3
1271.78	19341.8
1274.67	19410.2
1277.57	19381.9
1280.46	19468.2
1283.35	19442.3
1286.24	19491.4
