Measurement: Raman, 532 nm, unoriented, Raman Data RAW
Mineral: Karnasurtite-(Ce)
Rruff sample: R080037
Ideal chemistry: Ce^3+^Ti^4+^AlSi_2_O_7_(OH)_4_3H_2_O
Locality: Karnasurt Mountain, Lovozero, Kola, Russia
Source: Michael Scott
Description: Honey yellow platey crystals (metamict)
Raman shift (cm-1)	intensity
132.284	22445.4
135.659	22620.9
139.034	22803.7
142.409	23061
145.783	23194.9
149.158	23407.9
152.533	23503.8
155.908	23572.1
159.283	23757.4
162.657	23684.4
166.032	23892.5
169.407	24092.7
172.782	24068.6
176.157	24201.4
179.532	24314.3
182.906	24452.8
186.281	24479.2
189.656	24594.2
193.031	24618.4
196.406	24780
199.78	24855
203.155	25045.8
206.53	25069.2
209.905	25131.6
213.28	25296.9
216.655	25378.2
220.029	25639.8
223.404	25774.2
226.779	25705.9
230.154	25762.2
233.529	25913.4
236.904	26095.9
240.278	26216.7
243.653	26448.7
247.028	26610.1
250.403	26701.8
253.778	26844.5
257.152	27028.7
260.527	27072
263.902	27200.2
267.277	27214.4
270.652	27387.8
274.026	27547.3
277.401	27702
280.776	27802.3
284.151	27860.6
287.526	27885.1
290.901	28249
294.275	28236.2
297.65	28310.2
301.025	28559.7
304.4	28572.2
307.775	28713.7
311.149	28814.1
314.524	28867.1
317.899	29077.3
321.274	29154.4
324.649	28986.6
328.024	29230
331.398	29323.9
334.773	29541.2
338.148	29542.7
341.523	29775.7
344.898	29752.5
348.272	30118
351.647	29876.5
355.022	30054.6
358.397	30186.2
361.772	30349.3
365.147	30223.2
368.521	30440.2
371.896	30604.5
375.271	30763.9
378.646	30805.9
382.021	30837.5
385.395	30946.4
388.77	30907.8
392.145	31132.9
395.52	31111.8
398.895	31343.6
402.269	31513.9
405.644	31589.8
409.019	31642.4
412.394	31674.2
415.769	31747.9
419.144	31853.5
422.518	31885.7
425.893	32129.8
429.268	32229
432.643	32482
436.018	32182.5
439.392	32365.1
442.767	32581.5
446.142	32728.1
449.517	32800.5
452.892	32786.5
456.267	32877.9
459.641	33058.3
463.016	33100.1
466.391	33278.6
469.766	33172.3
473.141	33436.9
476.515	33436.2
479.89	33597.2
483.265	33590.3
486.64	33608.8
490.015	33829.3
493.389	33825.9
496.764	33874.5
500.139	34019.8
503.514	34253.6
506.889	34274.5
510.264	34333.9
513.638	34401.4
517.013	34565.6
520.388	34563.2
523.763	34647
527.138	34741.8
530.513	34903.5
533.887	34926.8
537.262	35014.8
540.637	35002
544.012	35233
547.386	35501.8
550.761	35456.8
554.136	35567.1
557.511	35530
560.886	35622.6
564.261	35823.7
567.635	35778.6
571.01	35827.3
574.385	35962.5
577.76	36115.3
581.135	36130.8
584.51	36260.2
587.884	36477.5
591.259	36442.1
594.634	36482.9
598.009	36573.9
601.384	36660.6
604.758	36692.3
608.133	36722.8
611.508	36921.9
614.883	36893.4
618.258	37110.8
621.633	37221.4
625.007	37197
628.382	37313.8
631.757	37446.5
635.132	37567.1
638.507	37516
641.881	37652.4
645.256	37689.3
648.631	37761.5
652.006	37840.2
655.381	37906.1
658.755	37982.6
662.13	38101.8
665.505	38063.4
668.88	38215.5
672.255	38282.8
675.63	38390.1
679.004	38484.2
682.379	38500.6
685.754	38502
689.129	38532.7
692.504	38715.3
695.879	38949.1
699.253	38870.9
702.628	38894.9
706.003	39119
709.378	39202.4
712.753	39178.7
716.127	39277.1
719.502	39413.3
722.877	39485.4
726.252	39471.7
729.627	39524.5
733.001	39507.5
736.376	39493.6
739.751	39801.6
743.126	39907.5
746.501	39826.9
749.875	39871.8
753.25	39901.3
756.625	39999.7
760	40104
763.375	40290.8
766.75	40336.9
770.124	40472.1
773.499	40607.8
776.874	40771.4
780.249	40617.6
783.624	40842.2
786.999	40818.7
790.373	40928.4
793.748	41108.4
797.123	41201.1
800.498	41141.5
803.873	41101.7
807.247	41443.1
810.622	41511.5
813.997	41315.1
817.372	41486.2
820.747	41715.6
824.121	41836.2
827.496	41902.4
830.871	41842.6
834.246	41949.7
837.621	41930.9
840.995	42055.7
844.37	42067.7
847.745	42211
851.12	42156.5
854.495	42349.2
857.87	42652.6
861.244	42568.9
864.619	42532.6
867.994	42687.6
871.369	42876.8
874.744	42735.3
878.119	42916.1
881.493	42990.8
884.868	43024.7
888.243	43045.7
891.618	43267.2
894.993	43269.3
898.367	43327.8
901.742	43367.1
905.117	43529.2
908.492	43496.3
911.867	43620.7
915.241	43581.1
918.616	43810
921.991	43904.4
925.366	43999.7
928.741	43939.4
932.116	44079.2
935.49	44114
938.865	44128.4
942.24	44343.5
945.615	44342.5
948.99	44424
952.365	44301.6
955.739	44581.4
959.114	44511
962.489	44740.3
965.864	44599.7
969.239	44692.4
972.613	44939.9
975.988	44896.1
979.363	45084.6
982.738	45138.2
986.113	45301.7
989.487	45249.8
992.862	45223.5
996.237	45272.6
999.612	45505.1
1002.99	45679.1
1006.36	45545.5
1009.74	45616.2
1013.11	45762.2
1016.49	45927.8
1019.86	45971.3
1023.24	45964.3
1026.61	46044.1
1029.98	46018
1033.36	46041
1036.73	46276.3
1040.11	46284
1043.48	46366
1046.86	46514.1
1050.23	46408
1053.61	46507.7
1056.98	46526.3
1060.36	46783.8
1063.73	46648.5
1067.11	46837.1
1070.48	46711.7
1073.86	47015.2
1077.23	47000.7
1080.61	47124.2
1083.98	47074.6
1087.36	47219.5
1090.73	47451
1094.11	47370.3
1097.48	47512.6
1100.86	47563
1104.23	47683.5
1107.61	47752.3
1110.98	47863.5
1114.36	47888.3
1117.73	47926.6
1121.11	48041.9
1124.48	47968.2
1127.86	47989.6
1131.23	48112.6
1134.6	48100
1137.98	48237.9
1141.35	48264.2
1144.73	48401.3
1148.1	48453.6
1151.48	48719.9
1154.85	48669.5
1158.23	48809.1
1161.6	48790.4
1164.98	48696.8
1168.35	48843.8
1171.73	49016.3
1175.1	49036.8
1178.48	49115.5
1181.85	49078.5
1185.23	49177.7
1188.6	49158.6
1191.98	49131.7
1195.35	49232.2
1198.73	49395.7
1202.1	49460.1
1205.48	49612.4
1208.85	49566.2
1212.22	49592.9
1215.6	49647.4
1218.97	49792.9
1222.35	49834.1
1225.72	49841.4
1229.1	49766.7
1232.47	49993.4
1235.85	49997.7
1239.22	49949
1242.6	49949.4
1245.97	50139.6
1249.35	50198.8
1252.72	50271.6
1256.1	50236.4
1259.47	50316
1262.85	50391.2
1266.22	50367
1269.6	50309.3
1272.97	50697.1
1276.35	50512.3
1279.72	50498.1
1283.1	50491.2
1286.47	50538.1
1289.85	50526.8
1293.22	50537.4
1296.6	50760.7
1299.97	50786.1
1303.35	50730.3
