Measurement: Raman, 532 nm, unoriented, Raman Data RAW
Mineral: Katoite
Rruff sample: R080034
Ideal chemistry: Ca_3_Al_2_(OH)_12_
Locality: Wilui River, Russia
Source: Royal Ontario Museum
Description: Pale yellow to colorless euhedral crystals associated with dark brown andradite crystals
Raman shift (cm-1)	intensity
93.7148	1186.52
97.0897	1563.05
100.465	2687.64
103.839	4126.02
107.214	5461.88
110.589	7011
113.964	9304.88
117.339	11326.6
120.713	12774.8
124.088	13949.2
127.463	15465.4
130.838	17200.4
134.213	17813.2
137.587	18090.3
140.962	18283.8
144.337	18475
147.712	18808.7
151.087	19032.2
154.462	19280.6
157.836	19398.8
161.211	19439.4
164.586	19599.3
167.961	19756.9
171.336	19903.3
174.71	20063.1
178.085	20031.2
181.46	20140.3
184.835	20263.8
188.21	20407.9
191.584	20473.5
194.959	20477.8
198.334	20599.3
201.709	20738.9
205.084	20886.5
208.459	20943.9
211.833	21060.3
215.208	21214.8
218.583	21379.7
221.958	21506.2
225.333	21668.1
228.708	21801.9
232.082	21856
235.457	21984.6
238.832	22171
242.207	22221.9
245.582	22346
248.956	22488.7
252.331	22622.4
255.706	22792.6
259.081	22889.5
262.456	22993.1
265.83	23018.3
269.205	23253.2
272.58	23442.2
275.955	23519.9
279.33	23597.7
282.704	23708.3
286.079	23739.3
289.454	23879.9
292.829	24102.7
296.204	24134.6
299.579	24271.1
302.953	24418.9
306.328	24485.1
309.703	24631.2
313.078	24770.1
316.453	24929.6
319.827	24997.9
323.202	25053.2
326.577	25173.6
329.952	25340.1
333.327	25514.9
336.702	25643.2
340.076	25813.1
343.451	26032.9
346.826	26182.6
350.201	26438
353.576	26708.8
356.95	26849.5
360.325	27011.1
363.7	27019.7
367.075	27094.1
370.45	27051.8
373.825	26932.2
377.199	26750.9
380.574	26681.5
383.949	26751
387.324	26814.3
390.699	26901.9
394.074	26932.1
397.448	26972.4
400.823	27135.7
404.198	27193.5
407.573	27183.1
410.947	27251.2
414.322	27349
417.697	27412
421.072	27552.4
424.447	27580.8
427.822	27724.9
431.196	27836.3
434.571	27859.3
437.946	27940.9
441.321	28018.8
444.696	28191
448.07	28206.9
451.445	28333.1
454.82	28346.1
458.195	28409
461.57	28480.7
464.945	28565.7
468.319	28742
471.694	28823.3
475.069	28898.5
478.444	28975.8
481.819	29057.4
485.193	29134.4
488.568	29206
491.943	29296.4
495.318	29331.4
498.693	29516
502.068	29674.5
505.442	29770.6
508.817	29891.3
512.192	29929.5
515.567	30040.8
518.942	30171.2
522.317	30256.5
525.691	30366.1
529.066	30483.4
532.441	30554.1
535.816	30587.2
539.191	30569.4
542.565	30591.2
545.94	30759.3
549.315	30797.7
552.69	30875.9
556.065	30919
559.439	30974.3
562.814	31068.9
566.189	31094.1
569.564	31160.8
572.939	31230.3
576.313	31341.7
579.688	31416.2
583.063	31485.1
586.438	31580.7
589.813	31680
593.188	31782.4
596.562	31800.3
599.937	31973.3
603.312	32086
606.687	32039.2
610.062	32052
613.437	32250.5
616.811	32256.7
620.186	32399.3
623.561	32423.8
626.936	32496.3
630.311	32528.8
633.685	32662
637.06	32714.5
640.435	32809.6
643.81	32852.4
647.185	32906.9
650.559	32996.6
653.934	33011.5
657.309	33073.6
660.684	33160.9
664.059	33269.3
667.434	33310.8
670.808	33280.4
674.183	33378.9
677.558	33516.7
680.933	33548.8
684.308	33569.8
687.683	33563.5
691.057	33644.7
694.432	33807.3
697.807	33767.6
701.182	33798.4
704.557	33934.1
707.931	34033.5
711.306	34132.3
714.681	34149.3
718.056	34201.2
721.431	34278.6
724.805	34369.5
728.18	34443.5
731.555	34462.8
734.93	34450.8
738.305	34584.8
741.679	34727.4
745.054	34736.3
748.429	34887.3
751.804	34916.4
755.179	35039.9
758.554	35059.6
761.928	35172.3
765.303	35234.9
768.678	35317.4
772.053	35426.9
775.428	35583.7
778.803	35594.3
782.177	35615.8
785.552	35773.3
788.927	35943.8
792.302	35895.4
795.677	36050.3
799.051	36069.3
802.426	36099.1
805.801	36272.6
809.176	36308.3
812.551	36299
815.926	36324.5
819.3	36428.1
822.675	36479.2
826.05	36608.7
829.425	36646.8
832.8	36672.2
836.174	36725.1
839.549	36691.7
842.924	36783.1
846.299	36856.8
849.674	36904.2
853.048	37000.9
856.423	37179.5
859.798	37288.4
863.173	37258.5
866.548	37398.3
869.923	37565
873.297	37542.5
876.672	37555.7
880.047	37505.7
883.422	37525.2
886.797	37584.1
890.171	37544.3
893.546	37657.1
896.921	37656.3
900.296	37630.5
903.671	37739
907.045	37768.4
910.42	37774.8
913.795	37903.8
917.17	37966.4
920.545	38060.4
923.92	38239.1
927.294	38244
930.669	38211.7
934.044	38253.5
937.419	38382.8
940.794	38348.5
944.168	38334.3
947.543	38447.6
950.918	38508.6
954.293	38523.2
957.668	38558.5
961.043	38763.9
964.417	38732.8
967.792	38742.2
971.167	38893.3
974.542	38969
977.917	39004.2
981.291	39034.6
984.666	39088.8
988.041	39158.2
991.416	39212.2
994.791	39198.8
998.165	39203.5
1001.54	39303.9
1004.91	39370.9
1008.29	39399.4
1011.66	39462.3
1015.04	39599.9
1018.41	39617.5
1021.79	39614.1
1025.16	39691.2
1028.54	39606
1031.91	39798.8
1035.29	39771.8
1038.66	39825.7
1042.04	39845.3
1045.41	39958.7
1048.79	40101
1052.16	40068
1055.54	40033.7
1058.91	40139.9
1062.29	40170.4
1065.66	40247.9
1069.04	40328.8
1072.41	40475.8
1075.79	40442.6
1079.16	40458.4
1082.54	40552.7
1085.91	40579.1
1089.29	40603.6
1092.66	40733.2
1096.04	40847.6
1099.41	40808.6
1102.79	40927
1106.16	40963
1109.53	41080.9
1112.91	41044.8
1116.28	41110.9
1119.66	41263.1
1123.03	41207.6
1126.41	41213.3
1129.78	41285.2
1133.16	41358.1
1136.53	41392.5
1139.91	41427.8
1143.28	41496.8
1146.66	41593
1150.03	41652.9
1153.41	41795.2
1156.78	41749.7
1160.16	41797.2
1163.53	41787.1
1166.91	41881.5
1170.28	41944.4
1173.66	41997.7
1177.03	42008.6
1180.41	42003.6
1183.78	42201.8
1187.15	42179.8
1190.53	42238.8
1193.9	42221.7
1197.28	42303.7
1200.65	42411.2
1204.03	42430.8
1207.4	42573.6
1210.78	42634.9
1214.15	42627.2
1217.53	42678.2
1220.9	42765.1
1224.28	42845.7
1227.65	42872
1231.03	42802.4
1234.4	42958.4
1237.78	42880.2
1241.15	42939.6
1244.53	43059.8
1247.9	43132.8
1251.28	43235.6
1254.65	43239.7
1258.03	43258.4
1261.4	43394
1264.78	43411.9
1268.15	43371.8
1271.53	43645.5
1274.9	43595
1278.28	43656.8
1281.65	43666.7
1285.03	43725.9
1288.4	43700.1
1291.78	43776.3
1295.15	43765.6
1298.52	43943.8
1301.9	43999.3
1305.27	43800.3
