Measurement: Raman, 532 nm, unoriented, Raman Data RAW
Mineral: Keilite
Rruff sample: R070104
Ideal chemistry: Fe^2+^S^2-^
Locality: Abee meteorite, Alberta, Canada
Source: Michael Scott
Description: Dark gray metallic polished fragment embedded in epoxy
Measured chemistry: (Fe_0.55_Mg_0.34_Mn_0.04_Ca_0.04_Cr_0.03_)_Î£=1_S_1.00_
Raman shift (cm-1)	intensity
195.983	329.92
198.876	331.078
201.768	333.532
204.661	331.323
207.554	339.091
210.446	328.514
213.339	311.068
216.232	310.941
219.125	296.117
222.017	274.161
224.91	278.877
227.803	272.522
230.695	272.52
233.588	282.883
236.481	296.312
239.373	280.751
242.266	282.006
245.159	271.973
248.052	275.384
250.944	281.899
253.837	277.342
256.73	298.845
259.622	288.204
262.515	280.05
265.408	295.999
268.3	263.766
271.193	298.617
274.086	269.593
276.978	275.572
279.871	270.915
282.764	277.491
285.657	271.949
288.549	276.786
291.442	271.24
294.335	269.541
297.227	266.244
300.12	280.487
303.013	277.603
305.906	277.397
308.798	261.574
311.691	285.099
314.584	261.586
317.476	269.578
320.369	284.663
323.262	243.42
326.154	247.002
329.047	273.217
331.94	263.145
334.832	256.458
337.725	251.369
340.618	262.078
343.511	263.731
346.403	269.788
349.296	250.372
352.189	246.183
355.081	259.511
357.974	238.872
360.867	237.93
363.76	244.692
366.652	227.927
369.545	244.998
372.438	254.771
375.33	250.265
378.223	242.511
381.116	223.905
384.008	235.677
386.901	241.905
389.794	247.62
392.687	242.992
395.579	224.929
398.472	242.376
401.365	227.596
404.257	233.951
407.15	240.571
410.043	235.018
412.935	226.41
415.828	223.135
418.721	238.746
421.613	226.077
424.506	210.556
427.399	235.19
430.291	213.458
433.184	221.724
436.077	221.627
438.97	221.087
441.862	221.668
444.755	206.838
447.648	211.168
450.54	208.888
453.433	207.347
456.326	212.798
459.219	214.874
462.111	238.029
465.004	209.157
467.897	202.597
470.789	225.781
473.682	230.158
476.575	222.315
479.467	228.254
482.36	209.558
485.253	203.488
488.146	226.048
491.038	229.116
493.931	225.419
496.824	197.674
499.716	222.737
502.609	228.329
505.502	219.417
508.394	213.947
511.287	218.766
514.18	218.555
517.072	195.765
519.965	225.456
522.858	236.532
525.75	224.819
528.643	205.907
531.536	229.89
534.429	224.421
537.321	209.158
540.214	207.789
543.107	193.529
546	218.866
548.892	202.688
551.785	220.787
554.678	214.984
557.57	211.146
560.463	218.078
563.356	216.157
566.248	211.511
569.141	217.757
572.034	202.274
574.927	205.116
577.819	204.305
580.712	197.118
583.605	194.12
586.497	184.199
589.39	214.304
592.283	214.299
595.175	219.746
598.068	205.922
600.961	214.955
603.853	220.148
606.746	196.823
609.639	217.909
612.532	213.74
615.424	202.903
618.317	199.811
621.21	202.791
624.102	210.545
626.995	203.481
629.888	197.764
632.78	204.457
635.673	217.881
638.566	223.251
641.458	213.485
644.351	217.816
647.244	216.938
650.137	206.217
653.029	211.923
655.922	235.212
658.815	207.175
661.707	209.151
664.6	227.312
667.493	234.804
670.385	226.546
673.278	225.156
676.171	212.338
679.064	221.005
681.956	210.125
684.849	218.053
687.742	196.751
690.634	196.693
693.527	206.461
696.42	220.488
699.312	220.791
702.205	205.203
705.098	198.344
707.99	209.537
710.883	206.671
713.776	221.534
716.669	232.71
719.561	196.539
722.454	193.51
725.347	208.197
728.239	201.04
731.132	198.701
734.025	199.685
736.918	218.97
739.81	224.679
742.703	208.753
745.596	209.507
748.488	229.59
751.381	234.879
754.274	201.266
757.166	214.531
760.059	193.569
762.952	221.362
765.845	214.541
768.737	214.219
771.63	200.324
774.523	201.328
777.415	196.85
780.308	192.611
783.201	206.746
786.093	182.654
788.986	175.695
791.879	206.315
794.771	211.459
797.664	206.556
800.557	183.664
803.45	177.686
806.342	188.173
809.235	216.024
812.128	213.6
815.02	189.439
817.913	191.092
820.806	197.978
823.698	183.654
826.591	196.266
829.484	198.208
832.377	196.429
835.269	195.509
838.162	185.424
841.055	191.943
843.947	196.234
846.84	212.466
849.733	198.61
852.625	217.835
855.518	188.832
858.411	197.785
861.304	210.992
864.196	201.334
867.089	207.136
869.982	199.981
872.874	194.215
875.767	200.331
878.66	224.724
881.552	202.905
884.445	197.638
887.338	210.069
890.231	225.445
893.123	194.38
896.016	207.406
898.909	211.054
901.801	213.161
904.694	216.578
907.587	221.553
910.479	192.884
913.372	207.876
916.265	197.918
919.158	189.401
922.05	210.225
924.943	225.808
927.836	228.249
930.728	206.289
933.621	220.488
936.514	217.061
939.406	210.035
942.299	214.314
945.192	226.291
948.085	218.144
950.977	220.561
953.87	208.748
956.763	209.322
959.655	228.566
962.548	200.689
965.441	211.278
968.333	223.789
971.226	209.424
974.119	222.055
977.011	224.75
979.904	219.067
982.797	212.084
985.69	216.883
988.582	220.239
991.475	222.365
994.368	219.653
997.26	215.599
1000.15	235.594
1003.05	219.777
1005.94	225.503
1008.83	212.615
1011.72	212.724
1014.62	241.243
1017.51	233.135
1020.4	221.673
1023.29	247.769
1026.19	254.164
1029.08	215.786
1031.97	221.234
1034.87	236.409
1037.76	240.198
1040.65	245.472
1043.54	226.318
1046.44	252.536
1049.33	236.487
1052.22	252.585
1055.11	220.76
1058.01	242.641
1060.9	251.602
1063.79	209.624
1066.68	213.597
1069.58	218.615
1072.47	211.63
1075.36	230.689
1078.26	209.666
1081.15	218.815
1084.04	203.126
1086.93	223.369
1089.83	217.712
1092.72	207.532
1095.61	213.342
1098.51	209.294
1101.4	226.402
1104.29	240.16
1107.18	220.34
1110.08	199.333
1112.97	218.57
1115.86	212.704
1118.75	191.016
1121.65	207.69
1124.54	215.183
1127.43	213.931
1130.32	216.275
1133.22	208.642
1136.11	212.226
1139	212.856
1141.89	208.752
1144.79	208.259
1147.68	175.806
1150.57	205.601
1153.47	197.426
1156.36	184.492
1159.25	190.414
1162.14	195.082
1165.04	202.55
1167.93	177.084
1170.82	216.569
1173.71	190.337
1176.61	201.205
1179.5	210.777
1182.39	208.796
1185.29	172.159
1188.18	194.783
1191.07	201.764
1193.96	208.685
1196.86	208.521
1199.75	195.387
1202.64	219.376
1205.54	194.53
1208.43	218.897
1211.32	213.227
1214.21	202.58
1217.11	222.858
1220	197.317
1222.89	201.407
1225.78	220.238
1228.68	193.223
1231.57	166.3
1234.46	198.865
1237.35	208.912
1240.25	189.734
1243.14	192.972
1246.03	206.448
1248.92	206.684
1251.82	193.439
1254.71	226.506
1257.6	213.051
1260.5	195.811
1263.39	213.923
1266.28	218.78
1269.17	220.821
1272.07	253.415
1274.96	212.518
1277.85	210.727
1280.74	216.308
1283.64	195.379
1286.53	221.74
1289.42	217.244
1292.32	210.679
1295.21	204.693
1298.1	222.542
1300.99	187.794
1303.89	220.048
1306.78	218.192
1309.67	221.944
