Measurement: Raman, 785 nm, unoriented, Raman Data RAW
Mineral: Keilite
Rruff sample: R070104
Ideal chemistry: Fe^2+^S^2-^
Locality: Abee meteorite, Alberta, Canada
Source: Michael Scott
Description: Dark gray metallic polished fragment embedded in epoxy
Measured chemistry: (Fe_0.55_Mg_0.34_Mn_0.04_Ca_0.04_Cr_0.03_)_Î£=1_S_1.00_
Raman shift (cm-1)	intensity
112.15	182.122
115.042	277.396
117.935	388.85
120.828	549.185
123.72	611.912
126.613	1078.59
129.506	1165.36
132.399	1832.93
135.291	2596.22
138.184	2728.56
141.077	2708.03
143.969	1831.71
146.862	1987.49
149.755	2673.73
152.647	3178.77
155.54	2481.64
158.433	1669.74
161.326	1835.62
164.218	1659.19
167.111	1480.71
170.004	1238.17
172.896	1204.01
175.789	1117.15
178.682	996.491
181.574	832.899
184.467	753.676
187.36	736.862
190.252	739.71
193.145	646.471
196.038	699.941
198.931	568.626
201.823	563.313
204.716	553.559
207.609	505.25
210.501	447.788
213.394	429.568
216.287	444.307
219.179	399.787
222.072	388.188
224.965	350.986
227.858	318.952
230.75	309.181
233.643	295.73
236.536	282.621
239.428	297.256
242.321	290.453
245.214	262.651
248.107	266.289
250.999	253.035
253.892	275.209
256.785	267.385
259.677	251.115
262.57	231.312
265.463	230.525
268.355	225.435
271.248	238.006
274.141	218.863
277.034	219.281
279.926	210.18
282.819	208.435
285.712	222.676
288.604	192.844
291.497	190.055
294.39	185.619
297.282	187.022
300.175	185.064
303.068	184.832
305.961	194.815
308.853	202.706
311.746	200.3
314.639	188.392
317.531	189.828
320.424	199.497
323.317	179.655
326.209	161.116
329.102	167.4
331.995	166.528
334.887	171.042
337.78	171.517
340.673	170.84
343.566	174.98
346.458	172.211
349.351	168.068
352.244	170.724
355.136	158.783
358.029	144.038
360.922	144.244
363.815	139.399
366.707	134.588
369.6	124.363
372.493	120.556
375.385	131.067
378.278	150.934
381.171	158.495
384.063	140.253
386.956	138.542
389.849	152.585
392.741	148.884
395.634	132.731
398.527	131.279
401.42	124.376
404.312	134.199
407.205	129.672
410.098	129.676
412.99	133.927
415.883	130.067
418.776	141.725
421.668	143.999
424.561	142.458
427.454	132.262
430.347	128.379
433.239	125.874
436.132	128.268
439.025	124.997
441.917	130.347
444.81	124.246
447.703	136.474
450.596	114.931
453.488	131.537
456.381	125.278
459.274	117.322
462.166	129.732
465.059	122.007
467.952	133.042
470.844	132.157
473.737	118.107
476.63	115.259
479.523	120.604
482.415	115.159
485.308	115.96
488.201	115.088
491.093	111.173
493.986	116.093
496.879	120.234
499.772	112.769
502.664	126.442
505.557	115.507
508.45	119.706
511.342	112.917
514.235	126.949
517.128	103.536
520.02	118.445
522.913	102.008
525.806	113.83
528.698	107.975
531.591	107.948
534.484	113.755
537.376	116.07
540.269	114.431
543.162	113.837
546.055	112.8
548.947	118.346
551.84	109.932
554.733	116.029
557.625	115.487
560.518	111.779
563.411	107.99
566.304	114.619
569.196	121.795
572.089	115.006
574.982	109.165
577.874	119.684
580.767	113.362
583.66	120.943
586.553	117.42
589.445	112.099
592.338	116.091
595.231	106.712
598.123	112.084
601.016	125.613
603.909	118.848
606.801	105.685
609.694	124.373
612.587	110.973
615.48	114.623
618.372	112.634
621.265	115.821
624.158	119.257
627.05	120.012
629.943	123.728
632.836	124.01
635.728	107.935
638.621	110.97
641.514	115.57
644.407	120.334
647.299	106.926
650.192	120.517
653.085	119.573
655.977	116.282
658.87	123.924
661.763	121.932
664.655	121.279
667.548	126.976
670.441	113.442
673.333	124.073
676.226	118.056
679.119	119.843
682.012	124.585
684.904	119.862
687.797	118.595
690.69	121.957
693.582	128.938
696.475	116.166
699.368	120.299
702.26	120.767
705.153	132.488
708.046	121.435
710.939	128.689
713.831	127.437
716.724	122.928
719.617	120.046
722.509	118.514
725.402	128.732
728.295	122.104
731.188	122.068
734.08	117.417
736.973	126.667
739.866	129.297
742.758	129.671
745.651	123.53
748.544	121.987
751.436	123.346
754.329	120.063
757.222	116.038
760.115	115.968
763.007	136.653
765.9	121.993
768.793	120.431
771.685	127.978
774.578	116.363
777.471	118.363
780.363	123.152
783.256	120.948
786.149	122.772
789.042	126.302
791.934	124.624
794.827	116.631
797.72	117.804
800.612	123.806
803.505	126.581
806.398	125.91
809.29	117.435
812.183	121.088
815.076	124.151
817.968	138.809
820.861	121.855
823.754	120.38
826.647	134.257
829.539	125.708
832.432	118.322
835.325	113.52
838.217	128.729
841.11	126.654
844.003	129.441
846.895	131.965
849.788	129.755
852.681	135.476
855.574	125.053
858.466	129.589
861.359	138.661
864.252	128.155
867.144	135.613
870.037	124.615
872.93	129.003
875.822	128.713
878.715	138.555
881.608	131.674
884.501	122.43
887.393	125.363
890.286	138.472
893.179	133.314
896.072	136.232
898.964	124.804
901.857	128.729
904.75	142.931
907.642	130.965
910.535	135.92
913.428	131.268
916.32	135.481
919.213	125.581
922.106	134.709
924.999	124.485
927.891	134.996
930.784	126.367
933.677	128.411
936.569	133.539
939.462	138.606
942.355	135.934
945.247	135.737
948.14	122.268
951.033	125.846
953.926	121.087
956.818	131.353
959.711	145.31
962.604	134.896
965.496	127.82
968.389	143.15
971.282	120.601
974.174	140.886
977.067	129.625
979.96	129.42
982.852	130.575
985.745	142.5
988.638	131.103
991.531	131.044
994.423	136.695
997.316	140.429
1000.21	134.499
1003.1	142.875
1005.99	132.163
1008.89	131.551
1011.78	136.092
1014.67	138.453
1017.57	133.217
1020.46	141.856
1023.35	139.918
1026.24	136.125
1029.14	142.611
1032.03	139.459
1034.92	139.023
1037.81	152.566
1040.71	147.975
1043.6	144.739
1046.49	150.145
1049.38	134.802
1052.28	136.374
1055.17	141.82
1058.06	136.15
1060.95	140.083
1063.85	143.565
1066.74	140.247
1069.63	144.409
1072.53	148.569
1075.42	141.242
1078.31	148.231
1081.2	144.984
1084.1	132.721
1086.99	150.386
1089.88	147.667
1092.78	151.429
1095.67	151.87
1098.56	142.592
1101.45	141.623
1104.35	143.758
1107.24	151.327
1110.13	152.606
1113.02	160.655
1115.92	136.224
1118.81	140.837
1121.7	142.117
1124.6	148.383
1127.49	145.05
1130.38	152.484
1133.27	147.449
1136.17	148.164
1139.06	147.235
1141.95	155.144
1144.84	151.36
1147.74	159.776
1150.63	146.095
1153.52	138.77
1156.41	140.561
1159.31	148.847
1162.2	132.835
1165.09	137.872
1167.98	143.644
1170.88	136.369
1173.77	153.353
1176.66	158.005
1179.56	145.231
1182.45	163.582
1185.34	156.076
1188.23	146.552
1191.13	140.417
1194.02	151.745
1196.91	150.001
1199.81	162.207
1202.7	153.421
1205.59	152.199
1208.48	161.858
1211.38	160.542
1214.27	161.666
1217.16	163.215
1220.05	161.743
1222.95	164.655
1225.84	172.342
