Measurement: Raman, 785 nm, unoriented, Raman Data RAW
Mineral: Kenoargentotetrahedrite-(Fe)
Rruff sample: R061081
Ideal chemistry: Ag^1+^_6_(Cu^1+^_4_Fe^2+^_2_)Sb_4_S^2-^_12_[box]
Locality: Sadie mine, Elsa, Yukon, Canada
Source: Lloyd Twaites
Description: Dark gray metallic massive
Raman shift (cm-1)	intensity
122.112	336.595
125.004	511.525
127.897	779.132
130.79	1156.31
133.682	1349.23
136.575	1259.26
139.468	1090.26
142.36	1104.43
145.253	1296.6
148.146	1548.09
151.038	1411.27
153.931	1197.93
156.824	983.944
159.717	956.289
162.609	882.574
165.502	804.379
168.395	769.741
171.287	695.287
174.18	671.699
177.073	620.997
179.965	601.186
182.858	585.161
185.751	579.74
188.644	562.676
191.536	560.997
194.429	560.246
197.322	538.502
200.214	559.546
203.107	552.833
206	557.177
208.893	572.905
211.785	575.584
214.678	566.373
217.571	568.916
220.463	585.613
223.356	600.312
226.249	619.997
229.141	665.418
232.034	684.042
234.927	702.605
237.82	741.962
240.712	759.32
243.605	783.792
246.498	815.046
249.39	824.021
252.283	847.683
255.176	902.287
258.068	958.36
260.961	1012.28
263.854	1090.08
266.746	1184.33
269.639	1306.32
272.532	1428.96
275.425	1551.3
278.317	1622.8
281.21	1668.64
284.103	1647.34
286.995	1580.85
289.888	1538.25
292.781	1539.64
295.673	1542.18
298.566	1576.49
301.459	1616.6
304.351	1617.35
307.244	1685.85
310.137	1710.47
313.03	1748.92
315.922	1797.78
318.815	1863.06
321.708	2034.31
324.6	2274.12
327.493	2573.18
330.386	2962.84
333.279	3382.99
336.171	3669.78
339.064	3934.69
341.957	4158.74
344.849	4669.18
347.742	5069.15
350.635	4853.07
353.527	3865.91
356.42	2729.36
359.313	1868.92
362.205	1289.55
365.098	926.069
367.991	688.897
370.884	535.313
373.776	447.184
376.669	395.754
379.562	351.458
382.454	323.468
385.347	286.584
388.24	277.337
391.132	264.024
394.025	267.821
396.918	254.959
399.811	234.107
402.703	234.456
405.596	223.488
408.489	218.387
411.381	218.452
414.274	216.138
417.167	203.868
420.06	201.135
422.952	197.848
425.845	189.014
428.738	192.722
431.63	188.06
434.523	183.685
437.416	185.947
440.308	172.087
443.201	174.121
446.094	172.146
448.986	180.038
451.879	166.826
454.772	162.762
457.665	163.083
460.557	160.038
463.45	150.512
466.343	158.615
469.235	147.251
472.128	144.103
475.021	140.588
477.913	139.445
480.806	141.001
483.699	135.483
486.592	147.676
489.484	132.517
492.377	134.133
495.27	130.186
498.162	128.885
501.055	131.447
503.948	122.487
506.841	137.641
509.733	134.538
512.626	127.601
515.519	130.005
518.411	129.299
521.304	135.25
524.197	130.838
527.089	125.659
529.982	124.766
532.875	125.874
535.768	137.382
538.66	138.722
541.553	137.173
544.446	133.739
547.338	136.652
550.231	135.143
553.124	128.36
556.016	137.777
558.909	146.244
561.802	143.447
564.694	129.849
567.587	134.626
570.48	150.644
573.373	142.829
576.265	151.19
579.158	143.509
582.051	156.101
584.943	153.126
587.836	156.738
590.729	144.47
593.621	153.194
596.514	151.54
599.407	162.112
602.299	158.766
605.192	155.582
608.085	162.331
610.978	151.145
613.87	164.134
616.763	156.592
619.656	144.787
622.548	145.241
625.441	151.68
628.334	159.345
631.226	152.135
634.119	153.093
637.012	144.65
639.905	142.646
642.797	150.553
645.69	146.546
648.583	130.357
651.475	137.433
654.368	123.654
657.261	131.781
660.154	133.54
663.046	124.759
665.939	123.597
668.832	130.653
671.724	120.257
674.617	120.653
677.51	132.14
680.402	124.02
683.295	121.021
686.188	112.561
689.081	113.435
691.973	102.038
694.866	106.219
697.759	116.014
700.651	111.213
703.544	89.5243
706.437	101.645
709.329	98.3956
712.222	91.6708
715.115	94.0532
718.008	84.0095
720.9	89.0986
723.793	87.4657
726.686	101.654
729.578	83.0251
732.471	77.9964
735.364	82.1986
738.256	83.9845
741.149	83.3987
744.042	73.327
746.934	76.0864
749.827	83.4578
752.72	93.0768
755.612	86.9373
758.505	81.8279
761.398	73.1909
764.291	82.0839
767.183	78.2521
770.076	83.1829
772.969	92.3863
775.861	83.8033
778.754	66.8885
781.647	78.4874
784.54	83.1215
787.432	77.1261
790.325	85.2547
793.218	78.8089
796.11	73.0035
799.003	82.2531
801.896	80.3058
804.788	84.0084
807.681	75.7033
810.574	78.8052
813.467	88.0612
816.359	86.0286
819.252	83.5826
822.145	79.9289
825.037	79.3603
827.93	91.1427
830.823	82.2089
833.716	88.8686
836.608	83.4571
839.501	85.0636
842.394	88.6306
845.286	95.8359
848.179	73.8226
851.072	83.2282
853.964	84.3016
856.857	85.0476
859.75	80.5858
862.643	85.5393
865.535	63.1033
868.428	76.4863
871.321	78.7897
874.213	81.6145
877.106	79.024
879.999	86.468
882.891	85.3168
885.784	78.9305
888.677	89.5405
891.569	77.5821
894.462	72.962
897.355	73.8626
900.247	75.5623
903.14	89.1302
906.033	81.9555
908.926	81.156
911.818	88.1259
914.711	69.4507
917.604	85.5945
920.496	79.1203
923.389	83.3459
926.282	78.4234
929.174	82.9641
932.067	82.2003
934.96	82.3504
937.853	91.602
940.745	73.1825
943.638	83.6347
946.531	86.7242
949.423	84.4032
952.316	89.6195
955.209	86.4607
958.101	86.2001
960.994	79.2871
963.887	84.9778
966.78	78.9677
969.672	79.8353
972.565	87.4114
975.458	85.8565
978.35	85.7318
981.243	83.0645
984.136	85.7062
987.029	81.7833
989.921	66.5644
992.814	81.6988
995.707	79.9492
998.599	77.253
1001.49	78.4247
1004.38	87.7233
1007.28	82.2861
1010.17	93.4227
1013.06	85.9591
1015.96	73.7736
1018.85	85.7698
1021.74	74.8342
1024.63	85.3032
1027.53	79.5306
1030.42	77.2026
1033.31	91.6623
1036.2	85.0425
1039.1	86.4747
1041.99	92.1032
1044.88	86.9681
1047.78	88.5874
1050.67	84.5691
1053.56	76.7028
1056.45	81.6211
1059.35	77.1403
1062.24	79.1905
1065.13	100.975
1068.02	93.6234
1070.92	78.1631
1073.81	85.2144
1076.7	87.1395
1079.6	88.3054
1082.49	92.9284
1085.38	79.9508
1088.27	78.906
1091.17	89.6312
1094.06	88.7705
1096.95	91.5238
1099.84	87.7186
1102.74	83.3222
1105.63	82.6987
1108.52	94.0917
1111.41	84.6691
1114.31	78.3762
1117.2	91.634
1120.09	89.0735
1122.98	66.8425
1125.88	86.6428
1128.77	82.8478
1131.66	89.3389
1134.56	95.6939
1137.45	94.6577
1140.34	86.6814
1143.23	83.477
1146.13	93.836
1149.02	87.2907
1151.91	81.2674
1154.81	87.3071
1157.7	84.0184
1160.59	85.5287
1163.48	97.2773
1166.38	98.1663
1169.27	92.1458
1172.16	85.2452
1175.05	98.3289
1177.95	82.3691
1180.84	94.9808
1183.73	78.6828
1186.62	87.2036
1189.52	79.4479
1192.41	97.2251
1195.3	83.1723
1198.2	88.8307
1201.09	93.6596
1203.98	89.8432
1206.87	89.2529
1209.77	88.8872
1212.66	87.6294
1215.55	93.8213
1218.44	80.9142
1221.34	93.2593
1224.23	93.5019
1227.12	91.9708
1230.02	103.613
1232.91	92.7663
1235.8	98.163
1238.69	84.6932
1241.59	91.8055
1244.48	86.2814
1247.37	85.9073
1250.26	84.1476
1253.16	95.5562
1256.05	108.189
1258.94	97.4155
1261.84	96.5461
1264.73	74.453
1267.62	80.7511
