Measurement: Raman, 780 nm, unoriented, Raman Data RAW
Mineral: Khanneshite
Rruff sample: R070672
Ideal chemistry: (Na,Ca)_3_(Ba,Sr,Ce,Ca)_3_(CO_3_)_5_
Locality: Tuliylukht Bay, Khibiny Massif, Kola Peninsula, Murmanskaja Oblast', Northern Region, Russia
Source: Michael Scott
Description: Vitreous orange massive on single grain
Raman shift (cm-1)	intensity
99.5466	969.919
102.921	1002.86
106.296	979.004
109.671	1025.12
113.046	1026.69
116.421	995.985
119.796	1048.17
123.17	1047.13
126.545	1051.99
129.92	1045.39
133.295	1064.22
136.67	1087.35
140.044	1055.03
143.419	1128.71
146.794	1145.61
150.169	1181.82
153.544	1254.29
156.918	1230.57
160.293	1283.05
163.668	1335.99
167.043	1393.97
170.418	1441.88
173.793	1498.85
177.167	1630.79
180.542	1675.73
183.917	1802.53
187.292	1935.15
190.667	2085.11
194.042	2294.04
197.416	2485.14
200.791	2728.67
204.166	3049.92
207.541	3205.24
210.916	3534.93
214.291	3781.06
217.665	4129.95
221.04	4330.11
224.415	4612.16
227.79	4822.26
231.165	4963.51
234.539	5149.42
237.914	5368.35
241.289	5584.25
244.664	5810.37
248.039	6033.69
251.413	6207.74
254.788	6523.1
258.163	6912.81
261.538	7306.14
264.913	7905.74
268.288	8268.13
271.662	8610.61
275.037	8792.52
278.412	8812.2
281.787	8927.35
285.162	8948.35
288.536	9136.96
291.911	9055.61
295.286	8963.77
298.661	8738.36
302.036	8609.13
305.411	8374.68
308.785	8215.05
312.16	8252.32
315.535	8265.84
318.91	8446.4
322.285	8757.09
325.659	9085.9
329.034	9290.58
332.409	9562.72
335.784	9765.82
339.159	10018.7
342.534	10004.3
345.908	10110.2
349.283	9977.02
352.658	9731.98
356.033	9442.18
359.408	8951.67
362.782	8471.72
366.157	8092.04
369.532	7664.05
372.907	7272.76
376.282	6954.19
379.657	6657.89
383.031	6348.11
386.406	6144.5
389.781	5930.46
393.156	5872.29
396.531	5805.82
399.906	5691.63
403.28	5586.94
406.655	5524.21
410.03	5448.88
413.405	5389.07
416.779	5253.69
420.154	5147.23
423.529	4990.53
426.904	4824.83
430.279	4687.47
433.654	4545.34
437.028	4420.42
440.403	4236.79
443.778	4054.85
447.153	3979.5
450.528	3810.29
453.902	3667.66
457.277	3651.84
460.652	3519.59
464.027	3379.89
467.402	3282.75
470.777	3219.48
474.151	3139.82
477.526	3021.09
480.901	2881.59
484.276	2799.16
487.651	2784.84
491.026	2687.42
494.4	2583.75
497.775	2524.29
501.15	2497.84
504.525	2418.92
507.9	2377.33
511.274	2312.31
514.649	2293.94
518.024	2237.26
521.399	2239.44
524.774	2224.88
528.149	2216.87
531.523	2215.42
534.898	2221.37
538.273	2244.99
541.648	2216.62
545.023	2244.39
548.398	2264.08
551.772	2340.58
555.147	2390.66
558.522	2405.14
561.897	2529.32
565.271	2588.36
568.646	2661.7
572.021	2712.55
575.396	2766.17
578.771	2889.66
582.146	2892.09
585.52	2951.33
588.895	2993.49
592.27	3035.11
595.645	3024.92
599.02	3005.85
602.394	2983.12
605.769	2969.65
609.144	2902.43
612.519	2914.48
615.894	2873.39
619.269	2881.91
622.643	2870.59
626.018	2860.53
629.393	2932.56
632.768	2920.62
636.143	2933.08
639.518	2994.38
642.892	3008.09
646.267	3025.69
649.642	3065.45
653.017	3057.62
656.392	3017.16
659.766	2973.49
663.141	2894.99
666.516	2841.34
669.891	2717.76
673.266	2603.31
676.641	2505.47
680.015	2384.57
683.39	2303.36
686.765	2255.74
690.14	2189.7
693.515	2052.51
696.889	1985.56
700.264	1919
703.639	1815.69
707.014	1771.75
710.389	1721.8
713.764	1675.97
717.138	1628.68
720.513	1568.17
723.888	1499.95
727.263	1470.42
730.638	1416.78
734.013	1349.11
737.387	1331.73
740.762	1215.24
744.137	1229.29
747.512	1162.95
750.886	1157.53
754.261	1137.54
757.636	1103.91
761.011	1104.27
764.386	1049.61
767.761	1035.96
771.135	972.059
774.51	998.663
777.885	977.239
781.26	907.384
784.635	895.323
788.01	917.049
791.384	934.009
794.759	902.353
798.134	917.932
801.509	900.903
804.884	882.747
808.258	884.289
811.633	887.583
815.008	873.733
818.383	872.712
821.758	869.029
825.133	869.221
828.507	862.654
831.882	857.555
835.257	872.731
838.632	859.828
842.007	866.544
845.381	832.124
848.756	862.441
852.131	845.008
855.506	854.692
858.881	857.254
862.256	814.026
865.63	847.33
869.005	856.541
872.38	868.118
875.755	850.829
879.13	870.658
882.505	862.821
885.879	898.558
889.254	845.766
892.629	870.572
896.004	884.406
899.379	878.17
902.753	893.291
906.128	913.861
909.503	925.212
912.878	913.344
916.253	909.518
919.627	947.649
923.002	939.832
926.377	954.676
929.752	991.727
933.127	1010.72
936.501	1037.92
939.876	1039.58
943.251	1066.86
946.626	1065.25
950.001	1135.55
953.376	1122.35
956.75	1151.94
960.125	1175.1
963.5	1210.04
966.875	1256.92
970.25	1271.74
973.625	1306.4
976.999	1320.87
980.374	1393.44
983.749	1426.04
987.124	1492.59
990.499	1561.23
993.874	1596.67
997.248	1631.24
1000.62	1722.34
1004	1785.64
1007.37	1821.74
1010.75	1923.74
1014.12	1958.61
1017.5	2051.2
1020.87	2102.78
1024.25	2226.68
1027.62	2309.11
1031	2375.19
1034.37	2453.58
1037.75	2579.34
1041.12	2690.23
1044.5	2819.29
1047.87	2922.21
1051.24	3053.92
1054.62	3232.4
1057.99	3350.97
1061.37	3525.37
1064.74	3602.99
1068.12	3778.18
1071.49	3961.65
1074.87	4065.07
1078.24	4232.83
1081.62	4397.85
1084.99	4544.76
1088.37	4753.86
1091.74	4958.59
1095.12	5171.33
1098.49	5354.26
1101.87	5622.47
1105.24	5834.92
1108.62	6107.6
1111.99	6353.04
1115.37	6640.01
1118.74	6887.49
1122.12	7131.92
1125.49	7367.65
1128.87	7729.21
1132.24	8031.55
1135.62	8279.76
1138.99	8713.71
1142.37	9002.75
1145.74	9419.34
1149.12	9775.08
1152.49	10198.2
1155.87	10613.8
1159.24	10959
1162.61	11429.9
1165.99	11904.9
1169.36	12443.9
1172.74	12969.9
1176.11	13558.4
1179.49	14228.5
1182.86	14744.2
1186.24	15503.9
1189.61	16272.7
1192.99	17026.6
1196.36	18046.3
1199.74	19003.5
1203.11	20151.1
1206.49	21448.2
1209.86	22951
1213.24	24629.2
1216.61	26504.2
1219.99	28581.7
1223.36	31200.4
1226.74	34216.2
1230.11	37696.4
1233.48	41926.3
1236.86	46885
1240.23	52405.1
1243.61	58703
1246.98	65837
1250.36	73508.7
1253.73	81623.2
1257.11	89489.1
1260.48	96563.5
1263.86	102885
1267.23	107005
1270.61	108845
1273.98	108352
1277.36	106793
1280.73	105226
