Measurement: Raman, 780 nm, unoriented, Raman Data Processed
Mineral: Kraisslite
Rruff sample: R060328
Ideal chemistry: Zn^2+^_3_(Mn^2+^,Mg)_25_(Fe^3+^,Al)(As^3+^O_3_)_2_[(Si,As^5+^)O_4_]_10_(OH)_16_
Locality: Sterling Hill, Ogdensburg, Sussex County, New Jersey, USA
Source: Michael Scott
Description: Coppery brown thin plates
Raman shift (cm-1)	intensity
101.564	0
104.939	14.293
108.313	93.0547
111.688	118.465
115.063	70.0781
118.438	43.6523
121.813	76.9062
125.187	87.0977
128.562	71.7148
131.937	92.5391
135.312	120.144
138.687	126.953
142.061	136.769
145.436	196.391
148.811	229.394
152.186	247.816
155.561	212.066
158.936	179.328
162.31	172.488
165.685	127.285
169.06	48.1289
172.435	103.547
175.81	95.2578
179.185	119.016
182.559	146.738
185.934	137.973
189.309	105.066
192.684	69.4688
196.059	98.3086
199.433	81.4375
202.808	94.4414
206.183	88.2969
209.558	50.5547
212.933	62.2148
216.308	41.4961
219.682	75.4219
223.057	44.6992
226.432	69.0508
229.807	43.043
233.182	63.0742
236.556	57.0586
239.931	47.5898
243.306	12.1602
246.681	41.2305
250.056	48.3281
253.43	17.9531
256.805	11.3398
260.18	10.9336
263.555	9.53125
266.93	48.9141
270.305	14.9336
273.679	47.7695
277.054	57.207
280.429	101.512
283.804	86.9375
287.179	102.391
290.553	77.1094
293.928	72.4844
297.303	110.332
300.678	126.644
304.053	121.391
307.428	145.609
310.802	44.9375
314.177	30.7773
317.552	35.332
320.927	35.3945
324.302	20.9805
327.676	72.5625
331.051	59.7109
334.426	45.7891
337.801	2.58594
341.176	26.8672
344.551	4.4375
347.925	59.8281
351.3	23.125
354.675	48.0273
358.05	20.8164
361.425	25.8594
364.8	41.4453
368.174	104.789
371.549	91.8008
374.924	90.0078
378.299	44.6055
381.674	46.9883
385.048	31.3555
388.423	9.75
391.798	4.28516
395.173	37.1367
398.548	3.51172
401.923	7.52734
405.297	6.8125
408.672	34.8359
412.047	25.0078
415.422	8.49219
418.796	69.6953
422.171	67.1875
425.546	72.7969
428.921	92.418
432.296	107.832
435.671	115.32
439.045	203.547
442.42	123.039
445.795	136.809
449.17	136.195
452.545	158.25
455.92	191.022
459.294	207.336
462.669	188.873
466.044	163.971
469.419	175.779
472.794	213.144
476.168	207.353
479.543	215.721
482.918	142.135
486.293	205.273
489.668	262.275
493.043	332.438
496.417	389.547
499.792	414.635
503.167	530.463
506.542	524.379
509.917	441.828
513.291	388.562
516.666	333.352
520.041	241.383
523.416	178.478
526.791	136.891
530.165	131.352
533.54	41.168
536.915	74.6348
540.29	51.9219
543.665	119.463
547.04	85.3574
550.414	66.8769
553.789	30.6504
557.164	13.3184
560.539	43.8047
563.914	3.07812
567.288	36.123
570.663	46.3926
574.038	90.5254
577.413	84.0488
580.788	99.6465
584.163	125.17
587.537	141.576
590.912	79.832
594.287	130.316
597.662	121.398
601.037	148.541
604.412	134.336
607.786	133.529
611.161	101.84
614.536	76.7188
617.911	77.0352
621.286	86.4805
624.66	103.127
628.035	109.322
631.41	158.951
634.785	178.152
638.16	205.106
641.534	124.324
644.909	115.785
648.284	115.422
651.659	73.916
655.034	121.68
658.409	57.1094
661.783	82.5527
665.158	97.0547
668.533	43.6504
671.908	19.9512
675.283	28.8379
678.658	7.77344
682.032	1.67383
685.407	6.11914
688.782	10.3516
692.157	7.36328
695.532	7.44336
698.906	19.5156
702.281	7.51758
705.656	62.1953
709.031	104.887
712.406	205.644
715.78	191.465
719.155	148.035
722.53	145.512
725.905	124.17
729.28	113.531
732.654	91.3535
736.029	67.7148
739.404	40.1738
742.779	32.582
746.154	41.4668
749.529	10.4355
752.903	4.63086
756.278	15.0156
759.653	36.2363
763.028	41.5078
766.403	47.3691
769.778	55.0156
773.152	89.6856
776.527	130.361
779.902	130.162
783.277	243.481
786.652	354.115
790.026	456.797
793.401	638.195
796.776	563.703
800.151	346.635
803.526	314.353
806.9	243.766
810.275	246.174
813.65	310.838
817.025	251.732
820.4	350.719
823.775	420.072
827.149	435.076
830.524	371.367
833.899	376.293
837.274	409.594
840.649	392.951
844.024	378.098
847.398	252.994
850.773	210.008
854.148	134.42
857.523	51.3535
860.898	46.6074
864.272	28.209
867.647	45.8047
871.022	48.8945
874.397	7.61133
877.772	11.3262
881.146	76.4629
884.521	41.8008
887.896	35.998
891.271	16.2285
894.646	3.73633
898.021	31.0781
901.395	23.9375
904.77	40.8848
908.145	40.8359
911.52	41.4414
914.895	5.32227
918.269	22.8711
921.644	18.6367
925.019	22.832
928.394	55.3008
931.769	25.0859
935.144	12.627
938.518	4.53125
941.893	4.54102
945.268	14.3184
948.643	28.2695
952.018	2.45312
955.393	12.9766
958.767	31.7324
962.142	6.99023
965.517	7.5625
968.892	47.1484
972.266	26.668
975.641	19.9883
979.016	19.4629
982.391	14.0918
985.766	6.56055
989.141	3.92188
992.515	35.6035
995.89	26.0781
999.265	22.7539
1002.64	26.9746
1006.01	5.41797
1009.39	14.8027
1012.76	21.3848
1016.14	25.2012
1019.51	13.8301
1022.89	45.3301
1026.26	39.3125
1029.64	71.5644
1033.01	91.8242
1036.39	38.0508
1039.76	34.0566
1043.14	44.4883
1046.51	37.1621
1049.89	47.9512
1053.26	38.5547
1056.64	61.0469
1060.01	69.9551
1063.39	81.875
1066.76	72.0723
1070.14	47.2363
1073.51	76.3066
1076.89	63.5762
1080.26	100.5
1083.63	82.1231
1087.01	64.6836
1090.38	49.5332
1093.76	45.4746
1097.13	61.5586
1100.51	36.4551
1103.88	43.0742
1107.26	33.0527
1110.63	10.5137
1114.01	10.7344
1117.38	16.2227
1120.76	30.9824
1124.13	11.5117
1127.51	38.0801
1130.88	52.4395
1134.26	46.6758
1137.63	76.8965
1141.01	53.3438
1144.38	73.3223
1147.76	108.391
1151.13	68.8926
1154.51	78.4375
1157.88	95.8711
1161.26	140.824
1164.63	123.576
1168.01	124.707
1171.38	139.779
1174.76	131.232
1178.13	127.598
1181.51	110.502
1184.88	107.631
1188.26	98.5488
1191.63	100.053
1195.01	99.6387
1198.38	100.178
1201.75	98.3066
1205.13	90.3027
1208.5	84.8047
1211.88	82.5996
1215.25	62.7402
1218.63	31.8516
1222	32.7988
1225.38	30.1367
1228.75	9.46875
1232.13	28.7031
1235.5	12.248
1238.88	1.41992
1242.25	9.40625
1245.63	2.96289
1249	4.16016
1252.38	12.4297
1255.75	21.4883
1259.13	59.3867
1262.5	49.0469
1265.88	62.5488
1269.25	62.4062
1272.62	38.4824
1276	68.543
1279.38	11.623
