Measurement: Raman, 532 nm, unoriented, Raman Data Processed
Mineral: Kraisslite
Rruff sample: R060328
Ideal chemistry: Zn^2+^_3_(Mn^2+^,Mg)_25_(Fe^3+^,Al)(As^3+^O_3_)_2_[(Si,As^5+^)O_4_]_10_(OH)_16_
Locality: Sterling Hill, Ogdensburg, Sussex County, New Jersey, USA
Source: Michael Scott
Description: Coppery brown thin plates
Raman shift (cm-1)	intensity
139.723	0
143.098	6.15918
146.473	10.5207
149.848	8.26196
153.222	11.6348
156.597	0.98291
159.972	5.05005
163.347	3.11133
166.722	1.89331
170.097	8.51587
173.471	1.98633
176.846	5.38623
180.221	13.7786
183.596	16.4565
186.971	14.627
190.345	11.1668
193.72	14.332
197.095	12.4336
200.47	9.10791
203.845	1.79907
207.22	4.75049
210.594	5.55127
213.969	5.48828
217.344	2.98633
220.719	2.62769
224.094	1.17407
227.469	0.463867
230.843	3.62183
234.218	11.2046
237.593	15.6633
240.968	13.4231
244.343	8.41016
247.717	7.71509
251.092	8.56128
254.467	12.2446
257.842	18.0652
261.217	22.033
264.591	20.2288
267.966	20.6724
271.341	23.7605
274.716	31.9573
278.091	37.5544
281.466	36.5735
284.84	45.6997
288.215	38.1877
291.59	35.8472
294.965	31.1165
298.34	26.728
301.714	32.0022
305.089	30.4722
308.464	22.4727
311.839	12.1235
315.214	14.0081
318.589	13.9104
321.963	14.8174
325.338	13.8916
328.713	11.3237
332.088	8.3894
335.463	1.46655
338.837	3.25147
342.212	0.856201
345.587	3.26733
348.962	10.47
352.337	0.932373
355.712	1.96826
359.086	1.8584
362.461	1.06665
365.836	9.15601
369.211	10.7275
372.586	13.2476
375.96	10.0259
379.335	7.02344
382.71	0.340088
386.085	3.85718
389.46	3.30298
392.834	3.05859
396.209	13.2913
399.584	16.7244
402.959	10.1924
406.334	9.71118
409.709	6.21875
413.083	4.72436
416.458	10.7029
419.833	1.60083
423.208	6.39575
426.583	1.24439
429.957	9.23291
433.332	4.39258
436.707	3.86084
440.082	2.4021
443.457	3.54224
446.832	8.80664
450.206	7.48633
453.581	6.82959
456.956	10.5669
460.331	11.3877
463.706	9.33276
467.08	7.92578
470.455	11.2744
473.83	21.8152
477.205	32.8945
480.58	36.0847
483.955	65.8486
487.329	104.617
490.704	153.202
494.079	203.034
497.454	265.399
500.829	313.565
504.204	331.353
507.578	308.665
510.953	256.622
514.328	200.051
517.703	157.519
521.078	111.755
524.452	80.4085
527.827	58.6121
531.202	47.6648
534.577	40.3071
537.952	28.9416
541.327	23.3784
544.701	19.178
548.076	24.6616
551.451	15.771
554.826	15.2649
558.201	11.7854
561.575	1.68115
564.95	0.105713
568.325	3.95801
571.7	3.20606
575.075	5.66553
578.449	10.6758
581.824	8.14185
585.199	13.3174
588.574	4.42358
591.949	1.22583
595.323	5.81885
598.698	0.87207
602.073	0.964844
605.448	5.54688
608.823	5.42456
612.198	7.35229
615.572	7.94922
618.947	11.3171
622.322	13.0903
625.697	14.4612
629.072	15.7725
632.447	18.2395
635.821	14.0041
639.196	7.41577
642.571	11.0217
645.946	13.7273
649.321	15.2231
652.695	20.3406
656.07	14.3726
659.445	7.92212
662.82	1.60986
666.195	8.20605
669.569	13.0269
672.944	1.39624
676.319	6.16089
679.694	9.05493
683.069	5.95972
686.444	5.19629
689.818	12.7278
693.193	11.1372
696.568	19.1697
699.943	25.8442
703.318	26.855
706.692	43.9392
710.067	43.1624
713.442	50.6057
716.817	55.3914
720.192	39.5288
723.567	33.29
726.941	27.6133
730.316	15.8335
733.691	6.22876
737.066	8.94507
740.441	8.83887
743.816	6.14844
747.19	2.81226
750.565	3.91894
753.94	2.17627
757.315	2.07544
760.69	0.004883
764.064	9.28027
767.439	15.9929
770.814	32.1086
774.189	43.7053
777.564	64.7129
780.938	90.7827
784.313	125.272
787.688	163.678
791.063	191.416
794.438	202.291
797.813	157.613
801.187	107.859
804.562	81.9399
807.937	81.4175
811.312	81.0027
814.687	96.6724
818.062	107.458
821.436	140.18
824.811	144.23
828.186	132.922
831.561	118.06
834.936	101.895
838.31	113.866
841.685	101.209
845.06	82.481
848.435	61.4861
851.81	39.3616
855.184	19.501
858.559	18.5747
861.934	10.158
865.309	7.71997
868.684	16.6404
872.059	10.3184
875.433	2.20215
878.808	5.25366
882.183	0.186279
885.558	0.57959
888.933	1.4375
892.308	3.70117
895.682	17.5398
899.057	25.9961
902.432	18.9477
905.807	13.3648
909.182	19.1604
912.556	14.8423
915.931	16.5974
919.306	19.5559
922.681	20.9084
926.056	25.7258
929.431	23.5288
932.805	17.9006
936.18	13.6938
939.555	14.5217
942.93	15.3918
946.305	12.7427
949.679	0.531738
953.054	1.63428
956.429	7.58814
959.804	13.1235
963.179	16.75
966.553	3.37256
969.928	3.9209
973.303	2.63623
976.678	12.5654
980.053	11.0913
983.428	6.71045
986.802	2.4419
990.177	8.03125
993.552	1.23242
996.927	2.62353
1000.3	5.17041
1003.68	1.03857
1007.05	10.2153
1010.43	9.53174
1013.8	12.4673
1017.18	17.334
1020.55	7.87402
1023.92	4.64502
1027.3	10.0986
1030.67	8.69922
1034.05	3.05127
1037.42	5.67285
1040.8	13.0171
1044.17	22.0356
1047.55	26.4619
1050.92	20.9526
1054.3	16.6108
1057.67	16.4605
1061.05	16.2559
1064.42	18.2529
1067.8	20.5391
1071.17	11.8579
1074.55	26.5381
1077.92	28.9477
1081.3	32.4907
1084.67	43.0195
1088.05	28.7153
1091.42	25.7036
1094.8	14.9434
1098.17	16.7837
1101.55	10.3149
1104.92	9.93213
1108.3	1.34228
1111.67	5.16064
1115.05	7.2168
1118.42	11.3628
1121.8	0.371094
1125.17	3.43213
1128.55	1.66748
1131.92	6.02295
1135.29	1.09033
1138.67	10.7646
1142.04	17.229
1145.42	8.04443
1148.79	11.1543
1152.17	16.5034
1155.54	18.2666
1158.92	23.2539
1162.29	25.3555
1165.67	24.8037
1169.04	20.6885
1172.42	20.9004
1175.79	20.8398
1179.17	21.8506
1182.54	27.5669
1185.92	30.583
1189.29	27.1602
1192.67	26.6748
1196.04	32.2388
1199.42	23.9365
1202.79	24.8232
1206.17	25.3857
1209.54	17.5933
1212.91	21.5986
1216.29	22.6787
1219.66	16.9756
1223.04	23.748
1226.41	15.6997
1229.79	15.7944
1233.16	7.67871
1236.54	7.396
1239.91	4.13525
1243.29	6.28223
1246.66	16.9512
1250.04	14.2412
1253.41	13.2783
1256.79	18.5581
1260.16	14.6519
1263.54	1.43994
1266.91	13.2607
1270.29	3.81006
1273.66	1.85303
1277.04	7.93359
1280.41	6.48389
1283.79	3.67871
1287.16	14.9937
1290.54	7.96143
1293.91	14.0371
1297.29	0.191406
1300.66	0
