Measurement: Raman, 532 nm, unoriented, Raman Data RAW
Mineral: Krohnkite
Rruff sample: R060111
Ideal chemistry: Na_2_Cu^2+^(S^6+^O_4_)_2_2H_2_O
Locality: Chuquicamata, Chile
Source: University of Arizona Mineral Museum
Description: Green bladed crystals
Measured chemistry: Na_2.00_Cu_1.00_(S_1.00_O_4_)_2_Â·2H_2_O; H_2_O estimated by difference
Raman shift (cm-1)	intensity
89.7816	0
93.1564	7.96021
96.5312	7.73698
99.906	7.42444
103.281	7.01282
106.656	7.59842
110.031	7.85439
113.405	11.6478
116.78	18.117
120.155	33.3089
123.53	57.4464
126.905	72.9888
130.279	87.8488
133.654	125.452
137.029	170.75
140.404	207.621
143.779	223.565
147.154	249.067
150.528	266.777
153.903	231.15
157.278	232.945
160.653	233.631
164.028	200.5
167.402	192.491
170.777	192.686
174.152	198.907
177.527	206.617
180.902	201.857
184.277	177.574
187.651	157.994
191.026	153.449
194.401	155.74
197.776	163.848
201.151	179.575
204.525	193.479
207.9	212.357
211.275	225.688
214.65	226.025
218.025	214.047
221.4	189.35
224.774	164.932
228.149	147.43
231.524	131.916
234.899	126.724
238.274	124.327
241.649	129.569
245.023	140.297
248.398	161.668
251.773	185.877
255.148	215.049
258.523	244.491
261.897	274.141
265.272	278.71
268.647	244.872
272.022	202.102
275.397	176.7
278.772	168.979
282.146	174.467
285.521	184.693
288.896	194.617
292.271	200.435
295.646	198.586
299.02	185.816
302.395	155.289
305.77	122.552
309.145	100.428
312.52	88.4953
315.895	80.9432
319.269	75.1854
322.644	73.5513
326.019	71.7715
329.394	70.9198
332.769	71.8072
336.144	73.6105
339.518	78.649
342.893	83.95
346.268	91.2505
349.643	99.4151
353.018	104.208
356.392	106.406
359.767	103.621
363.142	97.911
366.517	90.3773
369.892	84.3076
373.267	81.0126
376.641	80.5122
380.016	81.906
383.391	85.2605
386.766	88.0963
390.141	91.3091
393.515	94.0108
396.89	97.4872
400.265	100.166
403.64	107.866
407.015	117.514
410.39	130.303
413.764	142.121
417.139	155.059
420.514	172.104
423.889	199.338
427.264	235.484
430.639	265.67
434.013	285.73
437.388	324.147
440.763	385.411
444.138	428.97
447.513	424.243
450.887	432.639
454.262	473.079
457.637	549.909
461.012	613.373
464.387	512.157
467.762	286.844
471.136	166.243
474.511	114.594
477.886	92.0294
481.261	82.7803
484.636	81.7871
488.01	85.6009
491.385	94.7325
494.76	107.772
498.135	124.218
501.51	140.565
504.885	156.699
508.259	168.879
511.634	172.391
515.009	158.196
518.384	131.224
521.759	106.228
525.134	91.5147
528.508	82.22
531.883	77.6396
535.258	76.5155
538.633	76.3075
542.008	77.8619
545.382	82.4275
548.757	87.9172
552.132	93.9797
555.507	99.5514
558.882	105.873
562.256	111.145
565.631	113.06
569.006	114.126
572.381	112.055
575.756	108.655
579.131	105.576
582.505	101.737
585.88	98.9672
589.255	95.8356
592.63	94.9626
596.005	98.2469
599.38	103.283
602.754	106.397
606.129	113.582
609.504	119.123
612.879	116.775
616.254	100.609
619.629	92.9495
623.003	93.7235
626.378	98.1866
629.753	106.689
633.128	113.273
636.503	120.763
639.877	125.732
643.252	126.761
646.627	126.187
650.002	135.58
653.377	146.776
656.751	137.814
660.126	114.181
663.501	94.9969
666.876	80.9782
670.251	71.1799
673.626	63.3307
677	57.6923
680.375	56.4886
683.75	52.9421
687.125	52.2927
690.5	51.1233
693.875	53.0248
697.249	52.8788
700.624	55.612
703.999	57.3844
707.374	59.7297
710.749	62.5364
714.124	66.7963
717.498	69.7542
720.873	72.7621
724.248	77.0335
727.623	80.0762
730.998	83.4779
734.372	85.8771
737.747	87.1297
741.122	88.0583
744.497	87.3234
747.872	86.4414
751.246	83.0686
754.621	80.5684
757.996	75.2992
761.371	72.2456
764.746	69.2943
768.121	64.1096
771.495	60.182
774.87	57.0166
778.245	53.3239
781.62	50.9955
784.995	48.6115
788.37	47.0434
791.744	46.4289
795.119	47.5463
798.494	46.9915
801.869	49.769
805.244	54.1433
808.619	60.2669
811.993	67.984
815.368	77.1212
818.743	83.4322
822.118	83.3898
825.493	78.42
828.867	72.2241
832.242	66.1013
835.617	64.3199
838.992	67.6938
842.367	72.6119
845.741	71.8735
849.116	65.5737
852.491	59.9592
855.866	57.295
859.241	56.2369
862.616	55.8985
865.99	53.9228
869.365	51.5442
872.74	50.4011
876.115	50.5534
879.49	52.1046
882.865	54.9502
886.239	60.0064
889.614	65.7334
892.989	71.9793
896.364	79.6259
899.739	93.7351
903.113	113.873
906.488	138.131
909.863	151.887
913.238	141.18
916.613	106.07
919.987	78.7903
923.362	69.7241
926.737	65.0014
930.112	63.1971
933.487	62.3313
936.862	60.2825
940.236	61.5106
943.611	64.4572
946.986	68.3507
950.361	74.1688
953.736	81.5974
957.111	92.6573
960.485	105.025
963.86	126.45
967.235	155.38
970.61	202.077
973.985	291.052
977.36	551.563
980.734	1221.23
984.109	1798.98
987.484	2743.8
990.859	3954.95
994.234	1691.33
997.608	493.455
1000.98	243.566
1004.36	156.053
1007.73	118.424
1011.11	101.274
1014.48	95.4061
1017.86	95.7097
1021.23	104.188
1024.61	122.585
1027.98	165.759
1031.36	255.079
1034.73	424.935
1038.11	677.531
1041.48	943.885
1044.86	1159.71
1048.23	1099.72
1051.61	625.901
1054.98	306.724
1058.36	173.89
1061.73	114.152
1065.11	85.7695
1068.48	63.8244
1071.85	52.6501
1075.23	44.9182
1078.6	39.9671
1081.98	36.724
1085.35	34.3621
1088.73	33.6336
1092.1	34.7397
1095.48	35.6009
1098.85	38.7537
1102.23	42.9708
1105.6	51.0151
1108.98	62.1945
1112.35	75.1973
1115.73	89.5452
1119.1	100.189
1122.48	110.829
1125.85	134.166
1129.23	172.724
1132.6	215.481
1135.98	251.94
1139.35	216.605
1142.73	133.544
1146.1	95.8531
1149.47	100.788
1152.85	145.544
1156.22	202.956
1159.6	267.642
1162.97	311.048
1166.35	218.744
1169.72	143.766
1173.1	134.065
1176.47	146.111
1179.85	98.7681
1183.22	52.2125
1186.6	35.0987
1189.97	28.1444
1193.35	24.1079
1196.72	22.7457
1200.1	21.3817
1203.47	21.3456
1206.85	20.6054
1210.22	19.7046
1213.6	17.9761
1216.97	18.2751
1220.35	17.4123
1223.72	17.4482
1227.1	16.9652
1230.47	16.755
1233.85	15.8979
1237.22	15.6387
1240.6	14.8447
1243.97	14.7613
1247.35	13.8867
1250.72	13.9245
1254.1	13.4997
1257.47	13.1667
1260.84	13.1522
1264.22	12.8944
1267.59	13.3445
1270.97	12.104
1274.34	12.6068
1277.72	13.3277
1281.09	12.7272
1284.47	12.9952
1287.84	13.0935
1291.22	12.2973
1294.59	12.2581
1297.97	12.2354
1301.34	12.9682
