Measurement: Raman, 532 nm, unoriented, Raman Data RAW
Mineral: Kryzhanovskite
Rruff sample: R140111
Ideal chemistry: (Fe^3+^,Mn^2+^)_3_(PO_4_)_2_(OH,H_2_O)_3_
Locality: Hagendorf, Waidhaus, Vohenstrauß, Oberpfälzer Wald, Upper Palatinate, Bavaria, Germany
Source: Rock Currier
Description: Deep red vitreous, almost black, blocky crystals and massive. Golden-brown, bronze on cleavage surfaces
Measured chemistry: (Fe^3+^_1.90_Mn_0.96_Mg_0.01_)_Σ=2.87_(PO_4_)_2_(OH)_1.62_·1.36H_2_O
Raman shift (cm-1)	intensity
181.446	45.5865
184.339	49.0674
187.231	58.1338
190.124	67.9953
193.017	70.1831
195.909	67.3418
198.802	69.3126
201.695	71.3095
204.588	76.9257
207.48	80.5767
210.373	81.6472
213.266	81.6679
216.158	84.2512
219.051	89.1876
221.944	92.317
224.836	96.153
227.729	99.6981
230.622	99.9684
233.514	98.6782
236.407	97.2173
239.3	94.6113
242.193	93.0568
245.085	91.3004
247.978	86.9079
250.871	83.3893
253.763	81.6162
256.656	82.9514
259.549	82.5322
262.442	86.4533
265.334	87.0617
268.227	87.8416
271.12	86.2563
274.012	82.8161
276.905	80.5311
279.798	79.549
282.69	77.5237
285.583	78.3836
288.476	77.0636
291.368	75.0438
294.261	74.2083
297.154	75.3466
300.047	73.3826
302.939	71.6454
305.832	69.7827
308.725	69.7078
311.617	68.0457
314.51	68.248
317.403	66.7167
320.296	66.8257
323.188	65.11
326.081	64.0501
328.974	64.8489
331.866	64.4796
334.759	64.8083
337.652	64.3877
340.544	62.702
343.437	63.6069
346.33	63.9591
349.223	64.5647
352.115	65.7739
355.008	66.5841
357.901	69.3762
360.793	70.769
363.686	72.9205
366.579	75.1275
369.471	75.8385
372.364	78.3753
375.257	80.9845
378.149	80.7713
381.042	81.0096
383.935	82.7369
386.828	82.2961
389.72	82.0417
392.613	78.8449
395.506	76.6528
398.398	76.3381
401.291	75.1364
404.184	74.7233
407.077	76.7629
409.969	78.4718
412.862	80.4132
415.755	77.8588
418.647	74.4176
421.54	72.3725
424.433	67.3353
427.325	63.5186
430.218	59.5267
433.111	58.0979
436.003	57.3148
438.896	57.4541
441.789	59.4756
444.682	60.1074
447.574	64.8774
450.467	63.7814
453.36	66.3593
456.252	67.0786
459.145	65.627
462.038	66.389
464.93	65.5301
467.823	64.3566
470.716	64.5406
473.609	63.9782
476.501	63.7555
479.394	63.9291
482.287	63.3767
485.179	61.0021
488.072	60.7619
490.965	59.9564
493.858	59.4422
496.75	59.7045
499.643	59.8916
502.536	59.9316
505.428	59.5083
508.321	60.3808
511.214	62.7344
514.106	62.5745
516.999	63.1986
519.892	65.7336
522.784	68.6218
525.677	70.2417
528.57	72.5558
531.463	75.3673
534.355	77.6389
537.248	79.3913
540.141	82.9762
543.033	83.1758
545.926	86.1594
548.819	86.2493
551.712	88.1182
554.604	87.255
557.497	87.7759
560.39	90.0179
563.282	89.5316
566.175	87.3346
569.068	85.6526
571.96	84.593
574.853	84.7486
577.746	85.6791
580.639	90.4352
583.531	95.2248
586.424	100.462
589.317	100.915
592.209	97.0308
595.102	89.4095
597.995	81.3538
600.888	75.4152
603.78	70.1701
606.673	68.0266
609.566	63.3536
612.458	60.1839
615.351	56.3151
618.244	52.8624
621.136	50.5571
624.029	48.8693
626.922	46.2278
629.814	44.257
632.707	43.7256
635.6	42.8182
638.493	41.2858
641.385	41.109
644.278	40.8738
647.171	40.6318
650.063	39.8524
652.956	40.7863
655.849	41.2724
658.741	40.2966
661.634	40.6577
664.527	39.7895
667.42	40.3504
670.312	40.3941
673.205	40.8324
676.098	41.042
678.99	40.8715
681.883	41.1887
684.776	41.139
687.668	41.0616
690.561	40.9449
693.454	40.2785
696.347	40.3854
699.239	39.9023
702.132	39.7668
705.025	39.4031
707.917	39.779
710.81	39.2213
713.703	39.7165
716.596	39.1241
719.488	39.665
722.381	40.0063
725.274	39.1264
728.166	39.0318
731.059	38.9757
733.952	39.6323
736.844	40.5947
739.737	41.3873
742.63	42.3654
745.523	44.1202
748.415	44.0071
751.308	45.6612
754.201	45.8271
757.093	46.2729
759.986	46.5921
762.879	46.0477
765.771	45.2778
768.664	43.5618
771.557	42.2341
774.449	42.3235
777.342	40.4768
780.235	41.0414
783.128	39.2324
786.02	38.3978
788.913	38.2492
791.806	38.7408
794.698	38.1691
797.591	38.0059
800.484	38.2489
803.376	38.456
806.269	38.5567
809.162	37.6076
812.055	38.5124
814.947	38.7537
817.84	38.263
820.733	39.0212
823.625	39.1845
826.518	38.8239
829.411	38.9122
832.303	39.1402
835.196	38.95
838.089	39.3763
840.982	39.036
843.874	39.3085
846.767	39.9873
849.66	38.8433
852.552	38.2192
855.445	39.3309
858.338	38.4691
861.231	38.4736
864.123	37.9494
867.016	37.7671
869.909	38.1928
872.801	38.3352
875.694	38.1103
878.587	38.1054
881.479	38.4669
884.372	38.5363
887.265	38.1067
890.158	38.8584
893.05	38.4385
895.943	38.5987
898.836	39.7396
901.728	40.4406
904.621	40.447
907.514	41.0414
910.406	41.5997
913.299	42.2409
916.192	43.9425
919.085	44.95
921.977	46.9053
924.87	48.3408
927.763	51.5289
930.655	54.9362
933.548	60.0338
936.441	66.362
939.333	72.7152
942.226	83.2869
945.119	98.7024
948.011	120.882
950.904	151.743
953.797	196.564
956.69	253.886
959.582	325.129
962.475	396.933
965.368	451.173
968.26	470.565
971.153	448.687
974.046	373.794
976.938	267.845
979.831	187.097
982.724	143.63
985.617	120.037
988.509	106.205
991.402	95.5339
994.295	92.6361
997.187	87.5394
1000.08	86.764
1002.97	85.3007
1005.87	84.7976
1008.76	83.0059
1011.65	78.3788
1014.54	74.1715
1017.44	68.3143
1020.33	64.0475
1023.22	61.5899
1026.11	61.0171
1029.01	60.0879
1031.9	60.1835
1034.79	62.1913
1037.68	63.8407
1040.58	66.8625
1043.47	70.3675
1046.36	74.2168
1049.26	74.239
1052.15	69.6952
1055.04	66.7798
1057.93	65.1439
1060.83	64.2789
1063.72	62.0053
1066.61	59.179
1069.51	55.5402
1072.4	54.7535
1075.29	53.3715
1078.18	52.6692
1081.08	53.7979
1083.97	54.4631
1086.86	55.185
1089.75	55.8616
1092.65	56.3258
1095.54	56.4892
1098.43	55.3504
1101.33	55.4536
1104.22	53.4685
1107.11	52.9128
1110	50.8064
1112.89	48.4299
1115.79	46.5353
1118.68	45.3939
1121.57	42.8797
1124.47	41.117
1127.36	39.3439
1130.25	37.9844
1133.14	34.9795
1136.04	34.5764
1138.93	33.1904
1141.82	32.2482
1144.71	31.6009
1147.61	30.9955
1150.5	29.4347
1153.39	28.2502
1156.29	29.2821
1159.18	28.7314
1162.07	28.223
1164.96	28.7327
1167.86	28.0252
1170.75	27.45
1173.64	27.1038
1176.54	27.6774
1179.43	27.9596
1182.32	27.547
1185.21	26.8364
1188.11	26.984
1191	27.0396
1193.89	27.098
1196.78	26.4899
1199.68	26.9358
1202.57	27.2581
1205.46	26.2727
1208.35	26.163
1211.25	25.741
1214.14	25.9929
1217.03	25.7904
1219.92	25.3242
1222.82	25.9628
1225.71	25.6932
1228.6	25.0416
1231.5	25.1725
1234.39	24.7622
1237.28	24.5032
1240.17	25.3766
1243.07	24.4765
1245.96	25.3575
1248.85	24.3893
1251.74	24.326
1254.64	24.0608
1257.53	24.6828
1260.42	24.9462
1263.32	24.4881
1266.21	24.7433
1269.1	24.9142
1271.99	25.34
1274.89	23.9132
1277.78	24.3945
1280.67	24.1472
1283.57	24.2411
1286.46	24.1206
1289.35	24.6309
1292.24	24.8941
1295.13	24.9183
1298.03	24.0887
1300.92	24.3071
