Measurement: Raman, 785 nm, unoriented, Raman Data RAW
Mineral: Kupletskite-(Cs)
Rruff sample: R060929
Ideal chemistry: Cs^1+^_2_NaMn^2+^_7_Ti^4+^_2_(Si_4_O_12_)_2_O_2_(OH)_4_F
Locality: Dara-i-Pioz, Garm region, Tajikistan
Source: Michael Scott
Description: Brownish yellow foliated sample associated with white quartz and dark aegirine.
Raman shift (cm-1)	intensity
184.203	0
187.095	37.3939
189.988	80.828
192.881	2.96643
195.773	33.6362
198.666	75.2227
201.559	113.129
204.452	84.4569
207.344	67.2258
210.237	13.511
213.13	33.9962
216.022	18.3356
218.915	0.610779
221.808	52.3437
224.7	71.3646
227.593	7.17432
230.486	78.9791
233.379	66.4594
236.271	68.8743
239.164	109.802
242.057	126.862
244.949	117.9
247.842	77.6598
250.735	123.22
253.627	204.975
256.52	203.241
259.413	281.252
262.305	247.071
265.198	293.074
268.091	242.301
270.984	270.285
273.876	299.841
276.769	349.041
279.662	440.621
282.554	482.912
285.447	546.207
288.34	479.397
291.233	402.519
294.125	454.726
297.018	413.437
299.911	373.84
302.803	378.104
305.696	367.257
308.589	334.501
311.481	287.382
314.374	193.385
317.267	60.2183
320.159	36.535
323.052	20.9353
325.945	74.2875
328.838	42.5835
331.73	85.7886
334.623	4.78748
337.516	20.8077
340.408	9.13062
343.301	27.0911
346.194	18.5247
349.087	58.7333
351.979	63.8301
354.872	74.4375
357.765	119.84
360.657	39.38
363.55	18.8463
366.443	18.6384
369.335	64.3791
372.228	100.592
375.121	125.839
378.014	121.051
380.906	107.424
383.799	6.45459
386.692	62.2062
389.584	47.9375
392.477	87.4353
395.37	104.779
398.262	115.828
401.155	178.612
404.048	126.212
406.94	114.374
409.833	120.739
412.726	98.5345
415.619	201.433
418.511	147.904
421.404	164.298
424.297	135.66
427.189	64.637
430.082	35.9
432.975	69.6672
435.868	89.2669
438.76	66.2767
441.653	63.2118
444.546	54.6324
447.438	71.0118
450.331	18.1393
453.224	49.4213
456.116	35.3375
459.009	36.8567
461.902	85.8352
464.795	17.8146
467.687	89.33
470.58	70.4607
473.473	97.4804
476.365	143.313
479.258	150.815
482.151	85.359
485.043	166.717
487.936	130.538
490.829	169.186
493.722	177.218
496.614	152.903
499.507	114.737
502.4	106.6
505.292	102.996
508.185	87.5304
511.078	119.467
513.971	86.3074
516.863	65.3315
519.756	40.869
522.649	73.805
525.541	10.1875
528.434	37.9916
531.327	2.27576
534.219	4.00464
537.112	13.1805
540.005	49.4845
542.898	31.3276
545.79	55.0126
548.683	53.7927
551.576	76.4813
554.468	84.8663
557.361	84.2729
560.254	76.842
563.146	96.5311
566.039	45.077
568.932	26.0759
571.824	28.5593
574.717	51.1741
577.61	102.743
580.503	56.5099
583.395	98.051
586.288	83.6688
589.181	69.1738
592.073	29.374
594.966	103.291
597.859	100.006
600.751	65.6981
603.644	133.951
606.537	139.275
609.43	182.741
612.322	263.146
615.215	189.851
618.108	210.609
621	213.847
623.893	281.806
626.786	354.482
629.678	362.229
632.571	382.954
635.464	453.151
638.357	471.505
641.249	527.05
644.142	515.186
647.035	522.107
649.927	544.628
652.82	532.466
655.713	576.641
658.606	503.987
661.498	398.644
664.391	290.353
667.284	201.369
670.176	146.045
673.069	150.531
675.962	96.1118
678.854	61.59
681.747	43.2599
684.64	31.8539
687.533	11.1526
690.425	44.0179
693.318	33.7316
696.211	40.5233
699.103	37.2918
701.996	4.8468
704.889	3.60132
707.781	25.3904
710.674	75.957
713.567	58.8589
716.46	43.0602
719.352	119.031
722.245	40.1867
725.138	45.5438
728.03	48.0424
730.923	7.6828
733.816	60.6718
736.708	16.3849
739.601	8.36603
742.494	41.8427
745.386	56.6817
748.279	29.7941
751.172	53.0563
754.065	2.46417
756.957	33.1287
759.85	48.8649
762.743	37.9244
765.635	42.5762
768.528	0.279907
771.421	28.2653
774.313	120.33
777.206	67.017
780.099	70.9527
782.992	90.0328
785.884	141.698
788.777	106.34
791.67	57.5752
794.562	87.2719
797.455	72.3312
800.348	24.5011
803.24	31.4693
806.133	72.643
809.026	85.0646
811.919	79.3522
814.811	82.6396
817.704	91.4759
820.597	86.236
823.489	101.06
826.382	72.0175
829.275	40.6748
832.168	74.8221
835.06	57.7611
837.953	35.1065
840.846	110.397
843.738	61.6009
846.631	48.0759
849.524	101.201
852.416	58.4615
855.309	76.2139
858.202	63.6823
861.095	69.6257
863.987	5.41376
866.88	35.7876
869.773	29.967
872.665	1.24396
875.558	22.485
878.451	38.4986
881.343	72.4818
884.236	14.2369
887.129	1.4075
890.021	59.2999
892.914	2.66861
895.807	130.225
898.7	61.3462
901.592	111.947
904.485	79.1485
907.378	121.865
910.27	139.08
913.163	187.434
916.056	129.948
918.948	80.6401
921.841	108.556
924.734	118.454
927.627	60.8082
930.519	122.543
933.412	127.054
936.305	125.713
939.197	132.054
942.09	134.898
944.983	84.0083
947.875	91.2484
950.768	77.8049
953.661	46.2458
956.554	116.699
959.446	93.3507
962.339	81.0005
965.232	133.258
968.125	64.0062
971.017	169.652
973.91	117.965
976.803	104.517
979.695	68.3566
982.588	103.938
985.481	101.352
988.373	40.0991
991.266	44.7218
994.159	18.5158
997.052	75.0309
999.944	113.995
1002.84	60.9228
1005.73	80.3896
1008.62	46.3877
1011.51	136.86
1014.41	87.1054
1017.3	100.086
1020.19	74.5844
1023.09	23.6793
1025.98	23.2928
1028.87	59.9725
1031.76	85.0754
1034.66	100.833
1037.55	135.789
1040.44	109.369
1043.34	116.885
1046.23	105.223
1049.12	107.984
1052.01	54.45
1054.9	151.157
1057.8	68.0068
1060.69	57.2388
1063.58	90.6041
1066.48	39.7912
1069.37	25.4855
1072.26	31.7314
1075.15	71.0768
1078.05	16.9769
1080.94	65.7063
1083.83	21.4457
1086.72	24.2756
1089.62	58.8705
1092.51	73.8758
1095.4	76.4639
1098.3	44.2653
1101.19	77.0021
1104.08	19.6504
1106.97	34.2764
1109.87	23.7087
1112.76	31.5011
1115.65	62.7772
1118.55	120.743
1121.44	53.3788
1124.33	26.7476
1127.22	57.8706
1130.12	87.3153
1133.01	92.5155
1135.9	101.17
1138.79	168.512
1141.69	181.437
1144.58	180.142
1147.47	217.472
1150.37	279.601
1153.26	298.62
1156.15	324.865
1159.04	356.698
1161.93	386.934
1164.83	327.484
1167.72	455.398
1170.61	391.083
1173.51	459.254
1176.4	499.716
1179.29	526.266
1182.18	462.977
1185.08	464.823
1187.97	534.914
1190.86	466.235
1193.76	436.653
1196.65	355.634
1199.54	427.469
1202.43	279.784
1205.33	286.243
1208.22	109.014
1211.11	97.1985
1214	82.0352
1216.9	70.4238
1219.79	38.9946
1222.68	89.0652
1225.58	46.852
1228.47	39.7964
1231.36	41.7268
1234.25	7.88306
1237.15	128.293
1240.04	246.619
1242.93	417.12
1245.82	446.407
1248.72	576.66
1251.61	514.76
1254.5	535.383
1257.39	495.713
1260.29	382.789
1263.18	231.237
1266.07	80.9595
1268.96	4.87354
