Measurement: Raman, 780 nm, unoriented, Raman Data RAW
Mineral: Kyanite
Rruff sample: R050450
Ideal chemistry: Al_2_OSiO_4_
Locality: Switzerland
Source: Marcus Origlieri
Description: Blue bladed crystals
Measured chemistry: Al_2.00_OSi_1.00_O_4_
Raman shift (cm-1)	intensity
95.2296	37994.5
98.6044	40934.6
101.979	41339.3
105.354	41768.6
108.729	42465.7
112.104	43008.6
115.478	43482.9
118.853	43921.9
122.228	44090.9
125.603	44065.2
128.978	44324.1
132.353	44280.7
135.727	44440.6
139.102	44577.4
142.477	44633.5
145.852	44601.2
149.227	44915.1
152.601	44876.4
155.976	44934.8
159.351	44752.4
162.726	44787
166.101	44796.9
169.476	44547
172.85	44625.1
176.225	44479.2
179.6	44586.8
182.975	44622.3
186.35	44377.2
189.725	44522.8
193.099	44338.5
196.474	44341.5
199.849	44356.8
203.224	43997.5
206.599	44096.6
209.973	43821.7
213.348	43875
216.723	43574.5
220.098	43659
223.473	43553.8
226.847	43256
230.222	43367.5
233.597	43204.1
236.972	43056.9
240.347	42925.2
243.722	42853.4
247.096	42716.5
250.471	42596.1
253.846	42343.6
257.221	42145.6
260.596	42198.5
263.971	42097.2
267.345	41890.1
270.72	41650.2
274.095	41644.4
277.47	41395
280.845	41410.5
284.219	41213.5
287.594	40923.6
290.969	40825.1
294.344	40635.9
297.719	40513.4
301.094	40293.4
304.468	40252.6
307.843	40129.4
311.218	39776.1
314.593	39826.8
317.968	39636.7
321.342	39429.8
324.717	39291.3
328.092	38972.9
331.467	38970.9
334.842	38660.9
338.216	38535.3
341.591	38469.1
344.966	38495.1
348.341	38362.2
351.716	38194.7
355.091	38033.7
358.465	37806.4
361.84	37694.4
365.215	37583.3
368.59	37356.9
371.965	37331.6
375.339	37133.2
378.714	37043
382.089	36805.8
385.464	36595.7
388.839	36699.3
392.214	36419.2
395.588	36442.5
398.963	36140.8
402.338	36119.2
405.713	35885.5
409.088	35789.4
412.463	35844.3
415.837	35720.3
419.212	35628.7
422.587	35517.7
425.962	35343.9
429.337	35278
432.712	35255.3
436.086	35166
439.461	35105
442.836	35036.6
446.211	34857.3
449.586	34708.1
452.96	34648.4
456.335	34601.1
459.71	34395.9
463.085	34352.2
466.46	34271.5
469.834	34216.2
473.209	34199
476.584	33970.9
479.959	33860.7
483.334	33628.1
486.709	33704.6
490.083	33517.1
493.458	33437.4
496.833	33192.2
500.208	33216.2
503.583	32826
506.957	32906.4
510.332	32804.9
513.707	32663.7
517.082	32513.5
520.457	32375.3
523.832	32269.4
527.206	32145.7
530.581	32003
533.956	31743.5
537.331	31619.1
540.706	31569.1
544.081	31469.2
547.455	31283.3
550.83	31181.7
554.205	31108.3
557.58	31061.7
560.955	30975.6
564.329	30674.7
567.704	30693
571.079	30596.8
574.454	30372.1
577.829	30224
581.203	30087.9
584.578	29990.3
587.953	29826.2
591.328	29760
594.703	29629.2
598.078	29617.5
601.452	29466.3
604.827	29344.8
608.202	29064.3
611.577	28967.4
614.952	28732.8
618.327	28690.8
621.701	28525.1
625.076	28525.8
628.451	28163.4
631.826	28156.3
635.201	28026.3
638.575	27938
641.95	27912.6
645.325	27753
648.7	27669
652.075	27430.3
655.449	27226
658.824	27202.5
662.199	27089
665.574	26978.7
668.949	26986.6
672.324	26772.5
675.698	26691.1
679.073	26496.3
682.448	26475.2
685.823	26253.9
689.198	26255
692.572	25982.2
695.947	26081.3
699.322	25864.3
702.697	25739.1
706.072	25691.8
709.447	25604.4
712.821	25589
716.196	25507.1
719.571	25417
722.946	25368.2
726.321	25261.3
729.696	25189.5
733.07	25193.8
736.445	24963.9
739.82	24878
743.195	24737.9
746.57	24756.5
749.944	24687.6
753.319	24699.3
756.694	24596.6
760.069	24440.1
763.444	24419.4
766.818	24262.5
770.193	24206.1
773.568	24206.6
776.943	24043.9
780.318	23986
783.693	23930.6
787.067	23874.8
790.442	23887.5
793.817	23756.3
797.192	23653
800.567	23480.6
803.942	23506.2
807.316	23551.8
810.691	23458.9
814.066	23286.7
817.441	23259.6
820.816	23181.2
824.19	23129.2
827.565	23098.2
830.94	22875
834.315	22789.7
837.69	22884.5
841.065	22669.4
844.439	22572.3
847.814	22508.9
851.189	22465.8
854.564	22326.2
857.939	22212.9
861.313	22157.5
864.688	22077.8
868.063	21947.8
871.438	21859
874.813	21822.9
878.188	21606.6
881.562	21596.3
884.937	21486.5
888.312	21444.1
891.687	21266.5
895.062	21217.6
898.437	21085.5
901.811	21047.1
905.186	20815.7
908.561	20880.2
911.936	20679.7
915.311	20599.5
918.685	20595
922.06	20426
925.435	20344.4
928.81	20252.5
932.185	20180.6
935.559	20175.4
938.934	20127.1
942.309	19978
945.684	19834.1
949.059	19882.1
952.434	19644.1
955.808	19625.5
959.183	19563.3
962.558	19412
965.933	19413.9
969.308	19361.9
972.683	19218
976.057	19132.5
979.432	18945.7
982.807	18961.1
986.182	18847.7
989.557	18767.9
992.931	18744.8
996.306	18647.5
999.681	18695.7
1003.06	18625.2
1006.43	18529.8
1009.8	18469.2
1013.18	18500.7
1016.55	18384.6
1019.93	18376.8
1023.3	18269.7
1026.68	18216.9
1030.05	18064.6
1033.43	18096.4
1036.8	17988
1040.18	18054
1043.55	17918.2
1046.93	17775
1050.3	17832.5
1053.68	17801.8
1057.05	17675.1
1060.43	17602.2
1063.8	17513.5
1067.18	17571.2
1070.55	17443.4
1073.93	17387.2
1077.3	17406.5
1080.68	17410.1
1084.05	17172.4
1087.43	17155.8
1090.8	17121.7
1094.18	16935.4
1097.55	16902.5
1100.93	16895.1
1104.3	16948.2
1107.67	16748.2
1111.05	16716.4
1114.42	16640.8
1117.8	16569.5
1121.17	16471.1
1124.55	16531.7
1127.92	16412.8
1131.3	16298.2
1134.67	16310.6
1138.05	16238.8
1141.42	16278.2
1144.8	16033.2
1148.17	16035.1
1151.55	16061.6
1154.92	15976
1158.3	16013.1
1161.67	15826.2
1165.05	15877.8
1168.42	15857.1
1171.8	15804.2
1175.17	15649.1
1178.55	15668.2
1181.92	15624
1185.3	15503.3
1188.67	15486.5
1192.05	15419
1195.42	15297.1
1198.8	15363.4
1202.17	15246.7
1205.55	15214.6
1208.92	15037.7
1212.3	15093.5
1215.67	14922.4
1219.04	14916.6
1222.42	14765.7
1225.79	14814.3
1229.17	14820.7
1232.54	14575
1235.92	14583.6
1239.29	14581.6
1242.67	14456
1246.04	14361
1249.42	14469.3
1252.79	14303.1
1256.17	14227.8
1259.54	14225.9
1262.92	14172.2
1266.29	14155.4
1269.67	14129.3
1273.04	14165.1
1276.42	14072.3
1279.79	14055.8
1283.17	13928
