Measurement: Raman, 785 nm, unoriented, Raman Data RAW
Mineral: Lanthanite-(Nd)
Rruff sample: R060467
Ideal chemistry: Nd_2_(CO_3_)_3_8H_2_O
Locality: Curitiba, Parana, Brazil
Source: Michael Scott
Description: Pink tabular crystals
Measured chemistry: (Nd_0.85_La_0.78_Pr_0.22_Sm_0.09_)_Σ=1.94_(CO_3_)_3.04_·8H_2_O
Raman shift (cm-1)	intensity
54.4971	39.9967
57.8719	45.1758
61.2467	41.7649
64.6215	41.5871
67.9963	40.8441
71.3712	45.1082
74.746	41.0401
78.1208	43.3072
81.4956	48.7967
84.8704	48.366
88.2452	57.1862
91.6201	53.2722
94.9949	53.7588
98.3697	56.5233
101.745	67.3038
105.119	68.33
108.494	72.0306
111.869	96.1729
115.244	125.368
118.619	173.625
121.993	253.849
125.368	388.407
128.743	563.629
132.118	778.859
135.493	967.314
138.868	1142.25
142.242	1449.89
145.617	1852.13
148.992	2290.76
152.367	2535.43
155.742	2732.73
159.116	2990.7
162.491	3432.84
165.866	3962.41
169.241	4466.31
172.616	4918.59
175.99	5236.51
179.365	5609.03
182.74	5939.32
186.115	6151.37
189.49	6222.37
192.864	6304.85
196.239	6369.07
199.614	6325.72
202.989	6266.9
206.364	6133.28
209.739	6111.61
213.113	6065.09
216.488	6203.62
219.863	6432.71
223.238	6578.38
226.613	6771.58
229.988	6979.18
233.362	7153.34
236.737	7317.77
240.112	7376.54
243.487	7384.8
246.862	7249.94
250.236	7078.65
253.611	6745.78
256.986	6540.8
260.361	6297.26
263.736	6014.79
267.111	5826.62
270.485	5654.17
273.86	5512.94
277.235	5371.32
280.61	5240.82
283.985	5140.44
287.359	5013.85
290.734	4924.42
294.109	4770.31
297.484	4622.43
300.859	4503.36
304.233	4414.63
307.608	4246.94
310.983	4166.56
314.358	4015.77
317.733	3910.94
321.108	3823.46
324.482	3681.07
327.857	3651.48
331.232	3531.38
334.607	3453.54
337.982	3360.84
341.356	3268.44
344.731	3243.85
348.106	3240.57
351.481	3146.98
354.856	3086.07
358.231	3031.87
361.605	2982.3
364.98	2902.93
368.355	2834.48
371.73	2808.7
375.105	2759.82
378.479	2677.1
381.854	2645.04
385.229	2568.55
388.604	2548.04
391.979	2488.72
395.353	2421.19
398.728	2328.54
402.103	2266.78
405.478	2238.43
408.853	2163.06
412.228	2071.06
415.602	2070.16
418.977	2024.54
422.352	2013.42
425.727	1952.81
429.102	1948.47
432.476	1909.99
435.851	1884.3
439.226	1838.31
442.601	1856.25
445.976	1877.04
449.351	1872.24
452.725	1871.4
456.1	1905.5
459.475	1904.05
462.85	1916.38
466.225	1942.34
469.599	1948.97
472.974	1959.63
476.349	1975.25
479.724	1979.67
483.099	1978.88
486.474	1986.04
489.848	2019.82
493.223	2098.79
496.598	2093.16
499.973	2147.68
503.348	2251.38
506.723	2252.78
510.097	2305.36
513.472	2332.65
516.847	2343.34
520.222	2304.29
523.597	2350.75
526.971	2370
530.346	2364.63
533.721	2375.89
537.096	2399.61
540.471	2414.9
543.846	2438.07
547.22	2363.95
550.595	2279.05
553.97	2225.51
557.345	2152.18
560.72	2069.26
564.094	1997.56
567.469	1910.81
570.844	1896.06
574.219	1824.24
577.594	1783.99
580.968	1732.52
584.343	1715.62
587.718	1679.2
591.093	1627.8
594.468	1590.42
597.842	1566.8
601.217	1531.41
604.592	1528.38
607.967	1478.69
611.342	1468.01
614.717	1437.53
618.091	1372.47
621.466	1383.22
624.841	1352.54
628.216	1326.99
631.591	1283.32
634.966	1299.07
638.34	1259.38
641.715	1230.51
645.09	1247.24
648.465	1220.25
651.84	1205.11
655.214	1199.13
658.589	1147.62
661.964	1118.85
665.339	1108.7
668.714	1059.13
672.088	1041.59
675.463	968.177
678.838	972.841
682.213	917.095
685.588	869.901
688.963	849.222
692.337	793.668
695.712	759.804
699.087	756.605
702.462	744.49
705.837	716.065
709.212	693.143
712.586	691.079
715.961	679.8
719.336	672.106
722.711	650.909
726.086	658.999
729.46	621.154
732.835	626.718
736.21	613.312
739.585	618.405
742.96	619.968
746.335	624.155
749.709	613.156
753.084	655.046
756.459	685.739
759.834	694.225
763.209	697.686
766.583	625.926
769.958	604.984
773.333	625.084
776.708	617.96
780.083	614.945
783.457	613.372
786.832	602.679
790.207	619.776
793.582	619.136
796.957	631.742
800.332	630.601
803.706	650.281
807.081	647.391
810.456	646.411
813.831	678.706
817.206	675.219
820.58	687.254
823.955	712.042
827.33	715.407
830.705	748.205
834.08	745.292
837.455	770.025
840.829	796.938
844.204	807.287
847.579	807.837
850.954	826.592
854.329	865.446
857.703	880.186
861.078	899.752
864.453	936.565
867.828	936.039
871.203	983.214
874.577	1010.43
877.952	1043.2
881.327	1071.31
884.702	1119.13
888.077	1131.46
891.452	1181.08
894.826	1240.89
898.201	1291.57
901.576	1347.64
904.951	1394.99
908.326	1448.3
911.701	1469.99
915.075	1543.96
918.45	1613.72
921.825	1670.38
925.2	1732.16
928.575	1797.67
931.949	1879.23
935.324	2001.44
938.699	2041.63
942.074	2139.64
945.449	2226.76
948.823	2288.43
952.198	2349.26
955.573	2510.89
958.948	2596.13
962.323	2667.21
965.698	2790.42
969.072	2901.78
972.447	3025.24
975.822	3175.65
979.197	3292.01
982.572	3439.78
985.947	3597.03
989.321	3760.16
992.696	3937.32
996.071	4110.56
999.446	4328.5
1002.82	4522.39
1006.2	4763.56
1009.57	4975.89
1012.95	5224.09
1016.32	5494.28
1019.7	5722.02
1023.07	5984.48
1026.44	6318.61
1029.82	6688.93
1033.19	7005.1
1036.57	7338.49
1039.94	7777.31
1043.32	8173.41
1046.69	8568.01
1050.07	9111.05
1053.44	9623.25
1056.82	10224.4
1060.19	10803.2
1063.57	11542.6
1066.94	12320.6
1070.32	13202.8
1073.69	14275.5
1077.07	15519.7
1080.44	16845.6
1083.82	18472
1087.19	20023.8
1090.57	22159.3
1093.94	23948.3
1097.32	26035
1100.69	28423.5
1104.07	30892
1107.44	33523
1110.82	36122.8
1114.19	38307.4
1117.56	40301
1120.94	41963.1
1124.31	43188.7
1127.69	43894.9
1131.06	44091.5
1134.44	44106.3
1137.81	43638.1
1141.19	43097.9
1144.56	42753.8
1147.94	42449.9
1151.31	42452.1
1154.69	42693.8
1158.06	43329.9
1161.44	44060.9
1164.81	44948.6
1168.19	45592.6
1171.56	46304
1174.94	46487.5
1178.31	47073.4
1181.69	47208
1185.06	47745.2
1188.43	48946.7
1191.81	50660.3
1195.18	53607.7
1198.56	57559.4
1201.93	62730.8
1205.31	69219.2
1208.68	75931.3
1212.06	83314.5
1215.43	89583.1
1218.81	94981.5
1222.18	98276.2
1225.56	98856.7
1228.93	97024.2
1232.31	92808.9
1235.68	87377.3
1239.06	81518.8
1242.43	76659.6
