Measurement: Raman, 780 nm, unoriented, Raman Data RAW
Mineral: Larderellite
Rruff sample: R130392
Ideal chemistry: N^3-^H_4_B_5_O_7_(OH)_2_H_2_O
Locality: Larderello Lagoon, Tuscany, Italy
Source: Bob Jenkins (capsule), Rock Currier (rock piece)
Description: Soft, vitreous, opaque white botryoidal crust, in part altered on surface to off-white tiny granules of ammonioborite
Raman shift (cm-1)	intensity
89.7532	0
93.1281	471.99
96.5029	393.728
99.8777	336.449
103.252	305.671
106.627	293.807
110.002	267.443
113.377	260.083
116.752	247.769
120.127	242.759
123.501	238.328
126.876	230.777
130.251	233.535
133.626	228.357
137.001	231.574
140.375	234.597
143.75	250.196
147.125	319.101
150.5	359.584
153.875	247.518
157.25	192.369
160.624	171.593
163.999	163.075
167.374	159.14
170.749	156.132
174.124	152.991
177.498	150.418
180.873	148.159
184.248	147.716
187.623	142.789
190.998	141.331
194.373	137.678
197.747	138.578
201.122	135.114
204.497	133
207.872	131.959
211.247	131.895
214.621	129.674
217.996	128.683
221.371	128.184
224.746	127.391
228.121	126.314
231.495	126.948
234.87	125.706
238.245	126.439
241.62	123.946
244.995	123.619
248.369	121.975
251.744	120.242
255.119	119.495
258.494	117.355
261.869	119.396
265.244	119.608
268.618	122.354
271.993	126.134
275.368	135.362
278.743	149.214
282.118	159.904
285.493	146.964
288.867	130.348
292.242	121.651
295.617	118.648
298.992	116.248
302.366	114.259
305.741	117.207
309.116	117.867
312.491	117.916
315.866	115.683
319.241	110.573
322.615	107.193
325.99	104.879
329.365	103.218
332.74	102.949
336.115	103.882
339.49	101.855
342.864	102.899
346.239	102.812
349.614	103.81
352.989	99.5295
356.364	98.3072
359.738	98.6985
363.113	98.6202
366.488	97.9699
369.863	98.6384
373.238	99.5637
376.613	99.9813
379.987	96.5562
383.362	94.6257
386.737	93.8243
390.112	92.049
393.486	91.254
396.861	89.5708
400.236	90.86
403.611	89.3288
406.986	88.5689
410.361	87.876
413.735	87.7396
417.11	87.9982
420.485	87.7977
423.86	86.3175
427.235	85.9464
430.61	84.9751
433.984	85.7825
437.359	85.1874
440.734	84.6586
444.109	85.7516
447.484	85.56
450.858	86.8545
454.233	86.8864
457.608	89.4159
460.983	90.1485
464.358	89.8516
467.733	91.2707
471.107	92.2211
474.482	87.1853
477.857	85.3544
481.232	83.9235
484.606	86.1109
487.981	88.1188
491.356	94.0676
494.731	106.161
498.106	107.84
501.481	92.6309
504.855	85.4259
508.23	80.4756
511.605	79.3356
514.98	79.162
518.355	78.1672
521.73	77.8035
525.104	79.0293
528.479	78.6174
531.854	77.1218
535.229	76.9368
538.604	76.2637
541.978	76.216
545.353	76.3402
548.728	77.6111
552.103	79.6455
555.478	79.0347
558.852	78.3668
562.227	77.0906
565.602	76.8152
568.977	75.8907
572.352	76.4424
575.726	75.8181
579.101	75.2094
582.476	75.0415
585.851	75.0752
589.226	74.6958
592.601	75.3706
595.975	73.7428
599.35	74.0489
602.725	73.5716
606.1	74.0519
609.475	74.1122
612.85	73.8372
616.224	73.8646
619.599	75.1779
622.974	74.6473
626.349	74.2846
629.723	73.6004
633.098	72.5629
636.473	72.2723
639.848	72.2423
643.223	72.6126
646.598	72.5782
649.972	72.1386
653.347	70.8731
656.722	71.6614
660.097	71.9987
663.472	70.6156
666.846	70.4431
670.221	71.0032
673.596	70.3786
676.971	70.3614
680.346	70.0026
683.721	70.6758
687.095	70.6311
690.47	70.672
693.845	71.3764
697.22	70.8129
700.595	70.5772
703.97	70.335
707.344	70.21
710.719	72.1547
714.094	72.588
717.469	73.2586
720.843	74.8053
724.218	75.5984
727.593	75.5429
730.968	77.1067
734.343	77.1547
737.718	75.1339
741.092	74.9782
744.467	72.5955
747.842	72.9505
751.217	74.1566
754.592	74.4602
757.966	74.7645
761.341	73.8667
764.716	74.9524
768.091	77.6992
771.466	81.1851
774.841	94.2774
778.215	104.323
781.59	87.8841
784.965	78.7785
788.34	74.7771
791.715	72.6192
795.089	71.2258
798.464	70.3971
801.839	69.6708
805.214	71.1736
808.589	70.4375
811.963	69.5475
815.338	69.5561
818.713	69.7881
822.088	69.7297
825.463	69.584
828.838	69.7029
832.212	69.307
835.587	69.3256
838.962	69.6538
842.337	69.6003
845.712	69.8136
849.087	69.1009
852.461	69.3816
855.836	68.7501
859.211	68.7667
862.586	68.9682
865.961	69.0402
869.335	68.8206
872.71	69.1302
876.085	70.3072
879.46	69.9604
882.835	69.3876
886.209	68.6945
889.584	68.9143
892.959	68.9899
896.334	68.7773
899.709	69.332
903.083	70.235
906.458	69.6842
909.833	70.446
913.208	70.5965
916.583	70.5106
919.958	72.9986
923.332	74.0513
926.707	77.542
930.082	83.6446
933.457	86.6782
936.832	85.4799
940.207	86.9685
943.581	88.3288
946.956	82.6322
950.331	75.4888
953.706	74.4006
957.081	71.9398
960.455	71.4252
963.83	70.8273
967.205	70.334
970.58	69.6357
973.955	70.4898
977.329	70.1469
980.704	71.1827
984.079	70.1126
987.454	70.6412
990.829	70.3683
994.203	70.679
997.578	70.4299
1000.95	70.4338
1004.33	70.1798
1007.7	70.2355
1011.08	69.8903
1014.45	69.6643
1017.83	70.0058
1021.2	69.7883
1024.58	70.0739
1027.95	69.4724
1031.33	70.1813
1034.7	69.5779
1038.08	69.797
1041.45	70.7158
1044.83	70.1603
1048.2	69.8865
1051.58	70.3982
1054.95	71.0621
1058.33	70.5123
1061.7	71.3526
1065.08	70.3832
1068.45	70.636
1071.82	70.7852
1075.2	69.9882
1078.57	71.9203
1081.95	71.6264
1085.32	70.7613
1088.7	71.2987
1092.07	70.4524
1095.45	70.6099
1098.82	71.9902
1102.2	71.3829
1105.57	71.9233
1108.95	70.6318
1112.32	70.8974
1115.7	70.0756
1119.07	72.0566
1122.45	70.8414
1125.82	71.258
1129.2	72.0522
1132.57	71.3874
1135.95	72.0908
1139.32	72.3961
1142.69	72.6565
1146.07	72.6007
1149.44	72.3826
1152.82	71.2057
1156.19	72.9363
1159.57	72.6062
1162.94	73.0032
1166.32	72.7656
1169.69	73.8115
1173.07	73.7127
1176.44	73.0298
1179.82	73.3906
1183.19	72.8218
1186.57	73.2439
1189.94	72.9177
1193.32	73.696
1196.69	74.257
1200.07	74.8549
1203.44	74.2558
1206.82	74.7476
1210.19	74.7469
1213.57	74.6962
1216.94	74.0941
1220.32	74.1639
1223.69	74.6432
1227.07	74.2804
1230.44	75.3661
1233.82	75.0216
1237.19	74.3281
1240.57	74.5041
1243.94	75.7238
1247.32	74.295
1250.69	74.7271
1254.06	75.3774
1257.44	75.6098
1260.81	75.7979
1264.19	76.5827
1267.56	75.9148
1270.94	75.8467
1274.31	77.1467
1277.69	76.6507
1281.06	76.34
