Measurement: Raman, 780 nm, unoriented, Raman Data RAW
Mineral: Laurite
Rruff sample: R110120
Ideal chemistry: Ru^2+^(S_2_)^2-^
Locality: Tambiano River, Riampinang, Kalimantan Selatan Province, Borneo Island, Indonesia
Source: Mark N Feinglos
Description: Loose aggregate of black grains associated with platinum R110126
Raman shift (cm-1)	intensity
177.902	44.3778
180.795	42.6304
183.688	42.8445
186.581	42.2644
189.473	41.9222
192.366	40.9205
195.259	40.673
198.151	40.5154
201.044	40.3862
203.937	40.7506
206.829	40.3308
209.722	39.9269
212.615	39.3661
215.507	39.4841
218.4	39.0607
221.293	38.9509
224.186	39.5865
227.078	39.2824
229.971	40.0372
232.864	38.3204
235.756	37.8641
238.649	36.7005
241.542	35.8543
244.435	35.8696
247.327	35.5113
250.22	35.6851
253.113	35.7136
256.005	36.9407
258.898	36.9167
261.791	37.2403
264.683	38.5558
267.576	40.2912
270.469	39.4472
273.361	39.2874
276.254	40.2878
279.147	40.283
282.04	41.2146
284.932	40.4561
287.825	40.9699
290.718	40.9262
293.61	42.2585
296.503	40.2347
299.396	39.9827
302.288	40.4226
305.181	40.4522
308.074	40.8348
310.967	41.6807
313.859	43.4184
316.752	45.3375
319.645	49.1994
322.537	54.2835
325.43	60.3516
328.323	67.1499
331.216	79.0619
334.108	94.4394
337.001	115.015
339.894	141.676
342.786	172.753
345.679	207.937
348.572	244.761
351.464	283.076
354.357	311.931
357.25	305.548
360.142	243.736
363.035	168.709
365.928	121.353
368.821	93.421
371.713	77.9455
374.606	68.1871
377.499	63.7
380.391	59.5016
383.284	56.4992
386.177	54.9589
389.07	54.8523
391.962	53.5046
394.855	52.8128
397.748	50.818
400.64	48.2799
403.533	45.7319
406.426	44.1487
409.318	40.0435
412.211	35.7651
415.104	33.4479
417.997	30.6816
420.889	31.24
423.782	29.3029
426.675	29.4184
429.567	29.0568
432.46	29.1678
435.353	28.8776
438.245	27.7918
441.138	27.4965
444.031	27.131
446.923	26.5449
449.816	26.6666
452.709	25.2297
455.602	25.1988
458.494	23.6425
461.387	24.0337
464.28	23.284
467.172	23.6551
470.065	23.5832
472.958	22.9095
475.851	22.2972
478.743	22.5349
481.636	22.1969
484.529	22.4237
487.421	22.3031
490.314	22.4017
493.207	21.9516
496.099	22.1206
498.992	21.9062
501.885	21.2631
504.777	21.2468
507.67	21.9789
510.563	21.4621
513.456	21.6063
516.348	21.2815
519.241	22.0597
522.134	21.9303
525.026	22.4275
527.919	22.3031
530.812	21.9736
533.705	22.1531
536.597	22.333
539.49	22.1539
542.383	22.989
545.275	23.1655
548.168	22.667
551.061	22.965
553.953	22.9292
556.846	23.3626
559.739	22.5838
562.631	22.838
565.524	22.8947
568.417	22.8916
571.31	22.5785
574.202	22.2381
577.095	22.2543
579.988	22.2244
582.88	22.1483
585.773	21.7785
588.666	21.765
591.558	21.9106
594.451	22.6539
597.344	21.5112
600.237	22.2019
603.129	21.5896
606.022	21.9275
608.915	21.6877
611.807	21.4312
614.7	21.2659
617.593	21.7677
620.486	21.9107
623.378	21.2763
626.271	21.4241
629.164	21.5907
632.056	21.5686
634.949	21.5569
637.842	21.3261
640.734	21.0505
643.627	21.0082
646.52	21.5012
649.413	21.3778
652.305	20.8744
655.198	21.9279
658.091	21.7578
660.983	21.8882
663.876	22.0047
666.769	21.5829
669.661	22.1126
672.554	22.4496
675.447	22.4649
678.34	23.0097
681.232	22.806
684.125	23.7272
687.018	24.35
689.91	24.0155
692.803	24.2084
695.696	23.5225
698.588	23.702
701.481	24.4747
704.374	23.9571
707.266	24.2145
710.159	24.9862
713.052	24.4157
715.945	24.8314
718.837	24.73
721.73	24.665
724.623	24.9044
727.515	25.0282
730.408	25.6792
733.301	25.9912
736.193	26.3299
739.086	26.3227
741.979	26.2691
744.872	26.1137
747.764	25.9078
750.657	26.5011
753.55	26.604
756.442	26.9471
759.335	26.9052
762.228	27.4525
765.12	27.7678
768.013	27.2684
770.906	27.4727
773.799	27.667
776.691	28.2101
779.584	27.6025
782.477	28.4236
785.369	28.0497
788.262	27.6997
791.155	27.5236
794.048	27.5001
796.94	27.8373
799.833	27.573
802.726	27.592
805.618	27.7004
808.511	27.6033
811.404	26.4793
814.296	26.0227
817.189	26.1975
820.082	26.195
822.975	25.5785
825.867	25.1423
828.76	24.5946
831.653	23.8755
834.545	23.9245
837.438	23.7602
840.331	22.6558
843.223	22.9693
846.116	22.9305
849.009	23.212
851.902	23.6965
854.794	22.3907
857.687	23.0787
860.58	22.7262
863.472	22.3543
866.365	22.4065
869.258	22.1444
872.15	21.0536
875.043	21.4385
877.936	20.971
880.829	20.5454
883.721	20.5373
886.614	19.931
889.507	19.9979
892.399	18.8756
895.292	18.6025
898.185	18.9415
901.077	18.8935
903.97	18.7613
906.863	18.4032
909.756	18.0765
912.648	18.151
915.541	18.1269
918.434	17.7605
921.326	17.2617
924.219	18.0149
927.112	17.3852
930.005	17.0774
932.897	17.2118
935.79	17.0884
938.683	17.2355
941.575	17.0216
944.468	16.9453
947.361	16.594
950.253	17.192
953.146	16.7911
956.039	16.5531
958.932	16.9011
961.824	16.9173
964.717	16.4126
967.61	16.499
970.502	16.3478
973.395	16.8694
976.288	15.7363
979.18	15.9466
982.073	16.0873
984.966	15.98
987.859	15.5725
990.751	16.1916
993.644	16.1326
996.537	15.9864
999.429	16.2306
1002.32	16.399
1005.22	16.3481
1008.11	15.9461
1011	15.7181
1013.89	16.582
1016.78	16.4339
1019.68	16.3362
1022.57	16.1567
1025.46	15.7861
1028.36	15.8164
1031.25	15.9031
1034.14	15.3346
1037.03	15.2849
1039.93	16.307
1042.82	16.3937
1045.71	16.0084
1048.61	16.2691
1051.5	16.0484
1054.39	16.5393
1057.28	15.768
1060.18	16.1049
1063.07	15.6365
1065.96	16.3596
1068.85	15.2154
1071.75	15.4066
1074.64	15.2629
1077.53	15.3259
1080.42	14.8528
1083.32	15.308
1086.21	14.7449
1089.1	15.5694
1092	15.1538
1094.89	14.9311
1097.78	14.8773
1100.67	14.6204
1103.57	14.124
1106.46	14.3769
1109.35	14.6406
1112.24	14.9744
1115.14	15.2045
1118.03	14.8422
1120.92	14.1332
1123.82	14.4763
1126.71	14.6197
1129.6	15.2042
1132.49	14.6494
1135.39	14.6648
1138.28	14.8202
1141.17	14.7394
1144.06	14.4595
1146.96	14.3255
1149.85	14.7451
1152.74	14.3692
1155.63	14.0447
1158.53	14.5424
1161.42	14.6315
1164.31	14.5761
1167.21	14.6374
1170.1	13.9152
1172.99	14.28
1175.88	13.8335
1178.78	14.8248
1181.67	14.6069
1184.56	14.4923
1187.45	14.4241
1190.35	14.5676
1193.24	14.587
1196.13	14.905
1199.03	14.7405
1201.92	14.4048
1204.81	15.185
1207.7	14.4167
1210.6	14.3344
1213.49	15.0058
1216.38	14.7382
1219.27	14.3728
1222.17	14.5484
1225.06	15.0403
1227.95	14.9782
1230.85	14.9958
1233.74	14.808
1236.63	14.9577
1239.52	14.0922
1242.42	14.9634
1245.31	15.0121
1248.2	15.1954
1251.09	14.9478
1253.99	15.0985
1256.88	15.1398
1259.77	15.2986
1262.66	15.0115
1265.56	14.4222
1268.45	14.1875
1271.34	14.8214
1274.24	15.097
1277.13	14.6351
1280.02	15.0346
1282.91	14.7668
