Measurement: Raman, 514 nm, unoriented, Raman Data RAW
Mineral: Lavendulan
Rruff sample: X060011
Ideal chemistry: NaCaCu^2+^_5_(As^5+^O_4_)_4_Cl5H_2_O
Locality: Talmessi Mine, Anarak, Iran
Source: University of Arizona Mineral Museum
Description: Single crystal
Raman shift (cm-1)	intensity
105.087	2318.33
110.152	3322.67
115.213	4642
120.27	3523
125.324	6873
130.374	4784.33
135.421	2632
140.463	2523
145.503	2209
150.538	2174.33
155.57	2019.67
160.599	2424.67
165.623	2534
170.644	3168.33
175.662	4448.67
180.676	3159
185.686	2205.67
190.692	2013.67
195.695	1885.67
200.695	1616
205.691	1701.67
210.683	1656.33
215.671	1529.33
220.656	1951
225.638	2384.33
230.615	1476.67
235.59	1339.67
240.56	1318.67
245.527	1291.67
250.491	1310.67
255.45	1333.33
260.407	1325
265.359	1353
270.308	1400.67
275.254	1427.79
280.196	1386
285.134	1313.67
290.069	1193.67
295	1135.43
299.928	1105.33
304.852	1092.67
309.772	1120.67
314.689	1160.33
319.603	1163.67
324.512	1195
329.419	1248.67
334.321	1300
339.221	1403.33
344.116	1558.67
349.008	1479.67
353.897	1248.67
358.782	1157.67
363.663	1108.67
368.541	1101.67
373.416	1126.67
378.287	1134.33
383.154	1181.67
388.018	1197.67
392.878	1211.6
397.735	1223.33
402.588	1242
407.438	1270.33
412.284	1246.33
417.127	1227
421.966	1212.67
426.801	1205.33
431.634	1198
436.462	1224.79
441.287	1215.67
446.109	1245
450.927	1219
455.742	1188.67
460.553	1157.33
465.361	1138
470.165	1152
474.965	1214.67
479.763	1338
484.556	1349.33
489.347	1267
494.133	1210.67
498.917	1180
503.696	1159
508.473	1142.33
513.246	1161.67
518.015	1217.33
522.781	1273
527.543	1376.67
532.302	1555
537.058	2021
541.81	2713
546.559	3242.67
551.304	2935.33
556.046	2251
560.784	1751.67
565.519	1493.33
570.25	1357
574.978	1280
579.702	1221.33
584.423	1206.67
589.141	1159.33
593.855	1143.33
598.566	1148.33
603.273	1131
607.977	1129
612.678	1130.67
617.375	1113
622.068	1108.67
626.758	1127
631.445	1108.67
636.128	1126.67
640.808	1129.33
645.485	1148
650.158	1141.33
654.828	1158
659.494	1145
664.157	1169.67
668.816	1181.67
673.472	1172
678.125	1192
682.774	1205.67
687.42	1210
692.063	1200
696.702	1191
701.338	1182
705.97	1172.67
710.599	1166.67
715.225	1179.33
719.847	1165.33
724.466	1184.67
729.081	1151.33
733.693	1188.33
738.302	1194
742.907	1184.33
747.509	1222.33
752.108	1222.33
756.703	1272.67
761.295	1319.67
765.884	1353.33
770.469	1435.33
775.051	1633
779.629	1861.67
784.204	1864
788.776	1673.67
793.345	1600.67
797.91	1709.67
802.471	2005
807.03	2023.67
811.585	1779
816.137	1582
820.685	1518
825.23	1531.67
829.772	1573.67
834.31	1661.58
838.845	1873.86
843.377	2176.89
847.906	2876.72
852.431	4390.89
856.953	6126.37
861.471	4958.89
865.986	3053.58
870.498	2280.92
875.007	2066.95
879.512	2130.33
884.014	2319.78
888.513	2656.91
893.008	2753.44
897.5	2316.16
901.989	1974.81
906.474	1914.72
910.957	1924.33
915.435	1743.73
919.911	1552.52
924.383	1453.03
928.852	1378.22
933.318	1351.39
937.781	1328.01
942.24	1297.79
946.696	1296.85
951.148	1301.92
955.598	1275.72
960.044	1274.74
964.487	1265.25
968.926	1273.17
973.363	1260.48
977.796	1275.18
982.225	1259.44
986.652	1265.96
991.075	1246.63
995.495	1262.49
999.912	1262.66
1004.33	1266.35
1013.02	1269.33
1017.51	1260.67
1022.01	1261.67
1026.49	1247.67
1030.98	1258.67
1035.46	1269.33
1039.94	1248.33
1044.42	1265.67
1048.89	1240.74
1053.37	1244.33
1057.83	1263
1062.3	1255.67
1066.76	1259
1071.22	1260.67
1075.67	1278
1080.12	1285
1084.57	1271
1089.02	1263.33
1093.46	1258.67
1097.9	1249.67
1102.33	1260.33
1106.77	1263.67
1111.19	1272.67
1115.62	1260.67
1120.04	1255
1124.46	1265.33
1128.88	1255.33
1133.3	1254.33
1137.7	1261.33
1142.11	1244
1146.52	1255
1150.92	1257.33
1155.32	1276.67
1159.71	1275.67
1164.1	1276
1168.49	1278.33
1172.88	1275.33
1177.26	1268.33
1181.64	1266.33
1186.02	1271.33
1190.39	1273.67
1194.76	1263
1199.13	1286.33
1203.49	1252.67
1207.85	1257.33
1212.21	1276
1216.57	1285
1220.92	1281.33
1225.27	1273
1229.61	1289.67
1233.95	1284
1238.29	1308
1242.63	1307
1246.96	1291.67
1251.29	1283.67
1255.62	1314
1259.94	1306.67
1264.26	1282
1268.58	1298.33
1272.89	1294.67
1277.21	1291.33
1281.51	1310
1285.82	1326.33
1290.12	1304.33
1294.42	1316.67
1298.72	1339.67
1303.01	1329.67
1307.3	1310.67
1311.59	1332.67
1315.87	1324.33
1320.15	1334
1324.43	1351
1328.7	1327
1332.98	1356.33
1337.24	1339.33
1341.51	1355.33
1345.77	1329
1350.03	1353.33
1354.29	1368
1358.54	1374
1362.79	1364
1367.04	1366.33
1371.28	1376.67
1375.53	1364
1379.76	1362.33
1384	1381.67
1388.23	1377.33
1392.46	1370.33
1396.69	1375
1400.91	1374.33
1405.13	1399
1409.35	1378
1413.56	1394.67
1417.77	1408.33
1421.98	1397
1426.18	1410
1430.39	1391.33
1434.59	1425
1438.78	1423
1442.97	1430.67
1447.16	1426.33
1451.35	1417
1455.54	1420
1459.72	1412.33
1463.89	1466
1468.07	1410.67
1472.24	1431
1476.41	1405.67
1480.58	1426.67
1484.74	1427.67
1488.9	1449.67
1493.06	1419.67
1497.21	1450.33
1501.36	1429.33
1505.51	1448.67
1509.66	1463
1513.8	1446.67
1517.94	1452
1522.07	1463
1526.21	1454.33
1530.34	1452.67
1534.46	1459.67
1538.59	1472.67
1542.71	1465.67
1546.83	1480.67
1550.94	1452.67
1555.06	1464.67
1559.17	1475
1563.27	1486
1567.38	1480
1571.48	1480
1575.58	1486.33
1579.67	1470.33
1583.76	1492
1587.85	1497.67
1591.94	1469.77
1596.02	1478.67
1600.1	1497.67
1604.18	1504
1608.25	1499.33
1612.32	1550.33
1616.39	1579
1620.46	1552.33
1624.52	1509
1628.58	1517.33
1632.63	1507
1636.69	1502
1640.74	1506.33
1644.79	1521
1648.83	1524.33
1652.88	1524
1656.91	1519.67
