Measurement: Raman, 532 nm, unoriented, Raman Data RAW
Mineral: Laverovite
Rruff sample: R190014
Ideal chemistry: K_2_NaMn^2+^_7_Zr^4+^_2_(Si_4_O_12_)_2_O_2_(OH)_4_F
Locality: Desourdy Quarry, Mont Saint-Hilaire, Rouville County, Quebec, Canada
Source: Royal Ontario Museum M26526
Description: Brown fragment showing lamellar habit. Type sample. This sample is the same as R060216. A fragment was given to Elena Sokolova. All data are from Sokolova et al. (2019) except for the Raman spectra and photograph.
Measured chemistry: (K_1.78_Sr_0.02_Cs_0.01_[box]_0.19_)([box]_1.85_Na_0.15_)(Na_0.88_Ca_0.12_)(Mn_4.03_Fe^2+^_2.71_Mg_0.25_Zn_0.01_)(Zr_1.11_Ti_0.82_Nb_0.06_Mg_0.01_)[(Si_7.78_Al_0.26_)O_24_]O_2_[(OH)_3.68_F_0.32_]F[[box]_1.85_(H_2_O)_0.15_]
Raman shift (cm-1)	intensity
92.0781	16.9598
95.4529	15.4641
98.8278	16.8309
102.203	16.5342
105.577	13.6595
108.952	13.108
112.327	13.3792
115.702	13.6221
119.077	17.2003
122.451	25.0935
125.826	37.6056
129.201	61.024
132.576	76.2368
135.951	91.0236
139.326	114.272
142.7	125.215
146.075	135.399
149.45	147.571
152.825	163.355
156.2	175.282
159.574	180.456
162.949	185.622
166.324	192.899
169.699	197.898
173.074	193.135
176.448	186.177
179.823	176.877
183.198	167.807
186.573	164.198
189.948	162.966
193.323	166.99
196.697	169.451
200.072	176.943
203.447	186.444
206.822	198.242
210.197	211.088
213.571	230.504
216.946	249.799
220.321	264.64
223.696	278.165
227.071	288.163
230.446	298.558
233.82	306.034
237.195	305.863
240.57	304.374
243.945	302.141
247.32	294.88
250.695	285.94
254.069	283.3
257.444	285.322
260.819	287.601
264.194	279.901
267.568	261.246
270.943	229.557
274.318	199.187
277.693	180.508
281.068	166.76
284.443	157.434
287.817	155.904
291.192	156.604
294.567	156.387
297.942	157.311
301.317	157.373
304.692	156.251
308.066	155.735
311.441	156.881
314.816	159.205
318.191	162.04
321.566	168.388
324.94	172.652
328.315	178.54
331.69	178.736
335.065	179.19
338.44	181.036
341.815	182.343
345.189	181.373
348.564	180.028
351.939	174.082
355.314	172.972
358.689	172.827
362.063	174.35
365.438	178.411
368.813	174.364
372.188	171.72
375.563	170.069
378.938	172.536
382.312	172.316
385.687	169.925
389.062	167.215
392.437	165.911
395.812	160.515
399.186	157.592
402.561	154.42
405.936	152.684
409.311	150.971
412.686	151.456
416.06	153.839
419.435	155.996
422.81	156.073
426.185	151.019
429.56	141.49
432.935	129.86
436.309	120.2
439.684	111.468
443.059	105.367
446.434	99.7775
449.809	99.143
453.183	98.6544
456.558	101.173
459.933	104.257
463.308	106.22
466.683	110.946
470.058	112.581
473.432	113.138
476.807	110.335
480.182	110.558
483.557	109.29
486.932	110.707
490.306	110.053
493.681	106.23
497.056	106.175
500.431	104.434
503.806	104.049
507.18	102.64
510.555	102.578
513.93	102.864
517.305	101.265
520.68	99.7082
524.055	97.4784
527.429	98.3187
530.804	98.1256
534.179	101.057
537.554	103.911
540.929	111.298
544.303	117.786
547.678	131.177
551.053	147.076
554.428	162.852
557.803	171.888
561.178	171.222
564.552	163.919
567.927	152.586
571.302	142.311
574.677	134.511
578.052	131.471
581.427	129.298
584.801	134.016
588.176	137.183
591.551	139.545
594.926	139.204
598.301	136.653
601.675	137.535
605.05	138.806
608.425	142.05
611.8	144.094
615.175	148.407
618.549	153.866
621.924	159.495
625.299	166.531
628.674	176.399
632.049	191.584
635.423	214.397
638.798	245.675
642.173	290.872
645.548	350.124
648.923	417.089
652.298	471.893
655.672	471.281
659.047	391.066
662.422	307.895
665.797	259.427
669.172	237.771
672.546	231.5
675.921	235.591
679.296	246.194
682.671	258.132
686.046	271.709
689.42	284.546
692.795	294.15
696.17	298.957
699.545	301.733
702.92	302.926
706.295	300.404
709.669	304.377
713.044	302.664
716.419	299.776
719.794	287.971
723.169	267.599
726.543	243.909
729.918	225.495
733.293	207.036
736.668	189.951
740.043	178.173
743.418	167.868
746.792	159.702
750.167	154.423
753.542	148.926
756.917	146.053
760.292	141.118
763.667	135.942
767.041	129.54
770.416	121.228
773.791	115.738
777.166	109.142
780.541	103.237
783.915	101.009
787.29	98.8173
790.665	94.7727
794.04	91.9048
797.415	88.7472
800.789	85.3082
804.164	83.0251
807.539	79.6734
810.914	79.426
814.289	77.5513
817.663	76.3388
821.038	75.1521
824.413	74.729
827.788	74.719
831.163	74.8519
834.538	75.1264
837.912	76.1433
841.287	78.1898
844.662	79.8217
848.037	80.5092
851.412	84.2009
854.787	87.2524
858.161	91.6048
861.536	96.6523
864.911	103.416
868.286	108.781
871.661	116.469
875.035	127.305
878.41	135.017
881.785	144.5
885.16	155.61
888.535	164.507
891.909	173.243
895.284	184.895
898.659	197.97
902.034	212.738
905.409	228.702
908.784	246.283
912.158	265.293
915.533	281.083
918.908	293.5
922.283	303.888
925.658	306.811
929.033	306.798
932.407	305.524
935.782	300.368
939.157	292.204
942.532	285.685
945.907	278.432
949.281	271.822
952.656	253.339
956.031	226.142
959.406	191.438
962.781	160.065
966.155	134.471
969.53	120.095
972.905	105.723
976.28	98.8885
979.655	93.0357
983.029	88.1982
986.404	85.9756
989.779	86.4708
993.154	88.9831
996.529	90.1494
999.904	93.9967
1003.28	100.349
1006.65	105.539
1010.03	113.724
1013.4	125.395
1016.78	137.112
1020.15	149.978
1023.53	161.572
1026.9	168.461
1030.28	170.802
1033.65	166.131
1037.03	153.079
1040.4	133.747
1043.78	118.656
1047.15	105.186
1050.53	97.032
1053.9	90.5064
1057.28	85.8874
1060.65	82.3892
1064.03	79.7785
1067.4	77.2182
1070.78	77.4779
1074.15	77.6935
1077.52	77.5772
1080.9	78.7489
1084.27	76.9722
1087.65	76.6855
1091.02	75.3739
1094.4	74.3843
1097.77	72.5698
1101.15	68.4178
1104.52	64.3133
1107.9	60.6299
1111.27	56.822
1114.65	53.9931
1118.02	52.8542
1121.4	50.4853
1124.77	49.6614
1128.15	47.9238
1131.52	47.5493
1134.9	46.7574
1138.27	45.8491
1141.65	46.0417
1145.02	44.5945
1148.4	44.5115
1151.77	45.6238
1155.14	43.9286
1158.52	43.9908
1161.89	44.6341
1165.27	44.3485
1168.64	43.4262
1172.02	44.0349
1175.39	43.6953
1178.77	43.0157
1182.14	42.4809
1185.52	43.6966
1188.89	43.4405
1192.27	42.7675
1195.64	42.7037
1199.02	43.3259
1202.39	42.008
1205.77	43.9122
1209.14	42.0248
1212.52	42.3075
1215.89	41.5712
1219.27	42.6174
1222.64	42.0859
1226.02	42.2415
1229.39	41.3951
1232.77	42.1737
1236.14	41.3412
1239.52	41.379
1242.89	42.4642
1246.27	40.9961
1249.64	40.8105
1253.02	42.1072
1256.39	41.8422
1259.76	40.7475
1263.14	41.0114
1266.51	40.2589
1269.89	41.6127
1273.26	41.1232
1276.64	41.0034
1280.01	40.6476
1283.39	40.0386
1286.76	40.6098
1290.14	42.0925
1293.51	39.9129
1296.89	40.536
1300.26	39.9701
1303.64	40.4403
