Measurement: Raman, 780 nm, unoriented, Raman Data Processed
Mineral: Laverovite
Rruff sample: R190014
Ideal chemistry: K_2_NaMn^2+^_7_Zr^4+^_2_(Si_4_O_12_)_2_O_2_(OH)_4_F
Locality: Desourdy Quarry, Mont Saint-Hilaire, Rouville County, Quebec, Canada
Source: Royal Ontario Museum M26526
Description: Brown fragment showing lamellar habit. Type sample. This sample is the same as R060216. A fragment was given to Elena Sokolova. All data are from Sokolova et al. (2019) except for the Raman spectra and photograph.
Measured chemistry: (K_1.78_Sr_0.02_Cs_0.01_[box]_0.19_)([box]_1.85_Na_0.15_)(Na_0.88_Ca_0.12_)(Mn_4.03_Fe^2+^_2.71_Mg_0.25_Zn_0.01_)(Zr_1.11_Ti_0.82_Nb_0.06_Mg_0.01_)[(Si_7.78_Al_0.26_)O_24_]O_2_[(OH)_3.68_F_0.32_]F[[box]_1.85_(H_2_O)_0.15_]
Raman shift (cm-1)	intensity
114.487	2.26422
117.862	27.7467
121.236	56.9158
124.611	39.74
127.986	72.9068
131.361	61.395
134.736	60.839
138.11	53.0264
141.485	29.3202
144.86	4.71997
148.235	2.50586
151.61	17.8039
154.984	30.3366
158.359	23.9223
161.734	29.738
165.109	29.0018
168.484	30.4859
171.858	29.0959
175.233	10.3484
178.608	2.83841
181.983	29.5125
185.358	4.34164
188.733	0.572876
192.107	26.5797
195.482	10.2832
198.857	18.7261
202.232	42.2456
205.607	29.3892
208.982	38.9226
212.356	82.9326
215.731	51.4079
219.106	58.5357
222.481	85.885
225.856	82.4004
229.23	124.536
232.605	99.6923
235.98	153.833
239.355	134.541
242.73	140.147
246.105	132.816
249.479	118.518
252.854	142.4
256.229	123.541
259.604	124.814
262.978	93.9156
266.353	86.5639
269.728	66.2157
273.103	58.2443
276.478	28.7831
279.853	23.6832
283.227	30.4134
286.602	13.9228
289.977	14.3506
293.352	25.0463
296.727	22.9497
300.101	6.50804
303.476	11.2303
306.851	4.18541
310.226	7.36449
313.601	4.79009
316.976	17.3631
320.35	15.2566
323.725	28.5487
327.1	25.4893
330.475	30.7608
333.85	32.5308
337.224	5.84103
340.599	22.9507
343.974	12.2275
347.349	3.87009
350.724	34.9628
354.099	38.7739
357.473	46.4224
360.848	34.3806
364.223	7.55794
367.598	16.7729
370.973	15.7787
374.348	5.2565
377.722	29.4267
381.097	27.7366
384.472	6.5717
387.847	23.7071
391.222	38.0951
394.596	57.4582
397.971	44.4802
401.346	26.3136
404.721	27.2319
408.096	49.792
411.471	42.7912
414.845	45.3552
418.22	50.5476
421.595	25.1699
424.97	25.9068
428.345	34.4289
431.719	26.5418
435.094	16.4846
438.469	3.81313
441.844	2.25873
445.219	37.5206
448.594	5.43146
451.968	26.4217
455.343	27.9405
458.718	38.3066
462.093	37.681
465.467	28.1916
468.842	42.2218
472.217	28.446
475.592	50.2663
478.967	1.48047
482.342	42.746
485.716	14.3187
489.091	36.9476
492.466	49.2294
495.841	19.7133
499.216	8.22124
502.591	17.8633
505.965	29.8485
509.34	33.6858
512.715	13.6161
516.09	23.7296
519.465	31.9772
522.839	36.0851
526.214	6.47391
529.589	10.1864
532.964	2.51649
536.339	43.524
539.713	22.0198
543.088	37.2408
546.463	37.6863
549.838	57.793
553.213	44.3494
556.588	61.5306
559.962	38.95
563.337	57.3105
566.712	12.5762
570.087	18.2111
573.462	25.6918
576.837	16.47
580.211	9.24005
583.586	29.4361
586.961	35.9394
590.336	23.4704
593.711	1.97235
597.085	20.877
600.46	12.5808
603.835	9.09656
607.21	32.66
610.585	6.15974
613.96	11.3165
617.334	16.958
620.709	16.6042
624.084	37.1697
627.459	36.9695
630.834	61.2347
634.208	58.398
637.583	54.4438
640.958	95.7261
644.333	140.619
647.708	159.338
651.082	153.957
654.457	143.656
657.832	92.2854
661.207	59.6621
664.582	38.1747
667.957	56.6132
671.331	27.7005
674.706	46.1241
678.081	77.0766
681.456	63.0909
684.831	52.2699
688.205	51.0881
691.58	72.7021
694.955	72.2575
698.33	71.7798
701.705	104.168
705.08	57.6055
708.454	70.7404
711.829	48.4342
715.204	55.9478
718.579	26.417
721.954	82.7289
725.328	44.5936
728.703	12.919
732.078	27.284
735.453	12.713
738.828	20.3703
742.202	18.5986
745.577	16.4355
748.952	25.2587
752.327	5.47894
755.702	16.7901
759.077	10.8599
762.451	6.29152
765.826	6.08394
769.201	28.8903
772.576	16.8598
775.951	16.1826
779.326	8.32259
782.7	16.3186
786.075	9.78499
789.45	16.798
792.825	19.533
796.2	1.96964
799.574	17.4704
802.949	9.67241
806.324	0.44368
809.699	4.99271
813.074	5.03593
816.448	25.8505
819.823	3.62098
823.198	4.75868
826.573	9.39943
829.948	7.97361
833.322	14.8603
836.697	23.6722
840.072	18.8909
843.447	22.1154
846.822	13.6076
850.197	13.0182
853.571	36.0459
856.946	13.9173
860.321	16.9542
863.696	12.8272
867.071	13.9073
870.446	32.0907
873.82	35.4201
877.195	43.641
880.57	36.9859
883.945	28.5977
887.32	49.9449
890.694	46.0578
894.069	66.1206
897.444	60.0639
900.819	65.8841
904.194	103.343
907.568	115.283
910.943	82.3066
914.318	120.675
917.693	127.958
921.068	122.244
924.443	121.582
927.817	131.512
931.192	148.834
934.567	135.008
937.942	110.115
941.317	95.6771
944.692	124.145
948.066	105.07
951.441	82.5011
954.816	53.2465
958.191	56.8235
961.566	13.2594
964.94	45.8133
968.315	18.2939
971.69	16.8727
975.065	2.48575
978.44	20.3472
981.814	13.1108
985.189	24.4422
988.564	4.92098
991.939	8.29094
995.314	15.7839
998.688	21.0892
1002.06	15.2293
1005.44	23.7452
1008.81	35.9585
1012.19	13.0036
1015.56	38.5027
1018.94	34.4603
1022.31	41.1113
1025.69	36.5051
1029.06	37.178
1032.44	31.5942
1035.81	40.0955
1039.19	42.6717
1042.56	4.99468
1045.94	18.2774
1049.31	31.2897
1052.69	5.44336
1056.06	36.003
1059.43	24.9812
1062.81	15.2873
1066.18	6.4179
1069.56	29.8534
1072.93	23.2897
1076.31	27.6104
1079.68	23.0808
1083.06	2.04225
1086.43	14.9218
1089.81	17.1041
1093.18	0.257629
1096.56	29.274
1099.93	18.1487
1103.31	17.7301
1106.68	30.5965
1110.06	16.798
1113.43	20.869
1116.81	20.5395
1120.18	0.207901
1123.56	11.0105
1126.93	19.5401
1130.31	3.81635
1133.68	16.2557
1137.06	3.59352
1140.43	10.0889
1143.81	39.6044
1147.18	14.5848
1150.56	6.08244
1153.93	32.6759
1157.31	29.6975
1160.68	32.002
1164.06	33.152
1167.43	33.09
1170.8	22.3461
1174.18	17.893
1177.55	36.7051
1180.93	20.4034
1184.3	7.16716
1187.68	4.95995
1191.05	48.8378
1194.43	16.6882
1197.8	32.2847
1201.18	28.2368
1204.55	31.856
1207.93	11.8147
1211.3	45.7603
1214.68	25.0074
1218.05	22.37
1221.43	28.2371
1224.8	3.88523
1228.18	29.3673
1231.55	28.2914
1234.93	5.26284
1238.3	17.8648
1241.67	34.0523
1245.05	13.389
1248.42	37.1904
1251.8	0.453945
1255.17	9.96168
1258.55	41.1981
1261.92	11.973
1265.3	15.5875
1268.67	12.0561
1272.05	17.9487
1275.42	22.7254
1278.8	56.402
1282.17	29.144
