Measurement: Raman, 532 nm, unoriented, Raman Data Processed
Mineral: Lazaraskeite
Rruff sample: R180026
Ideal chemistry: Cu^2+^(C_2_H_3_O_3_)_2_
Locality: Western end of Pusch Ridge in the Santa Catalina Mountains, north of Tucson, Pima County, Arizona, USA
Source: Warren Lazar
Description: Pale blue to blue prismatic or bladed crystals, associated with chrysocolla, muscovite, orthoclase, calcite, and quartz. Type specimen (UAMM 22052)
Measured chemistry: Cu^2+^_1.01_(C_1.994_H_3_O_3_)_2_ ; The C content of 22.6(2) wt.% was obtained from an Elemental Combustion System equipped with mass spectrometry. Crystals are easily damaged by electron beam (lower photo),
Raman shift (cm-1)	intensity
88.1367	0
91.5115	2146.2
94.8863	2052.22
98.2612	1030.42
101.636	70.7917
105.011	60.2908
108.386	481.134
111.76	1653.58
115.135	2107.68
118.51	1417.84
121.885	1426.67
125.26	1388.39
128.635	984.7
132.009	754.961
135.384	682.965
138.759	601.338
142.134	359.688
145.509	166.339
148.883	254.408
152.258	455.486
155.633	745.236
159.008	996.553
162.383	1143.23
165.757	1335.92
169.132	1530.64
172.507	1433.24
175.882	1044.71
179.257	720.581
182.632	659.731
186.006	817.801
189.381	915.13
192.756	568.999
196.131	211.863
199.506	16.3008
202.881	54.0469
206.255	41.2236
209.63	96.8893
213.005	418.071
216.38	944.108
219.755	1919.02
223.129	3917.98
226.504	7802.85
229.879	9544.62
233.254	4826.93
236.629	2511.52
240.004	1945.21
243.378	1966.11
246.753	1887.38
250.128	1260.68
253.503	655.75
256.878	339.691
260.252	170.615
263.627	76.9636
267.002	18.3625
270.377	3.83252
273.752	11.9113
277.127	6.77832
280.501	15.0201
283.876	5.93384
287.251	5.14392
290.626	7.79944
294.001	29.6974
297.375	53.9832
300.75	96.6909
304.125	160.587
307.5	219.076
310.875	284.753
314.25	284.913
317.624	272.431
320.999	232.06
324.374	182.566
327.749	134.794
331.124	105.435
334.498	72.4087
337.873	54.2822
341.248	42.7087
344.623	27.5361
347.998	13.0026
351.373	2.02972
354.747	16.1772
358.122	1.91419
361.497	0.553711
364.872	10.484
368.247	5.64166
371.621	8.83209
374.996	5.61987
378.371	8.85504
381.746	2.42029
385.121	8.70551
388.495	16.302
391.87	17.4993
395.245	15.7255
398.62	12.6856
401.995	18.6008
405.37	9.81531
408.744	14.0913
412.119	5.97278
415.494	1.75574
418.869	4.16681
422.244	1.87628
425.618	0.344849
428.993	1.04712
432.368	12.5867
435.743	18.9598
439.118	20.3062
442.493	24.2468
445.867	32.6409
449.242	60.9716
452.617	112.813
455.992	188.261
459.367	354.878
462.741	647.934
466.116	1005.44
469.491	857.738
472.866	315.916
476.241	90.0804
479.615	18.4952
482.99	17.0082
486.365	23.0199
489.74	12.0241
493.115	12.5555
496.49	43.9995
499.864	97.1315
503.239	108.808
506.614	77.2243
509.989	49.6815
513.364	19.0281
516.739	16.1274
520.113	38.3008
523.488	79.148
526.863	172.871
530.238	344.399
533.613	657.784
536.987	1287.07
540.362	2288.2
543.737	1705.1
547.112	676.028
550.487	417.144
553.861	395.982
557.236	493.277
560.611	722.311
563.986	1096.9
567.361	1731.53
570.736	2744.44
574.11	4257.96
577.485	6311.65
580.86	7772.46
584.235	6464.34
587.61	3849.48
590.985	2148.77
594.359	1240.26
597.734	759.092
601.109	474.015
604.484	312.552
607.859	214.335
611.233	142.094
614.608	96.7496
617.983	71.9608
621.358	33.0343
624.733	26.2003
628.107	8.54382
631.482	3.67383
634.857	8.58545
638.232	4.57501
641.607	10.7634
644.982	16.3304
648.356	2.75757
651.731	4.77075
655.106	7.52631
658.481	0.842285
661.856	1.16376
665.231	2.84705
668.605	16.0079
671.98	27.1949
675.355	33.4682
678.73	51.7231
682.105	80.777
685.479	101.55
688.854	143.885
692.229	185.523
695.604	274.364
698.979	390.039
702.354	565.442
705.728	805.406
709.103	1009.32
712.478	1039.4
715.853	855.827
719.227	629.052
722.602	439.617
725.977	323.314
729.352	251.607
732.727	199.143
736.102	173.356
739.476	144.767
742.851	124.806
746.226	111.106
749.601	93.879
752.976	85.7579
756.351	64.1931
759.725	47.8607
763.1	34.3575
766.475	21.5393
769.85	7.28674
773.225	5.23657
776.599	8.64783
779.974	1.3299
783.349	3.29779
786.724	4.45288
790.099	5.22229
793.473	9.95911
796.848	5.01593
800.223	14.135
803.598	6.17487
806.973	9.07977
810.348	18.6567
813.722	6.41119
817.097	1.85846
820.472	2.43219
823.847	7.9455
827.222	10.1765
830.597	9.73023
833.971	4.19714
837.346	3.823
840.721	11.5597
844.096	32.1911
847.471	55.791
850.846	96.5436
854.22	135.449
857.595	189.388
860.97	242.244
864.345	285.65
867.72	332.575
871.094	348.69
874.469	355.807
877.844	352.857
881.219	330.702
884.594	314.822
887.968	299.848
891.343	292.055
894.718	280.39
898.093	280.486
901.468	281.279
904.842	298.438
908.217	314.521
911.592	336.11
914.967	353.868
918.342	398.577
921.717	429.99
925.091	464.52
928.466	495.581
931.841	532.923
935.216	552.496
938.591	549.423
941.966	546.482
945.34	506.403
948.715	457.853
952.09	397.628
955.465	313.267
958.84	238.625
962.214	166.245
965.589	113.959
968.964	76.8966
972.339	45.5792
975.714	30.7248
979.088	5.72809
982.463	0.572693
985.838	0.615295
989.213	10.5358
992.588	7.7774
995.963	6.75482
999.337	4.99884
1002.71	6.16565
1006.09	2.51837
1009.46	5.67487
1012.84	9.9621
1016.21	18.9324
1019.59	40.8576
1022.96	110.279
1026.34	112.518
1029.71	45.8088
1033.09	30.7826
1036.46	23.6473
1039.84	28.0067
1043.21	44.5025
1046.59	55.8913
1049.96	90.0544
1053.33	154.653
1056.71	261.689
1060.08	362.519
1063.46	279.664
1066.83	155.325
1070.21	105.844
1073.58	56.9404
1076.96	31.0789
1080.33	13.3751
1083.71	13.0281
1087.08	13.9061
1090.46	6.45843
1093.83	1.53058
1097.21	3.58252
1100.58	4.18164
1103.96	1.53265
1107.33	0.038025
1110.71	5.02539
1114.08	8.02893
1117.46	4.87451
1120.83	3.59503
1124.21	3.25598
1127.58	1.05914
1130.95	1.11066
1134.33	8.74408
1137.7	6.11987
1141.08	14.6716
1144.45	19.8927
1147.83	22.6667
1151.2	21.8176
1154.58	26.9645
1157.95	37.9214
1161.33	36.5463
1164.7	34.6122
1168.08	37.3412
1171.45	40.9544
1174.83	52.3617
1178.2	42.8841
1181.58	41.007
1184.95	42.3859
1188.33	51.0568
1191.7	49.7618
1195.08	59.1571
1198.45	57.5554
1201.83	64.6007
1205.2	66.3869
1208.58	75.4556
1211.95	90.511
1215.33	106.211
1218.7	154.814
1222.08	272.23
1225.45	504.95
1228.83	1118.47
1232.2	1319.97
1235.58	532.836
1238.95	198.388
1242.32	82.1356
1245.7	40.772
1249.07	28.4081
1252.45	29.4851
1255.82	14.7987
1259.2	14.3258
1262.57	11.8154
1265.95	1.69647
1269.32	3.75812
1272.7	0.23938
1276.07	7.20782
1279.45	9.77643
1282.82	2.94586
1286.2	12.8381
1289.57	73.4563
1292.95	204.874
1296.32	410.377
1299.7	127.982
