Measurement: Raman, 780 nm, unoriented, Raman Data Processed
Mineral: Lazaraskeite
Rruff sample: R190015
Ideal chemistry: Cu^2+^(C_2_H_3_O_3_)_2_
Locality: Western end of Pusch Ridge in the Santa Catalina Mountains, north of Tucson, Pima County, Arizona, USA
Source: Warren Lazar
Description: Greenish-blue bladed or prismatic crystals, associated with lazaraskeite (R180026), chrysocolla, muscovite, orthoclase, calcite, and quartz.
Measured chemistry: Cu_1.01_(C_1.98_H_3.00_O_3_)_2_ ; The C content of 22.2(2) wt.% was obtained from an Elemental Combustion System equipped with mass spectrometry. Crystals are easily damaged by electron beam
Raman shift (cm-1)	intensity
93.3674	0
96.7422	1.09756
100.117	0.861931
103.492	0.332138
106.867	1.74973
110.242	3.51019
113.616	3.67516
116.991	2.68702
120.366	2.96448
123.741	4.95184
127.116	5.87862
130.49	2.52525
133.865	2.37321
137.24	2.25227
140.615	1.49465
143.99	0.131287
147.364	0.948402
150.739	0.0273
154.114	1.62805
157.489	3.72931
160.864	5.47148
164.239	5.76497
167.613	6.7267
170.988	6.92004
174.363	7.5233
177.738	7.18982
181.113	6.48962
184.488	6.47891
187.862	5.68703
191.237	4.19476
194.612	4.07876
197.987	2.99758
201.362	2.69614
204.736	3.25462
208.111	3.01597
211.486	2.91089
214.861	3.38095
218.236	4.29396
221.611	6.17627
224.985	7.54493
228.36	8.32573
231.735	6.11203
235.11	3.95115
238.485	3.94312
241.859	3.81491
245.234	2.75767
248.609	2.69299
251.984	3.26785
255.359	1.77661
258.733	1.21636
262.108	1.44656
265.483	0.971148
268.858	0.846818
272.233	0.107797
275.608	0.264988
278.982	0.337988
282.357	0.247538
285.732	0.069991
289.107	0.683918
292.482	0.129341
295.856	0.632887
299.231	0.136522
302.606	0.05742
305.981	0.575332
309.356	0.333059
312.731	0.063858
316.105	0.285412
319.48	0.450046
322.855	0.523273
326.23	0.261018
329.605	0.029067
332.979	0.308525
336.354	0.770426
339.729	0.582792
343.104	0.837508
346.479	0.115445
349.854	0.268728
353.228	0.507052
356.603	0.887394
359.978	0.31932
363.353	0.458065
366.728	0.466584
370.103	0.929331
373.477	0.674457
376.852	0.983746
380.227	0.661657
383.602	1.10272
386.977	0.013551
390.351	0.258141
393.726	0.815352
397.101	0.315338
400.476	0.478537
403.851	0.320132
407.226	0.504756
410.6	0.276149
413.975	0.264001
417.35	0.176774
420.725	0.402148
424.1	0.196095
427.474	0.623586
430.849	0.828036
434.224	0.502597
437.599	1.42533
440.974	0.453498
444.349	0.944084
447.723	0.00616
451.098	0.290641
454.473	0.797039
457.848	1.17549
461.223	1.15614
464.597	1.28757
467.972	0.194584
471.347	0.335047
474.722	0.982388
478.097	0.868387
481.471	0.876454
484.846	0.118687
488.221	0.31273
491.596	0.232387
494.971	0.079592
498.346	0.037258
501.72	0.695746
505.095	0.670129
508.47	0.892962
511.845	0.543959
515.22	0.50846
518.595	0.024664
521.969	0.183429
525.344	0.049103
528.719	0.010498
532.094	0.162697
535.469	0.678208
538.843	1.43017
542.218	1.39683
545.593	0.938612
548.968	1.24355
552.343	0.369979
555.717	0.896366
559.092	1.70182
562.467	2.14192
565.842	2.64384
569.217	3.91593
572.592	4.58893
575.966	5.56316
579.341	7.3425
582.716	7.15792
586.091	5.66092
589.466	4.86124
592.841	2.8949
596.215	1.67763
599.59	1.98494
602.965	1.21152
606.34	0.469061
609.715	1.04903
613.089	0.243356
616.464	0.313233
619.839	0.050662
623.214	0.396073
626.589	0.689958
629.963	0.040034
633.338	0.741117
636.713	0.101518
640.088	0.944578
643.463	0.273414
646.838	0.189462
650.212	0.172107
653.587	0.253865
656.962	0.206544
660.337	0.51723
663.712	0.546446
667.087	0.420499
670.461	0.442984
673.836	1.00727
677.211	1.3653
680.586	0.938143
683.961	1.23317
687.335	0.682127
690.71	0.813063
694.085	1.31554
697.46	1.02228
700.835	1.49353
704.21	1.05046
707.584	1.83639
710.959	1.63666
714.334	1.86478
717.709	0.855718
721.084	0.975208
724.458	0.033455
727.833	0.098466
731.208	0.711763
734.583	0.840372
737.958	0.150167
741.332	1.01547
744.707	0.917576
748.082	0.438647
751.457	0.740246
754.832	0.11357
758.207	0.336923
761.581	0.471776
764.956	0.755611
768.331	0.868035
771.706	0.674131
775.081	0.706009
778.455	0.484427
781.83	0.999948
785.205	0.349126
788.58	0.52949
791.955	0.400205
795.33	0.146371
798.704	0.829477
802.079	0.408084
805.454	0.328042
808.829	0.072833
812.204	0.073148
815.578	0.629783
818.953	0.585547
822.328	0.501805
825.703	0.253355
829.078	0.938552
832.453	0.536399
835.827	0.782002
839.202	0.036284
842.577	0.172666
845.952	0.249722
849.327	0.460921
852.702	0.555124
856.076	0.163913
859.451	0.287144
862.826	0.897003
866.201	0.654385
869.576	0.767378
872.95	0.263481
876.325	0.661268
879.7	0.512718
883.075	0.24487
886.45	0.519027
889.824	0.298357
893.199	1.14456
896.574	0.177444
899.949	0.628244
903.324	0.069081
906.698	0.288836
910.073	0.545099
913.448	0.193889
916.823	0.685758
920.198	0.550885
923.573	0.265185
926.947	0.476381
930.322	1.00251
933.697	0.753872
937.072	1.27853
940.447	0.579745
943.822	1.54035
947.196	0.360882
950.571	1.1351
953.946	0.217656
957.321	0.262774
960.696	1.09007
964.07	0.962115
967.445	0.048954
970.82	0.491226
974.195	1.06478
977.57	0.545624
980.945	0.102325
984.319	0.251174
987.694	0.667472
991.069	0.723794
994.444	0.474219
997.819	0.563953
1001.19	0.36334
1004.57	0.776245
1007.94	0.068291
1011.32	0.403313
1014.69	0.138499
1018.07	0.650107
1021.44	0.06079
1024.82	0.263551
1028.19	0.437153
1031.57	0.619932
1034.94	0.293855
1038.32	0.525553
1041.69	0.628314
1045.07	0.330891
1048.44	0.234044
1051.82	0.500236
1055.19	0.437904
1058.57	1.11208
1061.94	1.48038
1065.32	0.666238
1068.69	0.857747
1072.07	0.692052
1075.44	0.765514
1078.81	0.072591
1082.19	0.524841
1085.56	0.803782
1088.94	0.99649
1092.31	0.088027
1095.69	0.272814
1099.06	0.780579
1102.44	1.02188
1105.81	0.438894
1109.19	0.908178
1112.56	0.248147
1115.94	0.214627
1119.31	0.211775
1122.69	0.814912
1126.06	0.273072
1129.44	0.383941
1132.81	0.110033
1136.19	0.900269
1139.56	0.481448
1142.94	1.16785
1146.31	0.762551
1149.68	0.586552
1153.06	0.838251
1156.43	0.630346
1159.81	0.706911
1163.18	1.03081
1166.56	0.826865
1169.93	0.570766
1173.31	0.006871
1176.68	0.971711
1180.06	0.72823
1183.43	0.677308
1186.81	0.788798
1190.18	0.32367
1193.56	0.178417
1196.93	0.810485
1200.31	0.741931
1203.68	0.285777
1207.06	0.869873
1210.43	0.823737
1213.81	0.707018
1217.18	0.631241
1220.56	0.193668
1223.93	1.10331
1227.31	1.33091
1230.68	3.31376
1234.06	2.53726
1237.43	0.958519
1240.81	0.235883
1244.18	0.127762
1247.56	0.440228
1250.93	0.275179
1254.31	0.641813
1257.68	0.51386
1261.05	0.644424
1264.43	0.697519
1267.8	0.275404
1271.18	0.026963
1274.55	0.852569
1277.93	0.08872
1281.3	0.248232
