Measurement: Raman, 780 nm, unoriented, Raman Data Processed
Mineral: Lazaraskeite
Rruff sample: R180026
Ideal chemistry: Cu^2+^(C_2_H_3_O_3_)_2_
Locality: Western end of Pusch Ridge in the Santa Catalina Mountains, north of Tucson, Pima County, Arizona, USA
Source: Warren Lazar
Description: Pale blue to blue prismatic or bladed crystals, associated with chrysocolla, muscovite, orthoclase, calcite, and quartz. Type specimen (UAMM 22052)
Measured chemistry: Cu^2+^_1.01_(C_1.994_H_3_O_3_)_2_ ; The C content of 22.6(2) wt.% was obtained from an Elemental Combustion System equipped with mass spectrometry. Crystals are easily damaged by electron beam (lower photo),
Raman shift (cm-1)	intensity
87.582	0
90.9569	220.268
94.3317	221.672
97.7065	72.2615
101.081	1.897
104.456	6.40012
107.831	68.1208
111.206	140.019
114.581	113.228
117.955	76.9116
121.33	59.0162
124.705	48.5304
128.08	29.5477
131.455	27.1364
134.829	22.561
138.204	13.2547
141.579	0.916306
144.954	10.304
148.329	4.69168
151.704	25.3506
155.078	44.9591
158.453	57.3383
161.828	63.4029
165.203	70.308
168.578	77.2642
171.952	64.8966
175.327	54.7045
178.702	44.7335
182.077	53.1217
185.452	58.3984
188.827	52.9081
192.201	36.0781
195.576	18.2797
198.951	11.7951
202.326	7.5445
205.701	1.93942
209.076	1.8793
212.45	3.54594
215.825	12.5053
219.2	34.23
222.575	77.0761
225.95	154.976
229.324	161.459
232.699	86.0864
236.074	50.2918
239.449	51.263
242.824	49.3633
246.198	47.7321
249.573	33.2159
252.948	18.7011
256.323	12.1981
259.698	1.01318
263.073	1.76769
266.447	2.70312
269.822	1.30605
273.197	2.36126
276.572	0.43084
279.947	0.907768
283.322	2.04063
286.696	0.04261
290.071	1.51523
293.446	3.89134
296.821	2.10452
300.196	4.52406
303.57	9.93861
306.945	6.62823
310.32	11.1807
313.695	12.8044
317.07	11.236
320.445	8.02821
323.819	4.41174
327.194	7.84065
330.569	5.07744
333.944	0.747391
337.319	1.05308
340.693	2.36176
344.068	2.43193
347.443	0.399529
350.818	2.42355
354.193	1.11118
357.567	2.5849
360.942	8.12526
364.317	7.08378
367.692	0.007362
371.067	7.75182
374.442	5.22192
377.816	5.8753
381.191	1.67178
384.566	3.03799
387.941	7.57266
391.316	8.5793
394.69	5.02837
398.065	8.27901
401.44	6.59982
404.815	4.71681
408.19	5.72548
411.565	1.67151
414.939	0.544067
418.314	2.67298
421.689	5.38026
425.064	3.39847
428.439	0.750244
431.813	1.14687
435.188	0.844154
438.563	4.75191
441.938	2.30482
445.313	7.72603
448.688	3.35437
452.062	3.71458
455.437	3.9871
458.812	3.62385
462.187	10.0879
465.562	13.8231
468.937	7.55862
472.311	7.60701
475.686	1.04683
479.061	3.13113
482.436	1.76246
485.81	0.223053
489.185	2.9598
492.56	4.81575
495.935	5.13174
499.31	4.34561
502.685	3.20897
506.059	2.70618
509.434	3.47645
512.809	2.15575
516.184	0.099503
519.559	5.24834
522.933	2.42593
526.308	3.84791
529.683	10.2512
533.058	16.1861
536.433	32.2065
539.808	43.8183
543.182	23.7416
546.557	10.4502
549.932	12.703
553.307	12.5714
556.682	15.417
560.057	20.6232
563.431	26.8848
566.806	50.8705
570.181	75.8583
573.556	119.663
576.931	176.411
580.305	200.148
583.68	157.989
587.055	98.7088
590.43	57.4924
593.805	34.6152
597.18	22.1175
600.554	14.0857
603.929	9.36327
607.304	4.48412
610.679	7.90141
614.054	3.84328
617.428	2.87851
620.803	1.36314
624.178	6.14819
627.553	1.33755
630.928	0.389603
634.303	2.49036
637.677	0.851387
641.052	2.70964
644.427	1.91073
647.802	4.08538
651.177	2.22663
654.552	2.22102
657.926	1.94865
661.301	0.115501
664.676	3.21928
668.051	2.4956
671.426	2.2092
674.8	3.37418
678.175	6.758
681.55	3.79739
684.925	8.44841
688.3	6.07066
691.674	6.04046
695.049	6.78342
698.424	8.78034
701.799	19.1064
705.174	27.0328
708.548	26.0071
711.923	31.6657
715.298	23.8452
718.673	14.6984
722.048	14.5977
725.423	12.1077
728.797	11.4537
732.172	9.09367
735.547	7.32369
738.922	4.61465
742.297	7.18746
745.672	4.37089
749.046	3.6
752.421	5.51099
755.796	4.24344
759.171	6.71847
762.546	4.14278
765.92	5.33585
769.295	3.86369
772.67	1.4566
776.045	0.775703
779.42	3.48815
782.795	0.699257
786.169	4.22082
789.544	4.43092
792.919	1.20335
796.294	4.0163
799.669	0.672646
803.043	3.71253
806.418	6.85304
809.793	3.92456
813.168	2.0018
816.543	0.712791
819.918	2.20528
823.292	3.45719
826.667	1.06905
830.042	0.45916
833.417	0.237152
836.792	4.10359
840.166	4.22592
843.541	1.70173
846.916	3.30688
850.291	0.593376
853.666	3.86943
857.04	2.92053
860.415	4.18025
863.79	4.6047
867.165	6.1011
870.54	6.61516
873.915	6.00416
877.289	5.0013
880.664	2.10036
884.039	7.95977
887.414	9.28376
890.789	4.02519
894.163	5.76527
897.538	7.10507
900.913	5.9734
904.288	6.84507
907.663	7.56889
911.038	7.84529
914.412	10.609
917.787	9.92205
921.162	11.8844
924.537	15.1657
927.912	15.4627
931.287	14.0118
934.661	14.5843
938.036	20.4742
941.411	16.5014
944.786	17.8291
948.161	21.072
951.535	12.3524
954.91	4.5488
958.285	7.64065
961.66	4.61626
965.035	0.98922
968.409	4.15533
971.784	1.06405
975.159	5.97907
978.534	3.3103
981.909	2.15314
985.284	5.09129
988.658	2.63316
992.033	0.89418
995.408	3.2923
998.783	0.665649
1002.16	3.65742
1005.53	5.09744
1008.91	1.53347
1012.28	0.762627
1015.66	3.24048
1019.03	3.58157
1022.41	3.35181
1025.78	6.04961
1029.16	3.05028
1032.53	3.38171
1035.91	4.74473
1039.28	5.70734
1042.66	3.40478
1046.03	3.64951
1049.4	4.24765
1052.78	10.0866
1056.15	13.5225
1059.53	15.954
1062.9	14.025
1066.28	11.9434
1069.65	3.85168
1073.03	6.1901
1076.4	3.07269
1079.78	9.0621
1083.15	4.85152
1086.53	1.61364
1089.9	5.04588
1093.28	3.72239
1096.65	4.08389
1100.03	3.4513
1103.4	0.906967
1106.78	4.78639
1110.15	5.1703
1113.53	0.865051
1116.9	0.357635
1120.28	0.880997
1123.65	2.16754
1127.03	8.37308
1130.4	5.72514
1133.78	2.54054
1137.15	1.75066
1140.53	2.57219
1143.9	0.76458
1147.28	0.197815
1150.65	3.08757
1154.03	0.262894
1157.4	2.57091
1160.77	1.2448
1164.15	3.58675
1167.52	5.35513
1170.9	3.7062
1174.27	6.65568
1177.65	7.33164
1181.02	6.22903
1184.4	6.364
1187.77	0.303429
1191.15	3.19825
1194.52	0.914146
1197.9	6.84714
1201.27	0.746452
1204.65	3.438
1208.02	1.90589
1211.4	5.41068
1214.77	5.84489
1218.15	5.21447
1221.52	3.2177
1224.9	11.8342
1228.27	44.3275
1231.64	51.9
1235.02	15.5041
1238.39	10.9522
1241.77	4.12608
1245.14	1.93671
1248.52	3.95605
1251.89	3.60728
1255.27	5.51677
1258.64	2.27283
1262.02	7.70764
1265.39	2.24349
1268.77	8.92364
1272.14	0.523994
1275.52	4.45544
1278.89	1.15905
1282.27	0
