Measurement: Raman, 532 nm, unoriented, Raman Data Processed
Mineral: Lazaraskeite
Rruff sample: R190015
Ideal chemistry: Cu^2+^(C_2_H_3_O_3_)_2_
Locality: Western end of Pusch Ridge in the Santa Catalina Mountains, north of Tucson, Pima County, Arizona, USA
Source: Warren Lazar
Description: Greenish-blue bladed or prismatic crystals, associated with lazaraskeite (R180026), chrysocolla, muscovite, orthoclase, calcite, and quartz.
Measured chemistry: Cu_1.01_(C_1.98_H_3.00_O_3_)_2_ ; The C content of 22.2(2) wt.% was obtained from an Elemental Combustion System equipped with mass spectrometry. Crystals are easily damaged by electron beam
Raman shift (cm-1)	intensity
88.1367	0
91.5115	105.213
94.8863	71.6876
98.2612	4.71551
101.636	1.02441
105.011	19.3966
108.386	54.1482
111.76	135.244
115.135	170.248
118.51	121.987
121.885	159.897
125.26	226.328
128.635	242.35
132.009	203.685
135.384	151.486
138.759	127.481
142.134	81.42
145.509	67.6024
148.883	81.2522
152.258	125.27
155.633	181.268
159.008	251.268
162.383	334.776
165.757	438.075
169.132	491.622
172.507	464.792
175.882	438.008
179.257	413.248
182.632	368.202
186.006	290.359
189.381	169.856
192.756	60.4411
196.131	9.17114
199.506	13.1151
202.881	2.71387
206.255	45.7156
209.63	120.606
213.005	235.095
216.38	375.727
219.755	559.135
223.129	638.811
226.504	697.221
229.879	619.862
233.254	324.202
236.629	193.072
240.004	172.143
243.378	186.431
246.753	198.048
250.128	191.374
253.503	194.666
256.878	143.69
260.252	61.5932
263.627	17.4716
267.002	1.203
270.377	7.44763
273.752	2.76367
277.127	2.53705
280.501	2.09247
283.876	6.84564
287.251	16.6932
290.626	20.3051
294.001	31.4683
297.375	38.4055
300.75	41.3993
304.125	45.641
307.5	48.1691
310.875	46.419
314.25	44.1885
317.624	37.0246
320.999	34.4941
324.374	23.752
327.749	20.5193
331.124	11.2641
334.498	10.9631
337.873	9.77222
341.248	8.0354
344.623	6.2196
347.998	5.75018
351.373	3.49481
354.747	3.80908
358.122	3.28479
361.497	3.49597
364.872	4.38489
368.247	5.98029
371.621	5.02789
374.996	2.86505
378.371	1.00446
381.746	0.841187
385.121	0.834839
388.495	1.30658
391.87	4.19568
395.245	0.477051
398.62	3.11231
401.995	2.20575
405.37	4.33881
408.744	0.557129
412.119	1.31592
415.494	2.78168
418.869	3.422
422.244	0.554565
425.618	2.61511
428.993	2.88361
432.368	9.3584
435.743	13.706
439.118	25.4213
442.493	38.8774
445.867	59.9723
449.242	60.7096
452.617	36.0582
455.992	26.3035
459.367	35.0975
462.741	51.9572
466.116	63.0459
469.491	45.785
472.866	20.2986
476.241	6.70019
479.615	10.1206
482.99	15.8143
486.365	2.33032
489.74	2.21021
493.115	6.72662
496.49	10.1739
499.864	13.8104
503.239	7.9743
506.614	5.10046
509.989	4.16956
513.364	3.21948
516.739	3.59815
520.113	0.220459
523.488	12.7599
526.863	30.1387
530.238	53.5328
533.613	86.1229
536.987	122.76
540.362	143.425
543.737	110.347
547.112	74.5523
550.487	89.3976
553.861	119.03
557.236	170.237
560.611	253.198
563.986	357.698
567.361	465.023
570.736	549.602
574.11	661.811
577.485	802.448
580.86	871.412
584.235	771.333
587.61	588.679
590.985	419.619
594.359	255.347
597.734	147.979
601.109	91.4087
604.484	56.9042
607.859	37.4592
611.233	25.3519
614.608	21.0582
617.983	13.1984
621.358	8.24262
624.733	4.87555
628.107	0.005005
631.482	1.68292
634.857	0.528503
638.232	1.93152
641.607	2.289
644.982	1.25446
648.356	1.64526
651.731	1.0387
655.106	0.304016
658.481	1.08081
661.856	1.40332
665.231	0.033447
668.605	8.24078
671.98	7.5141
675.355	9.33893
678.73	9.87707
682.105	18.7492
685.479	25.4365
688.854	39.3897
692.229	51.2725
695.604	82.9131
698.979	112.422
702.354	145.185
705.728	168.482
709.103	166.906
712.478	134.106
715.853	100.783
719.227	73.5694
722.602	49.1761
725.977	38.1901
729.352	31.2227
732.727	21.5376
736.102	20.0265
739.476	17.4524
742.851	11.6555
746.226	10.783
749.601	9.12689
752.976	6.95105
756.351	6.99146
759.725	2.40411
763.1	4.2652
766.475	2.91071
769.85	3.72284
773.225	4.44641
776.599	2.55676
779.974	1.66138
783.349	0.825317
786.724	4.25964
790.099	2.5907
793.473	1.98065
796.848	5.0766
800.223	0.013
803.598	5.30725
806.973	1.21722
810.348	1.71332
813.722	1.69928
817.097	0.73822
820.472	0.400635
823.847	2.12677
827.222	3.6864
830.597	1.8493
833.971	1.01483
837.346	3.23718
840.721	2.04254
844.096	3.763
847.471	4.13599
850.846	7.28174
854.22	8.65942
857.595	15.7455
860.97	21.1666
864.345	24.066
867.72	28.4549
871.094	33.501
874.469	38.5551
877.844	41.5873
881.219	49.0949
884.594	59.5802
887.968	72.7554
891.343	73.5905
894.718	71.2172
898.093	67.2032
901.468	53.3629
904.842	49.2639
908.217	45.551
911.592	36.0264
914.967	37.3756
918.342	39.8298
921.717	42.9333
925.091	48.3239
928.466	57.4352
931.841	56.3088
935.216	63.3475
938.591	70.8207
941.966	71.5526
945.34	68.9509
948.715	71.5543
952.09	67.2051
955.465	62.175
958.84	56.4479
962.214	50.1336
965.589	40.0552
968.964	31.1364
972.339	22.8784
975.714	14.8998
979.088	8.08539
982.463	2.15192
985.838	3.71228
989.213	1.35437
992.588	1.2876
995.963	1.63879
999.337	0.130493
1002.71	3.15582
1006.09	0.233643
1009.46	2.14478
1012.84	3.08942
1016.21	5.81873
1019.59	10.6393
1022.96	12.6386
1026.34	7.48688
1029.71	4.4585
1033.09	2.91412
1036.46	8.62372
1039.84	6.79138
1043.21	15.3185
1046.59	14.9975
1049.96	27.431
1053.33	39.0136
1056.71	51.9868
1060.08	47.7154
1063.46	41.499
1066.83	28.3117
1070.21	17.799
1073.58	11.7753
1076.96	8.14795
1080.33	4.72815
1083.71	3.59131
1087.08	3.13507
1090.46	1.22931
1093.83	2.03381
1097.21	2.62537
1100.58	5.75238
1103.96	5.11407
1107.33	5.15784
1110.71	0.632385
1114.08	1.92481
1117.46	0.851318
1120.83	6.43628
1124.21	1.13672
1127.58	0.336609
1130.95	1.52734
1134.33	3.82764
1137.7	4.2334
1141.08	4.67108
1144.45	6.14172
1147.83	3.43939
1151.2	3.09912
1154.58	4.29816
1157.95	7.79236
1161.33	11.1487
1164.7	6.47205
1168.08	7.92084
1171.45	3.89435
1174.83	9.13513
1178.2	8.02411
1181.58	6.93909
1184.95	7.76514
1188.33	3.99103
1191.7	10.4866
1195.08	6.69074
1198.45	8.60785
1201.83	9.50281
1205.2	7.23865
1208.58	6.63818
1211.95	15.517
1215.33	19.1632
1218.7	34.1514
1222.08	72.5811
1225.45	124.711
1228.83	245.547
1232.2	373.39
1235.58	229.797
1238.95	74.2778
1242.32	26.7114
1245.7	16.8796
1249.07	11.3401
1252.45	7.04541
1255.82	6.47784
1259.2	5.77179
1262.57	4.99542
1265.95	1.02173
1269.32	1.80475
1272.7	2.1745
1276.07	2.6355
1279.45	0.988953
1282.82	6.97723
1286.2	2.52869
1289.57	3.09027
1292.95	11.1953
1296.32	15.0925
1299.7	4.93268
