Measurement: Raman, 532 nm, unoriented, Raman Data RAW
Mineral: Lead
Rruff sample: R070280
Ideal chemistry: Pb
Locality: Laurion, Greece
Source: Michael Scott
Description: Dark gray platy associated with quartz
Raman shift (cm-1)	intensity
133.27	237.307
136.645	327.077
140.019	445.683
143.394	441.51
146.769	414.94
150.144	356.21
153.519	361.982
156.894	373.69
160.268	345.521
163.643	366.549
167.018	369.277
170.393	360.245
173.768	361.063
177.143	349.095
180.517	344.987
183.892	357.257
187.267	374.269
190.642	357.792
194.017	371.966
197.391	353.957
200.766	377.009
204.141	372.117
207.516	352.285
210.891	377.82
214.266	360.796
217.64	363.299
221.015	341.171
224.39	360.704
227.765	362.256
231.14	360.77
234.514	361.004
237.889	362.853
241.264	352.11
244.639	367.118
248.014	366.344
251.388	378.842
254.763	380.661
258.138	385.623
261.513	406.343
264.888	399.517
268.263	404.623
271.637	404.78
275.012	417.397
278.387	444.078
281.762	461.942
285.137	447.366
288.512	466.952
291.886	465.828
295.261	439.12
298.636	431.561
302.011	427.627
305.386	422.463
308.76	417.143
312.135	418.772
315.51	427.579
318.885	409.978
322.26	424.426
325.635	420.274
329.009	424.219
332.384	427.211
335.759	433.713
339.134	423.098
342.509	438.547
345.883	444.267
349.258	420.059
352.633	453.392
356.008	427.338
359.383	433.157
362.757	446.15
366.132	454.166
369.507	443.431
372.882	449.901
376.257	469.028
379.632	445.304
383.006	458.151
386.381	495.086
389.756	473.136
393.131	458.161
396.506	461.233
399.88	441.446
403.255	464.853
406.63	457.346
410.005	456.481
413.38	462.716
416.755	485.309
420.129	457.16
423.504	485.881
426.879	462.616
430.254	465.417
433.629	504.859
437.003	503.236
440.378	474.602
443.753	473.771
447.128	494.449
450.503	481.86
453.878	489.635
457.252	499.28
460.627	505.114
464.002	496.973
467.377	514.018
470.752	511.211
474.127	510.876
477.501	514.244
480.876	526.871
484.251	524.087
487.626	524.279
491.001	521.948
494.375	526.185
497.75	521.176
501.125	511.56
504.5	523.649
507.875	515.051
511.25	509.046
514.624	534.368
517.999	532.713
521.374	538.947
524.749	524.868
528.124	534.615
531.498	548.806
534.873	533.832
538.248	517.757
541.623	536.747
544.998	539.294
548.372	547.271
551.747	557.775
555.122	557.133
558.497	560.604
561.872	563.484
565.247	538.818
568.621	553.174
571.996	553.346
575.371	570.055
578.746	550.779
582.121	578.255
585.495	557.233
588.87	572.5
592.245	573.831
595.62	591.55
598.995	577.151
602.37	570.554
605.744	581.133
609.119	590.187
612.494	600.214
615.869	581.383
619.244	606.422
622.619	586.595
625.993	607.776
629.368	585.301
632.743	604.175
636.118	621.424
639.493	614.312
642.867	643.111
646.242	627.474
649.617	627.052
652.992	628.576
656.367	619.144
659.741	611.534
663.116	645.414
666.491	614.292
669.866	637.67
673.241	615.306
676.616	641.891
679.99	647.331
683.365	640.918
686.74	642.183
690.115	642.357
693.49	625.946
696.865	641.803
700.239	643.687
703.614	630.072
706.989	672.916
710.364	663.405
713.739	637.245
717.113	671.981
720.488	678.587
723.863	694.31
727.238	666.367
730.613	669.247
733.987	674.386
737.362	679.632
740.737	697.753
744.112	636.889
747.487	681.204
750.862	664.376
754.236	686.668
757.611	686.719
760.986	701.786
764.361	687.491
767.736	666.638
771.111	679.479
774.485	699.96
777.86	694.889
781.235	687.697
784.61	698.891
787.985	688.662
791.359	684.575
794.734	706.795
798.109	681.121
801.484	683.138
804.859	694.988
808.234	720.217
811.608	717.05
814.983	716.51
818.358	714.172
821.733	712.885
825.108	732.114
828.482	711.074
831.857	728.267
835.232	698.288
838.607	731.312
841.982	726.857
845.356	734.182
848.731	742.346
852.106	746.429
855.481	758.59
858.856	752.316
862.231	735.048
865.605	760.193
868.98	759.09
872.355	750.5
875.73	745.774
879.105	728.857
882.48	753.971
885.854	800.998
889.229	767.42
892.604	756.249
895.979	765.091
899.354	787.345
902.729	761.866
906.103	786.369
909.478	782.159
912.853	806.092
916.228	799.798
919.602	771.391
922.977	765.218
926.352	794.497
929.727	794.059
933.102	774.188
936.477	793.657
939.851	810.108
943.226	798.545
946.601	790.091
949.976	797.247
953.351	802.925
956.726	803.25
960.1	799.095
963.475	816.899
966.85	814.326
970.225	796.519
973.6	844.778
976.974	809.349
980.349	823.899
983.724	820.656
987.099	815.545
990.474	831.001
993.848	817.95
997.223	833.109
1000.6	830.753
1003.97	850.523
1007.35	833.893
1010.72	834.98
1014.1	854.422
1017.47	861.904
1020.85	845.788
1024.22	829.963
1027.6	835.978
1030.97	865.899
1034.35	856.663
1037.72	876.162
1041.1	872.502
1044.47	876.785
1047.85	864.113
1051.22	880.03
1054.6	883.406
1057.97	884.791
1061.35	899.384
1064.72	878.575
1068.09	891.789
1071.47	892.636
1074.84	887.46
1078.22	873.645
1081.59	891.2
1084.97	893.466
1088.34	908.173
1091.72	908.136
1095.09	914.876
1098.47	878.595
1101.84	913.571
1105.22	919.316
1108.59	908.722
1111.97	906.86
1115.34	900.867
1118.72	914.501
1122.09	909.9
1125.47	911.895
1128.84	902.291
1132.22	921.998
1135.59	915.677
1138.97	912.274
1142.34	908.988
1145.71	906.312
1149.09	914.594
1152.46	930.256
1155.84	919.311
1159.21	940.654
1162.59	930.091
1165.96	936.823
1169.34	929.291
1172.71	956.946
1176.09	959.36
1179.46	945.72
1182.84	979.1
1186.21	980.184
1189.59	931.373
1192.96	971.708
1196.34	959.194
1199.71	960.818
1203.09	965.77
1206.46	970.327
1209.84	973.755
1213.21	983.142
1216.59	978.892
1219.96	1000.5
1223.34	989.774
1226.71	989.845
1230.09	959.731
1233.46	979.402
1236.84	978.949
1240.21	1003.68
1243.59	996.776
1246.96	1022.4
1250.34	999.72
1253.71	1018.4
1257.08	1015.15
1260.46	1024.71
1263.83	1047.44
1267.21	1013.22
1270.58	1013.44
1273.96	1052.13
1277.33	1011.06
1280.71	1026.78
1284.08	1044.43
1287.46	1036.6
1290.83	1012.99
1294.21	1041.74
1297.58	1025.86
1300.96	1028.83
1304.33	1050.12
1307.71	1044.11
1311.08	1057.87
1314.46	1057.56
