Measurement: Raman, 785 nm, unoriented, Raman Data RAW
Mineral: Lead
Rruff sample: R070193
Ideal chemistry: Pb
Locality: Langban, Filipstad, Varmland, Sweden
Source: James Shigley
Description: Gray metallic
Raman shift (cm-1)	intensity
125.166	471.007
128.059	909.285
130.952	1745.74
133.845	1944.57
136.737	1245.08
139.63	916.606
142.523	922.61
145.415	1198.34
148.308	1498.4
151.201	1565.39
154.093	1025.25
156.986	881.004
159.879	946.385
162.772	869.672
165.664	729.712
168.557	654.644
171.45	591.136
174.342	561.297
177.235	542.53
180.128	471.99
183.02	426.613
185.913	417.701
188.806	436.2
191.698	387.38
194.591	402.191
197.484	378.425
200.377	324.525
203.269	327.788
206.162	305.429
209.055	280.796
211.947	265.708
214.84	284.488
217.733	263.841
220.625	265.118
223.518	251.99
226.411	223.767
229.304	219.279
232.196	211.98
235.089	224.159
237.982	203.953
240.874	210.728
243.767	211.131
246.66	197.66
249.553	202.697
252.445	194.459
255.338	203.231
258.231	201.691
261.123	202.125
264.016	184.889
266.909	181.891
269.801	199.684
272.694	186.486
275.587	193.232
278.479	180.302
281.372	183.381
284.265	181.576
287.158	188.87
290.05	171.015
292.943	184.115
295.836	174.518
298.728	181.175
301.621	183.228
304.514	175.264
307.406	171.285
310.299	176.225
313.192	179.855
316.085	177.914
318.977	177.563
321.87	173.773
324.763	173.627
327.655	171.808
330.548	174.5
333.441	176.023
336.334	180.54
339.226	165.364
342.119	183.067
345.012	177.071
347.904	178.007
350.797	170.329
353.69	175.871
356.582	165.065
359.475	171.97
362.368	162.537
365.26	173.359
368.153	174.832
371.046	170.523
373.939	161.608
376.831	164.617
379.724	170.838
382.617	173.895
385.509	180.316
388.402	175.848
391.295	163.958
394.188	176.251
397.08	176.517
399.973	178.076
402.866	165.767
405.758	161.374
408.651	165.503
411.544	181.57
414.436	173.52
417.329	167.779
420.222	167.218
423.115	167.769
426.007	166.297
428.9	162.291
431.793	171.753
434.685	168.087
437.578	159.273
440.471	172.094
443.363	177.462
446.256	168.511
449.149	169.531
452.041	178.952
454.934	169.064
457.827	161.598
460.72	169.128
463.612	168.069
466.505	159.477
469.398	162.369
472.29	163.981
475.183	165.183
478.076	171.766
480.969	173.548
483.861	173.702
486.754	166.942
489.647	163.773
492.539	160.3
495.432	172.933
498.325	176.045
501.217	171.094
504.11	164.339
507.003	175.009
509.896	165.409
512.788	174.775
515.681	159.471
518.574	164.276
521.466	173.819
524.359	169.09
527.252	163.042
530.144	161.062
533.037	183.154
535.93	176.385
538.822	170.721
541.715	169.852
544.608	165.454
547.501	170.134
550.393	166.931
553.286	173.714
556.179	171.3
559.071	168.583
561.964	176.912
564.857	169.453
567.75	175.629
570.642	178.705
573.535	166.937
576.428	175.966
579.32	177.739
582.213	180.986
585.106	167.631
587.998	165.75
590.891	164.942
593.784	167.448
596.677	164.923
599.569	169.904
602.462	160.897
605.355	174.339
608.247	178.172
611.14	171.509
614.033	169.11
616.925	171.286
619.818	182.307
622.711	172.732
625.604	168.843
628.496	176.224
631.389	169.19
634.282	167.442
637.174	160.353
640.067	172.227
642.96	167.374
645.852	178.437
648.745	172.722
651.638	167.775
654.53	174.084
657.423	159.522
660.316	183.136
663.209	168.897
666.101	181.5
668.994	177.131
671.887	187.014
674.779	184.225
677.672	182.123
680.565	173.306
683.457	179.499
686.35	187.07
689.243	182.54
692.136	185.758
695.028	183.743
697.921	178.609
700.814	181.356
703.706	185.618
706.599	177.232
709.492	170.459
712.385	192.998
715.277	181.299
718.17	178.492
721.063	188.528
723.955	184.423
726.848	183.129
729.741	187.106
732.633	185.485
735.526	186.395
738.419	168.872
741.312	192.437
744.204	194.913
747.097	179.096
749.99	183.444
752.882	181.852
755.775	173.025
758.668	183.971
761.56	181.101
764.453	181.239
767.346	189.032
770.239	180.488
773.131	175.337
776.024	181.03
778.917	182.835
781.809	178.354
784.702	185.242
787.595	177.338
790.487	179.374
793.38	185.271
796.273	169.163
799.165	182.114
802.058	180.363
804.951	180.524
807.844	183.467
810.736	191.508
813.629	182.65
816.522	188.167
819.414	182.43
822.307	182.495
825.2	184.503
828.092	183.255
830.985	190.085
833.878	193.793
836.771	191.029
839.663	185.22
842.556	185.08
845.449	179.673
848.341	195.452
851.234	186.458
854.127	179.621
857.019	177.94
859.912	181.367
862.805	191.951
865.698	190.442
868.59	189.342
871.483	186.715
874.376	176.155
877.268	189.048
880.161	175.541
883.054	184.894
885.947	191.161
888.839	189.221
891.732	197.473
894.625	184.26
897.517	188.885
900.41	199.273
903.303	184.521
906.195	184.557
909.088	185.779
911.981	193.527
914.874	180.231
917.766	186.94
920.659	192.443
923.552	191.998
926.444	197.249
929.337	190.901
932.23	186.229
935.122	181.724
938.015	193.641
940.908	182.21
943.801	176.411
946.693	183.371
949.586	179.497
952.479	192.377
955.371	180.924
958.264	187.46
961.157	191.21
964.049	183.831
966.942	183.4
969.835	187.248
972.727	183.149
975.62	193.054
978.513	194.573
981.406	191.994
984.298	181.256
987.191	188.001
990.084	192.894
992.976	183.881
995.869	185.13
998.762	184.187
1001.65	180.292
1004.55	193.668
1007.44	192.434
1010.33	191.483
1013.23	173.39
1016.12	192.321
1019.01	183.968
1021.9	188.618
1024.8	191.573
1027.69	194.545
1030.58	186.729
1033.47	187.5
1036.37	193.483
1039.26	191.518
1042.15	190.077
1045.05	194.16
1047.94	197.144
1050.83	194.744
1053.72	198.23
1056.62	190.474
1059.51	202.317
1062.4	185.617
1065.29	196.362
1068.19	185.192
1071.08	188.24
1073.97	195.367
1076.87	177.524
1079.76	189.052
1082.65	205.755
1085.54	193.079
1088.44	196.529
1091.33	186.313
1094.22	191.74
1097.11	198.103
1100.01	191.541
1102.9	191.516
1105.79	192.725
1108.68	190.737
1111.58	199.984
1114.47	189.838
1117.36	194.194
1120.26	193.824
1123.15	196.843
1126.04	201.113
1128.93	195.247
1131.83	195.075
1134.72	200.591
1137.61	184.992
1140.5	192.801
1143.4	189.611
1146.29	198.14
1149.18	199.186
1152.08	197.086
1154.97	196.651
1157.86	197.351
1160.75	195.417
1163.65	193.698
1166.54	184.322
1169.43	186.618
1172.32	191.007
1175.22	188.36
1178.11	194.078
1181	205.905
1183.89	197.506
1186.79	189.322
1189.68	186.531
1192.57	183.387
1195.46	206.597
1198.36	199.943
1201.25	197.936
1204.14	187.572
1207.04	193.006
1209.93	194.882
1212.82	187.266
1215.71	193.131
1218.61	199.979
1221.5	187.612
1224.39	205.114
1227.29	194.334
1230.18	184.228
1233.07	190.896
1235.96	194.321
1238.86	202.998
1241.75	180.084
