Measurement: Raman, 532 nm, unoriented, Raman Data RAW
Mineral: Lead
Rruff sample: R070193
Ideal chemistry: Pb
Locality: Langban, Filipstad, Varmland, Sweden
Source: James Shigley
Description: Gray metallic
Raman shift (cm-1)	intensity
140.057	358.83
143.432	329.086
146.807	335.582
150.182	309.882
153.556	287.902
156.931	278.247
160.306	247.943
163.681	269.496
167.056	257.39
170.431	273.392
173.805	272.073
177.18	258.143
180.555	264.601
183.93	255.969
187.305	293.462
190.679	276.367
194.054	275.93
197.429	259.18
200.804	281.829
204.179	250.163
207.554	259.07
210.928	258.801
214.303	256.511
217.678	252.417
221.053	242.452
224.428	246.01
227.802	246.842
231.177	268.547
234.552	254.925
237.927	253.506
241.302	252.987
244.677	261.046
248.051	260.675
251.426	268.14
254.801	257.05
258.176	277.486
261.551	263.454
264.925	270.457
268.3	300.096
271.675	299.206
275.05	305.93
278.425	308.767
281.8	322.412
285.174	313.522
288.549	322.911
291.924	321.882
295.299	307.775
298.674	280.238
302.048	284.701
305.423	293.288
308.798	280.022
312.173	310.819
315.548	274.569
318.923	300.124
322.297	284.281
325.672	304.247
329.047	291.743
332.422	291.662
335.797	298.575
339.171	290.653
342.546	299.119
345.921	294.511
349.296	303.032
352.671	298.456
356.046	285.165
359.42	304.187
362.795	319.379
366.17	306.7
369.545	302.658
372.92	308.269
376.294	311.339
379.669	316.648
383.044	315.437
386.419	314.035
389.794	288.894
393.168	307.11
396.543	309.463
399.918	325.732
403.293	320.063
406.668	312.383
410.043	324.665
413.417	330.331
416.792	323.332
420.167	336.049
423.542	313.591
426.917	322.995
430.291	327.937
433.666	310.008
437.041	336.533
440.416	327.184
443.791	328.514
447.166	334.875
450.54	340.895
453.915	345.808
457.29	344.639
460.665	342.571
464.04	345.025
467.414	330.411
470.789	346.742
474.164	337.236
477.539	338.946
480.914	326.996
484.289	355.617
487.663	340.698
491.038	347.531
494.413	351.179
497.788	365.299
501.163	363.768
504.538	357.688
507.912	370.365
511.287	374.221
514.662	356.479
518.037	333.671
521.412	339.335
524.786	355.545
528.161	351.266
531.536	386.878
534.911	376.286
538.286	378.852
541.66	371.493
545.035	368.702
548.41	396.899
551.785	390.346
555.16	398.525
558.534	371.001
561.909	374.935
565.284	369.463
568.659	363.288
572.034	377.25
575.409	391.405
578.783	389.858
582.158	401.048
585.533	409.093
588.908	413.692
592.283	395.303
595.658	393.599
599.032	400.655
602.407	387.644
605.782	406.067
609.157	389.338
612.532	408.591
615.906	408.142
619.281	397.141
622.656	397.587
626.031	431.433
629.406	418.985
632.78	410.724
636.155	433.737
639.53	430.698
642.905	416.53
646.28	407.806
649.655	401.869
653.029	423.801
656.404	433.816
659.779	447.405
663.154	442.972
666.529	447.235
669.904	446.788
673.278	447.016
676.653	434.802
680.028	447.613
683.403	449.479
686.778	442.944
690.152	444.123
693.527	431.738
696.902	439.685
700.277	447.545
703.652	459.84
707.027	454.599
710.401	452.613
713.776	455.582
717.151	466.562
720.526	454.187
723.901	437.747
727.275	481.331
730.65	455.005
734.025	474.307
737.4	459.568
740.775	446.578
744.149	471.8
747.524	486.342
750.899	455.248
754.274	483.504
757.649	471.219
761.024	472.703
764.398	476.077
767.773	477.992
771.148	462.413
774.523	466.686
777.898	493.546
781.273	478.55
784.647	492.749
788.022	487.653
791.397	489.544
794.772	482.217
798.146	508.338
801.521	506.42
804.896	482.408
808.271	492.935
811.646	487.207
815.021	477.215
818.395	472.551
821.77	480.55
825.145	506.113
828.52	492.916
831.895	491.527
835.269	493.873
838.644	496.798
842.019	499.344
845.394	508.201
848.769	499.88
852.144	503.121
855.519	518.341
858.893	506.04
862.268	508.065
865.643	546.272
869.018	502.073
872.393	513.406
875.767	518.26
879.142	537.46
882.517	538.309
885.892	526.851
889.267	521.831
892.641	533.058
896.016	530.734
899.391	514.355
902.766	527.126
906.141	527.802
909.516	532.297
912.89	547.538
916.265	547.622
919.64	564.787
923.015	531.82
926.39	536.228
929.764	541.736
933.139	553.422
936.514	532.923
939.889	550.423
943.264	554.447
946.639	563.648
950.013	559.153
953.388	553.105
956.763	564.305
960.138	543.939
963.513	583.635
966.888	553.274
970.262	537.779
973.637	564.293
977.012	550.847
980.387	570.638
983.761	570.017
987.136	581.26
990.511	572.894
993.886	583.413
997.261	575.477
1000.64	591.101
1004.01	595.332
1007.38	586.636
1010.76	577.53
1014.13	568.132
1017.51	577.375
1020.88	580.713
1024.26	576.227
1027.63	556.842
1031.01	601.374
1034.38	597.308
1037.76	613.071
1041.13	588.395
1044.51	598.822
1047.88	575.185
1051.26	600.534
1054.63	589.324
1058.01	598.691
1061.38	603.427
1064.76	594.338
1068.13	601.801
1071.51	602.459
1074.88	617.812
1078.26	605.627
1081.63	615.927
1085.01	593.727
1088.38	602.9
1091.76	594.835
1095.13	600.374
1098.51	591.957
1101.88	595.499
1105.26	610.842
1108.63	622.285
1112.01	608.399
1115.38	609.657
1118.75	620.067
1122.13	619.778
1125.5	631.882
1128.88	612.192
1132.25	620.858
1135.63	608.948
1139	601.334
1142.38	609.884
1145.75	608.359
1149.13	636.1
1152.5	611.237
1155.88	613.732
1159.25	646.866
1162.63	623.192
1166	641.365
1169.38	624.653
1172.75	640.239
1176.13	629.831
1179.5	641.847
1182.88	635.525
1186.25	647.731
1189.62	629.698
1193	633.043
1196.38	643.882
1199.75	638.063
1203.12	648.863
1206.5	639.538
1209.87	611.79
1213.25	654.164
1216.62	639.539
1220	656.122
1223.37	644.421
1226.75	665.343
1230.12	674.864
1233.5	638.34
1236.87	670.207
1240.25	638.305
1243.62	660.148
1247	639.023
1250.37	645.003
1253.75	685.253
1257.12	670.929
1260.5	677.81
1263.87	657.407
1267.25	674.509
1270.62	668.741
1274	675.073
1277.37	669.383
1280.74	644.928
1284.12	662.816
1287.49	651.282
1290.87	674.549
1294.24	682.506
1297.62	663.558
1300.99	681.083
1304.37	694.327
1307.74	702.527
1311.12	699.832
1314.49	670.332
