Measurement: Raman, 785 nm, unoriented, Raman Data RAW
Mineral: Lead
Rruff sample: R070280
Ideal chemistry: Pb
Locality: Laurion, Greece
Source: Michael Scott
Description: Dark gray platy associated with quartz
Raman shift (cm-1)	intensity
123.43	234.688
126.323	301.499
129.215	397.915
132.108	518.949
135.001	665.133
137.893	807.314
140.786	886.094
143.679	948.598
146.572	982.933
149.464	1078.5
152.357	1174.85
155.25	1263.26
158.142	1218.73
161.035	1254.76
163.928	1242.93
166.821	1211.47
169.713	1171.21
172.606	1153.78
175.499	1141.73
178.391	1095.08
181.284	1071.38
184.177	1038.58
187.069	1104.24
189.962	1084.26
192.855	1011.14
195.748	1032.81
198.64	1023.42
201.533	1041.84
204.426	1001.87
207.318	1022.31
210.211	967.701
213.104	927.343
215.996	892.815
218.889	892.005
221.782	900.096
224.674	907.464
227.567	900.194
230.46	880.942
233.353	896.668
236.245	896.345
239.138	895.695
242.031	884.151
244.923	882.227
247.816	859.605
250.709	863.523
253.601	867.185
256.494	896.536
259.387	857.356
262.28	871.926
265.172	859.6
268.065	852.61
270.958	874.484
273.85	877.4
276.743	891.044
279.636	895.886
282.529	894.944
285.421	879.888
288.314	882.145
291.207	912.981
294.099	876.807
296.992	881.035
299.885	870.049
302.777	894.762
305.67	870.913
308.563	898.213
311.455	884.555
314.348	866.084
317.241	892.918
320.134	854.562
323.026	889.425
325.919	901.375
328.812	868.636
331.704	888.327
334.597	858.369
337.49	903.285
340.382	869.305
343.275	879.031
346.168	883.49
349.061	880.837
351.953	939.158
354.846	914.316
357.739	865.863
360.631	892.629
363.524	904.64
366.417	923.792
369.31	900.596
372.202	908.122
375.095	899.559
377.988	916.562
380.88	906.533
383.773	912.465
386.666	937.65
389.558	890.275
392.451	891.507
395.344	939.332
398.236	895.877
401.129	910.797
404.022	899.739
406.915	898.719
409.807	890.278
412.7	928.34
415.593	935.388
418.485	907.71
421.378	929.974
424.271	940.193
427.163	952.041
430.056	928.096
432.949	957.577
435.842	941.198
438.734	950.749
441.627	929.44
444.52	951.764
447.412	956.604
450.305	992.59
453.198	936.017
456.091	955.827
458.983	932.964
461.876	945.102
464.769	971.477
467.661	973.812
470.554	942.669
473.447	928.891
476.339	953.994
479.232	961.488
482.125	958.735
485.017	965.661
487.91	953.272
490.803	983.215
493.696	980.716
496.588	998.178
499.481	981.193
502.374	954.857
505.266	963.365
508.159	983.677
511.052	964.024
513.944	982.807
516.837	994.684
519.73	937.649
522.623	941.248
525.515	933.712
528.408	963.366
531.301	958.799
534.193	971.315
537.086	987.627
539.979	960.321
542.871	958.339
545.764	958.112
548.657	975.79
551.55	946.648
554.442	996.289
557.335	980.576
560.228	967.552
563.12	981.734
566.013	973.784
568.906	971.83
571.798	957.935
574.691	934.851
577.584	959.115
580.477	956.351
583.369	997.925
586.262	979.957
589.155	988.16
592.047	985.368
594.94	1016.07
597.833	984.74
600.726	993.576
603.618	988.254
606.511	987.977
609.404	1019.27
612.296	993
615.189	998.106
618.082	978.386
620.974	990.425
623.867	1004
626.76	1023.74
629.653	1010.15
632.545	993.047
635.438	1004.32
638.331	1003.23
641.223	1000.82
644.116	1038.76
647.009	1011.24
649.901	1014.28
652.794	998.786
655.687	1038.64
658.58	1032.55
661.472	1004.29
664.365	1008.8
667.258	1038.71
670.15	1007.23
673.043	1052.26
675.936	1055.2
678.828	1050.86
681.721	1004.75
684.614	1054.46
687.506	1014.4
690.399	1020.12
693.292	1002.64
696.185	1048.46
699.077	1019.27
701.97	1018.96
704.863	1047.71
707.755	1059.39
710.648	1037.97
713.541	1024.55
716.433	1054.45
719.326	1070.39
722.219	1089.52
725.112	1054.51
728.004	1067.07
730.897	1034.12
733.79	1046.95
736.682	1029.27
739.575	1052.35
742.468	1055.92
745.361	1056.91
748.253	1035.52
751.146	1042.49
754.039	1069.61
756.931	1056.69
759.824	1060.62
762.717	1037.1
765.609	1022.81
768.502	1077.18
771.395	1030.02
774.288	1079.06
777.18	1033.21
780.073	1055.39
782.966	1017.08
785.858	1073.81
788.751	1064.85
791.644	1073.98
794.536	1072.51
797.429	1073.7
800.322	1073.17
803.215	1047.53
806.107	1080.61
809	1045.79
811.893	1043.75
814.785	1045.15
817.678	1077.43
820.571	1043.43
823.463	1052.84
826.356	1082.49
829.249	1080.78
832.141	1050.91
835.034	1082.58
837.927	1081.43
840.82	1067.53
843.712	1075.91
846.605	1049.71
849.498	1071.77
852.39	1045.98
855.283	1097.75
858.176	1061.12
861.068	1084.17
863.961	1077.33
866.854	1055.83
869.747	1096.71
872.639	1060.79
875.532	1086.34
878.425	1097.12
881.317	1088.25
884.21	1066.68
887.103	1066.01
889.995	1044.62
892.888	1078.32
895.781	1091.05
898.674	1074.13
901.566	1094.49
904.459	1085.04
907.352	1047.84
910.244	1088.25
913.137	1082.57
916.03	1077.44
918.923	1078.01
921.815	1106.04
924.708	1092.15
927.601	1075.93
930.493	1066.29
933.386	1080.96
936.279	1101.5
939.171	1106.22
942.064	1102.64
944.957	1099.68
947.85	1077.34
950.742	1096.53
953.635	1096.33
956.528	1071.81
959.42	1108.41
962.313	1069.1
965.206	1052.45
968.098	1083.72
970.991	1098.58
973.884	1095.74
976.777	1097.1
979.669	1088.14
982.562	1111.85
985.455	1105.67
988.347	1086.17
991.24	1112.02
994.133	1089.21
997.025	1092.49
999.918	1093.84
1002.81	1087.97
1005.7	1120.3
1008.6	1073.3
1011.49	1107.84
1014.38	1079.84
1017.27	1090.94
1020.17	1095.42
1023.06	1090.96
1025.95	1098.64
1028.85	1139.18
1031.74	1118.67
1034.63	1079.06
1037.52	1116.33
1040.42	1098.04
1043.31	1071.7
1046.2	1138.96
1049.09	1074.8
1051.99	1090.09
1054.88	1137.66
1057.77	1101.64
1060.66	1115.75
1063.56	1093.13
1066.45	1095.18
1069.34	1096.44
1072.24	1078.38
1075.13	1097.82
1078.02	1100.28
1080.91	1078.15
1083.81	1066.63
1086.7	1075.42
1089.59	1094.58
1092.48	1099.56
1095.38	1091.21
1098.27	1105.51
1101.16	1120.41
1104.06	1115.32
1106.95	1079.42
1109.84	1097.8
1112.73	1129.46
1115.63	1135.18
1118.52	1151.38
1121.41	1064.83
1124.3	1085.39
1127.2	1129.46
1130.09	1097.89
1132.98	1115.02
1135.88	1127.29
1138.77	1104.48
1141.66	1113.48
1144.55	1100.85
1147.45	1090.32
1150.34	1132.42
1153.23	1093.78
1156.12	1071.21
1159.02	1115.75
1161.91	1086.09
1164.8	1064.49
1167.69	1076.14
1170.59	1109.56
1173.48	1081.25
1176.37	1096.16
1179.27	1077.13
1182.16	1097.77
1185.05	1092.67
1187.94	1093.45
1190.84	1113.96
1193.73	1090.83
1196.62	1074.34
1199.51	1090.62
1202.41	1138.26
1205.3	1092.75
1208.19	1078.13
1211.09	1107.99
1213.98	1087.56
1216.87	1118.63
1219.76	1120.25
1222.66	1104.61
1225.55	1089.56
1228.44	1043.04
1231.33	1104.81
1234.23	1096.48
1237.12	1112.69
1240.01	1113.62
1242.9	1054.81
