Measurement: Raman, 780 nm, unoriented, Raman Data RAW
Mineral: Lefontite
Rruff sample: R140428
Ideal chemistry: Fe^2+^_2_Al_2_Be(PO_4_)_2_(OH)_6_
Locality: João Teodoro mine, Linópolis district, Divino das Laranjeiras, Minas Gerais, Brazil
Source: Michael Scott
Description: Brown prismatic crystals, associated with light-brown greifensteinite (R060588), dark green acicular gormanite (R080075), and white fine-grained leucophosphite. Type sample.
Measured chemistry: (Fe_1.51_Mn_0.39_Mg_0.06_Ca_0.03_)_Σ=1.99_Al_1.99_(Be_1.02_Li_0.08_)(P_0.99_O_4_)_2_(OH)_6_ ; The BeO and Li2O were determined by ICP-MS.
Raman shift (cm-1)	intensity
94.9347	554.481
98.3096	549.104
101.684	533.794
105.059	534.271
108.434	527.187
111.809	515.64
115.184	501.651
118.558	479.205
121.933	464.213
125.308	445.975
128.683	437.346
132.058	428.164
135.433	419.428
138.807	416.122
142.182	407.601
145.557	404.868
148.932	399.091
152.307	398.588
155.681	398.09
159.056	399.196
162.431	398.723
165.806	399.65
169.181	400.563
172.555	399.784
175.93	402.031
179.305	403.966
182.68	409.282
186.055	414.59
189.43	417.827
192.804	423.38
196.179	423.009
199.554	422.851
202.929	420.746
206.304	414.367
209.678	406.987
213.053	404.764
216.428	400.104
219.803	396.47
223.178	396.602
226.553	391.486
229.927	386.402
233.302	380.987
236.677	376.739
240.052	369.527
243.427	361.802
246.801	359.181
250.176	351.817
253.551	347.57
256.926	343.197
260.301	340.035
263.675	337.923
267.05	339.2
270.425	336.227
273.8	333.647
277.175	333.786
280.55	332.951
283.924	332.526
287.299	332.006
290.674	336.047
294.049	337.525
297.424	340.194
300.798	341.921
304.173	343.579
307.548	343.866
310.923	337.985
314.298	337.418
317.673	331.639
321.047	327.276
324.422	321.107
327.797	315.914
331.172	311.083
334.547	305.572
337.921	301.478
341.296	296.099
344.671	291.877
348.046	289.454
351.421	285.365
354.796	281.941
358.17	279.297
361.545	276.698
364.92	276.203
368.295	276.548
371.67	278.71
375.044	278.805
378.419	281.223
381.794	283.379
385.169	285.523
388.544	284.334
391.918	283.74
395.293	282.122
398.668	282.965
402.043	284.959
405.418	283.872
408.793	286.396
412.167	291.572
415.542	293.725
418.917	297.307
422.292	298.19
425.667	300.125
429.041	298.516
432.416	294.643
435.791	292.35
439.166	287.335
442.541	283.33
445.915	280.532
449.29	275.284
452.665	277.153
456.04	279.961
459.415	282.583
462.789	284.037
466.164	281.089
469.539	275.807
472.914	268.989
476.289	258.863
479.664	254.174
483.038	251.22
486.413	252.223
489.788	248.205
493.163	251.221
496.538	251.585
499.913	251.495
503.287	252.991
506.662	253.447
510.037	250.035
513.412	246.158
516.787	241.393
520.161	236.877
523.536	232.869
526.911	230.586
530.286	226.324
533.661	224.947
537.035	225.282
540.41	223.508
543.785	222.87
547.16	224.519
550.535	225.499
553.909	227.849
557.284	230.541
560.659	232.374
564.034	234.437
567.409	235.013
570.784	236.878
574.158	236.6
577.533	239.04
580.908	242.122
584.283	250
587.658	255.979
591.033	270.894
594.407	288.782
597.782	308.678
601.157	322.507
604.532	322.829
607.907	308.528
611.281	287.626
614.656	266.751
618.031	246.875
621.406	235.878
624.781	226.137
628.155	218.96
631.53	214.058
634.905	211.2
638.28	209.114
641.655	205.666
645.029	204.487
648.404	199.797
651.779	197.58
655.154	190.608
658.529	187.571
661.904	182.688
665.278	178.069
668.653	172.859
672.028	168.664
675.403	165.776
678.778	162.925
682.153	160.341
685.527	157.984
688.902	155.971
692.277	156.339
695.652	153.716
699.027	152.594
702.401	152.483
705.776	149.902
709.151	149.559
712.526	147.893
715.901	146.592
719.275	146.772
722.65	145.365
726.025	142.658
729.4	142.424
732.775	141.177
736.149	140.777
739.524	139.043
742.899	136.733
746.274	135.511
749.649	133.903
753.024	132.697
756.398	132.43
759.773	130.315
763.148	130.093
766.523	128.69
769.898	127.606
773.273	125.569
776.647	124.217
780.022	123.603
783.397	123.153
786.772	123.463
790.146	121.965
793.521	120.951
796.896	120.397
800.271	121.191
803.646	121.408
807.021	120.462
810.395	121.102
813.77	119.771
817.145	120.85
820.52	119.571
823.895	119.48
827.269	120.94
830.644	119.53
834.019	120.474
837.394	119.496
840.769	120.78
844.144	119.795
847.518	121.198
850.893	120.401
854.268	120.183
857.643	121.46
861.018	122.014
864.393	122.316
867.767	120.962
871.142	121.842
874.517	122.856
877.892	122.615
881.266	123.109
884.641	123.706
888.016	123.829
891.391	124.479
894.766	125.57
898.141	126.67
901.515	127.443
904.89	127.388
908.265	128.806
911.64	131.834
915.015	131.664
918.389	134.941
921.764	136.881
925.139	141.033
928.514	143.212
931.889	146.911
935.264	152.451
938.638	157.602
942.013	162.556
945.388	167.073
948.763	174.216
952.138	183.77
955.512	194.302
958.887	210.018
962.262	232.151
965.637	260.327
969.012	287.532
972.386	301.844
975.761	304.141
979.136	298.157
982.511	290.138
985.886	280.365
989.261	269.435
992.635	259.987
996.01	251.659
999.385	244.187
1002.76	237.63
1006.13	230.821
1009.51	223.94
1012.88	217.559
1016.26	210.288
1019.63	207.362
1023.01	200.919
1026.38	195.962
1029.76	194.203
1033.13	188.672
1036.51	187.184
1039.88	186.54
1043.26	187.506
1046.63	183.775
1050.01	185.517
1053.38	183.619
1056.76	183.565
1060.13	183.066
1063.51	181.427
1066.88	178.715
1070.26	176.569
1073.63	173.208
1077.01	169.038
1080.38	165.82
1083.76	164.102
1087.13	160.436
1090.51	157.133
1093.88	155.407
1097.26	154.987
1100.63	151.827
1104	151.224
1107.38	150.372
1110.75	149.879
1114.13	146.32
1117.5	143.708
1120.88	142.359
1124.25	140.377
1127.63	137.597
1131	134.82
1134.38	131.49
1137.75	127.688
1141.13	125.088
1144.5	122.003
1147.88	120.779
1151.25	117.023
1154.63	115.521
1158	114.198
1161.38	113.146
1164.75	110.389
1168.13	109.167
1171.5	108.424
1174.88	108.16
1178.25	107.104
1181.62	105.335
1185	104.114
1188.38	104.309
1191.75	102.659
1195.12	103.843
1198.5	102.143
1201.87	102.298
1205.25	100.008
1208.62	99.1522
1212	98.9761
1215.37	98.1781
1218.75	97.9027
1222.12	97.383
1225.5	98.5552
1228.87	99.3921
1232.25	96.6694
1235.62	97.0327
1239	95.3309
1242.37	96.3814
1245.75	97.3947
1249.12	96.0847
1252.5	95.4168
1255.87	94.3868
1259.25	95.513
1262.62	96.3413
1265.99	96.1295
1269.37	97.9715
1272.74	96.3453
1276.12	96.1095
1279.49	96.0499
1282.87	96.0365
