Measurement: Raman, 780 nm, unoriented, Raman Data RAW
Mineral: Lefontite
Rruff sample: R140074
Ideal chemistry: Fe^2+^_2_Al_2_Be(PO_4_)_2_(OH)_6_
Locality: Galiléia, Minas Gerais, Brazil
Source: Bob Jenkins
Description: Reddish brown elongated crystals. Associated with ushkovite (R060954), atencioite, rockbridgeite, and albite.
Measured chemistry: (Fe_1.02_Mn_0.81_Ca_0.13_Mg_0.04_)_Σ=2.00_Al_1.99_(Be_1.02_Li_0.08_)(P_0.99_O_4_)_2_(OH)_6_ ; The BeO and Li2O contents were taken from R140428, which were determined by ICP-MS.
Raman shift (cm-1)	intensity
112.773	957.195
116.148	940.15
119.523	919.429
122.897	909.891
126.272	890.397
129.647	877.96
133.022	861.328
136.397	849.144
139.772	838.472
143.146	826.651
146.521	818.003
149.896	808.516
153.271	805.344
156.646	800.3
160.02	795.821
163.395	798.081
166.77	795.232
170.145	796.613
173.52	798.225
176.894	802.675
180.269	807.01
183.644	815.405
187.019	821.111
190.394	827.328
193.769	832.985
197.143	835.383
200.518	834.139
203.893	829.076
207.268	829.921
210.643	820.3
214.018	817.635
217.392	813.644
220.767	807.754
224.142	799.311
227.517	787.655
230.892	773.137
234.266	759.544
237.641	745.438
241.016	726.069
244.391	714.751
247.766	702.527
251.14	688.058
254.515	679.988
257.89	666.209
261.265	660.304
264.64	652.619
268.014	651.244
271.389	643.706
274.764	642.752
278.139	641.712
281.514	640.961
284.889	642.629
288.263	641.2
291.638	645.124
295.013	643.873
298.388	643.071
301.763	636.483
305.137	629.401
308.512	623.2
311.887	611.231
315.262	599.715
318.637	587.906
322.012	577.301
325.386	564.45
328.761	553.69
332.136	543.559
335.511	536.606
338.886	532.194
342.26	526.352
345.635	523.126
349.01	519.135
352.385	514.51
355.76	511.959
359.135	507.249
362.509	505.454
365.884	501.671
369.259	501.838
372.634	501.792
376.009	501.014
379.383	500.476
382.758	501.559
386.133	508.644
389.508	510.883
392.883	519.438
396.257	524.843
399.632	531.557
403.007	543.108
406.382	554.6
409.757	562.943
413.132	574.092
416.506	584.623
419.881	593.58
423.256	591.536
426.631	587.233
430.006	581.16
433.38	569.882
436.755	556.834
440.13	541.969
443.505	532.333
446.88	523.348
450.255	519.813
453.629	515.223
457.004	511.321
460.379	509.915
463.754	502.778
467.129	492.724
470.503	485.063
473.878	472.688
477.253	458.733
480.628	451.918
484.003	446.23
487.377	437.2
490.752	431.278
494.127	426.689
497.502	426.965
500.877	422.721
504.252	422.557
507.626	424.195
511.001	420.979
514.376	420.389
517.751	414.825
521.126	410.041
524.5	405.292
527.875	403.484
531.25	399.236
534.625	399.02
538	394.651
541.375	395.776
544.749	394.58
548.124	400.066
551.499	406.72
554.874	413.947
558.249	420.989
561.623	432.015
564.998	443.663
568.373	454.748
571.748	465.381
575.123	473.727
578.497	477.774
581.872	478.777
585.247	483.417
588.622	485.689
591.997	493.822
595.371	503.617
598.746	506.841
602.121	512.447
605.496	502.962
608.871	482.887
612.246	462.928
615.62	436.738
618.995	414.229
622.37	400.614
625.745	390.2
629.12	381.826
632.494	378.789
635.869	375.62
639.244	371.694
642.619	369.786
645.994	367.078
649.369	361.062
652.743	353.92
656.118	346.592
659.493	339.812
662.868	327.285
666.243	318.525
669.617	309.585
672.992	301.899
676.367	293.796
679.742	286.543
683.117	279.094
686.491	273.706
689.866	267.24
693.241	264.271
696.616	259.191
699.991	254.66
703.366	251.678
706.74	248.711
710.115	245.072
713.49	240.206
716.865	238.377
720.24	237.097
723.614	231.981
726.989	227.345
730.364	225.824
733.739	221.492
737.114	220.612
740.489	217.882
743.863	213.946
747.238	213.261
750.613	210.249
753.988	208.323
757.363	205.613
760.737	203.38
764.112	201.412
767.487	200.608
770.862	198.324
774.237	196.086
777.611	195.021
780.986	194.305
784.361	192.706
787.736	192.279
791.111	192.867
794.486	191.045
797.86	189.963
801.235	188.763
804.61	188.978
807.985	188.5
811.36	186.293
814.734	186.167
818.109	186.535
821.484	184.627
824.859	182.87
828.234	183.663
831.609	182.802
834.983	183.774
838.358	183.329
841.733	181.326
845.108	182.447
848.483	181.935
851.857	182.931
855.232	181.596
858.607	182.659
861.982	181.75
865.357	182.271
868.731	182.261
872.106	183.145
875.481	184.344
878.856	182.931
882.231	183.579
885.606	184.814
888.98	184.977
892.355	188.167
895.73	187.896
899.105	190.103
902.48	191.424
905.854	194.688
909.229	197.695
912.604	200.84
915.979	206.13
919.354	211.37
922.729	215.154
926.103	222.83
929.478	228.772
932.853	238.098
936.228	244.729
939.603	253.81
942.977	260.521
946.352	269.744
949.727	277.567
953.102	290.084
956.477	300.683
959.851	316.245
963.226	333.857
966.601	354.685
969.976	377.434
973.351	399.723
976.726	417.396
980.1	428
983.475	430.107
986.85	420.409
990.225	410.356
993.6	397.159
996.974	382.788
1000.35	368.675
1003.72	353.696
1007.1	339.233
1010.47	325.5
1013.85	313.817
1017.22	303.32
1020.6	294.151
1023.97	283.75
1027.35	276.852
1030.72	270.146
1034.1	261.222
1037.47	257.192
1040.85	250.323
1044.22	246.952
1047.6	242.369
1050.97	238.146
1054.35	233.856
1057.72	232.401
1061.1	230.544
1064.47	226.246
1067.85	224.454
1071.22	224.415
1074.6	222.344
1077.97	220.454
1081.35	220.453
1084.72	218.478
1088.09	219.88
1091.47	216.249
1094.84	214.626
1098.22	213.327
1101.59	212.541
1104.97	208.422
1108.34	209.34
1111.72	205.322
1115.09	203.08
1118.47	202.656
1121.84	198.003
1125.22	196.418
1128.59	195.318
1131.97	190.867
1135.34	187.564
1138.72	185.643
1142.09	182.535
1145.47	181.809
1148.84	177.835
1152.22	175.98
1155.59	173.308
1158.97	171.214
1162.34	171.062
1165.71	168.199
1169.09	167.328
1172.46	166.034
1175.84	163.774
1179.21	162.887
1182.59	161.374
1185.96	157.337
1189.34	157.802
1192.71	157.749
1196.09	154.785
1199.46	154.784
1202.84	155.128
1206.21	151.806
1209.59	151.332
1212.96	150.914
1216.34	150.508
1219.71	149.572
1223.09	148.172
1226.46	150.495
1229.84	148.044
1233.21	147.736
1236.59	147.893
1239.96	146.844
1243.34	146.072
1246.71	147.088
1250.09	147.531
1253.46	146.402
1256.84	146.994
1260.21	148.077
1263.59	148.271
1266.96	147.063
1270.33	147.026
1273.71	146.054
1277.08	146.942
1280.46	146.328
1283.83	146.984
