Measurement: Raman, 532 nm, unoriented, Raman Data RAW
Mineral: Leucophanite
Rruff sample: R050004
Ideal chemistry: NaCaBeSi_2_O_6_F
Locality: Langesundfjord, Norway
Source: University of Arizona Mineral Museum
Description: Pale green massive
Measured chemistry: Ca_1.00_Ca_1.00_Na_2.00_Be_2.00_Si_4.00_O_12_(F_0.96_(OH)_0.04_)_2_
Raman shift (cm-1)	intensity
142.253	4694.27
145.628	4737.12
149.002	4871.77
152.377	5107.88
155.752	5315.22
159.127	5571.43
162.502	5606.58
165.876	5603.88
169.251	5635.24
172.626	5845.64
176.001	5873.91
179.376	5881.91
182.751	5975.23
186.125	5975.29
189.5	6015.62
192.875	6257.22
196.25	6304.15
199.625	6472.22
202.999	6495.44
206.374	6506.53
209.749	6623.45
213.124	6561.7
216.499	6740.1
219.874	6719.53
223.248	6843.67
226.623	7002.5
229.998	7151.61
233.373	7087.63
236.748	7221.64
240.122	7344.18
243.497	7467.76
246.872	7642.7
250.247	7634.18
253.622	7699.15
256.997	7689.19
260.371	7792.33
263.746	7971.52
267.121	8190.69
270.496	8400.38
273.871	8423.58
277.246	8565.85
280.62	8485.62
283.995	8629.5
287.37	8649.88
290.745	8901.18
294.12	8815.22
297.494	8986.84
300.869	9134
304.244	9391.94
307.619	9789.47
310.994	10100.8
314.369	10514.2
317.743	10548.9
321.118	10137.6
324.493	10204.2
327.868	10363.1
331.243	10536.6
334.617	10797.4
337.992	11038
341.367	11395.9
344.742	11491.2
348.117	11706
351.491	11886.4
354.866	12140.3
358.241	12647.1
361.616	13038.4
364.991	13196.3
368.366	12701.8
371.741	12501.3
375.115	12739.7
378.49	12847.7
381.865	12965.8
385.24	12926.2
388.615	12799.4
391.989	12869.9
395.364	13069.6
398.739	13453.3
402.114	13733.5
405.489	14071.1
408.863	14523.1
412.238	14444.9
415.613	14452
418.988	14391.1
422.363	14633.5
425.738	14835.1
429.112	15186.2
432.487	15534.6
435.862	15998
439.237	15899.2
442.612	16003.6
445.987	15783
449.361	15932.4
452.736	16063.2
456.111	16270
459.486	16339.9
462.861	16250.6
466.235	16667.4
469.61	17047.6
472.985	17211.1
476.36	17040.7
479.735	16874
483.109	17139
486.484	17388.4
489.859	17788.7
493.234	18090.2
496.609	18588.6
499.984	18960.4
503.358	19275.4
506.733	19253.3
510.108	19199.4
513.483	19296.4
516.858	19464.1
520.232	19605.2
523.607	19813.7
526.982	20189.2
530.357	20423.2
533.732	20832.9
537.107	20940.1
540.481	20752
543.856	20662.2
547.231	20766.9
550.606	21109.7
553.981	21154.7
557.356	21401
560.73	21695.1
564.105	21904
567.48	22088.7
570.855	21942.9
574.23	22202.4
577.604	22172.4
580.979	22366.3
584.354	22411.2
587.729	22761
591.104	22952
594.479	23213.3
597.853	23491.9
601.228	23551.3
604.603	23913.5
607.978	24388.5
611.353	24894.6
614.727	25084.3
618.102	25365.9
621.477	25570.9
624.852	25931.4
628.227	26065.8
631.602	26287.6
634.976	26393.9
638.351	26866.4
641.726	27114.6
645.101	27401.9
648.476	27850
651.851	28198.2
655.225	28690.9
658.6	29230.7
661.975	29689.7
665.35	30508.3
668.724	31904.6
672.099	34211.2
675.474	37212.1
678.849	37040.1
682.224	34116.8
685.599	32857.1
688.973	32502.8
692.348	32523.4
695.723	32856.2
699.098	33211.5
702.473	33894
705.847	34401.3
709.222	34576.5
712.597	34303.5
715.972	34027
719.347	34059.4
722.722	34560.1
726.096	34516.3
729.471	34862.7
732.846	35038.3
736.221	35023.3
739.596	35228.4
742.971	35718.5
746.345	36443.1
749.72	36672.2
753.095	36709.2
756.47	37156.6
759.845	37438.3
763.219	37810.4
766.594	38168
769.969	38580.4
773.344	38633
776.719	38717.1
780.094	39050.6
783.468	39630.4
786.843	39888
790.218	40298.3
793.593	40743.9
796.968	41027
800.343	41403.6
803.717	41481.5
807.092	42261.9
810.467	42373.2
813.842	42710
817.217	42976.1
820.591	43299.4
823.966	43657.4
827.341	43972.6
830.716	44662.9
834.091	44677.1
837.466	45337.1
840.84	45763.5
844.215	46199.3
847.59	46715.2
850.965	47191.5
854.34	47623.1
857.714	48038.4
861.089	48686.7
864.464	48915.7
867.839	49405.1
871.214	49512.1
874.589	49976.5
877.963	50370.8
881.338	50692
884.713	50856.6
888.088	51522.9
891.463	51887.2
894.837	52614.5
898.212	53329.7
901.587	53349.1
904.962	53734
908.337	54135.1
911.711	54292.1
915.086	54948.9
918.461	55405.4
921.836	55819.4
925.211	56491
928.586	57105
931.96	57430.7
935.335	57699.9
938.71	58124.8
942.085	58778.5
945.46	59150.1
948.834	59573.1
952.209	60063.5
955.584	60797.9
958.959	61230.8
962.334	61797.8
965.709	62694.9
969.083	63066.5
972.458	63408.8
975.833	63766.2
979.208	64462.4
982.583	64959.7
985.958	65307.7
989.332	65805.1
992.707	66523.6
996.082	67377.5
999.457	68150.9
1002.83	69017.7
1006.21	69412.8
1009.58	70098.1
1012.96	70768.3
1016.33	72095.9
1019.71	73804.3
1023.08	76227
1026.45	77308.9
1029.83	75855.4
1033.2	76158.5
1036.58	76857.1
1039.95	78330.1
1043.33	79043.6
1046.7	80233
1050.08	81601.7
1053.45	82814.7
1056.83	84017.1
1060.2	84579.6
1063.58	84788.2
1066.95	84377.6
1070.33	84076.8
1073.7	83966.9
1077.08	83629.2
1080.45	83057
1083.83	82714.4
1087.2	83062.2
1090.58	82691.9
1093.95	82949.9
1097.33	83372.4
1100.7	83671.4
1104.08	84053.8
1107.45	84789.9
1110.83	84632.5
1114.2	84929.7
1117.58	85515.2
1120.95	85953.9
1124.33	86308.9
1127.7	86945
1131.08	87955.1
1134.45	88561.8
1137.82	88771.5
1141.2	89562.5
1144.57	89818.6
1147.95	90222.1
1151.32	90911.2
1154.7	91948.7
1158.07	92704.7
1161.45	93091
1164.82	93627.8
1168.2	94002.9
1171.57	94789.6
1174.95	95723.2
1178.32	96442.5
1181.7	97294.9
1185.07	98298.6
1188.45	99000.5
1191.82	99755.9
1195.2	100170
1198.57	100771
1201.95	101582
1205.32	102570
1208.7	103496
1212.07	104262
1215.44	105343
1218.82	105584
1222.19	106193
1225.57	107013
1228.94	107826
1232.32	108880
1235.69	109509
1239.07	110632
1242.44	110900
1245.82	111562
1249.19	112800
1252.57	113363
1255.94	113461
1259.32	114343
1262.69	114815
1266.07	114827
1269.44	116056
1272.82	117412
1276.19	118509
1279.57	118748
1282.94	119430
1286.32	120081
1289.69	120607
1293.07	121127
1296.44	121792
1299.82	122661
