Measurement: Raman, 785 nm, unoriented, Raman Data RAW
Mineral: Leucophanite
Rruff sample: R060199
Ideal chemistry: NaCaBeSi_2_O_6_F
Locality: Mont Saint-Hilaire, Rouville County, Quebec, Canada
Source: Royal Ontario Museum
Description: Gray colored transparent fragment
Measured chemistry: Ca_2.00_Na_2.00_Be_2.00_Si_4.00_O_12_F_2.00_ ; Be not measured but estimated by difference and charge balance
Raman shift (cm-1)	intensity
121.019	88.6137
123.912	165.603
126.805	223.978
129.697	298.417
132.59	375.976
135.483	460.473
138.376	448.928
141.268	583.316
144.161	721.143
147.054	932.727
149.946	1017.9
152.839	1159.19
155.732	1206.49
158.625	1271.97
161.517	1345.91
164.41	1523.23
167.303	1596.66
170.195	1700.43
173.088	1785.18
175.981	1848.31
178.873	1922.15
181.766	2040.32
184.659	2158.53
187.552	2194.92
190.444	2291.03
193.337	2376.3
196.23	2425.86
199.122	2560.84
202.015	2618.86
204.908	2731.99
207.8	2858.73
210.693	2996.6
213.586	3289.76
216.478	3550.06
219.371	3827.61
222.264	3984.24
225.157	4135.32
228.049	4191.53
230.942	4208.78
233.835	4212.89
236.727	4294.11
239.62	4374.56
242.513	4585.16
245.405	4712.29
248.298	4851.59
251.191	5029.93
254.084	5105.29
256.976	5168.9
259.869	5097.74
262.762	5168.66
265.654	5133.36
268.547	5060.64
271.44	5005.72
274.332	4958.44
277.225	5017.16
280.118	5011.61
283.011	5080.9
285.903	5063.26
288.796	4981.43
291.689	4832.04
294.581	4627.59
297.474	4495.2
300.367	4563.69
303.26	4649.79
306.152	4862.92
309.045	5158.12
311.938	5540.48
314.83	5984.04
317.723	6412.7
320.616	6843.02
323.508	7228.99
326.401	7688.1
329.294	8172.45
332.187	8919.28
335.079	9750.48
337.972	10832
340.865	12011
343.757	13185.7
346.65	14383.3
349.543	15370.1
352.435	16415.9
355.328	17427.4
358.221	18238.1
361.113	18860.9
364.006	19063.7
366.899	18908.2
369.792	18702.7
372.684	18408.5
375.577	18115.5
378.47	17907.6
381.362	17579
384.255	17242.5
387.148	16853.2
390.041	16198.5
392.933	15182.8
395.826	13968.6
398.719	12730.5
401.611	11775.5
404.504	11138.6
407.397	10772.8
410.289	10662.7
413.182	10522.2
416.075	10756.4
418.967	10908.3
421.86	10955.6
424.753	10821.5
427.646	10629.8
430.538	10299.6
433.431	9883.35
436.324	9587.73
439.216	9262.85
442.109	9045.1
445.002	8849.37
447.894	8716.66
450.787	8568.61
453.68	8495.72
456.573	8338.19
459.465	8119.98
462.358	7829.59
465.251	7476.41
468.143	7199.3
471.036	6816.42
473.929	6473.23
476.822	6096.38
479.714	5730.44
482.607	5505.39
485.5	5261.84
488.392	5130.14
491.285	4961.89
494.178	4820.55
497.07	4675.95
499.963	4574.27
502.856	4567.94
505.748	4499.75
508.641	4455.11
511.534	4470.84
514.427	4485.42
517.319	4451.73
520.212	4483.36
523.105	4474.97
525.997	4471.05
528.89	4503.44
531.783	4542.46
534.676	4564.79
537.568	4579.59
540.461	4638.96
543.354	4674.51
546.246	4728.98
549.139	4851.91
552.032	4862.2
554.924	4998.15
557.817	5067.37
560.71	5080.43
563.602	5024.71
566.495	5047.95
569.388	4859.91
572.281	4739.33
575.173	4513.52
578.066	4357.79
580.959	4178.68
583.851	4017.31
586.744	3855.29
589.637	3707.03
592.529	3528.3
595.422	3494.96
598.315	3468.58
601.208	3398.42
604.1	3391
606.993	3356.85
609.886	3314.49
612.778	3357.73
615.671	3315.46
618.564	3290.72
621.457	3316.94
624.349	3317.72
627.242	3364.11
630.135	3359.19
633.027	3431.13
635.92	3460.02
638.813	3563.17
641.705	3597.22
644.598	3656.59
647.491	3646.54
650.384	3616.09
653.276	3655.79
656.169	3634.09
659.062	3630.53
661.954	3630.16
664.847	3564
667.74	3545.1
670.632	3473.26
673.525	3509.42
676.418	3478.73
679.311	3389.51
682.203	3266.3
685.096	3225.57
687.989	3154.75
690.881	3032.19
693.774	3017.28
696.667	2977.21
699.559	2834.99
702.452	2758.68
705.345	2680.59
708.237	2592.57
711.13	2449.11
714.023	2346.96
716.916	2262.81
719.808	2108.52
722.701	1990.16
725.594	1919.43
728.486	1847.88
731.379	1773.63
734.272	1681.11
737.164	1611.09
740.057	1540.59
742.95	1453.45
745.843	1413.86
748.735	1377.08
751.628	1307.58
754.521	1249.84
757.413	1297.55
760.306	1239.29
763.199	1282.92
766.091	1222.09
768.984	1220.39
771.877	1216.05
774.77	1155.93
777.662	1209.41
780.555	1194.16
783.448	1219.13
786.34	1215.77
789.233	1201.95
792.126	1167.8
795.019	1214.18
797.911	1214.48
800.804	1261.14
803.697	1245.32
806.589	1247.33
809.482	1282.77
812.375	1300.6
815.267	1287.74
818.16	1279.51
821.053	1246.6
823.946	1240.68
826.838	1196.5
829.731	1156.7
832.624	1128.46
835.516	1111.99
838.409	1065.56
841.302	985.286
844.194	1001.6
847.087	992.422
849.98	987.37
852.872	964.243
855.765	949.104
858.658	942.179
861.551	930.572
864.443	868.348
867.336	887.65
870.229	841.458
873.121	802.287
876.014	879.009
878.907	862.195
881.799	885.074
884.692	890.522
887.585	901.625
890.478	935.92
893.37	889.603
896.263	897.426
899.156	940.286
902.048	923.159
904.941	869.087
907.834	900.454
910.726	948.732
913.619	925.977
916.512	951.35
919.405	998.979
922.297	973.852
925.19	1001.03
928.083	950.566
930.975	1035.62
933.868	1013.16
936.761	988.609
939.654	1054.24
942.546	1019.47
945.439	1050.01
948.332	1060.78
951.224	1057.73
954.117	1042.6
957.01	1127.95
959.902	1150.36
962.795	1116.6
965.688	1196.04
968.581	1220.69
971.473	1218.49
974.366	1198.88
977.259	1199.23
980.151	1266.18
983.044	1276.68
985.937	1302.33
988.829	1272.7
991.722	1295.59
994.615	1459.09
997.508	1396.15
1000.4	1480.2
1003.29	1485.15
1006.19	1519.91
1009.08	1560.77
1011.97	1650.53
1014.86	1647.65
1017.76	1675.45
1020.65	1798.44
1023.54	1821.41
1026.43	1854.3
1029.33	1898.86
1032.22	1921.6
1035.11	2017.15
1038.01	2008.66
1040.9	2094.57
1043.79	2188.97
1046.68	2247.68
1049.58	2299.78
1052.47	2336.34
1055.36	2452.76
1058.25	2441.38
1061.15	2553.68
1064.04	2668
1066.93	2743.21
1069.83	2911.91
1072.72	2958.84
1075.61	3085.68
1078.5	3242.79
1081.4	3375.77
1084.29	3436.19
1087.18	3600.28
1090.07	3771.82
1092.97	3893.39
1095.86	4022.88
1098.75	4259.32
1101.64	4366.6
1104.54	4589.73
1107.43	4747.35
1110.32	5000.1
1113.21	5234.45
1116.11	5516.5
1119	5710.65
1121.89	6007.47
1124.79	6245.52
1127.68	6569.84
1130.57	7014.54
1133.46	7247.56
1136.36	7697.18
1139.25	8053.9
1142.14	8555.23
1145.04	8991.42
1147.93	9569.25
1150.82	10164.5
1153.71	10775.3
1156.61	11552.5
1159.5	12324.6
1162.39	13331
1165.28	14504.3
1168.18	15912.4
1171.07	17401.3
1173.96	18979
1176.86	20917.7
1179.75	23060.1
1182.64	25423.8
1185.53	27846.4
1188.43	30482.5
1191.32	32960.3
1194.21	35381.8
1197.1	37673.3
1200	40137.6
1202.89	42972.4
1205.78	46438.5
1208.67	50596.5
1211.57	55097.1
1214.46	60535.9
1217.35	65941.3
1220.24	70414.4
1223.14	73269
1226.03	74112.7
1228.92	73778.5
1231.82	72969.7
1234.71	71907.9
1237.6	71787.5
1240.49	72417.1
