Measurement: Raman, 532 nm, unoriented, Raman Data RAW
Mineral: Leverettite
Rruff sample: R160009
Ideal chemistry: Cu^2+^_3_Co^2+^Cl_2_(OH)_6_
Locality: Torrecillas mine, Salar Grande, Iquique Provence, Chile
Source: Robert Jenkins
Description: Dark green rhombohedral, as well as apple green druse
Measured chemistry: Cu_3_(Cu_0.68_Co_0.19_Ni_0.04_Mg_0.02_)_Î£=0.93_Cl_1.98_(OH)_6_
Raman shift (cm-1)	intensity
88.1367	291.927
91.5115	321.261
94.8863	332.921
98.2612	328.38
101.636	341.919
105.011	353.786
108.386	408.06
111.76	410.062
115.135	465.084
118.51	587.745
121.885	708.782
125.26	674.124
128.635	578.934
132.009	570.612
135.384	562.297
138.759	583.814
142.134	604.495
145.509	641.808
148.883	646.042
152.258	541.58
155.633	486.168
159.008	460.167
162.383	447.245
165.757	443.365
169.132	434.941
172.507	440.095
175.882	437.199
179.257	425.274
182.632	427.784
186.006	424.558
189.381	417.35
192.756	414.929
196.131	411.817
199.506	406.714
202.881	397.789
206.255	394.058
209.63	389.949
213.005	386.449
216.38	383.908
219.755	377.399
223.129	371.058
226.504	371.899
229.879	364.718
233.254	364.298
236.629	362.989
240.004	354.279
243.378	352.243
246.753	350.993
250.128	346.332
253.503	346.053
256.878	346.106
260.252	342.468
263.627	337.326
267.002	333.452
270.377	334.429
273.752	335.598
277.127	332.918
280.501	331.946
283.876	327.784
287.251	328.961
290.626	325.741
294.001	325.822
297.375	327.301
300.75	330.987
304.125	326.772
307.5	332.465
310.875	333.729
314.25	337.889
317.624	340.593
320.999	346.549
324.374	352.969
327.749	366.672
331.124	376.163
334.498	396.023
337.873	425.458
341.248	463.871
344.623	528.849
347.998	617.602
351.373	738.11
354.747	891.601
358.122	1058.82
361.497	1209.94
364.872	1232.94
368.247	1053.48
371.621	801.256
374.996	619.033
378.371	514.589
381.746	464.974
385.121	448.541
388.495	462.207
391.87	496.729
395.245	554.903
398.62	625.705
401.995	699.592
405.37	719.444
408.744	667.546
412.119	592.226
415.494	518.362
418.869	465.147
422.244	431.335
425.618	402.317
428.993	385.514
432.368	371.134
435.743	364.439
439.118	352.225
442.493	353.716
445.867	349.367
449.242	345.937
452.617	343.238
455.992	343.176
459.367	339.811
462.741	339.875
466.116	342.414
469.491	345.507
472.866	357.516
476.241	370.852
479.615	393.069
482.99	423.453
486.365	457.749
489.74	506.722
493.115	558.221
496.49	605.074
499.864	632.236
503.239	627.031
506.614	586.718
509.989	520.593
513.364	444.379
516.739	386.772
520.113	338.805
523.488	309.001
526.863	284.055
530.238	268.72
533.613	255.728
536.987	246.922
540.362	243.242
543.737	239.349
547.112	239.116
550.487	238.047
553.861	238.724
557.236	238.532
560.611	241.485
563.986	242.266
567.361	243.894
570.736	246.532
574.11	251.042
577.485	253.042
580.86	250.939
584.235	254.664
587.61	253.368
590.985	251.909
594.359	248.617
597.734	250.392
601.109	241.72
604.484	240.389
607.859	235.625
611.233	230.051
614.608	227.485
617.983	221.033
621.358	218.751
624.733	217.287
628.107	212.863
631.482	210.843
634.857	209.263
638.232	207.828
641.607	210.787
644.982	208.703
648.356	207.828
651.731	209.742
655.106	209.346
658.481	209.557
661.856	211.692
665.231	215.191
668.605	217.457
671.98	224.901
675.355	229.204
678.73	235.141
682.105	241.76
685.479	244.867
688.854	252.339
692.229	255.593
695.604	267.448
698.979	277.947
702.354	296.194
705.728	315.482
709.103	335.909
712.478	356.806
715.853	370.157
719.227	370.835
722.602	361.741
725.977	340.683
729.352	321.019
732.727	303.193
736.102	291.315
739.476	274.666
742.851	263.167
746.226	255.436
749.601	249.332
752.976	243.585
756.351	239.684
759.725	234.441
763.1	232.74
766.475	231.396
769.85	229.212
773.225	227.404
776.599	225.343
779.974	225.042
783.349	226.619
786.724	222.614
790.099	224.837
793.473	226.108
796.848	229.462
800.223	229.973
803.598	227.714
806.973	229.57
810.348	233.005
813.722	235.866
817.097	237.381
820.472	240.132
823.847	237.191
827.222	243.004
830.597	243.837
833.971	248.939
837.346	248.102
840.721	254.06
844.096	258.666
847.471	260.372
850.846	265.288
854.22	272.375
857.595	277.744
860.97	284.577
864.345	295.14
867.72	307.498
871.094	316.387
874.469	330.159
877.844	337.477
881.219	349.666
884.594	358.839
887.968	371.141
891.343	380.778
894.718	385.298
898.093	396.031
901.468	411.127
904.842	424.158
908.217	447.012
911.592	471.995
914.967	499.335
918.342	534.328
921.717	562.272
925.091	591.472
928.466	629.922
931.841	669.161
935.216	702.01
938.591	726.505
941.966	731.433
945.34	709.737
948.715	669.041
952.09	604.476
955.465	526.929
958.84	460.885
962.214	409.888
965.589	375.779
968.964	348.301
972.339	317.53
975.714	288.795
979.088	269.804
982.463	241.541
985.838	223.756
989.213	212.736
992.588	202.817
995.963	193.137
999.337	186.339
1002.71	184.195
1006.09	180.674
1009.46	173.703
1012.84	174.249
1016.21	171.735
1019.59	168.963
1022.96	166.495
1026.34	164.402
1029.71	162.578
1033.09	162.915
1036.46	157.624
1039.84	157.105
1043.21	158.488
1046.59	155.266
1049.96	151.087
1053.33	150.964
1056.71	153.037
1060.08	151.823
1063.46	149.216
1066.83	149.258
1070.21	144.478
1073.58	144.171
1076.96	142.32
1080.33	143.29
1083.71	139.643
1087.08	141.243
1090.46	138.062
1093.83	136.692
1097.21	136.557
1100.58	136.439
1103.96	135.613
1107.33	133.055
1110.71	134.643
1114.08	130.981
1117.46	135.303
1120.83	130.896
1124.21	129.509
1127.58	128.794
1130.95	129.324
1134.33	129.301
1137.7	130.357
1141.08	129.963
1144.45	125.949
1147.83	126.497
1151.2	125.469
1154.58	126.661
1157.95	127.501
1161.33	127.185
1164.7	126.164
1168.08	126.786
1171.45	123.737
1174.83	124.542
1178.2	123.751
1181.58	126.355
1184.95	125.095
1188.33	124.697
1191.7	126.242
1195.08	124.942
1198.45	122.437
1201.83	127.543
1205.2	126.147
1208.58	125.186
1211.95	124.7
1215.33	124.076
1218.7	125.378
1222.08	126.235
1225.45	124.476
1228.83	122.134
1232.2	125.157
1235.58	122.817
1238.95	124.227
1242.32	122.844
1245.7	120.338
1249.07	124.811
1252.45	124.585
1255.82	121.318
1259.2	123.023
1262.57	122.343
1265.95	123.073
1269.32	120.463
1272.7	122.412
1276.07	120.389
1279.45	122.884
1282.82	123.693
1286.2	121.09
1289.57	120.809
1292.95	120.775
1296.32	123.96
1299.7	122.265
