Measurement: Raman, 780 nm, unoriented, Raman Data Processed
Mineral: Leverettite
Rruff sample: R160009
Ideal chemistry: Cu^2+^_3_Co^2+^Cl_2_(OH)_6_
Locality: Torrecillas mine, Salar Grande, Iquique Provence, Chile
Source: Robert Jenkins
Description: Dark green rhombohedral, as well as apple green druse
Measured chemistry: Cu_3_(Cu_0.68_Co_0.19_Ni_0.04_Mg_0.02_)_Î£=0.93_Cl_1.98_(OH)_6_
Raman shift (cm-1)	intensity
110.242	0
113.616	1.71651
116.991	8.44644
120.366	9.45906
123.741	5.87857
127.116	2.77934
130.49	2.62979
133.865	0.510956
137.24	6.95047
140.615	11.572
143.99	11.0846
147.364	11.2285
150.739	3.60431
154.114	3.59302
157.489	2.30105
160.864	1.50107
164.239	0.489906
167.613	2.24082
170.988	0.349304
174.363	2.15984
177.738	3.12814
181.113	4.39569
184.488	6.51585
187.862	7.74119
191.237	7.56875
194.612	9.66187
197.987	9.89683
201.362	10.4717
204.736	11.683
208.111	10.6075
211.486	11.1428
214.861	9.85757
218.236	12.4878
221.611	9.46287
224.985	10.9938
228.36	8.96629
231.735	10.0247
235.11	10.2347
238.485	10.2569
241.859	10.4955
245.234	8.84132
248.609	9.21134
251.984	7.75989
255.359	5.99641
258.733	6.88745
262.108	6.35034
265.483	4.82179
268.858	4.95813
272.233	1.4251
275.608	2.69137
278.982	2.46162
282.357	1.59641
285.732	3.25931
289.107	1.73924
292.482	0.88166
295.856	0.760201
299.231	0.089287
302.606	0.548519
305.981	0.788185
309.356	0.71727
312.731	0.595253
316.105	0.177784
319.48	0.665958
322.855	0.361046
326.23	0.90778
329.605	1.8712
332.979	0.865814
336.354	2.34345
339.729	3.15228
343.104	5.38821
346.479	7.17969
349.854	10.6358
353.228	11.7197
356.603	11.683
359.978	15.5349
363.353	12.2672
366.728	7.47473
370.103	5.66041
373.477	2.699
376.852	1.9465
380.227	1.02418
383.602	1.25294
386.977	3.77426
390.351	3.87928
393.726	5.48875
397.101	6.70042
400.476	6.90445
403.851	6.00218
407.226	4.20865
410.6	2.71364
413.975	2.78576
417.35	1.26498
420.725	0.805538
424.1	0.142921
427.474	1.3792
430.849	0.786732
434.224	0.126862
437.599	0.058323
440.974	0.073349
444.349	0.48251
447.723	0.542366
451.098	1.17932
454.473	0.841373
457.848	1.3455
461.223	1.86386
464.597	1.30313
467.972	3.13982
471.347	0.947468
474.722	3.03337
478.097	5.01983
481.471	5.88884
484.846	6.6464
488.221	9.4315
491.596	11.8059
494.971	11.2395
498.346	9.92511
501.72	8.60723
505.095	7.70019
508.47	5.78764
511.845	4.24255
515.22	4.27707
518.595	1.97219
521.969	2.91523
525.344	1.9033
528.719	0.923492
532.094	0.048264
535.469	1.85451
538.843	0.740772
542.218	1.60672
545.593	0.280544
548.968	1.55565
552.343	0.764214
555.717	2.00008
559.092	1.50339
562.467	1.82518
565.842	1.57806
569.217	0.798428
572.592	0.916
575.966	2.31051
579.341	0.516605
582.716	0.520496
586.091	1.41283
589.466	2.12054
592.841	0.88583
596.215	1.64553
599.59	0.714386
602.965	1.08519
606.34	0.399586
609.715	2.15115
613.089	1.67942
616.464	1.4673
619.839	0.786411
623.214	0.624065
626.589	0.399559
629.963	1.34483
633.338	0.889339
636.713	1.24956
640.088	0.328262
643.463	2.04293
646.838	0.623699
650.212	0.907677
653.587	2.22387
656.962	0.704586
660.337	2.25693
663.712	1.22712
667.087	1.51001
670.461	1.85111
673.836	0.113297
677.211	1.4115
680.586	1.30501
683.961	1.27365
687.335	0.182888
690.71	1.28509
694.085	1.01038
697.46	0.263165
700.835	0.973389
704.21	0.712528
707.584	2.04136
710.959	0.495419
714.334	0.271828
717.709	2.85195
721.084	0.712749
724.458	0.109592
727.833	1.09047
731.208	1.88833
734.583	1.31064
737.958	2.18922
741.332	0.064781
744.707	1.35701
748.082	0.994663
751.457	0.112247
754.832	1.72584
758.207	0.584625
761.581	1.07386
764.956	0.245476
768.331	0.966862
771.706	0.640541
775.081	0.715939
778.455	1.64143
781.83	0.345417
785.205	1.02037
788.58	0.31596
791.955	2.12269
795.33	0.146145
798.704	0.122654
802.079	1.48185
805.454	1.69213
808.829	0.269733
812.204	2.01763
815.578	1.09587
818.953	1.94836
822.328	1.43359
825.703	1.68266
829.078	1.35807
832.453	1.30238
835.827	1.33414
839.202	1.09661
842.577	1.62671
845.952	2.43366
849.327	0.960155
852.702	1.89619
856.076	1.32822
859.451	1.32048
862.826	0.674858
866.201	1.78536
869.576	0.518639
872.95	1.7114
876.325	1.85518
879.7	1.87084
883.075	0.620903
886.45	0.267239
889.824	1.30014
893.199	0.987965
896.574	1.31963
899.949	0.952843
903.324	2.04787
906.698	1.81911
910.073	3.4118
913.448	3.16815
916.823	4.50925
920.198	6.72668
923.573	6.36329
926.947	6.24284
930.322	7.93017
933.697	7.45719
937.072	7.09023
940.447	7.99788
943.822	6.55983
947.196	5.31226
950.571	3.7833
953.946	2.13907
957.321	2.19306
960.696	2.32067
964.07	1.48274
967.445	0.993084
970.82	1.14153
974.195	0.966831
977.57	0.166748
980.945	0.330189
984.319	0.374496
987.694	0.386196
991.069	1.08803
994.444	0.56525
997.819	0.284771
1001.19	0.911396
1004.57	1.76575
1007.94	0.924397
1011.32	0.917385
1014.69	2.12655
1018.07	3.36975
1021.44	2.04285
1024.82	2.44207
1028.19	2.65701
1031.57	1.95436
1034.94	1.56147
1038.32	1.13599
1041.69	1.30964
1045.07	2.12218
1048.44	2.96987
1051.82	3.24074
1055.19	2.78986
1058.57	1.50703
1061.94	0.42651
1065.32	0.940208
1068.69	1.92136
1072.07	0.983643
1075.44	1.19789
1078.81	1.42504
1082.19	0.787682
1085.56	0.839491
1088.94	0.9659
1092.31	0.022884
1095.69	2.00549
1099.06	0.890614
1102.44	2.33707
1105.81	1.36947
1109.19	0.952831
1112.56	1.57541
1115.94	0.855331
1119.31	0.921904
1122.69	0.244709
1126.06	0.544699
1129.44	1.27388
1132.81	0.144585
1136.19	0.068756
1139.56	1.15909
1142.94	0.206985
1146.31	0.171803
1149.68	0.379112
1153.06	0.222246
1156.43	1.17181
1159.81	1.32429
1163.18	0.598059
1166.56	0.819935
1169.93	1.87881
1173.31	1.32919
1176.68	1.37861
1180.06	1.81056
1183.43	0.196289
1186.81	2.25596
1190.18	0.414021
1193.56	1.80936
1196.93	1.26946
1200.31	1.27676
1203.68	2.90853
1207.06	1.1908
1210.43	1.04096
1213.81	0.479425
1217.18	0.037294
1220.56	1.18978
1223.93	1.17692
1227.31	1.14673
1230.68	0.166439
1234.06	2.0475
1237.43	1.28296
1240.81	1.93432
1244.18	0.462996
1247.56	2.08237
1250.93	0.424599
1254.31	1.26912
1257.68	1.22229
1261.05	2.27252
1264.43	1.91983
1267.8	1.27163
1271.18	0.623703
1274.55	0.724897
1277.93	1.04351
1281.3	0.937719
