Measurement: Raman, 780 nm, unoriented, Raman Data Processed
Mineral: Likasite
Rruff sample: R060327
Ideal chemistry: Cu^2+^_3_N^5+^O_3_(OH)_5_2H_2_O
Locality: Dzhezkazgan, Kazakhstan
Source: Michael Scott
Description: Blue granular
Raman shift (cm-1)	intensity
111.688	0
115.063	1.46899
118.438	1.42223
121.813	1.42344
125.187	0.168175
128.562	1.76452
131.937	3.16561
135.312	5.14874
138.687	6.4
142.061	3.68386
145.436	1.86121
148.811	0.982082
152.186	0.699602
155.561	1.72138
158.936	1.21121
162.31	1.01317
165.685	0.481041
169.06	0.028871
172.435	0.268989
175.81	0.067641
179.185	0.000947
182.559	0.094954
185.934	1.00378
189.309	0.461107
192.684	0.478068
196.059	1.06184
199.433	1.33485
202.808	1.8757
206.183	1.5139
209.558	1.46304
212.933	1.40068
216.308	1.57321
219.682	1.95084
223.057	2.64681
226.432	2.5724
229.807	2.85306
233.182	2.26394
236.556	1.8907
239.931	1.51904
243.306	1.69304
246.681	1.87706
250.056	1.46176
253.43	0.829073
256.805	1.34708
260.18	0.794678
263.555	1.0685
266.93	1.07916
270.305	0.17585
273.679	0.432098
277.054	0.724807
280.429	0.586406
283.804	0.620497
287.179	0.43534
290.553	0.587517
293.928	0.237555
297.303	0.519562
300.678	0.294827
304.053	0.168354
307.428	0.020797
310.802	0.221761
314.177	0.247465
317.552	0.568158
320.927	0.260614
324.302	0.477117
327.676	0.056798
331.051	0.175607
334.426	0.520926
337.801	0.195436
341.176	0.168717
344.551	0.410207
347.925	0.014534
351.3	0.347613
354.675	0.36745
358.05	0.06565
361.425	1.21108
364.8	0.014441
368.174	0.65303
371.549	0.297578
374.924	0.607013
378.299	0.367423
381.674	0.571039
385.048	0.704174
388.423	0.318673
391.798	0.307733
395.173	0.188524
398.548	0.846723
401.923	0.140467
405.297	0.35189
408.672	0.059205
412.047	0.232347
415.422	0.31763
418.796	0.728523
422.171	0.31033
425.546	0.359757
428.921	0.132504
432.296	0.108948
435.671	0.313585
439.045	0.178883
442.42	0.877599
445.795	0.295224
449.17	0.714207
452.545	0.725223
455.92	1.07299
459.294	0.602647
462.669	0.525706
466.044	0.474304
469.419	0.607326
472.794	0.140715
476.168	0.673742
479.543	0.992025
482.918	0.985475
486.293	1.29344
489.668	1.06408
493.043	1.20077
496.417	1.40434
499.792	0.714797
503.167	1.19357
506.542	1.07085
509.917	1.89926
513.291	1.20664
516.666	1.51188
520.041	1.82439
523.416	1.40247
526.791	1.25543
530.165	1.1611
533.54	0.788203
536.915	0.567474
540.29	0.472169
543.665	0.078212
547.04	0.108799
550.414	0.062915
553.789	0.318169
557.164	0.419651
560.539	0.323019
563.914	0.081776
567.288	0.412873
570.663	0.437657
574.038	0.249375
577.413	0.061077
580.788	0.085376
584.163	0.296181
587.537	0.359444
590.912	0.442335
594.287	0.600107
597.662	0.267553
601.037	0.431485
604.412	0.61056
607.786	0.085448
611.161	0.617887
614.536	0.599164
617.911	0.671637
621.286	0.561548
624.66	0.678257
628.035	0.127921
631.41	0.539798
634.785	0.624853
638.16	0.656137
641.534	0.644912
644.909	0.341254
648.284	0.095496
651.659	0.236547
655.034	0.275831
658.409	0.064435
661.783	0.114762
665.158	0.64841
668.533	0.430657
671.908	0.474541
675.283	0.126009
678.658	0.21054
682.032	0.119812
685.407	0.079901
688.782	0.018397
692.157	0.344491
695.532	0.572858
698.906	0.110109
702.281	0.394572
705.656	0.435819
709.031	0.918171
712.406	1.09635
715.78	1.33576
719.155	1.36493
722.53	0.499169
725.905	0.286481
729.28	0.004119
732.654	0.389184
736.029	0.01906
739.404	0.039042
742.779	0.13974
746.154	0.305498
749.529	0.464413
752.903	0.002467
756.278	0.005193
759.653	0.610744
763.028	0.336109
766.403	0.12861
769.778	0.203719
773.152	0.087509
776.527	0.009726
779.902	0.043116
783.277	0.082344
786.652	0.317129
790.026	0.269216
793.401	0.036451
796.776	0.176962
800.151	0.318884
803.526	0.216127
806.9	0.365785
810.275	0.407114
813.65	0.463469
817.025	0.359295
820.4	0.402885
823.775	0.317236
827.149	0.319825
830.524	0.687975
833.899	0.409678
837.274	0.484603
840.649	0.232356
844.024	0.706682
847.398	0.500079
850.773	0.490015
854.148	0.550546
857.523	0.41054
860.898	0.401001
864.272	0.398999
867.647	0.748339
871.022	0.399258
874.397	0.407421
877.772	0.504607
881.146	0.327464
884.521	0.439647
887.896	0.29452
891.271	0.230398
894.646	0.014933
898.021	0.305587
901.395	0.507734
904.77	0.101697
908.145	0.43795
911.52	0.570136
914.895	0.381607
918.269	0.000984
921.644	0.105498
925.019	0.134747
928.394	0.374493
931.769	0.445645
935.144	0.030841
938.518	0.325722
941.893	0.901684
945.268	0.181493
948.643	0.402352
952.018	0.253754
955.393	0.207948
958.767	0.164529
962.142	0.728359
965.517	0.501313
968.892	0.721935
972.266	0.757006
975.641	0.656664
979.016	0.933018
982.391	0.191375
985.766	1.04292
989.141	0.553576
992.515	0.387016
995.89	0.048532
999.265	0.014517
1002.64	0.191382
1006.01	0.359355
1009.39	0.250294
1012.76	0.336576
1016.14	0.081017
1019.51	0.498585
1022.89	0.637341
1026.26	0.451956
1029.64	0.260115
1033.01	0.364208
1036.39	0.474411
1039.76	1.87612
1043.14	3.27385
1046.51	9.99539
1049.89	15.4513
1053.26	5.80238
1056.64	1.83922
1060.01	0.943646
1063.39	0.564083
1066.76	0.949276
1070.14	0.699168
1073.51	0.559686
1076.89	0.028182
1080.26	0.096211
1083.63	0.706573
1087.01	0.613065
1090.38	0.089932
1093.76	1.01054
1097.13	0.614077
1100.51	0.216489
1103.88	0.415464
1107.26	0.346792
1110.63	0.195579
1114.01	0.144968
1117.38	0.011417
1120.76	0.551678
1124.13	0.38032
1127.51	0.624958
1130.88	0.373991
1134.26	0.31859
1137.63	0.265554
1141.01	0.03828
1144.38	0.11292
1147.76	0.140561
1151.13	0.187946
1154.51	0.426415
1157.88	0.098372
1161.26	0.094004
1164.63	0.385069
1168.01	0.380992
1171.38	0.226049
1174.76	0.443371
1178.13	0.686379
1181.51	0.476412
1184.88	0.672483
1188.26	0.397675
1191.63	0.019003
1195.01	0.367177
1198.38	0.672671
1201.75	0.12459
1205.13	0.377321
1208.5	0.256222
1211.88	0.136661
1215.25	0.310791
1218.63	0.266011
1222	0.103193
1225.38	0.173765
1228.75	0.274674
1232.13	0.187043
1235.5	0.191584
1238.88	0.12652
1242.25	0.261506
1245.63	0.350786
1249	0.01559
1252.38	0.077617
1255.75	0.264333
1259.13	0.567975
1262.5	0.461277
1265.88	0.579253
1269.25	0.351045
1272.62	0.233514
1276	0.306888
1279.38	0.147969
