Measurement: Raman, 532 nm, unoriented, Raman Data Processed
Mineral: Likasite
Rruff sample: R060327
Ideal chemistry: Cu^2+^_3_N^5+^O_3_(OH)_5_2H_2_O
Locality: Dzhezkazgan, Kazakhstan
Source: Michael Scott
Description: Blue granular
Raman shift (cm-1)	intensity
102.6	0
105.975	1.36339
109.35	8.16676
112.725	16.4505
116.1	30.7606
119.474	32.1247
122.849	31.5428
126.224	36.5436
129.599	54.6137
132.974	79.1507
136.348	104.685
139.723	107.821
143.098	72.565
146.473	42.4301
149.848	27.1192
153.222	21.0406
156.597	21.664
159.972	20.5138
163.347	19.1023
166.722	12.471
170.097	7.82697
173.471	4.14487
176.846	1.80505
180.221	0.608521
183.596	0.003174
186.971	0.277954
190.345	0.119667
193.72	0.298256
197.095	0.86422
200.47	0.714211
203.845	0.142715
207.22	0.018272
210.594	2.4441
213.969	4.36576
217.344	4.23259
220.719	8.20643
224.094	7.74142
227.469	10.9239
230.843	13.2797
234.218	13.9857
237.593	12.6113
240.968	10.4809
244.343	8.67732
247.717	6.81884
251.092	5.47773
254.467	4.52445
257.842	4.19318
261.217	4.00757
264.591	3.92672
267.966	2.53323
271.341	2.6462
274.716	1.10274
278.091	2.02502
281.466	1.18448
284.84	1.35575
288.215	0.952984
291.59	1.14691
294.965	0.315662
298.34	0.226974
301.714	0.669758
305.089	0.313969
308.464	0.5037
311.839	0.555805
315.214	0.612583
318.589	0.482166
321.963	1.49896
325.338	1.18761
328.713	1.14218
332.088	0.783401
335.463	0.772045
338.837	0.833916
342.212	1.54346
345.587	0.462242
348.962	0.752426
352.337	0.474583
355.712	0.660507
359.086	1.33818
362.461	2.51704
365.836	3.72043
369.211	5.2808
372.586	5.7444
375.96	6.12238
379.335	4.14105
382.71	3.71899
386.085	2.91056
389.46	2.46451
392.834	1.69121
396.209	1.44028
399.584	1.22826
402.959	1.11578
406.334	1.25268
409.709	0.960163
413.083	0.630035
416.458	0.64854
419.833	0.010017
423.208	1.06958
426.583	0.911896
429.957	0.112999
433.332	0.304058
436.707	1.34782
440.082	2.56834
443.457	4.11189
446.832	6.62619
450.206	8.94702
453.581	9.88936
456.956	9.57232
460.331	8.06324
463.706	7.60867
467.08	6.58416
470.455	6.67436
473.83	7.24764
477.205	9.65803
480.58	11.9452
483.955	15.952
487.329	16.702
490.704	18.8102
494.079	19.3531
497.454	20.7381
500.829	21.4401
504.204	26.4221
507.578	30.534
510.953	34.1116
514.328	34.1578
517.703	33.4796
521.078	31.9785
524.452	30.3386
527.827	25.8321
531.202	21.5915
534.577	16.0183
537.952	10.8585
541.327	7.20617
544.701	4.75241
548.076	3.07763
551.451	1.59064
554.826	0.922539
558.201	1.06151
561.575	0.117432
564.95	0.505878
568.325	0.128414
571.7	2.12397
575.075	0.24427
578.449	0.277233
581.824	0.332096
585.199	0.781635
588.574	0.881046
591.949	1.04869
595.323	0.987679
598.698	1.36531
602.073	1.71666
605.448	1.73583
608.823	2.34872
612.198	1.99185
615.572	2.3377
618.947	1.93712
622.322	2.17884
625.697	2.0316
629.072	1.64423
632.447	1.70335
635.821	2.06621
639.196	2.22248
642.571	0.740047
645.946	1.19471
649.321	1.13891
652.695	0.316723
656.07	0.075344
659.445	1.04347
662.82	0.256771
666.195	0.410084
669.569	0.012062
672.944	0.862797
676.319	0.579521
679.694	0.19104
683.069	0.092079
686.444	0.125328
689.818	0.226692
693.193	0.301254
696.568	1.14073
699.943	1.64892
703.318	3.83832
706.692	5.06893
710.067	8.7169
713.442	12.5483
716.817	11.3003
720.192	10.0799
723.567	4.4485
726.941	0.945415
730.316	0.300182
733.691	0.45882
737.066	1.19303
740.441	0.976864
743.816	0.403614
747.19	0.919689
750.565	0.912792
753.94	1.46334
757.315	1.3294
760.69	1.17411
764.064	1.97199
767.439	1.89545
770.814	1.03516
774.189	0.855648
777.564	1.04702
780.938	0.67075
784.313	0.275696
787.688	0.3521
791.063	0.407097
794.438	0.310047
797.813	0.819969
801.187	1.42268
804.562	1.41369
807.937	2.11958
811.312	3.08712
814.687	3.20531
818.062	5.42051
821.436	5.2964
824.811	6.37349
828.186	7.5937
831.561	6.07358
834.936	5.97231
838.31	5.75513
841.685	4.87909
845.06	4.06544
848.435	4.26358
851.81	3.00746
855.184	2.49401
858.559	2.53466
861.934	1.67764
865.309	1.11251
868.684	1.49114
872.059	1.53351
875.433	0.914551
878.808	0.474319
882.183	0.322987
885.558	0.070103
888.933	0.087067
892.308	0.221962
895.682	0.166187
899.057	0.448902
902.432	0.223816
905.807	0.063599
909.182	0.917454
912.556	0.054745
915.931	0.616161
919.306	0.788696
922.681	0.459541
926.056	0.830307
929.431	0.524185
932.805	0.072971
936.18	0.428448
939.555	0.735573
942.93	0.327812
946.305	0.24165
949.679	0.416931
953.054	0.094536
956.429	0.37191
959.804	1.04093
963.179	2.06103
966.553	3.1852
969.928	4.62687
973.303	6.47231
976.678	6.60294
980.053	6.29315
983.428	5.38017
986.802	3.91545
990.177	3.12592
993.552	2.5072
996.927	2.17181
1000.3	1.48483
1003.68	1.75169
1007.05	1.10837
1010.43	1.18426
1013.8	1.09629
1017.18	0.686344
1020.55	1.02679
1023.92	2.60803
1027.3	3.77501
1030.67	6.11502
1034.05	9.65532
1037.42	18.7516
1040.8	48.1924
1044.17	95.4794
1047.55	187.933
1050.92	216.107
1054.3	69.0473
1057.67	21.7268
1061.05	9.78883
1064.42	4.76903
1067.8	1.97216
1071.17	1.84124
1074.55	1.06327
1077.92	0.893536
1081.3	1.03799
1084.67	1.04466
1088.05	0.578129
1091.42	0.684299
1094.8	1.06751
1098.17	0.241364
1101.55	0.404991
1104.92	0.446716
1108.3	0.005287
1111.67	0.197948
1115.05	0.273285
1118.42	0.105186
1121.8	0.190117
1125.17	0.356457
1128.55	0.703815
1131.92	0.735786
1135.29	0.068207
1138.67	0.110428
1142.04	0.434242
1145.42	0.484516
1148.79	0.033928
1152.17	0.225407
1155.54	0.051258
1158.92	0.270565
1162.29	0.266411
1165.67	0.5084
1169.04	0.669167
1172.42	0.257088
1175.79	0.677574
1179.17	0.435005
1182.54	0.564651
1185.92	1.31118
1189.29	1.28698
1192.67	1.14716
1196.04	1.69706
1199.42	1.05365
1202.79	1.16007
1206.17	0.950512
1209.54	0.27206
1212.91	0.897141
1216.29	0.653114
1219.66	0.856319
1223.04	0.757034
1226.41	0.811581
1229.79	0.208424
1233.16	0.572441
1236.54	0.669548
1239.91	0.554153
1243.29	0.008133
1246.66	0.935089
1250.04	0.768856
1253.41	0.916988
1256.79	0.257401
1260.16	0.508148
1263.54	0.702488
1266.91	0.744732
1270.29	0.105606
1273.66	0.529762
1277.04	0.193993
1280.41	0.425781
1283.79	0.311104
1287.16	0.546127
1290.54	0.567947
1293.91	0.386776
1297.29	0.291607
1300.66	0
