Measurement: Raman, 780 nm, unoriented, Raman Data Processed
Mineral: Lileyite
Rruff sample: R140773
Ideal chemistry: Ba_2_Ti^4+^_2_Na_2_Fe^2+^Mg(Si_2_O_7_)_2_O_2_F_2_
Locality: Graulay, Hillesheim, Eifel, Rhineland-Palatinate, Germany
Source: Ch. and H. Sch√§fer
Description: Reddish brown prismatic crystals with fine striations, associated with pyroxene, schorlomite and leucite.
Raman shift (cm-1)	intensity
146.883	0
149.775	0.119751
152.668	5.57654
155.561	6.11743
158.453	17.6617
161.346	38.197
164.239	57.0955
167.132	66.2373
170.024	53.3606
172.917	39.2158
175.81	28.4686
178.702	19.3483
181.595	12.5012
184.488	6.50684
187.381	3.35938
190.273	1.70776
193.166	0.809326
196.059	0.817871
198.951	11.936
201.844	21.9183
204.737	37.8877
207.629	48.2377
210.522	63.0493
213.415	73.5157
216.308	72.2559
219.2	71.0442
222.093	63.671
224.986	53.2632
227.878	41.082
230.771	30.98
233.664	23.9188
236.556	17.231
239.449	14.6121
242.342	10.5862
245.234	11.6326
248.127	5.25879
251.02	0.904785
253.913	2.7832
256.805	4.32593
259.698	3.92542
262.591	9.74841
265.483	1.46033
268.376	12.4215
271.269	12.4816
274.161	26.217
277.054	41.2142
279.947	56.4153
282.84	59.9656
285.732	67.7136
288.625	59.859
291.518	51.9187
294.41	49.2711
297.303	47.4265
300.196	51.7666
303.089	61.0309
305.981	66.4507
308.874	68.9273
311.767	67.5264
314.659	65.0384
317.552	55.3373
320.445	46.2582
323.337	35.2731
326.23	32.0902
329.123	31.0817
332.015	32.2704
334.908	40.1497
337.801	41.0546
340.694	41.8648
343.586	41.5684
346.479	43.4644
349.372	44.1698
352.264	43.2338
355.157	51.729
358.05	62.4793
360.942	77.8458
363.835	100.318
366.728	127.008
369.621	137.743
372.513	127.255
375.406	97.0173
378.299	65.9952
381.191	42.5747
384.084	39.8337
386.977	46.0237
389.87	74.2363
392.762	104.485
395.655	107.007
398.548	89.15
401.44	72.9641
404.333	71.7323
407.226	71.3133
410.118	66.4109
413.011	63.6457
415.904	46.8496
418.796	36.7809
421.689	17.9369
424.582	10.9147
427.475	2.55603
430.367	5.72986
433.26	14.4857
436.153	7.51013
439.045	3.49878
441.938	8.82129
444.831	20.314
447.724	31.5774
450.616	40.9419
453.509	38.2256
456.402	31.8229
459.294	24.5322
462.187	12.279
465.08	14.9166
467.972	12.6288
470.865	15.6257
473.758	19.2161
476.651	18.1841
479.543	22.6794
482.436	23.9992
485.329	31.4285
488.221	32.4242
491.114	24.929
494.007	22.6023
496.899	13.6773
499.792	6.54053
502.685	7.24353
505.577	3.7168
508.47	3.81628
511.363	2.80005
514.256	0.595459
517.148	3.44092
520.041	4.61023
522.934	6.11975
525.826	6.41589
528.719	8.8927
531.612	10.3744
534.505	7.79468
537.397	1.69617
540.29	1.65015
543.183	0.271118
546.075	5.16138
548.968	6.66992
551.861	7.68896
554.753	10.6685
557.646	20.7017
560.539	35.2315
563.432	51.044
566.324	68.334
569.217	95.995
572.11	125.912
575.002	146.098
577.895	151.639
580.788	135.865
583.681	113.582
586.573	89.2977
589.466	70.931
592.359	51.415
595.251	46.5662
598.144	30.7295
601.037	19.7247
603.929	13.1284
606.822	12.0015
609.715	2.43298
612.607	2.11707
615.5	7.05566
618.393	4.04004
621.286	0.002075
624.178	1.84082
627.071	2.41382
629.964	11.2334
632.856	19.845
635.749	36.4399
638.642	58.4108
641.534	40.3471
644.427	25.6834
647.32	29.6493
650.213	44.8967
653.105	55.8346
655.998	71.9685
658.891	85.7565
661.783	100.779
664.676	111.157
667.569	118.715
670.462	121.449
673.354	125.346
676.247	140.361
679.14	141.232
682.032	130.083
684.925	109.868
687.818	88.7258
690.71	69.615
693.603	53.5273
696.496	47.165
699.389	35.51
702.281	28.3247
705.174	30.8923
708.067	31.6475
710.959	25.3774
713.852	24.4109
716.745	21.2173
719.637	18.7561
722.53	21.0332
725.423	18.478
728.316	25.6738
731.208	28.6763
734.101	34.6238
736.994	32.5266
739.886	27.8042
742.779	25.0029
745.672	27.4297
748.564	25.1572
751.457	22.605
754.35	22.3721
757.242	19.8955
760.135	25.727
763.028	22.0869
765.921	17.7217
768.813	14.5281
771.706	6.23584
774.599	0.544189
777.491	1.92383
780.384	13.3899
783.277	12.1348
786.169	7.95776
789.062	2.4043
791.955	3.39087
794.848	4.45044
797.74	5.79102
800.633	12.8269
803.526	31.1084
806.418	41.1694
809.311	50.032
812.204	49.0906
815.096	57.3235
817.989	64.1848
820.882	69.835
823.775	75.6977
826.667	77.2659
829.56	80.147
832.453	85.6335
835.345	99.0901
838.238	109.136
841.131	107.494
844.024	104.233
846.916	103.689
849.809	116.421
852.702	117.851
855.594	127.457
858.487	129.894
861.38	149.48
864.272	156.546
867.165	160.034
870.058	151.317
872.951	135.015
875.843	106.917
878.736	90.0459
881.629	91.6426
884.521	81.6934
887.414	80.8745
890.307	91.4277
893.199	106.133
896.092	141.415
898.985	175.932
901.878	198.435
904.77	225.497
907.663	225.315
910.556	219.583
913.448	199.466
916.341	180.151
919.234	133.282
922.126	93.3706
925.019	81.175
927.912	74.2727
930.804	68.2388
933.697	66.5278
936.59	64.9553
939.483	71.926
942.375	66.4241
945.268	77.186
948.161	79.0469
951.053	76.292
953.946	70.8311
956.839	75.7751
959.731	57.0786
962.624	32.4783
965.517	25.3555
968.41	5.22974
971.302	6.16235
974.195	10.0601
977.088	4.27637
979.98	4.85644
982.873	5.23413
985.766	4.73364
988.659	4.95068
991.551	2.80249
994.444	8.6792
997.337	10.7471
1000.23	13.7129
1003.12	17.0544
1006.01	11.7427
1008.91	10.4148
1011.8	29.7649
1014.69	34.5798
1017.59	31.8545
1020.48	27.0491
1023.37	39.5832
1026.26	34.2351
1029.16	46.4448
1032.05	42.0754
1034.94	41.6165
1037.83	48.1753
1040.73	36.7249
1043.62	30.5332
1046.51	33.8145
1049.4	33.3784
1052.3	37.8774
1055.19	41.6765
1058.08	53.2275
1060.98	45.8184
1063.87	47.1233
1066.76	56.6997
1069.65	57.5391
1072.55	65.4619
1075.44	70.8652
1078.33	78.6111
1081.22	81.3831
1084.12	99.6499
1087.01	101.976
1089.9	99.4441
1092.8	92.5564
1095.69	84.5027
1098.58	74.2739
1101.47	63.3257
1104.37	44.3035
1107.26	34.5237
1110.15	27.2146
1113.05	19.6975
1115.94	7.83545
1118.83	1.75391
1121.72	1.6499
1124.62	4.72119
1127.51	5.02002
1130.4	0.055176
1133.29	0.135254
1136.19	7.57812
1139.08	0.697754
1141.97	1.78027
1144.86	12.9604
1147.76	0.013672
1150.65	4.79932
1153.54	7.01172
1156.43	15.4263
1159.33	13.6958
1162.22	14.4844
1165.11	15.5347
1168.01	18.8784
1170.9	26.2612
1173.79	22.5542
1176.68	26.0981
1179.58	18.3286
1182.47	30.7114
1185.36	30.8359
1188.26	28.7451
1191.15	25.5244
1194.04	17.7964
1196.93	9.64258
1199.83	11.6646
1202.72	8.54932
1205.61	4.62695
1208.5	5.4165
1211.4	3.06348
1214.29	8.89404
1217.18	13.397
1220.08	3.24072
1222.97	18.6392
1225.86	11.752
1228.75	12.9019
1231.64	13.457
1234.54	5.84814
1237.43	2.46435
1240.32	7.27686
1243.22	10.5771
1246.11	2.99414
1249	4.65576
1251.89	0.677734
1254.79	11.6294
1257.68	17.0855
1260.57	17.397
1263.46	13.9434
1266.36	7.66846
1269.25	8.65332
1272.14	10.749
1275.04	12.7852
1277.93	2.01709
1280.82	0.693848
