Measurement: Raman, 532 nm, unoriented, Raman Data Processed
Mineral: Lileyite
Rruff sample: R140773
Ideal chemistry: Ba_2_Ti^4+^_2_Na_2_Fe^2+^Mg(Si_2_O_7_)_2_O_2_F_2_
Locality: Graulay, Hillesheim, Eifel, Rhineland-Palatinate, Germany
Source: Ch. and H. Sch√§fer
Description: Reddish brown prismatic crystals with fine striations, associated with pyroxene, schorlomite and leucite.
Raman shift (cm-1)	intensity
151.294	0
154.187	4.54187
157.079	13.0222
159.972	35.9962
162.865	62.625
165.757	77.7782
168.65	62.4057
171.543	48.5179
174.436	32.7644
177.328	24.5718
180.221	18.9958
183.114	12.1892
186.006	7.41742
188.899	0.3797
191.792	1.86139
194.685	7.44574
197.577	6.39606
200.47	2.73431
203.363	5.88312
206.255	9.17499
209.148	12.2668
212.041	15.9554
214.933	17.7798
217.826	18.2092
220.719	13.4813
223.612	9.29126
226.504	5.60516
229.397	3.38281
232.29	1.44
235.182	4.01978
238.075	4.13178
240.968	2.34595
243.86	2.03339
246.753	1.26654
249.646	1.14966
252.538	1.39008
255.431	4.32898
258.324	4.71405
261.217	4.92145
264.109	2.54962
267.002	1.23236
269.895	10.7263
272.787	17.1147
275.68	30.8681
278.573	38.5212
281.466	42.2271
284.358	41.236
287.251	34.3261
290.144	24.5498
293.036	16.741
295.929	11.3355
298.822	14.3439
301.714	19.456
304.607	25.1327
307.5	28.4653
310.392	32.9519
313.285	36.2886
316.178	35.4434
319.071	33.9995
321.963	38.1262
324.856	42.9056
327.749	55.2306
330.641	63.8445
333.534	76.0022
336.427	84.1078
339.32	89.7802
342.212	86.8245
345.105	83.132
347.998	83.6677
350.89	82.2958
353.783	89.434
356.676	99.6406
359.568	111.051
362.461	128.295
365.354	153.914
368.247	165.638
371.139	158.309
374.032	126.869
376.925	83.8555
379.817	52.2582
382.71	34.3353
385.603	33.9064
388.495	46.692
391.388	67.316
394.281	81.4711
397.174	88.654
400.066	88.2404
402.959	94.875
405.852	98.6813
408.744	101.534
411.637	96.2412
414.53	82.7826
417.423	60.5516
420.315	38.384
423.208	17.9748
426.101	6.17395
428.993	6.29248
431.886	10.8007
434.779	7.18408
437.671	1.30493
440.564	9.33813
443.457	19.035
446.349	33.3444
449.242	40.1755
452.135	37.2722
455.028	27.2185
457.92	15.6721
460.813	7.48358
463.706	8.50537
466.598	4.36047
469.491	2.25531
472.384	3.78754
475.276	10.8713
478.169	18.4251
481.062	29.8218
483.955	41.0466
486.847	45.3134
489.74	49.3011
492.633	46.3585
495.525	39.9663
498.418	38.3218
501.311	38.4022
504.204	35.4492
507.096	32.8758
509.989	33.3477
512.882	31.2459
515.774	29.2812
518.667	24.9434
521.56	18.789
524.452	14.0392
527.345	8.27664
530.238	5.31726
533.13	2.18326
536.023	1.16248
538.916	2.8006
541.809	0.825989
544.701	2.75659
547.594	8.42075
550.487	14.836
553.379	22.6909
556.272	37.9731
559.165	57.845
562.058	87.8793
564.95	126.318
567.843	175.682
570.736	228.903
573.628	278.584
576.521	302.454
579.414	282.82
582.306	242.257
585.199	193.794
588.092	150.581
590.985	116.216
593.877	85.3875
596.77	60.8146
599.663	43.139
602.555	27.5321
605.448	14.5332
608.341	6.8346
611.233	0.695251
614.126	1.88104
617.019	4.547
619.912	5.37201
622.804	7.05322
625.697	2.02563
628.59	3.54816
631.482	10.7077
634.375	21.8226
637.268	41.6022
640.16	48.6854
643.053	43.1439
645.946	56.6025
648.838	79.6033
651.731	112.441
654.624	144.386
657.517	178.105
660.409	210.799
663.302	239.624
666.195	266.493
669.087	288.243
671.98	316.178
674.873	340.982
677.765	353.488
680.658	339.77
683.551	295.806
686.444	242.48
689.336	191.411
692.229	149.452
695.122	127.836
698.014	110.81
700.907	100.735
703.8	92.9334
706.692	90.4739
709.585	88.0821
712.478	81.6546
715.371	75.1636
718.263	63.2105
721.156	56.4081
724.049	48.8226
726.941	50.0393
729.834	48.2589
732.727	52.0004
735.62	55.8903
738.512	52.3535
741.405	49.3729
744.298	53.5845
747.19	54.4036
750.083	57.671
752.976	58.45
755.868	56.5697
758.761	53.1739
761.654	47.8632
764.547	35.7169
767.439	23.5207
770.332	10.8038
773.225	0.920837
776.117	9.23401
779.01	18.6176
781.903	20.6222
784.795	18.8661
787.688	17.6176
790.581	9.63367
793.473	0.873474
796.366	16.398
799.259	31.6392
802.152	48.7648
805.044	71.6147
807.937	89.6721
810.83	97.9139
813.722	102.965
816.615	110.754
819.508	122.365
822.4	129.493
825.293	131.98
828.186	139.543
831.079	150.773
833.971	162.731
836.864	167.706
839.757	178.817
842.649	177.102
845.542	181.093
848.435	186.613
851.328	199.926
854.22	220.146
857.113	239.899
860.006	267.047
862.898	294.131
865.791	303.486
868.684	292.676
871.577	266.318
874.469	228.267
877.362	196.713
880.255	176.614
883.147	168.221
886.04	179.656
888.933	204.498
891.825	249.017
894.718	309.735
897.611	382.733
900.504	438.08
903.396	480.599
906.289	494.736
909.182	488.623
912.074	447.259
914.967	397.348
917.86	327.629
920.752	257.38
923.645	200.076
926.538	169.213
929.431	153.756
932.323	157.318
935.216	157.496
938.109	165.154
941.001	168.397
943.894	170.487
946.787	167.686
949.679	168.903
952.572	165.758
955.465	161.193
958.357	142.854
961.25	107.008
964.143	55.6169
967.036	17.4023
969.928	2.93469
972.821	15.1783
975.714	15.397
978.606	17.9901
981.499	14.7538
984.392	9.65381
987.284	4.17444
990.177	0.38324
993.07	6.09967
995.963	13.6847
998.855	22.6497
1001.75	26.3669
1004.64	33.4697
1007.53	41.7413
1010.43	50.6124
1013.32	56.7422
1016.21	59.0478
1019.1	61.6136
1022	61.6912
1024.89	67.4658
1027.78	67.58
1030.67	65.667
1033.57	63.906
1036.46	56.417
1039.35	47.7144
1042.25	43.1025
1045.14	37.8063
1048.03	32.1167
1050.92	29.7841
1053.82	26.0724
1056.71	28.0111
1059.6	27.7788
1062.49	30.0615
1065.39	34.4413
1068.28	35.4921
1071.17	39.7141
1074.07	41.1168
1076.96	42.4659
1079.85	40.4473
1082.74	41.1628
1085.64	45.2094
1088.53	45.6225
1091.42	41.7781
1094.31	37.2979
1097.21	36.2407
1100.1	28.9764
1102.99	26.4324
1105.88	33.2876
1108.78	48.8989
1111.67	61.3611
1114.56	54.0103
1117.46	29.8682
1120.35	13.2534
1123.24	1.00989
1126.13	0.141541
1129.03	1.7829
1131.92	4.04962
1134.81	0.277466
1137.7	2.19367
1140.6	0.773804
1143.49	4.3985
1146.38	1.66876
1149.28	3.33398
1152.17	6.76044
1155.06	6.68646
1157.95	10.1009
1160.85	10.4136
1163.74	3.7428
1166.63	1.17542
1169.53	2.74536
1172.42	1.83209
1175.31	9.2381
1178.2	16.7803
1181.1	31.0058
1183.99	43.5485
1186.88	46.2694
1189.77	36.152
1192.67	20.6969
1195.56	6.73804
1198.45	3.52826
1201.34	1.30237
1204.24	0.59729
1207.13	0.737793
1210.02	7.34845
1212.91	13.758
1215.81	20.3341
1218.7	28.8677
1221.59	36.6539
1224.49	45.3687
1227.38	45.3
1230.27	43.4501
1233.16	42.0305
1236.06	35.2602
1238.95	33.5166
1241.84	32.1326
1244.73	36.3863
1247.63	41.5081
1250.52	45.7314
1253.41	44.3536
1256.31	43.6609
1259.2	38.6724
1262.09	30.7236
1264.98	20.9283
1267.88	16.1466
1270.77	7.87006
1273.66	6.06818
1276.56	2.88678
1279.45	0.552979
1282.34	0.885559
1285.23	4.65802
1288.12	10.8186
1291.02	7.91418
1293.91	6.36877
1296.8	4.76331
1299.7	0.667542
