Measurement: Raman, 780 nm, unoriented, Raman Data Processed
Mineral: Liudongshengite
Rruff sample: R180016
Ideal chemistry: Zn^2+^_4_Cr^3+^_2_(OH)_12_(CO_3_)3H_2_O
Locality: 79 mine, Gila Co., Arizona, USA
Source: Ron Gibbs
Description: Pinkish hexagonal thin platy crystals, associated with cerussite, malachite, rosasite, hemimorphite, mimetite, wulfenite, fornacite, and rarely linarite and kuksite. This is the type specimen.
Measured chemistry: (Zn_3.25_Mg_0.17_Cr_2.58_)_Σ6.00_(OH)_12_(CO_3_)_1.29_·3H_2_O. ; The C content of 2.31(2) wt.% was obtained from an Elemental Combustion System equipped with mass spectrometry.
Raman shift (cm-1)	intensity
115.545	1.03427
118.92	4.25392
122.294	3.7767
125.669	8.43159
129.044	9.15013
132.419	13.5832
135.794	20.9478
139.168	27.59
142.543	37.1199
145.918	47.2257
149.293	61.9844
152.668	72.711
156.043	74.6125
159.417	70.888
162.792	60.0696
166.167	47.0546
169.542	34.9506
172.917	24.7566
176.292	17.3246
179.666	12.0272
183.041	8.76444
186.416	6.68424
189.791	3.3751
193.166	1.28453
196.54	0.446899
199.915	0.727219
203.29	0.803726
206.665	1.09454
210.04	0.809738
213.415	2.45462
216.789	3.80005
220.164	3.52307
223.539	6.06164
226.914	9.59683
230.289	12.1232
233.663	13.2317
237.038	16.9964
240.413	20.9915
243.788	27.2636
247.163	31.4332
250.537	38.0294
253.912	42.3904
257.287	46.2235
260.662	43.5919
264.037	37.9262
267.412	30.9211
270.786	23.0367
274.161	17.5054
277.536	13.9618
280.911	9.60237
284.286	8.02753
287.661	6.68859
291.035	3.56014
294.41	2.86599
297.785	1.07851
301.16	1.06259
304.535	0.003056
307.909	0.069004
311.284	0.107468
314.659	0.561924
318.034	0.383732
321.409	0.43013
324.784	0.274918
328.158	0.060944
331.533	0.252975
334.908	0.223705
338.283	1.10457
341.658	1.16745
345.032	2.16161
348.407	1.44793
351.782	2.24906
355.157	1.162
358.532	1.77483
361.906	0.823376
365.281	1.12996
368.656	1.06431
372.031	1.28204
375.406	0.189545
378.781	0.241417
382.155	0.862473
385.53	0.245136
388.905	0.186176
392.28	0.05241
395.655	0.018005
399.029	0.039455
402.404	0.598549
405.779	0.507168
409.154	0.647285
412.529	1.62576
415.904	2.53833
419.278	1.91614
422.653	3.39116
426.028	2.61182
429.403	4.15907
432.778	3.33081
436.152	4.833
439.527	6.51365
442.902	7.88685
446.277	7.83323
449.652	8.85669
453.027	7.19672
456.401	7.97512
459.776	8.44455
463.151	9.02663
466.526	8.88575
469.901	7.01966
473.276	5.57334
476.65	4.7637
480.025	2.32627
483.4	2.13859
486.775	0.597042
490.15	0.131241
493.524	0.034412
496.899	1.01113
500.274	0.581871
503.649	0.75465
507.024	3.89907
510.399	7.08064
513.773	10.4024
517.148	18.7419
520.523	28.1812
523.898	44.2076
527.273	67.2365
530.647	94.1256
534.022	113.801
537.397	102.357
540.772	72.4594
544.147	48.7769
547.521	35.6102
550.896	27.9538
554.271	22.6938
557.646	17.5566
561.021	12.843
564.396	8.78122
567.77	5.41555
571.145	4.05651
574.52	2.10619
577.895	2.03672
581.27	1.49526
584.644	0.051247
588.019	0.037533
591.394	0.377464
594.769	0.544819
598.144	0.193405
601.519	0.104713
604.893	0.474659
608.268	1.02277
611.643	0.176262
615.018	1.07204
618.393	0.126366
621.768	0.811306
625.142	0.360123
628.517	0.657364
631.892	0.996948
635.267	0.328217
638.642	1.1873
642.016	1.37768
645.391	1.42715
648.766	0.912121
652.141	1.26357
655.516	1.12547
658.89	1.70054
662.265	1.91195
665.64	0.972446
669.015	1.26095
672.39	1.18675
675.765	1.37789
679.139	1.35314
682.514	1.56203
685.889	1.66649
689.264	4.09786
692.639	2.482
696.014	0.707119
699.388	1.27643
702.763	0.775799
706.138	0.233608
709.513	0.87991
712.888	0.349289
716.262	1.17159
719.637	0.790173
723.012	0.80537
726.387	0.779922
729.762	0.357655
733.136	0.082535
736.511	0.211426
739.886	0.407875
743.261	0.223652
746.636	0.035522
750.011	0.988453
753.385	1.03426
756.76	0.119209
760.135	0.666988
763.51	0.79826
766.885	0.523823
770.26	0.607765
773.634	0.62574
777.009	0.399364
780.384	1.18387
783.759	0.288471
787.134	1.24238
790.508	0.119164
793.883	1.49935
797.258	0.423923
800.633	0.72506
804.008	1.3753
807.383	0.970112
810.757	0.606541
814.132	0.808861
817.507	0.29089
820.882	0.98233
824.257	1.56736
827.631	0.778698
831.006	0.386356
834.381	0.804745
837.756	1.378
841.131	1.41511
844.505	0.805531
847.88	0.720051
851.255	0.795071
854.63	0.483185
858.005	1.42204
861.38	0.948215
864.754	0.397324
868.129	1.15589
871.504	1.33596
874.879	0.651028
878.254	0.33844
881.629	0.97308
885.003	0.063606
888.378	0.805901
891.753	0.058914
895.128	0.023712
898.503	0.925896
901.877	0.35928
905.252	0.967281
908.627	0.011307
912.002	1.01402
915.377	0.653896
918.751	0.339397
922.126	0.467915
925.501	0.928486
928.876	0.055168
932.251	0.735973
935.625	1.18263
939	0.526249
942.375	0.096889
945.75	0.230843
949.125	0.23204
952.5	0.390224
955.875	0.418232
959.249	0.652672
962.624	0.43325
965.999	1.75675
969.374	1.81009
972.749	2.53925
976.123	1.95477
979.498	4.38078
982.873	4.34086
986.248	2.45961
989.623	1.60758
992.997	0.511353
996.372	0.492241
999.747	0.264427
1003.12	0.784405
1006.5	0.716068
1009.87	0.958542
1013.25	2.96898
1016.62	1.09176
1020	0.996181
1023.37	1.33118
1026.75	0.759964
1030.12	1.12058
1033.49	2.11849
1036.87	2.86819
1040.24	4.50187
1043.62	4.97211
1046.99	7.37305
1050.37	12.3606
1053.74	20.0067
1057.12	28.1908
1060.49	21.8043
1063.87	12.1375
1067.24	5.22884
1070.62	3.18454
1073.99	1.85289
1077.37	0.720284
1080.74	0.986589
1084.12	0.874619
1087.49	0.598028
1090.87	0.574989
1094.24	0.700846
1097.62	0.07099
1100.99	0.107508
1104.37	0.467802
1107.74	0.535202
1111.12	0.44475
1114.49	0.854404
1117.87	0.878754
1121.24	1.26199
1124.62	0.62529
1127.99	0.786621
1131.37	0.622097
1134.74	0.543545
1138.12	0.744677
1141.49	1.13669
1144.86	0.733644
1148.24	1.34901
1151.61	1.81339
1154.99	0.986982
1158.36	0.89893
1161.74	0.129807
1165.11	0.707182
1168.49	0.928152
1171.86	0.905397
1175.24	0.934643
1178.61	1.09806
1181.99	0.739021
1185.36	0.834173
1188.74	0.377741
1192.11	0.885897
1195.49	0.267717
1198.86	0.740793
1202.24	0.841
1205.61	1.10582
1208.99	0.438839
1212.36	0.4506
1215.73	1.12752
1219.11	1.29929
1222.48	1.33891
1225.86	0.981056
1229.23	0.466362
1232.61	0.105717
1235.98	0.640856
1239.36	0.321356
1242.73	0.546808
1246.11	1.12608
1249.48	0.407179
1252.86	0.720062
1256.23	0.679234
1259.61	0.663292
1262.98	1.44828
1266.36	1.13472
1269.73	0.656656
1273.11	0.254179
1276.48	2.1479
1279.86	1.11364
