Measurement: Raman, 532 nm, unoriented, Raman Data Processed
Mineral: Liudongshengite
Rruff sample: R180016
Ideal chemistry: Zn^2+^_4_Cr^3+^_2_(OH)_12_(CO_3_)3H_2_O
Locality: 79 mine, Gila Co., Arizona, USA
Source: Ron Gibbs
Description: Pinkish hexagonal thin platy crystals, associated with cerussite, malachite, rosasite, hemimorphite, mimetite, wulfenite, fornacite, and rarely linarite and kuksite. This is the type specimen.
Measured chemistry: (Zn_3.25_Mg_0.17_Cr_2.58_)_Σ6.00_(OH)_12_(CO_3_)_1.29_·3H_2_O. ; The C content of 2.31(2) wt.% was obtained from an Elemental Combustion System equipped with mass spectrometry.
Raman shift (cm-1)	intensity
88.1367	0
91.5115	9.4512
94.8863	7.299
98.2612	1.49492
101.636	0.188873
105.011	0.619995
108.386	15.7561
111.76	14.5344
115.135	29.2924
118.51	45.5848
121.885	62.0374
125.26	85.6865
128.635	103.571
132.009	137.72
135.384	167.037
138.759	208.293
142.134	245.949
145.509	271.864
148.883	300.423
152.258	311.065
155.633	309.927
159.008	280.954
162.383	239.992
165.757	197.498
169.132	152.712
172.507	114.014
175.882	86.8472
179.257	65.0637
182.632	52.1672
186.006	39.4063
189.381	31.6971
192.756	20.8593
196.131	12.6761
199.506	6.23003
202.881	1.36824
206.255	2.20775
209.63	2.10703
213.005	0.038071
216.38	0.084183
219.755	2.56471
223.129	5.72321
226.504	17.2432
229.879	24.8449
233.254	39.0024
236.629	50.6354
240.004	70.307
243.378	91.8972
246.753	119.82
250.128	145.266
253.503	168.326
256.878	187.896
260.252	191.983
263.627	172.781
267.002	142.474
270.377	114.323
273.752	89.0049
277.127	71.2447
280.501	53.7838
283.876	40.9768
287.251	30.0962
290.626	20.7862
294.001	14.5488
297.375	7.64226
300.75	6.38611
304.125	3.75934
307.5	2.15436
310.875	0.709274
314.25	1.09547
317.624	2.0211
320.999	2.72217
324.374	2.66586
327.749	1.76099
331.124	3.22549
334.498	3.87007
337.873	5.73761
341.248	8.80783
344.623	8.50752
347.998	7.82518
351.373	8.56519
354.747	7.62444
358.122	7.99774
361.497	5.63979
364.872	7.46358
368.247	5.46797
371.621	3.86346
374.996	4.30791
378.371	0.83519
381.746	0.141068
385.121	0.636963
388.495	0.310516
391.87	2.50046
395.245	0.301849
398.62	1.31972
401.995	1.07771
405.37	2.04332
408.744	2.9348
412.119	7.17963
415.494	7.98222
418.869	9.06831
422.244	10.5746
425.618	10.8166
428.993	13.5564
432.368	15.6828
435.743	19.225
439.118	23.1824
442.493	28.7009
445.867	34.475
449.242	39.9832
452.617	37.9279
455.992	37.3537
459.367	39.7455
462.741	40.9723
466.116	39.3892
469.491	40.2977
472.866	35.9331
476.241	26.5347
479.615	21.8493
482.99	13.8249
486.365	7.92483
489.74	1.40973
493.115	2.76476
496.49	0.130447
499.864	2.2468
503.239	8.15492
506.614	19.2297
509.989	37.0984
513.364	60.3395
516.739	93.8384
520.113	150.288
523.488	230.719
526.863	330.189
530.238	449.826
533.613	552.779
536.987	558.492
540.362	434.347
543.737	300.297
547.112	214.978
550.487	164.456
553.861	129.356
557.236	101.102
560.611	75.3396
563.986	53.7156
567.361	36.264
570.736	23.7277
574.11	16.6956
577.485	8.12651
580.86	6.05666
584.235	4.16681
587.61	1.82433
590.985	0.24913
594.359	1.459
597.734	2.07797
601.109	1.80518
604.484	2.28377
607.859	0.89325
611.233	1.03334
614.608	0.26358
617.983	0.429001
621.358	1.83668
624.733	2.14825
628.107	3.32242
631.482	0.364792
634.857	3.05096
638.232	3.06505
641.607	2.60458
644.982	3.67578
648.356	4.01683
651.731	6.5992
655.106	6.65227
658.481	7.55873
661.856	8.22073
665.231	7.05016
668.605	8.37012
671.98	9.95419
675.355	9.18968
678.73	7.29744
682.105	11.5575
685.479	12.0273
688.854	11.3744
692.229	10.8363
695.604	8.56996
698.979	5.14006
702.354	3.33231
705.728	3.46924
709.103	2.14508
712.478	2.35208
715.853	1.97488
719.227	1.9355
722.602	0.736801
725.977	0.614151
729.352	0.238861
732.727	2.31255
736.102	2.35753
739.476	1.59245
742.851	0.375961
746.226	1.38234
749.601	1.30504
752.976	1.2959
756.351	1.5333
759.725	3.2793
763.1	2.24112
766.475	2.02316
769.85	1.97722
773.225	2.93991
776.599	2.00932
779.974	2.37541
783.349	2.71619
786.724	1.49532
790.099	2.16298
793.473	1.67335
796.848	1.70457
800.223	2.00362
803.598	2.87227
806.973	2.17917
810.348	2.724
813.722	2.95395
817.097	4.14021
820.472	2.02939
823.847	4.64311
827.222	5.93919
830.597	7.52119
833.971	6.36647
837.346	6.6134
840.721	7.70926
844.096	5.44182
847.471	6.9189
850.846	5.44826
854.22	7.5325
857.595	7.53233
860.97	6.68791
864.345	5.75345
867.72	6.67166
871.094	5.08223
874.469	3.82729
877.844	0.987671
881.219	1.02943
884.594	1.82841
887.968	2.20192
891.343	0.096619
894.718	0.308578
898.093	0.694733
901.468	0.786652
904.842	0.966446
908.217	0.875824
911.592	0.099228
914.967	1.53624
918.342	0.608597
921.717	0.187775
925.091	0.039856
928.466	1.14177
931.841	1.09247
935.216	2.45941
938.591	0.21347
941.966	0.479843
945.34	0.891891
948.715	2.48404
952.09	1.55215
955.465	1.1662
958.84	0.831253
962.214	2.39963
965.589	4.34482
968.964	7.11345
972.339	9.79965
975.714	15.6759
979.088	19.1572
982.463	24.1423
985.838	19.9113
989.213	12.5395
992.588	6.88683
995.963	3.56221
999.337	3.68504
1002.71	0.042908
1006.09	2.78975
1009.46	1.49718
1012.84	2.23247
1016.21	3.61212
1019.59	4.66705
1022.96	5.88855
1026.34	7.60109
1029.71	10.193
1033.09	14.5548
1036.46	20.3574
1039.84	26.5696
1043.21	36.6737
1046.59	51.761
1049.96	78.7425
1053.33	116.3
1056.71	157.356
1060.08	163.324
1063.46	103.144
1066.83	50.4138
1070.21	25.8011
1073.58	12.3454
1076.96	5.60855
1080.33	3.70969
1083.71	2.24497
1087.08	2.05778
1090.46	0.928329
1093.83	0.080612
1097.21	0.089188
1100.58	0.429825
1103.96	0.442337
1107.33	0.884232
1110.71	0.770294
1114.08	1.24063
1117.46	1.1931
1120.83	2.65443
1124.21	2.04079
1127.58	1.46033
1130.95	0.968414
1134.33	2.33257
1137.7	3.31444
1141.08	3.05753
1144.45	2.66725
1147.83	3.32521
1151.2	1.65216
1154.58	4.25615
1157.95	2.69426
1161.33	3.59492
1164.7	2.45381
1168.08	1.61012
1171.45	2.95065
1174.83	3.50967
1178.2	2.56741
1181.58	1.34975
1184.95	2.0349
1188.33	1.627
1191.7	2.58218
1195.08	3.42802
1198.45	3.22234
1201.83	0.151993
1205.2	1.45946
1208.58	1.71823
1211.95	0.771057
1215.33	2.26375
1218.7	0.406311
1222.08	2.53514
1225.45	1.34503
1228.83	2.37929
1232.2	0.951523
1235.58	1.34276
1238.95	0.749969
1242.32	1.27245
1245.7	2.15218
1249.07	2.13312
1252.45	1.4993
1255.82	3.65523
1259.2	1.93921
1262.57	1.76465
1265.95	0.219315
1269.32	1.39128
1272.7	0.658966
1276.07	2.43633
1279.45	0.812637
1282.82	1.97223
1286.2	0.102051
1289.57	1.57559
1292.95	2.29485
1296.32	1.50206
1299.7	0.719818
