Measurement: Raman, 532 nm, unoriented, Raman Data RAW
Mineral: Lobanovite
Rruff sample: R120068
Ideal chemistry: K_2_Na(Fe^2+^_4_Mg_2_Na)Ti^4+^_2_(Si_4_O_12_)_2_O_2_(OH)_4_
Locality: Apatitovaya Mt., Khibiny Massif, Kola Peninsula, Murmanskaja Oblast', Northern Region, Russia
Source: Donald Doell
Description: Massive transparent golden sheets associated with light green aegirine
Raman shift (cm-1)	intensity
90.0101	0
93.3849	14.4339
96.7597	13.1493
100.135	12.4173
103.509	11.9647
106.884	10.966
110.259	10.0113
113.634	9.46417
117.009	8.85622
120.383	8.52041
123.758	8.19455
127.133	7.66204
130.508	7.43773
133.883	7.37486
137.257	6.78358
140.632	6.54322
144.007	8.65585
147.382	6.01115
150.757	5.69958
154.132	5.94728
157.506	7.09855
160.881	11.5636
164.256	22.6075
167.631	44.1385
171.006	71.4168
174.381	85.7181
177.755	78.0809
181.13	67.3748
184.505	63.5296
187.88	62.9685
191.255	60.4966
194.629	57.6009
198.004	56.449
201.379	55.9064
204.754	57.4394
208.129	61.927
211.504	67.7285
214.878	76.5228
218.253	87.1129
221.628	99.3992
225.003	111.884
228.377	120.124
231.752	121.027
235.127	116.478
238.502	114.459
241.877	113.528
245.252	113.743
248.626	108.129
252.001	91.3651
255.376	77.9801
258.751	69.6617
262.126	66.6508
265.5	66.7635
268.875	68.4965
272.25	70.7826
275.625	73.5793
279	77.9825
282.375	81.7697
285.75	81.5043
289.124	81.1616
292.499	82.1815
295.874	88.9642
299.249	98.6459
302.623	111.201
305.998	124.885
309.373	135.293
312.748	134.583
316.123	118.239
319.498	104.452
322.872	96.281
326.247	93.7014
329.622	96.6883
332.997	101.818
336.372	108.998
339.747	120.54
343.121	133.852
346.496	146.065
349.871	157.495
353.246	172.018
356.621	191.77
359.995	211.612
363.37	213.001
366.745	184.647
370.12	151.098
373.495	121.788
376.87	95.7295
380.244	78.7171
383.619	68.8102
386.994	62.7458
390.369	56.2699
393.744	52.5901
397.118	51.4083
400.493	49.5024
403.868	48.6704
407.243	47.7042
410.618	47.351
413.993	47.2929
417.367	46.839
420.742	47.022
424.117	48.4463
427.492	49.9949
430.866	53.2619
434.241	56.7389
437.616	60.0409
440.991	63.8663
444.366	65.2627
447.741	65.9663
451.115	62.5421
454.49	58.0042
457.865	51.4348
461.24	47.8147
464.615	44.9533
467.99	44.7803
471.364	44.1561
474.739	45.6503
478.114	49.0997
481.489	52.1159
484.864	56.8575
488.238	58.2519
491.613	55.0577
494.988	49.9704
498.363	46.8237
501.738	44.9795
505.113	45.15
508.487	47.3635
511.862	49.8412
515.237	54.3741
518.612	55.7593
521.987	52.5328
525.361	51.02
528.736	51.5854
532.111	52.1857
535.486	50.5586
538.861	49.9216
542.236	50.0114
545.61	49.5879
548.985	51.4949
552.36	56.1423
555.735	61.207
559.11	69.2786
562.484	79.2514
565.859	89.4811
569.234	95.0759
572.609	87.8941
575.984	73.9928
579.359	62.9535
582.733	56.0263
586.108	51.1642
589.483	50.267
592.858	48.5031
596.232	48.2275
599.607	47.9247
602.982	48.1293
606.357	49.0633
609.732	50.4491
613.107	51.9281
616.481	52.9907
619.856	56.1378
623.231	58.4867
626.606	60.9898
629.981	64.3662
633.356	68.2733
636.73	70.8947
640.105	74.7221
643.48	78.6087
646.855	83.368
650.23	88.421
653.604	96.1168
656.979	105.34
660.354	118.03
663.729	136.489
667.104	155.894
670.479	159.623
673.853	128.807
677.228	95.1441
680.603	74.7287
683.978	65.3266
687.353	59.1424
690.727	55.265
694.102	52.463
697.477	50.9142
700.852	49.7359
704.227	48.3918
707.601	48.4753
710.976	49.2493
714.351	50.6034
717.726	51.9946
721.101	52.097
724.476	50.1291
727.85	48.8018
731.225	47.9254
734.6	48.6467
737.975	49.152
741.35	49.8881
744.725	51.3434
748.099	54.7896
751.474	56.8575
754.849	60.779
758.224	62.5703
761.599	62.601
764.973	63.0599
768.348	62.5711
771.723	61.2837
775.098	60.7088
778.473	61.7136
781.847	62.3435
785.222	65.6262
788.597	69.067
791.972	72.6008
795.347	79.0576
798.722	84.474
802.096	90.5918
805.471	99.5097
808.846	114.984
812.221	138.82
815.596	173.593
818.971	223.339
822.345	286.079
825.72	358.172
829.095	431.159
832.47	505.655
835.845	561.893
839.219	536.581
842.594	419.356
845.969	288.596
849.344	200.237
852.719	149.912
856.093	121.557
859.468	104.465
862.843	95.1268
866.218	89.4838
869.593	87.4026
872.967	88.9358
876.342	93.6707
879.717	98.1291
883.092	105.809
886.467	114.386
889.842	127.871
893.216	139.884
896.591	151.629
899.966	155.441
903.341	141.268
906.716	117.65
910.091	102.049
913.465	92.3716
916.84	86.7601
920.215	82.8887
923.59	80.6803
926.965	79.3561
930.339	78.7369
933.714	80.5332
937.089	82.2239
940.464	84.0653
943.839	82.7293
947.213	76.4602
950.588	68.304
953.963	61.5881
957.338	57.4421
960.713	54.7187
964.088	53.0298
967.462	52.1117
970.837	52.6284
974.212	51.1092
977.587	51.7023
980.962	52.9709
984.337	53.8354
987.711	55.2085
991.086	58.0581
994.461	61.5418
997.836	66.8761
1001.21	73.3857
1004.59	84.2157
1007.96	99.5187
1011.34	122.595
1014.71	145.411
1018.09	165.335
1021.46	172.437
1024.83	155.924
1028.21	130.41
1031.58	109.989
1034.96	97.0051
1038.33	88.5905
1041.71	87.8386
1045.08	91.64
1048.46	101.326
1051.83	120.005
1055.21	142.983
1058.58	163.328
1061.96	164.311
1065.33	133.193
1068.71	102.399
1072.08	82.9939
1075.46	69.7682
1078.83	62.6622
1082.21	56.8263
1085.58	54.5974
1088.96	52.6665
1092.33	52.4462
1095.7	51.3926
1099.08	51.5478
1102.45	47.8653
1105.83	43.8536
1109.2	40.5448
1112.58	39.1523
1115.95	38.6258
1119.33	37.7785
1122.7	37.2387
1126.08	36.4077
1129.45	36.2646
1132.83	36.4286
1136.2	36.2268
1139.58	36.3938
1142.95	35.4915
1146.33	35.901
1149.7	35.9753
1153.08	35.3803
1156.45	35.5934
1159.83	36.0755
1163.2	35.913
1166.58	35.8936
1169.95	34.9636
1173.33	35.2804
1176.7	35.1953
1180.08	35.5637
1183.45	35.7363
1186.83	36.112
1190.2	35.83
1193.58	35.4353
1196.95	35.3259
1200.33	35.6657
1203.7	35.8851
1207.07	35.6476
1210.45	35.157
1213.82	35.7929
1217.2	35.7485
1220.57	34.8722
1223.95	35.3604
1227.32	35.5465
1230.7	35.6394
1234.07	35.3598
1237.45	35.355
1240.82	34.6946
1244.2	35.373
1247.57	34.9955
1250.95	35.3931
1254.32	35.1274
1257.7	35.0615
1261.07	35.4278
1264.45	35.3005
1267.82	35.9685
1271.2	35.4521
1274.57	36.0972
1277.95	35.8649
1281.32	36.3745
1284.69	36.7867
1288.07	37.1762
1291.44	37.3246
1294.82	36.6625
1298.19	35.9888
1301.57	36.5871
