Measurement: Raman, 780 nm, unoriented, Raman Data RAW
Mineral: Lobanovite
Rruff sample: R120068
Ideal chemistry: K_2_Na(Fe^2+^_4_Mg_2_Na)Ti^4+^_2_(Si_4_O_12_)_2_O_2_(OH)_4_
Locality: Apatitovaya Mt., Khibiny Massif, Kola Peninsula, Murmanskaja Oblast', Northern Region, Russia
Source: Donald Doell
Description: Massive transparent golden sheets associated with light green aegirine
Raman shift (cm-1)	intensity
91.1214	0
94.4962	428.642
97.871	331.368
101.246	331.413
104.621	298.82
107.996	218.847
111.37	190.749
114.745	188.716
118.12	181.534
121.495	175.231
124.87	170.263
128.244	177.032
131.619	190.721
134.994	210.896
138.369	234.449
141.744	227.48
145.119	202.577
148.493	203.24
151.868	224.943
155.243	263.382
158.618	330.385
161.993	429.18
165.367	572.028
168.742	720.01
172.117	743.603
175.492	593.93
178.867	422.345
182.242	315.227
185.616	252.704
188.991	213.106
192.366	185.857
195.741	166.729
199.115	153.299
202.49	146.872
205.865	144.189
209.24	144.664
212.615	146.838
215.99	152.692
219.364	163.215
222.739	172.568
226.114	185.378
229.489	192.785
232.864	197.693
236.238	204.343
239.613	220.35
242.988	237.974
246.363	244.966
249.738	225.959
253.113	193.761
256.487	169.873
259.862	158.496
263.237	156.23
266.612	161.2
269.987	170.73
273.361	173.202
276.736	175.732
280.111	177.342
283.486	178.634
286.861	174.877
290.236	169.062
293.61	171.956
296.985	179.931
300.36	192.988
303.735	210.133
307.11	222.73
310.485	227.819
313.859	216.381
317.234	195.601
320.609	177.079
323.984	167.39
327.359	162.819
330.733	163.668
334.108	167.549
337.483	177.278
340.858	187.369
344.233	205.272
347.608	218.982
350.982	237.003
354.357	263.195
357.732	303.231
361.107	343.154
364.482	354.142
367.856	330.023
371.231	299.462
374.606	254.367
377.981	215.795
381.356	192.624
384.731	182.832
388.105	169.495
391.48	154.096
394.855	144.837
398.23	141.632
401.605	140.555
404.979	138.655
408.354	132.751
411.729	130.904
415.104	128.807
418.479	129.881
421.853	129.744
425.228	129.101
428.603	132.047
431.978	135.047
435.353	138.511
438.728	140.273
442.102	143.304
445.477	145.449
448.852	146.94
452.227	141.053
455.602	132.007
458.976	123.073
462.351	116.539
465.726	111.914
469.101	110.291
472.476	111.899
475.851	114.2
479.225	118.389
482.6	126.528
485.975	135.213
489.35	139.426
492.725	135.21
496.099	128.167
499.474	123.333
502.849	122.834
506.224	125.174
509.599	127.564
512.973	132.617
516.348	134.274
519.723	132.613
523.098	126.943
526.473	122.519
529.848	120.649
533.222	118.939
536.597	116.562
539.972	115.818
543.347	112.611
546.722	115.454
550.096	120.194
553.471	127.695
556.846	138.386
560.221	153.023
563.596	176.083
566.971	200.612
570.345	206.052
573.72	188.084
577.095	161.929
580.47	141.543
583.845	127.387
587.22	121.653
590.594	115.929
593.969	113.426
597.344	113.024
600.719	113.044
604.094	113.484
607.468	116.432
610.843	118.929
614.218	121.086
617.593	124.085
620.968	128.7
624.342	135.68
627.717	141.353
631.092	147.599
634.467	153.086
637.842	158.263
641.217	164.495
644.591	171.793
647.966	178.98
651.341	188.579
654.716	204.291
658.091	229.303
661.466	272.892
664.84	341.188
668.215	414.4
671.59	410.597
674.965	309.812
678.34	217.571
681.714	169.026
685.089	143.54
688.464	129.959
691.839	119.263
695.214	114.786
698.588	111.062
701.963	107.599
705.338	107.412
708.713	108.299
712.088	109.925
715.462	115.122
718.837	121.465
722.212	121.052
725.587	113.686
728.962	106.947
732.337	102.192
735.711	101.332
739.086	100.946
742.461	100.873
745.836	103.532
749.211	105.053
752.586	107.966
755.96	110.24
759.335	113.47
762.71	115.148
766.085	114.021
769.46	113.896
772.834	112.95
776.209	114.449
779.584	113.903
782.959	115.68
786.334	118.965
789.708	126.183
793.083	132.543
796.458	140.327
799.833	148.416
803.208	157.363
806.583	171.15
809.957	191.089
813.332	224.838
816.707	275.284
820.082	347.185
823.457	432.492
826.832	520.842
830.206	625.118
833.581	739.153
836.956	814.31
840.331	756.552
843.706	572.965
847.08	396.78
850.455	287.594
853.83	223.723
857.205	190.308
860.58	169.445
863.955	160.022
867.329	155.7
870.704	156.99
874.079	162.667
877.454	175.86
880.829	185.383
884.203	206.024
887.578	234.34
890.953	257.524
894.328	272.353
897.703	265.594
901.077	245.827
904.452	213.678
907.827	180.652
911.202	162.879
914.577	154.545
917.952	150.713
921.326	146.723
924.701	145.099
928.076	143.833
931.451	146.772
934.826	149.205
938.2	155.555
941.575	158.754
944.95	155.855
948.325	144.792
951.7	130.764
955.074	119.044
958.449	108.807
961.824	101.416
965.199	96.2886
968.574	94.7608
971.949	92.7189
975.323	93.1799
978.698	91.6694
982.073	92.0791
985.448	90.0391
988.823	91.6461
992.197	94.7869
995.572	98.0931
998.947	102.911
1002.32	109.41
1005.7	118.531
1009.07	134.004
1012.45	155.019
1015.82	177.922
1019.2	194.856
1022.57	192.322
1025.95	174.008
1029.32	153.344
1032.69	140.218
1036.07	131.105
1039.44	126.826
1042.82	127.379
1046.19	136.822
1049.57	154.608
1052.94	181.254
1056.32	220.942
1059.69	247.399
1063.07	232.812
1066.44	187.182
1069.82	147.042
1073.19	120.626
1076.57	106.444
1079.94	97.6928
1083.32	90.5539
1086.69	87.0212
1090.07	82.3046
1093.44	80.7236
1096.82	76.373
1100.19	73.295
1103.57	70.4583
1106.94	66.1337
1110.32	64.3707
1113.69	63.2192
1117.07	61.4409
1120.44	60.2569
1123.82	59.5878
1127.19	61.2239
1130.57	60.5752
1133.94	59.2026
1137.32	59.7237
1140.69	58.4785
1144.06	57.4114
1147.44	58.2637
1150.81	57.4663
1154.19	56.8839
1157.56	57.5817
1160.94	57.4176
1164.31	57.9457
1167.69	56.2423
1171.06	57.2917
1174.44	57.1569
1177.81	56.9662
1181.19	56.561
1184.56	56.4228
1187.94	55.3768
1191.31	56.1038
1194.69	55.3775
1198.06	56.3658
1201.44	55.9607
1204.81	54.9367
1208.19	54.6052
1211.56	55.1004
1214.93	55.2471
1218.31	54.915
1221.68	53.9437
1225.06	54.493
1228.43	53.5479
1231.81	58.9906
1235.18	53.782
1238.56	53.8894
1241.93	53.4512
1245.31	52.9385
1248.68	53.7894
1252.06	54.0334
1255.43	53.6495
1258.81	53.1221
1262.18	53.8344
1265.56	55.0084
1268.93	54.1801
1272.31	53.9788
1275.68	52.8709
1279.06	52.0309
1282.43	53.7713
