Measurement: Raman, 532 nm, unoriented, Raman Data RAW
Mineral: Loparite-(Ce)
Rruff sample: R070251
Ideal chemistry: (Na,Ce^3+^,Sr)(Ce^3+^,Th^4+^)(Ti^4+^,Nb^5+^)_2_O_6_
Locality: Maly Mannepakhk Mt (Malyi Mannepakhk Mt), Khibiny Massif, Kola Peninsula, Murmanskaja Oblast', Northern Region, Russia
Source: Michael Scott
Description: Black interpenetrating cubes associated with green aegirine and sugary microcline
Raman shift (cm-1)	intensity
176.66	4036.97
179.553	4088.69
182.446	4040.93
185.339	4129.6
188.231	4150.49
191.124	4155.45
194.017	4170.55
196.909	4182.56
199.802	4222.16
202.695	4245.58
205.587	4268.53
208.48	4293.78
211.373	4240.09
214.266	4287.29
217.158	4276.92
220.051	4349.47
222.944	4375.18
225.836	4367.77
228.729	4363.29
231.622	4373.7
234.514	4332.95
237.407	4366
240.3	4351.8
243.192	4374.6
246.085	4365.45
248.978	4372.44
251.871	4338.15
254.763	4336.66
257.656	4366.86
260.549	4354.67
263.441	4322.1
266.334	4310.01
269.227	4286.78
272.12	4290.83
275.012	4257.41
277.905	4235.38
280.798	4206.73
283.69	4177.47
286.583	4186.34
289.476	4189.11
292.368	4110.79
295.261	4074.63
298.154	4079.31
301.046	4031.03
303.939	3975.51
306.832	3957.58
309.725	3951.16
312.617	3894.29
315.51	3868.53
318.403	3824.81
321.295	3811.47
324.188	3769.22
327.081	3705.28
329.974	3694.11
332.866	3673.04
335.759	3606.86
338.652	3595.89
341.544	3567.61
344.437	3512.39
347.33	3449.39
350.223	3445.84
353.115	3379.02
356.008	3373.07
358.901	3311.11
361.793	3249.52
364.686	3222.75
367.579	3220.91
370.471	3171.57
373.364	3168.28
376.257	3073.16
379.149	3027.89
382.042	2991.64
384.935	2981.23
387.828	2932.26
390.72	2883.16
393.613	2872.34
396.506	2857.24
399.398	2810.15
402.291	2826.87
405.184	2774.95
408.077	2758.81
410.969	2696.24
413.862	2694.77
416.755	2717.2
419.647	2700.84
422.54	2686.64
425.433	2667.75
428.325	2708.67
431.218	2707.65
434.111	2703.18
437.003	2718.82
439.896	2724.85
442.789	2750.38
445.682	2682.39
448.574	2701.31
451.467	2694.35
454.36	2712.89
457.252	2618.97
460.145	2622.34
463.038	2606.22
465.93	2634.67
468.823	2650.74
471.716	2600.73
474.609	2630.63
477.501	2629.58
480.394	2665.44
483.287	2651.84
486.179	2672.24
489.072	2705.02
491.965	2702.48
494.858	2764.28
497.75	2802.03
500.643	2798.03
503.536	2833.2
506.428	2868.76
509.321	2900.37
512.214	2919.4
515.106	2991.95
517.999	2993.58
520.892	3015.16
523.784	3050.7
526.677	3075.51
529.57	3116.26
532.463	3114.18
535.355	3139.9
538.248	3152.52
541.141	3163.25
544.033	3221.76
546.926	3219.85
549.819	3223.66
552.712	3202.99
555.604	3228.61
558.497	3237.01
561.39	3197.65
564.282	3187.39
567.175	3178.95
570.068	3186.64
572.96	3171.19
575.853	3123.63
578.746	3166.26
581.639	3080.15
584.531	3049.86
587.424	3046.97
590.317	2992.43
593.209	2979.37
596.102	2990.78
598.995	2971.01
601.888	2864.81
604.78	2923.8
607.673	2848.36
610.566	2872.73
613.458	2788.69
616.351	2734.69
619.244	2754.62
622.136	2722.38
625.029	2647.55
627.922	2641.14
630.814	2566.08
633.707	2530.97
636.6	2512.98
639.493	2468.95
642.385	2460.3
645.278	2396.04
648.171	2350.33
651.063	2345.53
653.956	2301.24
656.849	2262.91
659.741	2263.59
662.634	2206.95
665.527	2204.76
668.42	2170.04
671.312	2148.96
674.205	2136.49
677.098	2092.54
679.99	2105.32
682.883	2123.32
685.776	2096.6
688.668	2033.11
691.561	2130.99
694.454	2068.21
697.347	2090.18
700.239	2047.11
703.132	2052.22
706.025	2032.81
708.917	2091.88
711.81	2098.62
714.703	2067.41
717.596	2101.77
720.488	2100.26
723.381	2116.36
726.274	2121.87
729.166	2122.71
732.059	2154.35
734.952	2174.58
737.844	2209.25
740.737	2220.52
743.63	2242.05
746.523	2258.91
749.415	2311.04
752.308	2339.77
755.201	2344.75
758.093	2313.94
760.986	2375.28
763.879	2365.93
766.771	2412.35
769.664	2435.92
772.557	2454.18
775.45	2463.28
778.342	2433.65
781.235	2483.66
784.128	2472.32
787.02	2509.85
789.913	2468.59
792.806	2508.21
795.698	2494.64
798.591	2499.86
801.484	2486.84
804.377	2504.34
807.269	2480.95
810.162	2453.81
813.055	2465.16
815.947	2491.05
818.84	2463.64
821.733	2477.92
824.625	2437.59
827.518	2388.06
830.411	2400.71
833.304	2352.9
836.196	2347.54
839.089	2331.52
841.982	2294.96
844.874	2255.18
847.767	2258.1
850.66	2172.17
853.553	2113.98
856.445	2087.81
859.338	2059.25
862.231	2006.26
865.123	1958.65
868.016	1887.86
870.909	1857.44
873.801	1792.99
876.694	1721.19
879.587	1716.99
882.48	1654.57
885.372	1608.94
888.265	1531.82
891.158	1482.83
894.05	1410
896.943	1383.23
899.836	1339.61
902.729	1303.23
905.621	1240.72
908.514	1228.31
911.407	1146.88
914.299	1146.58
917.192	1125.16
920.085	1103.32
922.977	1094.46
925.87	1073.35
928.763	1030.83
931.655	1061.71
934.548	1015.86
937.441	1005.28
940.334	965.188
943.226	986.41
946.119	951.237
949.012	935.506
951.904	914.453
954.797	924.737
957.69	900.375
960.582	900.952
963.475	901.749
966.368	890.506
969.261	899.178
972.153	894.029
975.046	887.466
977.939	878.984
980.831	858.462
983.724	884.812
986.617	882.551
989.51	875.904
992.402	861.105
995.295	850.864
998.188	855.577
1001.08	827.472
1003.97	854.337
1006.87	844.406
1009.76	820.807
1012.65	814.549
1015.54	837.213
1018.44	862.596
1021.33	850.775
1024.22	849.625
1027.12	804.781
1030.01	842.1
1032.9	832.032
1035.79	829.403
1038.68	816.865
1041.58	829.885
1044.47	798.273
1047.36	825.36
1050.26	830.903
1053.15	822.667
1056.04	808.231
1058.93	800.861
1061.83	809.103
1064.72	798.725
1067.61	803.016
1070.51	806.264
1073.4	780.875
1076.29	776.978
1079.18	790.485
1082.08	786.304
1084.97	778.608
1087.86	785.624
1090.75	781.166
1093.65	768.195
1096.54	767.171
1099.43	776.083
1102.33	774.446
1105.22	775.274
1108.11	758.549
1111	753.776
1113.9	759.943
1116.79	739.587
1119.68	756.44
1122.57	745.797
1125.47	745.33
1128.36	733.956
1131.25	734.995
1134.14	754.24
1137.04	725.547
1139.93	728.829
1142.82	728.638
1145.71	728.798
1148.61	721.136
1151.5	729.063
1154.39	709.05
1157.29	717.161
1160.18	721.49
1163.07	747.152
1165.96	707.211
1168.86	724.991
1171.75	711.525
1174.64	725.093
1177.54	739.398
1180.43	708.523
1183.32	696.074
1186.21	698.332
1189.11	701.006
1192	701.292
1194.89	700.599
1197.78	713.498
1200.68	713.561
1203.57	709.318
1206.46	705.106
1209.36	720.014
1212.25	709.463
1215.14	699.458
1218.03	696.878
1220.93	707.606
1223.82	700.462
1226.71	691.859
1229.6	709.757
1232.5	678.596
1235.39	684.21
1238.28	711.986
1241.17	711.256
1244.07	708.986
1246.96	700.735
1249.85	704.385
1252.74	731.281
1255.64	737.02
1258.53	692.633
1261.42	703.701
1264.32	717.311
1267.21	710.062
1270.1	701.52
1272.99	725.289
1275.89	687.878
1278.78	726.626
1281.67	698.602
1284.57	731.4
1287.46	710.536
1290.35	697.269
1293.24	719.462
1296.14	713.393
1299.03	710.371
1301.92	690.182
1304.81	708.153
1307.71	706.712
1310.6	710.629
