Measurement: Raman, 785 nm, unoriented, Raman Data RAW
Mineral: Loparite-(Ce)
Rruff sample: R070251
Ideal chemistry: (Na,Ce^3+^,Sr)(Ce^3+^,Th^4+^)(Ti^4+^,Nb^5+^)_2_O_6_
Locality: Maly Mannepakhk Mt (Malyi Mannepakhk Mt), Khibiny Massif, Kola Peninsula, Murmanskaja Oblast', Northern Region, Russia
Source: Michael Scott
Description: Black interpenetrating cubes associated with green aegirine and sugary microcline
Raman shift (cm-1)	intensity
175.017	5131.02
177.909	5175.1
180.802	5270.56
183.695	5405.12
186.587	5511.55
189.48	5588.91
192.373	5637.28
195.265	5761.72
198.158	5876.77
201.051	5923.85
203.944	5976.33
206.836	6028.99
209.729	6039.31
212.622	6107.4
215.514	6200.39
218.407	6274.15
221.3	6422.32
224.192	6458.9
227.085	6561.66
229.978	6559.42
232.87	6687.11
235.763	6741.43
238.656	6844.91
241.549	6877.4
244.441	6954.22
247.334	6974.39
250.227	7041.65
253.119	7130.8
256.012	7203.76
258.905	7286.17
261.798	7337.58
264.69	7355.58
267.583	7445.52
270.476	7447.45
273.368	7493.24
276.261	7575.65
279.154	7563.32
282.046	7589
284.939	7683.6
287.832	7757.77
290.724	7721.1
293.617	7771.99
296.51	7840.86
299.403	7797.02
302.295	7874.46
305.188	7945.85
308.081	8018.47
310.973	8016.73
313.866	8064.1
316.759	8160.78
319.651	8146.98
322.544	8138.35
325.437	8208.32
328.33	8327.3
331.222	8371.43
334.115	8419.86
337.008	8395.32
339.9	8420.54
342.793	8463.8
345.686	8573.75
348.579	8513.5
351.471	8613.1
354.364	8674.2
357.257	8611.31
360.149	8662.82
363.042	8680.52
365.935	8735.49
368.827	8713.91
371.72	8696.65
374.613	8810.73
377.505	8787.98
380.398	8778.17
383.291	8807.3
386.184	8790.12
389.076	8761
391.969	8762.09
394.862	8750.34
397.754	8736.38
400.647	8815.23
403.54	8712.29
406.433	8682.42
409.325	8683.01
412.218	8667.33
415.111	8646.35
418.003	8666.71
420.896	8660.93
423.789	8592.44
426.681	8564.69
429.574	8585.75
432.467	8556.09
435.36	8489.16
438.252	8493.62
441.145	8454.48
444.038	8406.44
446.93	8388.78
449.823	8377.21
452.716	8370.07
455.608	8284.98
458.501	8212.85
461.394	8158.62
464.286	8190.15
467.179	8176.99
470.072	8095.19
472.965	8082.98
475.857	7999.6
478.75	8072.72
481.643	8010.17
484.535	8018.5
487.428	8014.28
490.321	7989.34
493.214	7987.43
496.106	7986.14
498.999	8002.12
501.892	7968.96
504.784	7982.82
507.677	7983.85
510.57	8002.94
513.462	7939.26
516.355	7933.59
519.248	7929.45
522.14	7911.12
525.033	7815.47
527.926	7898.41
530.819	7865.78
533.711	7881.46
536.604	7799.67
539.497	7843.28
542.389	7772.6
545.282	7770.3
548.175	7741.8
551.067	7729.85
553.96	7733.54
556.853	7665.19
559.745	7735.48
562.638	7631.44
565.531	7663.45
568.424	7681.31
571.316	7594.89
574.209	7632.16
577.102	7655.46
579.994	7606.02
582.887	7656.82
585.78	7660.08
588.673	7668.51
591.565	7727.05
594.458	7640.26
597.351	7695.09
600.243	7784.47
603.136	7846.23
606.029	7861.28
608.921	7808.29
611.814	7829.87
614.707	7783.68
617.6	7721.58
620.492	7680.9
623.385	7584.73
626.278	7383
629.17	7391.28
632.063	7229.71
634.956	7107.5
637.848	6965.88
640.741	6873.91
643.634	6738
646.527	6666.92
649.419	6608.48
652.312	6452.43
655.205	6468.06
658.097	6358.95
660.99	6328.51
663.883	6310.46
666.775	6298.08
669.668	6271.04
672.561	6234.66
675.454	6193.5
678.346	6165.01
681.239	6148.55
684.132	6104.49
687.024	6157.78
689.917	6120.1
692.81	6104.02
695.702	6085.57
698.595	6065.31
701.488	6091.15
704.381	6049.42
707.273	6082.49
710.166	6017.49
713.059	6027.7
715.951	6050.41
718.844	6032.94
721.737	6026.88
724.63	6037.27
727.522	5980.7
730.415	6014.12
733.308	6035.72
736.2	6001.58
739.093	5975.85
741.986	6018.1
744.878	6005.45
747.771	6055.68
750.664	6052.45
753.557	6069.74
756.449	6030.34
759.342	6041.33
762.235	6042.97
765.127	6087.01
768.02	6058.19
770.913	6055.53
773.805	6098.83
776.698	6022.57
779.591	6083.02
782.484	6024.77
785.376	6018.15
788.269	6060.62
791.162	5982.54
794.054	6001.48
796.947	6042.64
799.84	5936.72
802.732	5978.53
805.625	5913.56
808.518	5879.06
811.41	5810.27
814.303	5753.99
817.196	5763.46
820.089	5632.2
822.981	5648.03
825.874	5575.25
828.767	5493.83
831.659	5421.26
834.552	5347.36
837.445	5360.49
840.337	5235.74
843.23	5169.91
846.123	5081.25
849.016	4986.32
851.908	4877.21
854.801	4860.68
857.694	4767.24
860.586	4678.28
863.479	4590.69
866.372	4515.72
869.264	4411.89
872.157	4287.2
875.05	4237.47
877.943	4167.47
880.835	4043.14
883.728	3963.14
886.621	3930.36
889.513	3803.32
892.406	3792.06
895.299	3677.19
898.192	3616.7
901.084	3618.11
903.977	3538.04
906.87	3490.91
909.762	3402.14
912.655	3417.06
915.548	3306.06
918.44	3278.38
921.333	3230.53
924.226	3209.44
927.119	3180.52
930.011	3194.01
932.904	3136.43
935.797	3143.45
938.689	3116.97
941.582	3131.17
944.475	3085.02
947.367	3048.37
950.26	3058.78
953.153	3051.38
956.045	3030.66
958.938	2991.75
961.831	3018.88
964.724	3029.33
967.616	2961.19
970.509	3012.93
973.402	2990.47
976.294	3012.83
979.187	2975.68
982.08	3013.34
984.972	2988.99
987.865	3017.44
990.758	3019.07
993.651	3019.08
996.543	2966.45
999.436	2999.28
1002.33	3025.26
1005.22	3035.86
1008.11	3064.31
1011.01	3068.52
1013.9	3071.29
1016.79	3061.97
1019.68	3105.32
1022.58	3107.25
1025.47	3143.62
1028.36	3131.24
1031.26	3128.17
1034.15	3198.92
1037.04	3221.54
1039.93	3195.75
1042.83	3236.5
1045.72	3257.05
1048.61	3280.16
1051.51	3333.81
1054.4	3317.7
1057.29	3428.07
1060.18	3453.31
1063.08	3457.52
1065.97	3513.42
1068.86	3553.68
1071.75	3635.09
1074.65	3678.03
1077.54	3729.89
1080.43	3835.41
1083.32	3856.67
1086.22	4001.39
1089.11	4033.27
1092	4112.49
1094.89	4209.27
1097.79	4275.17
1100.68	4399.12
1103.57	4541.2
1106.47	4576.03
1109.36	4671.01
1112.25	4869.74
1115.14	4968.31
1118.04	5131.51
1120.93	5265.46
1123.82	5399.54
1126.71	5526.84
1129.61	5699.73
1132.5	5898.92
1135.39	6043.39
1138.29	6267.79
1141.18	6498.51
1144.07	6708.36
1146.96	6913.23
1149.86	7145.86
1152.75	7405.78
1155.64	7603.52
1158.53	7902.42
1161.43	8183.26
1164.32	8425.56
1167.21	8795.32
1170.11	9030.9
1173	9400.06
1175.89	9713.84
1178.78	10142.6
1181.68	10444.4
1184.57	10715.8
1187.46	11145.9
1190.35	11408.3
1193.25	11769.7
1196.14	12210.2
1199.03	12495.4
1201.92	12887.6
1204.82	13261.4
1207.71	13596.8
