Measurement: Raman, 532 nm, unoriented, Raman Data Processed
Mineral: Lorandite
Rruff sample: R110055
Ideal chemistry: Tl^1+^As^3+^S^2-^_2_
Locality: Xingren County, Qianxi'nan Autonomous Prefecture, Guizhou Province, China
Source: Don Doell
Description: Red platy crystals and cleavages
Raman shift (cm-1)	intensity
88.1367	0
91.5115	2.84767
94.8863	0.361015
98.2612	0.358459
101.636	11.5958
105.011	29.3131
108.386	32.5259
111.76	26.2279
115.135	26.5008
118.51	29.2619
121.885	32.0305
125.26	36.9547
128.635	47.6542
132.009	60.0308
135.384	68.0012
138.759	61.9828
142.134	41.2463
145.509	30.1381
148.883	25.8501
152.258	28.1315
155.633	33.3129
159.008	40.2399
162.383	50.1636
165.757	65.1131
169.132	78.9135
172.507	77.892
175.882	58.1885
179.257	42.4269
182.632	37.7881
186.006	41.2826
189.381	50.7705
192.756	57.4165
196.131	52.7243
199.506	50.7743
202.881	52.4578
206.255	69.1372
209.63	80.0744
213.005	45.8562
216.38	20.0543
219.755	11.6618
223.129	6.49602
226.504	2.7885
229.879	0.899872
233.254	3.01193
236.629	2.75627
240.004	2.33504
243.378	0.42009
246.753	4.34901
250.128	14.1432
253.503	29.1707
256.878	48.2102
260.252	74.6394
263.627	102.414
267.002	138.149
270.377	172.801
273.752	190.198
277.127	148.492
280.501	79.1852
283.876	41.1156
287.251	28.5007
290.626	19.8848
294.001	11.6016
297.375	12.6143
300.75	25.2183
304.125	46.5913
307.5	66.1565
310.875	62.3257
314.25	70.8226
317.624	99.0135
320.999	131.881
324.374	102.859
327.749	39.7081
331.124	10.0012
334.498	0.12561
337.873	3.18835
341.248	1.40047
344.623	5.05693
347.998	21.2759
351.373	53.7098
354.747	105.885
358.122	129.77
361.497	192.464
364.872	307.049
368.247	366.438
371.621	307.196
374.996	271.458
378.371	287.418
381.746	173.377
385.121	83.9461
388.495	61.4951
391.87	63.8144
395.245	81.389
398.62	76.787
401.995	36.7658
405.37	27.6683
408.744	10.6825
412.119	6.29321
415.494	4.85877
418.869	3.53664
422.244	2.67939
425.618	2.64137
428.993	3.14853
432.368	2.22387
435.743	0.702583
439.118	1.07653
442.493	0.828987
445.867	0.465622
449.242	0.525337
452.617	0.327629
455.992	0.510216
459.367	0.571251
462.741	0.230598
466.116	0.19268
469.491	2.0722
472.866	1.50948
476.241	2.8141
479.615	3.05991
482.99	5.12392
486.365	3.63156
489.74	4.19277
493.115	4.15345
496.49	3.44025
499.864	2.66851
503.239	3.02498
506.614	4.4107
509.989	1.84235
513.364	0.930351
516.739	0.342659
520.113	0.521812
523.488	0.560272
526.863	0.308075
530.238	1.12289
533.613	0.743324
536.987	1.68641
540.362	2.18285
543.737	3.9037
547.112	3.14978
550.487	3.81044
553.861	4.97511
557.236	6.11117
560.611	6.58021
563.986	5.75327
567.361	5.22736
570.736	5.45712
574.11	6.40501
577.485	5.59499
580.86	6.38075
584.235	5.22104
587.61	5.73039
590.985	4.78646
594.359	5.15753
597.734	5.46687
601.109	6.2094
604.484	6.67676
607.859	5.58569
611.233	5.20989
614.608	4.54727
617.983	5.06066
621.358	6.26655
624.733	5.99158
628.107	6.00313
631.482	5.69737
634.857	5.02896
638.232	3.67111
641.607	2.61694
644.982	1.96818
648.356	0.921303
651.731	0.775108
655.106	0.74073
658.481	0.468918
661.856	0.25042
665.231	0.149223
668.605	0.111107
671.98	0.695892
675.355	0.195633
678.73	0.040031
682.105	0.316101
685.479	0.434486
688.854	0.845192
692.229	1.18775
695.604	2.19376
698.979	1.65708
702.354	1.54771
705.728	1.50125
709.103	2.19492
712.478	1.77595
715.853	2.97508
719.227	3.34023
722.602	4.31705
725.977	5.69383
729.352	6.50943
732.727	8.44155
736.102	8.50089
739.476	6.22595
742.851	3.02934
746.226	2.22386
749.601	0.566132
752.976	1.3459
756.351	1.17245
759.725	0.951241
763.1	0.239693
766.475	0.79493
769.85	1.50668
773.225	1.22742
776.599	1.06318
779.974	1.29407
783.349	1.68961
786.724	0.973587
790.099	2.75503
793.473	1.01921
796.848	0.817924
800.223	0.877441
803.598	0.632221
806.973	0.469635
810.348	0.203369
813.722	0.59692
817.097	0.603703
820.472	0.254173
823.847	0.908432
827.222	0.032951
830.597	0.448086
833.971	1.21875
837.346	0.51688
840.721	0.886532
844.096	0.067039
847.471	0.24506
850.846	0.747425
854.22	0.445961
857.595	0.189339
860.97	1.56791
864.345	0.543579
867.72	0.328159
871.094	1.3942
874.469	0.66346
877.844	0.686947
881.219	1.09288
884.594	0.267548
887.968	0.043968
891.343	0.900249
894.718	0.411495
898.093	1.15558
901.468	0.044254
904.842	0.365677
908.217	0.877338
911.592	1.2152
914.967	0.823238
918.342	0.72171
921.717	1.91122
925.091	1.04429
928.466	0.608356
931.841	0.788639
935.216	0.078903
938.591	0.917419
941.966	0.093464
945.34	1.26222
948.715	1.70789
952.09	2.81315
955.465	2.96399
958.84	2.45018
962.214	2.04814
965.589	1.69439
968.964	0.723461
972.339	0.769558
975.714	0.786854
979.088	0.373653
982.463	0.759182
985.838	0.240013
989.213	0.777412
992.588	1.06341
995.963	0.206238
999.337	0.607708
1002.71	1.05984
1006.09	0.93029
1009.46	0.57542
1012.84	0.579742
1016.21	0.217442
1019.59	0.018513
1022.96	0.540112
1026.34	0.750374
1029.71	0.918243
1033.09	1.71624
1036.46	0.426201
1039.84	1.08163
1043.21	0.401436
1046.59	0.941887
1049.96	1.25017
1053.33	1.014
1056.71	1.04648
1060.08	0.322243
1063.46	0.809879
1066.83	0.190891
1070.21	0.119823
1073.58	0.984276
1076.96	0.881496
1080.33	0.849323
1083.71	0.214149
1087.08	0.569687
1090.46	0.724415
1093.83	0.464634
1097.21	1.0275
1100.58	1.21788
1103.96	1.01659
1107.33	0.872276
1110.71	0.722782
1114.08	0.331379
1117.46	0.618885
1120.83	1.11972
1124.21	0.884182
1127.58	0.08279
1130.95	0.19603
1134.33	0.749859
1137.7	0.594238
1141.08	0.940308
1144.45	0.23101
1147.83	0.699574
1151.2	0.126965
1154.58	0.543205
1157.95	1.01455
1161.33	0.808407
1164.7	0.09882
1168.08	0.761963
1171.45	0.350124
1174.83	1.12523
1178.2	0.548065
1181.58	0.49234
1184.95	1.29571
1188.33	0.884365
1191.7	0.56538
1195.08	1.24151
1198.45	0.94986
1201.83	0.943512
1205.2	0.428699
1208.58	1.03606
1211.95	1.10587
1215.33	1.0665
1218.7	0.672691
1222.08	0.566868
1225.45	0.840298
1228.83	0.643639
1232.2	1.15163
1235.58	0.580856
1238.95	0.605442
1242.32	1.18994
1245.7	0.246582
1249.07	1.28398
1252.45	1.29782
1255.82	1.61675
1259.2	1.13065
1262.57	1.47968
1265.95	0.566734
1269.32	0.75359
1272.7	0.696838
1276.07	0.205467
1279.45	0.678719
1282.82	0.613029
1286.2	0.838242
1289.57	0.088726
1292.95	0.485462
1296.32	0.733917
1299.7	0.65498
