Measurement: Raman, 780 nm, unoriented, Raman Data Processed
Mineral: Lorandite
Rruff sample: R110055
Ideal chemistry: Tl^1+^As^3+^S^2-^_2_
Locality: Xingren County, Qianxi'nan Autonomous Prefecture, Guizhou Province, China
Source: Don Doell
Description: Red platy crystals and cleavages
Raman shift (cm-1)	intensity
89.0287	0
92.4035	184786
95.7783	95931.1
99.1531	72220.8
102.528	275181
105.903	519233
109.278	253481
112.652	84389.4
116.027	12843.6
119.402	7670.41
122.777	34262.1
126.152	24402.3
129.526	91362.8
132.901	223554
136.276	330761
139.651	301136
143.026	103439
146.401	484.531
149.775	5413.38
153.15	37555.9
156.525	100793
159.9	193381
163.275	330593
166.649	543385
170.024	777101
173.399	722282
176.774	417355
180.149	251569
183.524	237753
186.898	309153
190.273	440800
193.648	398891
197.023	218754
200.398	200813
203.773	264780
207.147	439080
210.522	550566
213.897	240020
217.272	71560.5
220.647	29308.5
224.021	12194
227.396	11.625
230.771	6349.62
234.146	9617.64
237.521	5840.31
240.895	5645.05
244.27	29831
247.645	71469.1
251.02	138105
254.395	244782
257.769	394957
261.144	571957
264.519	805878
267.894	1.14088e+06
271.269	1.60348e+06
274.644	2.00594e+06
278.018	1.68018e+06
281.393	847092
284.768	348247
288.143	175853
291.518	106377
294.892	51934.3
298.267	57808.4
301.642	115656
305.017	256123
308.392	443916
311.767	491766
315.141	565669
318.516	740951
321.891	1.19144e+06
325.266	1.1467e+06
328.641	452366
332.015	147758
335.39	52478.3
338.765	16485.2
342.14	207.656
345.515	7065.52
348.89	7196.22
352.264	60.9062
355.639	23664.6
359.014	104608
362.389	281746
365.764	410050
369.139	648802
372.513	1.17658e+06
375.888	2.39357e+06
379.263	3.46799e+06
382.638	1.5738e+06
386.013	467369
389.387	309568
392.762	436769
396.137	822420
399.512	663175
402.887	179166
406.262	59907.4
409.636	14822.3
413.011	2980.82
416.386	1637.37
419.761	1721.69
423.136	721.836
426.51	64.9219
429.885	272.82
433.26	1106.12
436.635	1192.9
440.01	1005.04
443.385	848.322
446.759	137.898
450.134	1013.55
453.509	1449.67
456.884	1816.05
460.259	2366.3
463.633	3534.71
467.008	5177.76
470.383	6943.3
473.758	8308.28
477.133	8898.96
480.507	9572.11
483.882	10126.6
487.257	10208.1
490.632	9825.06
494.007	9168.67
497.382	8316.78
500.756	7304.35
504.131	6522.07
507.506	5886.85
510.881	5370.4
514.256	4638.31
517.63	3606.53
521.005	2830.36
524.38	2125.48
527.755	1387.43
531.13	902.247
534.505	508.428
537.879	582.277
541.254	1190.37
544.629	2353.25
548.004	3353.01
551.379	4576.13
554.753	5623.93
558.128	6078.85
561.503	5847.73
564.878	5728.56
568.253	6037.12
571.628	6428.76
575.002	7030
578.377	7297.96
581.752	7024.9
585.127	6106.21
588.502	5402.16
591.876	4680.62
595.251	4404.84
598.626	4734.48
602.001	5729.21
605.376	6974.62
608.75	7844.2
612.125	7521.3
615.5	6717.54
618.875	5284.08
622.25	4307.21
625.625	3750.43
629	2878.78
632.374	1959.62
635.749	1329.21
639.124	522.894
642.499	121.219
645.874	216.875
649.248	92.9414
652.623	31.5791
655.998	204.565
659.373	107.823
662.748	35.4775
666.122	55.4492
669.497	216.776
672.872	306.089
676.247	221.745
679.622	225.196
682.996	415.474
686.371	1538.43
689.746	2554.72
693.121	3337.98
696.496	4131.27
699.871	4163.3
703.245	3717.03
706.62	3126.57
709.995	2628.64
713.37	1775.88
716.745	1238.37
720.12	1059.15
723.494	688.128
726.869	419.914
730.244	299.096
733.619	146.322
736.994	56.852
740.368	122.728
743.743	301.777
747.118	588.953
750.493	672.77
753.868	1124.69
757.242	1601.15
760.617	1899.79
763.992	2007.54
767.367	1822.85
770.742	1392.45
774.117	1599.99
777.491	1646.34
780.866	1861.59
784.241	1855.07
787.616	2057.86
790.991	1977.9
794.365	1767.42
797.74	1404.53
801.115	1143.94
804.49	1010.97
807.865	851.017
811.24	657.892
814.614	508.815
817.989	390.465
821.364	273.26
824.739	298.364
828.114	281.373
831.489	252.788
834.863	245.825
838.238	261.573
841.613	154.061
844.988	252.202
848.362	179.403
851.737	134.694
855.112	185.629
858.487	103.339
861.862	245.559
865.237	1.1709
868.611	46.5391
871.986	161.751
875.361	103.249
878.736	53.1055
882.111	92.6685
885.486	17.2983
888.86	47.7334
892.235	87.8809
895.61	3.14404
898.985	145.125
902.36	60.1025
905.734	116.21
909.109	183.863
912.484	157.013
915.859	140.931
919.234	58.8335
922.609	29.228
925.983	27.2783
929.358	56.4536
932.733	95.9907
936.108	61.188
939.483	58.1172
942.857	15.5527
946.232	32.8999
949.607	93.4819
952.982	330.435
956.357	351.92
959.731	144.861
963.106	85.7881
966.481	48.1685
969.856	17.6221
973.231	138.959
976.606	71.8872
979.98	1.73828
983.355	93.3726
986.73	91.5644
990.105	172.325
993.48	147.17
996.855	76.1836
1000.23	85.7896
1003.6	105.137
1006.98	145.072
1010.35	138.836
1013.73	215.05
1017.1	81.7988
1020.48	115.415
1023.85	218.303
1027.23	135.968
1030.6	143.82
1033.98	129.797
1037.35	111.843
1040.73	10.6934
1044.1	218.269
1047.48	226.154
1050.85	147.191
1054.23	78.4346
1057.6	186.801
1060.98	203.35
1064.35	152.419
1067.73	58.0161
1071.1	127.363
1074.47	89.5684
1077.85	154.362
1081.22	110.481
1084.6	116.649
1087.97	81.0029
1091.35	97.8809
1094.72	82.6655
1098.1	220.181
1101.47	91.8262
1104.85	25.5078
1108.22	15.5737
1111.6	41.544
1114.97	11.9434
1118.35	36.79
1121.72	104.442
1125.1	187.232
1128.47	105.205
1131.85	95.9556
1135.22	16.6714
1138.6	82.249
1141.97	30.3018
1145.35	157.765
1148.72	221.203
1152.1	81.2197
1155.47	166.184
1158.85	163.142
1162.22	139.105
1165.6	146.115
1168.97	164.201
1172.35	95.5859
1175.72	8.21533
1179.1	129.963
1182.47	14.9873
1185.84	177.685
1189.22	100.942
1192.59	26.376
1195.97	73.7056
1199.34	10.1182
1202.72	113.264
1206.09	68.7031
1209.47	34.5215
1212.84	84.5493
1216.22	148.813
1219.59	58.749
1222.97	204.14
1226.34	111.946
1229.72	52.7197
1233.09	140.647
1236.47	21.8208
1239.84	138.059
1243.22	143.669
1246.59	91.0762
1249.97	94.7163
1253.34	142.761
1256.71	137.436
1260.09	121.713
1263.46	4.16357
1266.84	60.9116
1270.21	31.6787
1273.59	113.624
1276.96	81.436
1280.34	56.581
