Measurement: Raman, 780 nm, unoriented, Raman Data Processed
Mineral: Lourenswalsite
Rruff sample: R060468
Ideal chemistry: (K,Ba)_2_Ti^4+^_4_(Si,Al)_6_O_14_(OH)_12_
Locality: Diamond Jo Quarry, Magnet Cove, Hot Spring County, Arkansas, USA
Source: Michael Scott
Description: Rosettes of gray platy crystals
Raman shift (cm-1)	intensity
155.078	0
157.971	0.869812
160.864	0.537964
163.756	0.513306
166.649	2.55408
169.542	9.99457
172.435	16.8995
175.327	25.4218
178.22	34.0671
181.113	40.3178
184.005	41.3002
186.898	40.292
189.791	35.2799
192.684	26.9976
195.576	19.4244
198.469	15.1605
201.362	16.4748
204.254	17.6941
207.147	23.6394
210.04	28.4289
212.932	34.0529
215.825	38.438
218.718	34.4611
221.611	34.3894
224.503	38.6912
227.396	47.3244
230.289	54.6953
233.181	42.7853
236.074	26.9723
238.967	16.5371
241.859	10.9549
244.752	9.84097
247.645	4.64908
250.537	6.57461
253.43	10.1474
256.323	16.9275
259.216	20.252
262.108	12.1717
265.001	9.98331
267.894	4.82352
270.786	1.9975
273.679	2.33539
276.572	1.54483
279.464	0.844604
282.357	1.29996
285.25	4.13538
288.143	8.82205
291.035	10.3114
293.928	14.0166
296.821	10.518
299.713	6.70859
302.606	3.47119
305.499	1.77301
308.392	3.39301
311.284	8.34582
314.177	13.8747
317.07	26.2023
319.962	40.5189
322.855	56.6286
325.748	75.6203
328.64	99.0715
331.533	129.219
334.426	160.337
337.319	180.64
340.211	177.941
343.104	152.257
345.997	123.668
348.889	99.4421
351.782	82.1709
354.675	75.2292
357.567	73.4186
360.46	74.6565
363.353	81.7287
366.246	71.9565
369.138	63.1646
372.031	47.0423
374.924	33.3184
377.816	12.7575
380.709	6.07309
383.602	2.87848
386.495	0.1716
389.387	1.22598
392.28	0.053528
395.173	0.049591
398.065	0.240295
400.958	0.246307
403.851	1.11942
406.743	3.40234
409.636	8.30783
412.529	12.422
415.421	18.9888
418.314	26.2982
421.207	36.3271
424.1	39.3235
426.992	44.5283
429.885	49.5741
432.778	54.9559
435.67	59.8211
438.563	64.7111
441.456	71.9141
444.349	78.4848
447.241	82.7656
450.134	88.5524
453.027	93.7959
455.919	99.2879
458.812	102.251
461.705	103.02
464.597	100.015
467.49	97.2228
470.383	87.2818
473.276	77.83
476.168	67.9063
479.061	60.6696
481.954	56.8881
484.846	51.8435
487.739	43.4671
490.632	34.5006
493.524	25.5975
496.417	16.1432
499.31	9.84988
502.202	4.72414
505.095	1.79598
507.988	1.24731
510.881	0.321396
513.773	0.775314
516.666	0.465042
519.559	1.03452
522.451	3.95767
525.344	4.30363
528.237	3.54886
531.13	4.70294
534.022	1.57698
536.915	0.82634
539.808	1.69624
542.7	0.536957
545.593	0.409744
548.486	1.12196
551.378	2.32967
554.271	4.10126
557.164	7.44398
560.057	9.66762
562.949	12.2539
565.842	14.8787
568.735	17.209
571.627	20.661
574.52	24.3472
577.413	29.1385
580.305	31.6682
583.198	35.0958
586.091	37.5068
588.984	40.3669
591.876	44.4998
594.769	48.881
597.662	47.2898
600.554	44.6158
603.447	42.4798
606.34	37.5788
609.232	32.5446
612.125	26.4536
615.018	20.3419
617.911	15.8545
620.803	10.5931
623.696	9.07147
626.589	5.19322
629.481	4.17513
632.374	0.660141
635.267	1.58908
638.159	0.071289
641.052	0.017029
643.945	0.276642
646.838	0.710144
649.73	2.82362
652.623	1.53795
655.516	1.7673
658.408	1.4082
661.301	0.664246
664.194	0.567413
667.087	0.577011
669.979	2.37616
672.872	2.25542
675.765	4.71587
678.657	6.32654
681.55	9.5419
684.443	14.9355
687.335	18.2415
690.228	23.9218
693.121	32.4793
696.014	38.7687
698.906	47.4084
701.799	51.4565
704.692	55.4812
707.584	62.3128
710.477	68.2471
713.37	78.3519
716.262	84.9815
719.155	93.7859
722.048	102.63
724.941	108.463
727.833	108.93
730.726	103.315
733.619	96.445
736.511	87.5794
739.404	76.9668
742.297	68.5912
745.189	61.1809
748.082	53.0016
750.975	49.2994
753.867	47.9391
756.76	47.188
759.653	48.1261
762.546	50.5509
765.438	53.7769
768.331	57.5713
771.224	58.0799
774.116	62.3129
777.009	63.2927
779.902	63.515
782.795	62.2469
785.687	60.4212
788.58	57.6902
791.473	54.1677
794.365	46.6761
797.258	39.0327
800.151	30.5083
803.043	21.7929
805.936	13.2719
808.829	7.30273
811.722	4.0576
814.614	1.69026
817.507	1.52782
820.4	0.335968
823.292	0.192978
826.185	0.094208
829.078	0.798187
831.971	1.02445
834.863	1.63563
837.756	0.400925
840.649	0.618988
843.541	0.153763
846.434	1.8347
849.327	0.131836
852.219	0.25354
855.112	0.698532
858.005	0.701523
860.898	1.11392
863.79	1.65654
866.683	2.19538
869.576	3.20991
872.468	2.67965
875.361	5.01708
878.254	4.51433
881.146	5.65524
884.039	5.89998
886.932	5.47399
889.824	5.58523
892.717	5.42816
895.61	6.18549
898.503	6.53218
901.395	7.34046
904.288	5.49446
907.181	6.20193
910.073	6.03046
912.966	6.38924
915.859	6.65668
918.751	6.63303
921.644	7.5194
924.537	8.89815
927.43	8.55344
930.322	10.1272
933.215	10.9287
936.108	12.0575
939	12.0676
941.893	12.0917
944.786	12.0687
947.678	11.0519
950.571	9.64201
953.464	7.72596
956.357	6.97932
959.249	5.78919
962.142	3.89533
965.035	4.55115
967.927	4.26888
970.82	2.37211
973.713	1.59106
976.606	0.899063
979.498	0.516899
982.391	1.8267
985.284	0.786301
988.176	1.43437
991.069	0.245087
993.962	0.263512
996.854	0.556374
999.747	0.296112
1002.64	0.410774
1005.53	0.899406
1008.42	0.299515
1011.32	0.95752
1014.21	1.37206
1017.1	0.696602
1020	0.761009
1022.89	0.926147
1025.78	1.16612
1028.67	1.24731
1031.57	0.029137
1034.46	1.85829
1037.35	0.104591
1040.24	0.235748
1043.14	0.775642
1046.03	0.184036
1048.92	0.494591
1051.82	1.03159
1054.71	1.88377
1057.6	1.36436
1060.49	3.0637
1063.39	2.8283
1066.28	4.26736
1069.17	3.89789
1072.07	3.77251
1074.96	3.73223
1077.85	3.98962
1080.74	2.7877
1083.63	2.46638
1086.53	2.8912
1089.42	1.62876
1092.31	1.89097
1095.21	2.38449
1098.1	2.83248
1100.99	2.36458
1103.88	3.33448
1106.78	3.19657
1109.67	3.26745
1112.56	3.76514
1115.45	3.17191
1118.35	3.45675
1121.24	1.77869
1124.13	1.69658
1127.03	0.078003
1129.92	0.072128
1132.81	0.194962
1135.7	0.148514
1138.6	0.210617
1141.49	0.351303
1144.38	0.535736
1147.28	0.152374
1150.17	1.21233
1153.06	0.129227
1155.95	0.805008
1158.85	0.819733
1161.74	0.465958
1164.63	0.582481
1167.52	0.787941
1170.42	0.590004
1173.31	0.520309
1176.2	1.56827
1179.1	0.80452
1181.99	1.60101
1184.88	1.28583
1187.77	1.42494
1190.66	1.17061
1193.56	1.70911
1196.45	1.06388
1199.34	0.83757
1202.24	0.51635
1205.13	0.563057
1208.02	0.671013
1210.91	0.837997
1213.81	0.914093
1216.7	0.988655
1219.59	1.32165
1222.48	1.00128
1225.38	0.260078
1228.27	0.496819
1231.16	0.584312
1234.06	0.774689
1236.95	1.24106
1239.84	1.04259
1242.73	0.557327
1245.63	0.855667
1248.52	0.310707
1251.41	0.679512
1254.31	0.727577
1257.2	0.460594
1260.09	0.677223
1262.98	0.798691
1265.88	1.36291
1268.77	1.05923
1271.66	0.620354
1274.55	0.586845
1277.45	1.03468
1280.34	0.800652
