Measurement: Raman, 532 nm, unoriented, Raman Data Processed
Mineral: Lourenswalsite
Rruff sample: R060468
Ideal chemistry: (K,Ba)_2_Ti^4+^_4_(Si,Al)_6_O_14_(OH)_12_
Locality: Diamond Jo Quarry, Magnet Cove, Hot Spring County, Arkansas, USA
Source: Michael Scott
Description: Rosettes of gray platy crystals
Raman shift (cm-1)	intensity
158.044	0
160.936	0.725037
163.829	0.998688
166.722	3.21802
169.614	13.2867
172.507	26.4294
175.4	44.7013
178.293	58.0299
181.185	67.1876
184.078	75.4589
186.971	76.9387
189.863	72.5668
192.756	61.3737
195.649	53.1698
198.542	42.5766
201.434	39.3935
204.327	38.6957
207.22	43.1434
210.112	56.1684
213.005	66.1594
215.898	74.4213
218.79	66.5439
221.683	54.279
224.576	54.1341
227.469	64.8598
230.361	73.2686
233.254	75.5016
236.147	52.922
239.039	29.0465
241.932	20.0542
244.825	15.1852
247.717	11.6494
250.61	11.1976
253.503	19.2861
256.396	30.6555
259.288	37.9565
262.181	31.1087
265.074	18.6508
267.966	9.33966
270.859	6.50906
273.752	0.557648
276.644	1.25684
279.537	4.26453
282.43	2.6051
285.322	0.428955
288.215	7.74817
291.108	12.4667
294.001	15.5612
296.893	16.5262
299.786	11.5795
302.679	4.73816
305.571	1.61377
308.464	0.089478
311.357	4.84851
314.25	12.9443
317.142	27.0648
320.035	49.5277
322.928	80.7997
325.82	120.75
328.713	166.848
331.606	221.242
334.498	291.206
337.391	352.527
340.284	381.692
343.176	352.24
346.069	285.398
348.962	221.159
351.855	178.988
354.747	156.977
357.64	145.232
360.533	144.788
363.425	150.483
366.318	151.102
369.211	129.881
372.103	96.2406
374.996	63.1623
377.889	33.5415
380.782	17.0964
383.674	7.23383
386.567	1.89899
389.46	1.85516
392.352	3.38257
395.245	1.1488
398.138	0.949646
401.031	1.625
403.923	2.20941
406.816	5.12726
409.709	10.7212
412.601	21.0741
415.494	33.0987
418.387	47.4763
421.279	60.0175
424.172	73.4266
427.065	81.1677
429.957	90.0278
432.85	99.4989
435.743	107.051
438.636	116.363
441.528	127.989
444.421	141.19
447.314	154.598
450.206	162.132
453.099	172.377
455.992	184.672
458.885	190.653
461.777	197.28
464.67	197.494
467.563	190.599
470.455	177.409
473.348	159.963
476.241	137.901
479.133	122.401
482.026	115.343
484.919	106.93
487.812	95.0482
490.704	74.6735
493.597	55.7662
496.49	37.0016
499.382	22.3631
502.275	12.0423
505.168	4.26617
508.06	3.08807
510.953	0.471436
513.846	2.58899
516.739	2.21594
519.631	0.107544
522.524	1.35443
525.417	8.6402
528.309	8.60602
531.202	8.31561
534.095	6.91766
536.987	6.79437
539.88	6.79388
542.773	4.6637
545.665	5.86438
548.558	10.6624
551.451	13.18
554.344	16.4338
557.236	23.8519
560.129	26.8164
563.022	32.8477
565.914	38.1751
568.807	44.2623
571.7	48.8025
574.592	52.7569
577.485	55.2878
580.378	58.2199
583.271	63.411
586.163	70.5107
589.056	75.2952
591.949	80.4536
594.841	83.313
597.734	85.3072
600.627	85.9115
603.519	80.3245
606.412	74.9698
609.305	70.5523
612.198	59.7416
615.09	51.6754
617.983	42.3304
620.876	30.2159
623.768	24.0551
626.661	13.4424
629.554	10.8453
632.447	5.33575
635.339	5.28821
638.232	4.31244
641.125	1.23804
644.017	0.883606
646.91	3.48834
649.803	1.39233
652.695	3.75476
655.588	7.11548
658.481	5.90802
661.374	4.52844
664.266	0.748596
667.159	3.1471
670.052	13.9143
672.944	13.8534
675.837	12.7747
678.73	19.8079
681.622	26.7649
684.515	42.2512
687.408	55.9889
690.301	77.6975
693.193	95.0668
696.086	119.922
698.979	138.029
701.871	149.386
704.764	158.569
707.657	175.322
710.549	192.653
713.442	210.755
716.335	235.754
719.227	264.187
722.12	289.192
725.013	306.929
727.906	313.446
730.798	308.985
733.691	290.421
736.584	270.958
739.476	242.206
742.369	209.195
745.262	182.347
748.154	160.847
751.047	146.689
753.94	139.571
756.833	137.846
759.725	140.461
762.618	145.552
765.511	156.446
768.403	166.188
771.296	178.295
774.189	189.344
777.082	198.138
779.974	199.036
782.867	203.662
785.76	197.135
788.652	188.228
791.545	175.988
794.438	158.288
797.33	134.265
800.223	108.304
803.116	77.2302
806.009	48.0373
808.901	27.7574
811.794	17.1804
814.687	7.58167
817.579	1.40765
820.472	1.20123
823.365	0.895203
826.257	0.74823
829.15	0.266296
832.043	0.239624
834.936	1.17847
837.828	0.539734
840.721	1.72595
843.614	1.70422
846.506	3.65192
849.399	2.77533
852.292	2.07959
855.184	0.683594
858.077	0.006104
860.97	1.88507
863.863	4.60071
866.755	4.73608
869.648	7.89905
872.541	10.9711
875.433	9.49615
878.326	11.5246
881.219	14.2582
884.111	14.5804
887.004	19.3466
889.897	20.5519
892.79	20.6796
895.682	20.9486
898.575	21.8906
901.468	22.4932
904.36	24.1561
907.253	24.2676
910.146	20.3934
913.038	20.6305
915.931	22.1719
918.824	23.2166
921.717	23.2886
924.609	24.2154
927.502	28.745
930.395	29.7337
933.287	31.3611
936.18	34.0515
939.073	34.111
941.966	33.1944
944.858	32.9847
947.751	30.5618
950.644	28.1933
953.536	24.6456
956.429	17.6784
959.322	13.5814
962.214	15.1451
965.107	11.1169
968	6.64581
970.893	6.28662
973.785	4.91498
976.678	7.30896
979.571	2.1272
982.463	1.32776
985.356	2.56268
988.249	3.07519
991.141	0.664429
994.034	1.60565
996.927	1.01221
999.819	0.431335
1002.71	0.292297
1005.61	0.292053
1008.5	2.19965
1011.39	2.23633
1014.28	1.30249
1017.18	1.80249
1020.07	1.0354
1022.96	2.05664
1025.85	3.1355
1028.75	1.61328
1031.64	5.46155
1034.53	3.62329
1037.42	4.51837
1040.32	3.64307
1043.21	3.84711
1046.1	2.87384
1048.99	2.53204
1051.89	3.98254
1054.78	4.36883
1057.67	7.43506
1060.57	7.34747
1063.46	6.78485
1066.35	10.5704
1069.24	11.5634
1072.14	14.4902
1075.03	12.5964
1077.92	12.1948
1080.82	12.2436
1083.71	10.0732
1086.6	10.9574
1089.49	7.38855
1092.39	6.20215
1095.28	8.52045
1098.17	7.27606
1101.06	10.0375
1103.96	11.0744
1106.85	8.81909
1109.74	9.16992
1112.63	8.40289
1115.53	9.24493
1118.42	11.093
1121.31	11.4803
1124.21	6.45673
1127.1	0.055115
1129.99	0.416016
1132.88	0.300232
1135.78	1.42706
1138.67	0.905579
1141.56	1.16376
1144.45	1.59668
1147.35	1.85644
1150.24	0.332275
1153.13	3.27423
1156.03	9.00317
1158.92	1.21368
1161.81	2.42267
1164.7	3.05176
1167.6	0.466919
1170.49	3.55335
1173.38	3.5415
1176.27	7.33343
1179.17	6.87305
1182.06	4.74408
1184.95	3.40448
1187.85	3.07642
1190.74	10.8247
1193.63	5.95465
1196.52	5.39746
1199.42	4.63434
1202.31	4.90344
1205.2	5.23102
1208.09	2.47638
1210.99	4.08087
1213.88	4.81464
1216.77	6.00024
1219.66	3.83197
1222.56	3.99164
1225.45	1.19788
1228.34	3.69458
1231.24	0.237549
1234.13	0.259338
1237.02	0.274536
1239.91	0.915649
1242.81	5.46753
1245.7	5.36755
1248.59	4.56738
1251.48	3.86853
1254.38	3.02124
1257.27	4.80994
1260.16	5.0321
1263.06	3.41065
1265.95	0.572754
1268.84	1.88977
1271.73	1.08093
1274.63	1.39514
1277.52	0.417114
1280.41	1.33447
1283.3	1.48755
1286.2	2.26459
1289.09	0.499084
1291.98	0.851257
1294.88	1.61823
1297.77	0.762512
1300.66	0
