Measurement: Raman, 532 nm, unoriented, Raman Data Processed
Mineral: Ludjibaite
Rruff sample: R060413
Ideal chemistry: Cu^2+^_5_(P^5+^O_4_)_2_(OH)_4_
Locality: Sossego, Carajas, Brazil
Source: Bob Jenkins
Description: Bluish-green groups of colliform aggregates
Raman shift (cm-1)	intensity
123.331	0
126.706	0.091293
130.081	4.42343
133.456	7.98258
136.831	10.4248
140.205	12.579
143.58	12.7101
146.955	9.28567
150.33	5.01904
153.705	3.38625
157.079	1.23731
160.454	1.33599
163.829	0.890846
167.204	1.30871
170.579	4.06792
173.953	9.54427
177.328	10.1322
180.703	13.2122
184.078	14.7394
187.453	17.3642
190.828	14.1513
194.202	5.68256
197.577	4.98967
200.952	1.27568
204.327	0.400085
207.702	0.003868
211.077	0.635056
214.451	0.236671
217.826	0.886177
221.201	0.464249
224.576	0.356583
227.951	1.18312
231.325	1.38203
234.7	1.86838
238.075	2.49056
241.45	1.90451
244.825	2.49441
248.2	2.29912
251.574	2.19646
254.949	3.06769
258.324	3.61952
261.699	4.40327
265.074	5.60914
268.448	4.45329
271.823	3.83539
275.198	3.31599
278.573	3.17416
281.948	2.96038
285.322	4.56832
288.697	4.29612
292.072	3.82764
295.447	3.17385
298.822	3.56207
302.197	3.0831
305.571	1.91956
308.946	1.47681
312.321	0.504639
315.696	0.584526
319.071	0.633125
322.445	0.228027
325.82	0.069023
329.195	0.74826
332.57	1.64618
335.945	1.44686
339.32	0.836266
342.694	1.02921
346.069	0.63765
349.444	1.15005
352.819	0.848442
356.194	2.38442
359.568	3.29574
362.943	5.19655
366.318	6.74062
369.693	8.08226
373.068	7.11296
376.442	4.39322
379.817	2.23297
383.192	1.01071
386.567	0.663971
389.942	0.780075
393.317	0.517456
396.691	0.156982
400.066	0.968735
403.441	2.31865
406.816	4.94188
410.191	9.81136
413.565	13.8122
416.94	16.9583
420.315	22.9445
423.69	26.0731
427.065	23.7077
430.44	15.6489
433.814	11.7678
437.189	10.9949
440.564	13.8994
443.939	18.6003
447.314	21.6977
450.688	20.8988
454.063	19.4545
457.438	18.5103
460.813	15.3272
464.188	9.18811
467.563	5.50323
470.937	3.7338
474.312	3.44743
477.687	4.88377
481.062	6.11047
484.437	9.84422
487.812	15.2433
491.186	23.5903
494.561	34.7255
497.936	41.1116
501.311	36.5349
504.686	22.8647
508.06	15.5677
511.435	15.0684
514.81	16.9019
518.185	19.8014
521.56	17.5918
524.934	12.0596
528.309	8.08904
531.684	4.31467
535.059	2.38347
538.434	0.858727
541.809	0.214531
545.183	1.46967
548.558	1.18552
551.933	0.162247
555.308	3.23939
558.683	7.26499
562.058	13.8506
565.432	22.9367
568.807	30.917
572.182	29.0172
575.557	19.3204
578.932	10.0983
582.306	5.84779
585.681	4.99606
589.056	3.56672
592.431	3.21335
595.806	1.42326
599.181	1.1769
602.555	1.29505
605.93	2.16592
609.305	2.77954
612.68	4.33676
616.055	5.19985
619.429	4.77501
622.804	3.77514
626.179	2.36112
629.554	1.68861
632.929	1.14568
636.303	0.612083
639.678	0.364891
643.053	0.173576
646.428	0.013817
649.803	0.311775
653.178	0.506203
656.552	0.055351
659.927	0.28096
663.302	0.285744
666.677	0.62925
670.052	0.030502
673.427	0.00824
676.801	9.2e-05
680.176	0.405899
683.551	0.511948
686.926	0.708092
690.301	0.797935
693.675	0.576401
697.05	0.721748
700.425	0.846878
703.8	0.960968
707.175	0.257095
710.549	1.02527
713.924	0.769012
717.299	0.549385
720.674	0.694046
724.049	0.363014
727.423	0.112213
730.798	1.35072
734.173	1.0262
737.548	1.3199
740.923	2.609
744.298	3.42532
747.672	3.89139
751.047	4.75591
754.422	5.49156
757.797	4.35146
761.172	3.48588
764.547	2.88669
767.921	1.85667
771.296	1.51585
774.671	0.908691
778.046	1.28975
781.421	1.5059
784.795	0.890289
788.17	1.63995
791.545	2.05898
794.92	3.25857
798.295	4.44406
801.669	5.9953
805.044	6.71676
808.419	6.41631
811.794	5.42279
815.169	4.28268
818.544	2.99446
821.918	2.1962
825.293	1.38469
828.668	1.3128
832.043	0.572075
835.418	0.754547
838.793	0.260406
842.167	0.339073
845.542	0.159851
848.917	0.060501
852.292	0.066742
855.667	0.057983
859.041	0.09539
862.416	0.154236
865.791	0.072266
869.166	0.926636
872.541	0.053299
875.915	0.719902
879.29	0.194122
882.665	0.253365
886.04	0.261032
889.415	0.062057
892.79	0.103378
896.164	0.246834
899.539	0.042114
902.914	0.822182
906.289	0.065788
909.664	0.44165
913.038	0.956757
916.413	1.52184
919.788	1.27193
923.163	1.29035
926.538	2.59578
929.913	3.29475
933.287	3.63152
936.662	4.31956
940.037	6.07446
943.412	7.67839
946.787	8.18343
950.162	8.86109
953.536	9.58713
956.911	9.79683
960.286	9.70184
963.661	9.52538
967.036	9.69576
970.41	11.2347
973.785	14.4906
977.16	19.5281
980.535	23.4812
983.91	24.3306
987.284	18.8393
990.659	12.7794
994.034	8.32858
997.409	6.05872
1000.78	3.73875
1004.16	2.18027
1007.53	1.39877
1010.91	1.00967
1014.28	0.421021
1017.66	0.188721
1021.03	0.360023
1024.41	0.562912
1027.78	0.069786
1031.16	0.676193
1034.53	0.409897
1037.91	0.521988
1041.28	0.813774
1044.66	1.43931
1048.03	2.32118
1051.41	3.19464
1054.78	3.93882
1058.16	4.57079
1061.53	5.59248
1064.9	6.36361
1068.28	8.87147
1071.65	10.2153
1075.03	10.0901
1078.4	9.54577
1081.78	11.3947
1085.15	14.3578
1088.53	14.1999
1091.9	10.5968
1095.28	6.82335
1098.65	5.27511
1102.03	4.32604
1105.4	5.44997
1108.78	5.14152
1112.15	5.38003
1115.53	3.44511
1118.9	2.85675
1122.28	1.35583
1125.65	1.13243
1129.03	0.26165
1132.4	0.603836
1135.78	0.155136
1139.15	0.045982
1142.53	0.19577
1145.9	0.221832
1149.28	0.206772
1152.65	0.235367
1156.03	0.052277
1159.4	0.657143
1162.78	0.811035
1166.15	0.500641
1169.53	0.512444
1172.9	0.465248
1176.27	0.060631
1179.65	1.37715
1183.02	0.70343
1186.4	0.385887
1189.77	0.841446
1193.15	0.66983
1196.52	0.665222
1199.9	0.402649
1203.27	0.758652
1206.65	1.17641
1210.02	0.315491
1213.4	0.180252
1216.77	0.003334
1220.15	0.261436
1223.52	0.509491
1226.9	0.251244
1230.27	0.45163
1233.65	0.326584
1237.02	0.098633
1240.4	0.620613
1243.77	0.454536
1247.14	0.48455
1250.52	1.1262
1253.89	0.55249
1257.27	0.533142
1260.64	0.761047
1264.02	0.674706
1267.39	0.6698
1270.77	0.516144
1274.14	0.884476
1277.52	0.235107
1280.89	0.115547
1284.27	0.044823
1287.64	0.803398
1291.02	0.055809
1294.39	0.391357
1297.77	0.121025
