Measurement: Raman, 780 nm, unoriented, Raman Data Processed
Mineral: Ludjibaite
Rruff sample: R060413
Ideal chemistry: Cu^2+^_5_(P^5+^O_4_)_2_(OH)_4_
Locality: Sossego, Carajas, Brazil
Source: Bob Jenkins
Description: Bluish-green groups of colliform aggregates
Raman shift (cm-1)	intensity
128.562	0
131.455	0.489479
134.348	0.094735
137.24	0.363248
140.133	0.226499
143.026	0.364211
145.918	0.57267
148.811	0.152157
151.704	0.231214
154.597	0.166402
157.489	0.16022
160.382	0.235132
163.275	0.49475
166.167	0.048482
169.06	0.128809
171.953	0.272983
174.845	0.329973
177.738	0.75108
180.631	0.505598
183.524	0.651471
186.416	0.664433
189.309	0.662524
192.202	0.206549
195.094	0.012764
197.987	0.122424
200.88	0.111402
203.773	0.20915
206.665	0.174966
209.558	0.22263
212.451	0.006979
215.343	0.185428
218.236	0.260131
221.129	0.206097
224.021	0.157046
226.914	0.055867
229.807	0.138148
232.7	0.402489
235.592	0.122698
238.485	0.217744
241.378	0.377709
244.27	0.477081
247.163	0.379735
250.056	0.349044
252.948	0.074039
255.841	0.457079
258.734	0.497536
261.627	0.267622
264.519	0.373463
267.412	0.254864
270.305	0.118464
273.197	0.270985
276.09	0.105806
278.983	0.10469
281.875	0.314662
284.768	0.162057
287.661	0.318617
290.553	0.463696
293.446	0.359609
296.339	0.649319
299.232	0.046809
302.124	0.175598
305.017	0.067535
307.91	0.090926
310.802	0.231131
313.695	0.369311
316.588	0.415715
319.481	0.110642
322.373	0.172365
325.266	0.307892
328.159	0.044338
331.051	0.207808
333.944	0.244831
336.837	0.214328
339.729	0.104264
342.622	0.117054
345.515	0.37022
348.408	0.444931
351.3	0.421453
354.193	0.311603
357.086	0.52764
359.978	0.408142
362.871	0.156656
365.764	0.365635
368.656	0.420444
371.549	0.502476
374.442	0.381875
377.334	0.055911
380.227	0.004194
383.12	0.164105
386.013	0.207579
388.905	0.109264
391.798	0.238189
394.691	0.302055
397.583	0.324024
400.476	0.459437
403.369	0.260115
406.262	0.166501
409.154	0.150188
412.047	0.228618
414.94	0.213517
417.832	0.516185
420.725	0.621189
423.618	0.477979
426.51	0.387407
429.403	0.677852
432.296	0.424215
435.188	0.454022
438.081	0.405134
440.974	0.216315
443.867	0.621232
446.759	0.075362
449.652	0.612987
452.545	0.693311
455.437	0.491201
458.33	0.563037
461.223	0.403929
464.115	0.245868
467.008	0.081918
469.901	0.142193
472.794	0.188067
475.686	0.23957
478.579	0.568268
481.472	0.236641
484.364	0.368127
487.257	0.481778
490.15	0.199332
493.043	0.42351
495.935	0.740815
498.828	0.459203
501.721	0.672844
504.613	0.342893
507.506	0.131444
510.399	0.137207
513.291	0.393951
516.184	0.347043
519.077	0.311779
521.97	0.172926
524.862	0.009717
527.755	0.187441
530.648	0.003752
533.54	0.13604
536.433	0.084908
539.326	0.162369
542.218	0.082002
545.111	0.306216
548.004	0.379546
550.896	0.298403
553.789	0.155382
556.682	0.038253
559.575	0.184724
562.467	0.558227
565.36	0.471486
568.253	0.593242
571.145	0.793561
574.038	0.545302
576.931	0.249791
579.823	0.231336
582.716	0.260055
585.609	0.580684
588.502	0.331567
591.394	0.28548
594.287	0.343089
597.18	0.117125
600.072	0.388376
602.965	0.275293
605.858	0.107202
608.75	0.208708
611.643	0.312263
614.536	0.238114
617.429	0.408717
620.321	0.090579
623.214	0.226361
626.107	0.185911
629	0.283197
631.892	0.277903
634.785	0.072892
637.678	0.049769
640.57	0.188715
643.463	0.459163
646.356	0.528455
649.248	0.22149
652.141	0.125604
655.034	0.186926
657.927	0.144152
660.819	0.179948
663.712	0.312539
666.605	0.157416
669.497	0.101771
672.39	0.251834
675.283	0.250442
678.175	0.005347
681.068	0.203753
683.961	0.181154
686.854	0.313341
689.746	0.162447
692.639	0.29418
695.532	0.301963
698.424	0.357056
701.317	0.242827
704.21	0.322655
707.102	0.324041
709.995	0.182743
712.888	0.088842
715.78	0.257857
718.673	0.27477
721.566	0.224745
724.459	0.333465
727.351	0.442265
730.244	0.435326
733.137	0.274338
736.029	0.128471
738.922	0.442909
741.815	0.217289
744.707	0.246998
747.6	0.287308
750.493	0.187896
753.386	0.13697
756.278	0.0403
759.171	0.345325
762.064	0.398352
764.956	0.572643
767.849	0.266322
770.742	0.401115
773.635	0.208229
776.527	0.032167
779.42	0.195389
782.313	0.467884
785.205	0.083884
788.098	0.190493
790.991	0.355245
793.883	0.441529
796.776	0.143975
799.669	0.411788
802.562	0.391124
805.454	0.126616
808.347	0.399884
811.24	0.364439
814.132	0.174298
817.025	0.545771
819.918	0.150426
822.81	0.398888
825.703	0.230225
828.596	0.361845
831.489	0.367757
834.381	0.217137
837.274	0.341097
840.167	0.057872
843.059	0.131935
845.952	0.220134
848.845	0.094975
851.737	0.092598
854.63	0.246182
857.523	0.19132
860.415	0.479388
863.308	0.244408
866.201	0.271873
869.094	0.323446
871.986	0.327942
874.879	0.406027
877.772	0.58635
880.664	0.216154
883.557	0.186949
886.45	0.168765
889.342	0.003974
892.235	0.032218
895.128	0.279067
898.021	0.101883
900.913	0.021225
903.806	0.223482
906.699	0.284091
909.591	0.015649
912.484	0.050148
915.377	0.259563
918.269	0.137956
921.162	0.050018
924.055	0.067116
926.948	0.111747
929.84	0.297804
932.733	0.22633
935.626	0.152192
938.518	0.162485
941.411	0.396492
944.304	0.407596
947.197	0.214879
950.089	0.497164
952.982	0.18472
955.875	0.57016
958.767	0.376583
961.66	0.355729
964.553	0.686516
967.445	0.566051
970.338	0.391739
973.231	0.273625
976.124	0.543342
979.016	0.611088
981.909	0.583832
984.802	0.453541
987.694	0.464417
990.587	0.359308
993.48	0.321213
996.372	0.346343
999.265	0.209732
1002.16	0.050852
1005.05	0.027948
1007.94	0.049718
1010.84	0.128498
1013.73	0.283609
1016.62	0.11508
1019.51	0.026869
1022.41	0.18381
1025.3	0.002189
1028.19	0.127743
1031.09	0.03791
1033.98	0.090766
1036.87	0.200448
1039.76	0.220695
1042.66	0.180643
1045.55	0.005255
1048.44	0.489994
1051.33	0.412219
1054.23	0.248256
1057.12	0.284257
1060.01	0.098422
1062.9	0.177496
1065.8	0.411101
1068.69	0.598244
1071.58	0.435596
1074.47	0.201792
1077.37	0.345843
1080.26	0.276659
1083.15	0.382613
1086.05	0.460868
1088.94	0.426891
1091.83	0.120035
1094.72	0.251012
1097.62	0.227997
1100.51	0.400557
1103.4	0.149736
1106.3	0.378061
1109.19	0.44901
1112.08	0.281286
1114.97	0.396655
1117.87	0.076676
1120.76	0.414494
1123.65	0.176089
1126.54	0.241357
1129.44	0.492297
1132.33	0.175956
1135.22	0.186569
1138.12	0.378437
1141.01	0.135883
1143.9	0.386716
1146.79	0.337651
1149.69	0.154759
1152.58	0.370179
1155.47	0.018758
1158.36	0.018967
1161.26	0.177903
1164.15	0.475209
1167.04	0.326069
1169.93	0.249548
1172.83	0.032173
1175.72	0.190896
1178.61	0.274968
1181.51	0.1362
1184.4	0.441607
1187.29	0.335193
1190.18	0.342286
1193.08	0.307306
1195.97	0.218518
1198.86	0.168489
1201.75	0.169188
1204.65	0.356522
1207.54	0.123993
1210.43	0.477565
1213.33	0.537482
1216.22	0.193638
1219.11	0.213966
1222	0.368635
1224.9	0.146889
1227.79	0.080648
1230.68	0.295448
1233.57	0.298789
1236.47	0.205014
1239.36	0.133282
1242.25	0.166592
1245.14	0.00552
1248.04	0.243098
1250.93	0.13663
1253.82	0.114155
1256.71	0.204427
1259.61	0.150652
1262.5	0.206049
1265.39	0.255016
1268.29	0.135197
1271.18	0.091067
1274.07	0.122536
1276.96	0.3789
1279.86	0.006021
