Measurement: Raman, 532 nm, unoriented, Raman Data RAW
Mineral: Magnesio-fluoro-arfvedsonite
Rruff sample: R050515
Ideal chemistry: NaNa_2_(Mg_4_Fe^3+^)Si_8_O_22_F_2_
Locality: unknown
Source: Frank Hawthorne
Description: Numerous small dark green fragments
Measured chemistry: (Na_0.48_K_0.20_[box]_0.32_)(Na_1.50_Ca_0.50_)_Σ=2_(Mg_2.05_Fe^2+^_1.45_Mn_0.50_)_Σ=4_(Fe^3+^_0.80_Mn_0.05_Al_0.10_Ti_0.05_)(Si_0.97_Al_0.03_)_8_O_22_(F_0.65_(OH)_0.35_)_2_
Raman shift (cm-1)	intensity
90.9261	0
94.3009	16.1888
97.6757	14.2864
101.05	14.2296
104.425	14.1712
107.8	15.3212
111.175	19.6142
114.55	33.0451
117.925	57.5953
121.299	98.7538
124.674	134.688
128.049	177.525
131.424	236.671
134.799	289.799
138.173	335.771
141.548	375.889
144.923	424.755
148.298	473.46
151.673	474.143
155.048	464.522
158.422	455.359
161.797	463.279
165.172	477.048
168.547	489.309
171.922	489.018
175.297	474.296
178.671	467.179
182.046	460.61
185.421	462.258
188.796	461.491
192.171	470.822
195.545	480.107
198.92	489.298
202.295	496.125
205.67	498.363
209.045	498.061
212.419	496.589
215.794	495.842
219.169	492.967
222.544	486.001
225.919	478.655
229.293	472.473
232.668	465.202
236.043	459.33
239.418	453.794
242.793	447.252
246.168	440.55
249.542	439.147
252.917	432.688
256.292	431.616
259.667	428.536
263.042	424.062
266.416	423.026
269.791	423.383
273.166	427.07
276.541	433.375
279.916	439.463
283.291	441.893
286.665	444.281
290.04	451.342
293.415	456.204
296.79	457.659
300.165	460.461
303.539	459.594
306.914	461.889
310.289	462.509
313.664	462.505
317.039	463.224
320.414	454.84
323.788	450.534
327.163	444.615
330.538	440.32
333.913	437.175
337.288	435.955
340.662	438.647
344.037	443.151
347.412	445.337
350.787	449.188
354.162	451.407
357.536	453.552
360.911	454.882
364.286	453.514
367.661	445.583
371.036	442.095
374.411	438.998
377.785	435.533
381.16	432.743
384.535	429.928
387.91	422.914
391.285	422.732
394.659	421.023
398.034	418.933
401.409	419.111
404.784	421.324
408.159	420.966
411.534	423.026
414.908	423.746
418.283	425.525
421.658	424.043
425.033	424.196
428.408	419.341
431.783	414.548
435.157	408.404
438.532	406.108
441.907	402.502
445.282	398.846
448.657	397.319
452.031	395.739
455.406	397.187
458.781	395.46
462.156	394.836
465.531	394.336
468.906	393.911
472.28	394.63
475.655	393.804
479.03	397.638
482.405	398.368
485.779	399.894
489.154	404.619
492.529	405.269
495.904	413.657
499.279	414.812
502.654	418.78
506.028	422.367
509.403	428.924
512.778	433.266
516.153	438.28
519.528	442.401
522.903	447.507
526.277	456.714
529.652	464.694
533.027	472.719
536.402	479.27
539.777	483.131
543.151	482.423
546.526	473.646
549.901	466.854
553.276	460.314
556.651	450.674
560.025	443.87
563.4	440.604
566.775	437.912
570.15	437.466
573.525	433.901
576.9	430.473
580.274	426.771
583.649	415.257
587.024	406.886
590.399	397.482
593.774	391.817
597.148	387.808
600.523	386.672
603.898	382.642
607.273	383.113
610.648	385.279
614.023	387.022
617.397	386.22
620.772	387.318
624.147	389.116
627.522	389.788
630.897	393.446
634.271	394.349
637.646	399.562
641.021	403.221
644.396	409.294
647.771	415.194
651.145	422.774
654.52	436.314
657.895	453.46
661.27	477.845
664.645	504.518
668.02	541.601
671.394	574.925
674.769	595.469
678.144	586.479
681.519	550.958
684.894	507.682
688.269	466.391
691.643	443.429
695.018	425.967
698.393	420.809
701.768	415.007
705.143	413.833
708.517	412.14
711.892	409.892
715.267	412.802
718.642	413.776
722.017	415.254
725.391	413.218
728.766	412.115
732.141	410.623
735.516	411.112
738.891	408.362
742.266	407.024
745.64	409.214
749.015	405.873
752.39	407.665
755.765	406.927
759.14	406.675
762.514	403.196
765.889	402.951
769.264	403.11
772.639	404.341
776.014	404.099
779.389	403.458
782.763	403.804
786.138	403.61
789.513	403.404
792.888	404.653
796.263	404.526
799.637	402.348
803.012	406.463
806.387	404.963
809.762	406.073
813.137	407.657
816.511	405.54
819.886	405.548
823.261	407.569
826.636	407.879
830.011	407.445
833.386	409.543
836.76	409.055
840.135	411.953
843.51	412.87
846.885	413.007
850.26	414.462
853.635	417.095
857.009	418.79
860.384	419.189
863.759	422.316
867.134	427.65
870.509	428.749
873.883	432.561
877.258	436.71
880.633	440.802
884.008	442.555
887.383	445.463
890.757	446.382
894.132	450.385
897.507	450.684
900.882	452.203
904.257	453.21
907.631	451.588
911.006	451.348
914.381	448.423
917.756	453.039
921.131	450.297
924.506	447.182
927.88	447.048
931.255	446.438
934.63	451.555
938.005	454.81
941.38	458.408
944.755	465.086
948.129	472.621
951.504	480.381
954.879	492.141
958.254	501.084
961.629	512.909
965.003	519.409
968.378	521.979
971.753	524.318
975.128	521.782
978.503	513.976
981.877	505.689
985.252	494.707
988.627	486.671
992.002	480.176
995.377	477.726
998.751	476.626
1002.13	476.406
1005.5	471.061
1008.88	464.74
1012.25	463.276
1015.63	462.445
1019	460.461
1022.38	462.54
1025.75	460.209
1029.12	461.264
1032.5	460.085
1035.88	460.755
1039.25	462.778
1042.62	462.921
1046	460.956
1049.37	461.087
1052.75	462.554
1056.12	462.549
1059.5	463.461
1062.87	463.677
1066.25	463.617
1069.62	464.118
1073	464.009
1076.37	464.589
1079.75	458.605
1083.12	456.517
1086.5	453.366
1089.87	448.558
1093.25	445.652
1096.62	442.82
1100	441.353
1103.37	442.053
1106.75	441.73
1110.12	440.401
1113.49	438.465
1116.87	437.79
1120.24	435.485
1123.62	435.163
1126.99	434.827
1130.37	431.371
1133.74	429.465
1137.12	427.579
1140.49	424.877
1143.87	423.431
1147.24	422.325
1150.62	418.441
1153.99	415.949
1157.37	415.044
1160.74	417.699
1164.12	416.879
1167.49	415.578
1170.87	415.464
1174.24	413.189
1177.62	415.103
1180.99	414.385
1184.37	414.812
1187.74	414.37
1191.12	414.177
1194.49	415.619
1197.87	417.321
1201.24	416.13
1204.62	414.922
1207.99	417.769
1211.37	416.924
1214.74	419.856
1218.12	418.46
1221.49	418.637
1224.86	420.905
1228.24	419.259
1231.61	418.211
1234.99	419.308
1238.36	418.921
1241.74	421.718
1245.11	422.091
1248.49	425.473
1251.86	421.408
1255.24	423.721
1258.61	422.941
1261.99	422.816
1265.36	424.481
1268.74	425.904
1272.11	425.387
1275.49	425.943
1278.86	424.907
1282.24	426.373
1285.61	428.385
1288.99	429.144
1292.36	427.228
1295.73	427.104
1299.11	429.669
1302.48	428.022
