Measurement: Raman, 780 nm, unoriented, Raman Data Processed
Mineral: Magnesio-fluoro-hastingsite
Rruff sample: R141082
Ideal chemistry: NaCa_2_(Mg_4_Fe^3+^)(Si_6_Al_2_)O_22_F_2_
Locality: Caspar quarry, Bellerberg volcano, Mayen, Eifel, Germany
Source: Ch. and H. Sch√§fer
Description: Euhedral brown crystal embedded in matrix
Raman shift (cm-1)	intensity
93.8499	0
97.2247	2.25012
100.6	5.12707
103.974	0.553711
107.349	2.3313
110.724	3.0387
114.099	9.15869
117.474	8.5896
120.848	6.04639
124.223	8.30994
127.598	1.3064
130.973	1.0852
134.348	2.88001
137.722	1.88318
141.097	4.69043
144.472	2.44763
147.847	2.26807
151.222	4.08777
154.597	5.83325
157.971	8.68567
161.346	13.1312
164.721	13.9191
168.096	8.65247
171.471	4.62073
174.845	4.6217
178.22	2.39038
181.595	2.53772
184.97	6.39819
188.345	5.3833
191.72	1.84814
195.094	5.43896
198.469	1.44495
201.844	5.07642
205.219	8.29761
208.594	10.8435
211.969	18.2264
215.343	21.6523
218.718	28.748
222.093	33.5736
225.468	40.0803
228.843	35.7694
232.217	31.2777
235.592	28.8917
238.967	23.2578
242.342	16.1916
245.717	14.6504
249.091	10.3506
252.466	6.25684
255.841	1.08814
259.216	0.840332
262.591	1.44763
265.966	3.01843
269.34	5.43896
272.715	0.72229
276.09	4.58679
279.465	12.695
282.84	13.6014
286.214	22.4576
289.589	27.9932
292.964	30.8765
296.339	31.1771
299.714	25.8026
303.089	27.5922
306.463	24.4528
309.838	24.661
313.213	27.8619
316.588	34.6476
319.963	41.0636
323.337	46.1445
326.712	52.0406
330.087	51.9602
333.462	58.6354
336.837	56.2855
340.212	54.7097
343.586	49.942
346.961	55.9601
350.336	56.7239
353.711	56.3278
357.086	54.6697
360.46	47.6503
363.835	45.0006
367.21	43.2949
370.585	33.808
373.96	32.0205
377.334	26.3654
380.709	23.4097
384.084	28.4412
387.459	26.2961
390.834	27.8409
394.209	28.1888
397.583	23.6071
400.958	21.6222
404.333	18.5178
407.708	15.587
411.083	10.4697
414.457	9.47839
417.832	9.01294
421.207	8.52991
424.582	1.86633
427.957	2.92615
431.332	3.64441
434.706	3.35425
438.081	2.66589
441.456	0.722656
444.831	0.707764
448.206	1.31238
451.58	2.48169
454.955	0.076782
458.33	2.36462
461.705	0.793823
465.08	0.34436
468.455	0.67981
471.829	2.06824
475.204	0.381714
478.579	2.65552
481.954	1.28235
485.329	4.7262
488.704	6.07996
492.078	6.58472
495.453	6.52918
498.828	7.05554
502.203	9.38672
505.577	8.65173
508.952	11.4072
512.327	10.0891
515.702	8.66467
519.077	10.0812
522.452	5.45679
525.826	11.7527
529.201	12.1597
532.576	12.195
535.951	13.5883
539.326	14.5093
542.701	14.845
546.075	10.2416
549.45	9.63245
552.825	6.69641
556.2	1.14209
559.575	2.552
562.949	0.322632
566.324	6.44971
569.699	2.34228
573.074	2.22998
576.449	2.92346
579.823	2.51257
583.198	2.55957
586.573	2.69812
589.948	0.39978
593.323	1.9375
596.698	0.04187
600.072	3.61377
603.447	0.244507
606.822	5.54846
610.197	3.87756
613.572	1.51306
616.947	0.662109
620.321	3.22504
623.696	0.584778
627.071	2.52978
630.446	3.49261
633.821	7.61285
637.195	11.0612
640.57	10.4916
643.945	13.7534
647.32	18.5405
650.695	22.1086
654.069	30.2302
657.444	39.2977
660.819	45.9367
664.194	55.5903
667.569	58.4581
670.944	54.4667
674.318	39.373
677.693	31.6266
681.068	18.8975
684.443	16.9591
687.818	12.1133
691.192	7.55841
694.567	8.66913
697.942	8.23511
701.317	1.60602
704.692	0.798523
708.067	0.62738
711.441	0.557861
714.816	1.01434
718.191	0.248413
721.566	0.426392
724.941	1.6214
728.316	2.185
731.69	0.094238
735.065	2.78284
738.44	2.74896
741.815	3.1391
745.19	4.11444
748.564	8.81293
751.939	8.64667
755.314	11.5982
758.689	11.5928
762.064	12.6803
765.438	10.5184
768.813	12.389
772.188	7.29413
775.563	7.92413
778.938	5.57043
782.313	5.82208
785.687	8.55609
789.062	10.1178
792.437	5.18634
795.812	8.84479
799.187	4.56702
802.562	6.64014
805.936	6.84961
809.311	6.55389
812.686	4.22345
816.061	5.62524
819.436	3.63464
822.81	3.65643
826.185	4.46759
829.56	0.951843
832.935	3.54022
836.31	6.61407
839.684	6.80652
843.059	3.62518
846.434	2.65289
849.809	3.07495
853.184	3.54816
856.558	3.45569
859.933	7.54602
863.308	3.22003
866.683	4.29285
870.058	3.20697
873.433	4.02362
876.807	3.02075
880.182	5.8717
883.557	4.3808
886.932	2.37274
890.307	1.12372
893.682	1.02795
897.056	2.71234
900.431	0.868408
903.806	3.55225
907.181	1.03644
910.556	0.782532
913.93	0.334167
917.305	1.53064
920.68	1.87073
924.055	0.533875
927.43	1.12665
930.804	1.95215
934.179	1.69342
937.554	0.197693
940.929	0.70813
944.304	1.86652
947.679	1.71259
951.053	2.47961
954.428	0.010254
957.803	1.81244
961.178	1.4364
964.553	1.26465
967.928	3.45795
971.302	2.30743
974.677	2.32367
978.052	2.13611
981.427	2.3703
984.802	3.71967
988.176	4.82642
991.551	5.93677
994.926	9.18512
998.301	10.5466
1001.68	12.4066
1005.05	10.6829
1008.42	9.11267
1011.8	8.53363
1015.17	8.82349
1018.55	2.88409
1021.92	2.27277
1025.3	2.63635
1028.67	0.423035
1032.05	1.78772
1035.42	1.47009
1038.8	0.018372
1042.17	1.34979
1045.55	1.62237
1048.92	0.186279
1052.3	0.32135
1055.67	0.788696
1059.05	2.15051
1062.42	0.819153
1065.8	0.745422
1069.17	2.0238
1072.55	0.649719
1075.92	1.12152
1079.3	1.36121
1082.67	0.846802
1086.05	2.27112
1089.42	1.71375
1092.8	0.505676
1096.17	0.704895
1099.55	3.99847
1102.92	4.19037
1106.3	8.61237
1109.67	4.10706
1113.05	5.45648
1116.42	3.91431
1119.79	9.62622
1123.17	9.83649
1126.54	13.7541
1129.92	15.4219
1133.29	17.4535
1136.67	22.0956
1140.04	24.2131
1143.42	26.3987
1146.79	29.2213
1150.17	31.2493
1153.54	33.0275
1156.92	35.2345
1160.29	39.2737
1163.67	38.3356
1167.04	43.0684
1170.42	45.398
1173.79	52.7753
1177.17	54.9144
1180.54	49.0201
1183.92	47.7886
1187.29	49.977
1190.66	45.3734
1194.04	47.6054
1197.41	38.6499
1200.79	36.9116
1204.16	33.4574
1207.54	32.501
1210.91	22.8005
1214.29	16.8409
1217.66	15.934
1221.04	6.8396
1224.41	1.26935
1227.79	3.14606
1231.16	1.21667
1234.54	2.58691
1237.91	3.37695
1241.29	12.6465
1244.66	22.4274
1248.04	24.495
1251.41	34.4367
1254.79	37.5929
1258.16	36.4519
1261.54	34.1416
1264.91	32.9194
1268.29	28.761
1271.66	21.756
1275.04	11.6846
1278.41	1.5343
1281.79	0.38147
