Measurement: Raman, 532 nm, unoriented, Raman Data RAW
Mineral: Magnesiochromite
Rruff sample: R060797
Ideal chemistry: MgCr^3+^_2_O_4_
Locality: Benbow mine, Stillwater Complex, Mount Wood area, Stillwater County, Montana, USA
Source: California Institute of Technology
Description: Black granular massive
Measured chemistry: (Mg_0.55_Fe^2+^_0.45_)_Σ=1_(Cr_1.28_Al_0.58_Fe^3+^_0.14_)_Σ=2_O_4_
Raman shift (cm-1)	intensity
159.61	394.66
162.503	421.725
165.396	396.297
168.288	434.796
171.181	382.531
174.074	388.261
176.966	392.737
179.859	395.823
182.752	391.891
185.645	384.378
188.537	396.024
191.43	383.143
194.323	363.834
197.215	382.036
200.108	362.731
203.001	366.602
205.893	378.789
208.786	331.022
211.679	336.715
214.572	332.543
217.464	325.226
220.357	328.378
223.25	316.645
226.142	320.889
229.035	321.173
231.928	328.906
234.82	322.167
237.713	306.417
240.606	320.345
243.498	303.884
246.391	295.266
249.284	301.559
252.176	271.783
255.069	289.156
257.962	289.741
260.855	291.271
263.747	290.125
266.64	302.359
269.533	306.709
272.425	306.372
275.318	309.717
278.211	298.579
281.103	270.264
283.996	291.256
286.889	287.201
289.782	285.339
292.674	286.692
295.567	289.36
298.46	240.85
301.352	277.239
304.245	278.42
307.138	271.337
310.03	280.884
312.923	283.327
315.816	282.406
318.709	281.747
321.601	257.141
324.494	293.555
327.387	308.843
330.279	275.928
333.172	270.171
336.065	259.463
338.957	265.613
341.85	275.794
344.743	259.377
347.635	265.483
350.528	281.401
353.421	280.442
356.314	290.246
359.206	291.261
362.099	284.814
364.992	281.281
367.884	292.398
370.777	277.697
373.67	288.577
376.562	271.552
379.455	297.56
382.348	294.525
385.241	264.046
388.133	273.039
391.026	282.874
393.919	278.073
396.811	295.61
399.704	305.357
402.597	299.167
405.49	284.917
408.382	297.88
411.275	290.155
414.168	284.733
417.06	299.269
419.953	294.829
422.846	298.281
425.738	287.527
428.631	284.312
431.524	306.241
434.417	297.103
437.309	285.651
440.202	310.785
443.095	288.846
445.987	298.656
448.88	320.434
451.773	327.59
454.665	342.965
457.558	325.427
460.451	320.216
463.343	360.048
466.236	345.624
469.129	343.216
472.022	342.777
474.914	378.792
477.807	340.443
480.7	373.556
483.592	338.615
486.485	359.054
489.378	357.046
492.27	353.309
495.163	392.282
498.056	395.606
500.948	414.47
503.841	430.178
506.734	429.376
509.627	446.731
512.519	464.193
515.412	448.858
518.305	461.495
521.197	481.15
524.09	525.704
526.983	555.221
529.875	550.119
532.768	580.163
535.661	606.869
538.554	623.626
541.446	656.38
544.339	703.081
547.232	715.361
550.124	723.163
553.017	725.625
555.91	745.079
558.802	757.979
561.695	740.514
564.588	772.366
567.481	792.181
570.373	779.084
573.266	801.568
576.159	805.201
579.051	782.211
581.944	767.53
584.837	734.622
587.729	723.816
590.622	696.659
593.515	662.35
596.407	649.05
599.3	626.842
602.193	619.165
605.086	566.724
607.978	551.639
610.871	503.604
613.764	485.201
616.656	499.636
619.549	453.045
622.442	445.598
625.334	448.868
628.227	426.961
631.12	440.844
634.013	463.204
636.905	488.457
639.798	527.16
642.691	560.609
645.583	565.388
648.476	570.884
651.369	583.006
654.261	596.672
657.154	588.318
660.047	595.771
662.94	593.259
665.832	620.495
668.725	642.776
671.618	654.766
674.51	678.973
677.403	694.756
680.296	728.021
683.188	754.686
686.081	843.226
688.974	810.727
691.867	820.856
694.759	850.438
697.652	820.642
700.545	811.84
703.437	776.625
706.33	713.532
709.223	680.573
712.115	611.644
715.008	569.287
717.901	548.664
720.794	490.127
723.686	460.311
726.579	411.404
729.472	392.935
732.364	371.941
735.257	368.737
738.15	344.797
741.042	328.931
743.935	300.221
746.828	322.845
749.721	308.929
752.613	236.224
755.506	280.691
758.399	259.727
761.291	258.471
764.184	248.762
767.077	253.055
769.969	246.254
772.862	240.29
775.755	240.306
778.648	235.603
781.54	241.301
784.433	228.89
787.326	259.907
790.218	230.728
793.111	251.8
796.004	227.84
798.896	253.097
801.789	255.771
804.682	218.891
807.574	205.903
810.467	212.81
813.36	201.087
816.253	216.943
819.145	197.107
822.038	215.83
824.931	211.501
827.823	224.572
830.716	223.477
833.609	226.699
836.501	220.251
839.394	207.031
842.287	186.137
845.18	194.136
848.072	214.721
850.965	201.742
853.858	190.351
856.75	188.768
859.643	197.934
862.536	194.373
865.428	216.363
868.321	213.834
871.214	213.619
874.106	199.71
876.999	221.582
879.892	199.539
882.784	196.881
885.677	193.292
888.57	199.306
891.463	211.596
894.355	200.928
897.248	203.567
900.141	184.352
903.033	206.635
905.926	201.485
908.819	206.978
911.711	212.653
914.604	195.078
917.497	211.341
920.39	188.446
923.282	199.986
926.175	188.38
929.068	170.132
931.96	196.86
934.853	185.173
937.746	169.905
940.638	214.63
943.531	194.219
946.424	219.834
949.317	225.976
952.209	221.49
955.102	212.778
957.995	214.37
960.887	228.426
963.78	201.611
966.673	190.021
969.565	196.308
972.458	186.625
975.351	192.034
978.244	200.702
981.136	210.003
984.029	206.532
986.922	203.113
989.814	218.339
992.707	205.064
995.6	216.13
998.492	216.953
1001.38	206.682
1004.28	210.195
1007.17	211.449
1010.06	179.829
1012.96	194.014
1015.85	213.96
1018.74	201.489
1021.63	205.819
1024.53	229.318
1027.42	255.61
1030.31	226.926
1033.2	229.765
1036.1	223.553
1038.99	229.234
1041.88	242.71
1044.78	232.53
1047.67	237.074
1050.56	214.18
1053.45	212.666
1056.35	241.043
1059.24	236.324
1062.13	253.816
1065.03	254.147
1067.92	233.97
1070.81	260.91
1073.7	232.344
1076.6	255.638
1079.49	242.971
1082.38	236.568
1085.27	225.097
1088.17	241.999
1091.06	262.738
1093.95	252.171
1096.84	243.234
1099.74	262.512
1102.63	283.54
1105.52	235.731
1108.41	278.014
1111.31	274.913
1114.2	273.071
1117.09	256.859
1119.99	236.963
1122.88	248.396
1125.77	249.567
1128.66	223.578
1131.56	254.677
1134.45	232.265
1137.34	255.749
1140.23	262.078
1143.13	245.786
1146.02	255.949
1148.91	270.204
1151.81	256.445
1154.7	264.883
1157.59	238.268
1160.48	241.633
1163.38	244.601
1166.27	254.269
1169.16	254.209
1172.05	236.776
1174.95	240.279
1177.84	237.63
1180.73	218.346
1183.62	234.752
1186.52	233.624
1189.41	213.754
1192.3	224.67
1195.2	234.262
1198.09	228.859
1200.98	242.971
1203.87	207.831
1206.77	230.518
1209.66	219.054
1212.55	232.355
1215.44	253.614
1218.34	255.459
1221.23	240.921
1224.12	231.063
1227.02	248.083
1229.91	232.579
1232.8	214.479
1235.69	237.823
1238.59	236.085
1241.48	234.186
1244.37	221.27
1247.26	217.783
1250.16	242.103
1253.05	229.288
1255.94	222.379
1258.84	223.343
1261.73	247.048
1264.62	213.748
1267.51	220.744
1270.41	236.244
1273.3	238.812
1276.19	247.15
1279.08	222.024
