Measurement: Raman, 780 nm, unoriented, Raman Data Processed
Mineral: Magnesiochlorophoenicite
Rruff sample: R140719
Ideal chemistry: Mg_3_Zn^2+^_2_As^5+^O_4_(OH,O)_6_
Locality: Sterling mine, Sterling Hill, Ogdensburg, Franklin Mining District, Sussex County, New Jersey, USA
Source: Rock Currier
Description: Radial tufts of vitreous white acicular crystals on typical Franklin Hill zinc ore. The crystals are twinned by a 2-fold axis parallel to a*.
Raman shift (cm-1)	intensity
160.864	0
163.757	7.32221
166.649	9.90247
169.542	10.8973
172.435	3.48029
175.328	0.452271
178.22	0.47345
181.113	1.93884
184.006	3.42322
186.898	6.42188
189.791	5.82336
192.684	6.50488
195.577	9.84473
198.469	9.90027
201.362	16.1654
204.255	18.4287
207.147	25.7206
210.04	31.7316
212.933	38.9188
215.825	47.9867
218.718	60.3539
221.611	70.1197
224.504	70.5018
227.396	61.3862
230.289	42.5035
233.182	28.3737
236.074	14.6868
238.967	14.2111
241.86	8.25482
244.752	8.27246
247.645	3.2168
250.538	3.47553
253.43	2.58423
256.323	0.77356
259.216	2.25171
262.109	3.19324
265.001	1.53155
267.894	1.30841
270.787	0.273926
273.679	1.05347
276.572	0.205139
279.465	0.163269
282.358	4.9425
285.25	0.89978
288.143	3.22992
291.036	5.69269
293.928	5.64551
296.821	2.6059
299.714	5.18842
302.606	1.72583
305.499	3.4892
308.392	3.30603
311.284	0.494751
314.177	1.40894
317.07	1.53552
319.963	1.48444
322.855	0.725037
325.748	2.62384
328.641	3.87244
331.533	6.66583
334.426	15.6775
337.319	20.8846
340.212	29.8347
343.104	38.4825
345.997	43.3402
348.89	43.5169
351.782	44.0394
354.675	38.1995
357.568	33.093
360.46	35.5306
363.353	35.6259
366.246	41.081
369.139	39.5676
372.031	39.8701
374.924	41.8629
377.817	38.1278
380.709	37.0212
383.602	34.4469
386.495	34.8605
389.387	35.7442
392.28	31.1679
395.173	22.6633
398.065	14.7839
400.958	10.2171
403.851	8.64026
406.744	11.0703
409.636	11.6773
412.529	14.9145
415.422	12.972
418.314	19.0111
421.207	21.6039
424.1	18.1711
426.993	18.6837
429.885	19.6503
432.778	16.8463
435.671	19.3423
438.563	12.4075
441.456	14.2897
444.349	9.17316
447.241	8.71216
450.134	7.36529
453.027	9.36383
455.92	3.68555
458.812	0.295715
461.705	1.87555
464.598	4.99298
467.49	0.172119
470.383	2.5473
473.276	5.8277
476.168	11.4959
479.061	15.1753
481.954	19.3737
484.846	19.932
487.739	17.7268
490.632	24.3962
493.525	31.4643
496.417	39.4071
499.31	48.1374
502.203	61.116
505.095	68.2817
507.988	70.6788
510.881	62.2425
513.774	47.5875
516.666	36.0111
519.559	24.5021
522.452	14.3032
525.344	8.39331
528.237	6.40112
531.13	5.79858
534.022	1.99646
536.915	1.19019
539.808	1.91241
542.701	2.68939
545.593	1.87964
548.486	4.13611
551.379	0.55127
554.271	0.433167
557.164	0.675598
560.057	0.409607
562.949	1.36774
565.842	2.26672
568.735	2.72156
571.628	0.768066
574.52	1.63263
577.413	0.499573
580.306	2.14014
583.198	2.26752
586.091	2.289
588.984	2.94305
591.876	0.737854
594.769	1.98547
597.662	1.56226
600.555	3.90692
603.447	2.83521
606.34	2.63458
609.233	2.87384
612.125	1.96551
615.018	1.22083
617.911	1.97937
620.803	3.04748
623.696	0.944336
626.589	1.68317
629.482	1.11066
632.374	2.617
635.267	4.31995
638.16	0.496277
641.052	2.77478
643.945	1.99823
646.838	0.821716
649.731	0.031677
652.623	0.344116
655.516	3.6048
658.409	1.05689
661.301	3.28259
664.194	1.27124
667.087	3.2088
669.979	4.00891
672.872	1.30948
675.765	2.95081
678.658	0.892487
681.55	1.42935
684.443	2.36786
687.336	1.32742
690.228	2.71417
693.121	3.00845
696.014	4.48077
698.906	4.86557
701.799	2.32275
704.692	2.52795
707.585	3.81223
710.477	2.79575
713.37	3.07156
716.263	4.48822
719.155	1.01511
722.048	1.93582
724.941	3.14865
727.833	3.56998
730.726	1.92484
733.619	1.16138
736.511	0.347504
739.404	1.65524
742.297	1.43857
745.19	1.42795
748.082	0.263184
750.975	0.04303
753.868	0.60907
756.76	1.21347
759.653	0.312988
762.546	0.149384
765.438	0.48175
768.331	3.76196
771.224	6.80997
774.117	10.61
777.009	17.3896
779.902	27.2866
782.795	41.9484
785.687	62.6487
788.58	87.7052
791.473	114.483
794.365	142.286
797.258	178.371
800.151	220.209
803.044	241.342
805.936	218.941
808.829	173.364
811.722	127.327
814.614	94.9284
817.507	73.4193
820.4	57.926
823.293	43.7717
826.185	32.8649
829.078	20.8717
831.971	16.6322
834.863	13.8793
837.756	18.578
840.649	15.1133
843.541	15.1516
846.434	14.7141
849.327	17.686
852.22	18.8962
855.112	18.5697
858.005	19.4192
860.898	18.1781
863.79	17.058
866.683	16.9877
869.576	18.6576
872.468	22.2686
875.361	25.2809
878.254	30.9618
881.146	41.326
884.039	54.5411
886.932	69.2109
889.825	82.768
892.717	87.2956
895.61	86.6473
898.503	72.2031
901.395	53.1508
904.288	36.1639
907.181	24.6112
910.073	14.5489
912.966	5.21408
915.859	2.57217
918.752	0.770447
921.644	2.75485
924.537	1.4118
927.43	0.540894
930.322	0.348846
933.215	0.273163
936.108	0.389679
939	0.530579
941.893	0.576874
944.786	0.344849
947.679	0.436951
950.571	0.623322
953.464	0.595398
956.357	0.846832
959.249	1.21768
962.142	2.56061
965.035	3.13321
967.928	5.20117
970.82	2.59833
973.713	2.22763
976.606	4.00516
979.498	5.3627
982.391	4.47833
985.284	5.6488
988.176	7.83856
991.069	5.46262
993.962	4.97507
996.855	6.07446
999.747	4.9801
1002.64	5.55243
1005.53	4.76386
1008.42	2.95914
1011.32	4.23337
1014.21	4.34845
1017.1	4.315
1020	2.71393
1022.89	2.3822
1025.78	3.53076
1028.67	3.91763
1031.57	4.12985
1034.46	7.4259
1037.35	2.09897
1040.24	1.71362
1043.14	2.68042
1046.03	3.72528
1048.92	3.18091
1051.82	1.70413
1054.71	2.72958
1057.6	4.9744
1060.49	2.00796
1063.39	3.16937
1066.28	0.823761
1069.17	2.8558
1072.07	1.75595
1074.96	1.00671
1077.85	3.6012
1080.74	2.83658
1083.63	2.14078
1086.53	2.21075
1089.42	1.31738
1092.31	1.52545
1095.21	2.29654
1098.1	0.731384
1100.99	1.14121
1103.88	0.467712
1106.78	0.28186
1109.67	2.23743
1112.56	0.047485
1115.45	4.9473
1118.35	0.015442
1121.24	2.42737
1124.13	1.87201
1127.03	0.577118
1129.92	1.34201
1132.81	0.028687
1135.7	0.543091
1138.6	0.404785
1141.49	1.42294
1144.38	2.54349
1147.28	0.494507
1150.17	1.83557
1153.06	1.92746
1155.95	2.27069
1158.85	3.25211
1161.74	1.53992
1164.63	1.90207
1167.52	2.28711
1170.42	3.43381
1173.31	2.86432
1176.2	3.54074
1179.1	2.89609
1181.99	1.53616
1184.88	5.22571
1187.77	3.41092
1190.66	1.44614
1193.56	1.16232
1196.45	1.08518
1199.34	7.58777
1202.24	1.75784
1205.13	1.82294
1208.02	1.17908
1210.91	2.55899
1213.81	1.02484
1216.7	1.44162
1219.59	0.323944
1222.48	1.83054
1225.38	1.00436
1228.27	2.23373
1231.16	1.40653
1234.06	1.62775
1236.95	1.62451
1239.84	1.931
1242.73	2.01004
1245.63	0.831757
1248.52	0.978577
1251.41	1.2439
1254.31	1.02768
1257.2	2.45352
1260.09	2.40616
1262.98	3.18518
1265.88	2.71838
1268.77	3.48352
1271.66	6.6604
1274.55	0.539764
1277.45	0.781525
1280.34	1.25296
