Measurement: Raman, 785 nm, unoriented, Raman Data RAW
Mineral: Magnesiochromite
Rruff sample: R060796
Ideal chemistry: MgCr^3+^_2_O_4_
Locality: State Line Chrome mine (Low's mine), Cecil County, Maryland, USA
Source: California Institute of Technology
Description: Black massive
Measured chemistry: (Mg_0.57_Fe^2+^_0.43_)_Σ=1_(Cr_1.52_Al_0.41_Fe^3+^_0.07_)_Σ=2_O_4_
Raman shift (cm-1)	intensity
179.382	1066.58
182.274	1035
185.167	1013.48
188.06	982.819
190.952	976.206
193.845	920.786
196.738	933.071
199.631	853.124
202.523	861.947
205.416	811.135
208.309	801.222
211.201	816.134
214.094	759.389
216.987	790.542
219.88	733.166
222.772	759.737
225.665	741.652
228.558	759.885
231.45	739.037
234.343	749.538
237.236	699.299
240.128	724.898
243.021	698.309
245.914	674.307
248.807	679.676
251.699	672.244
254.592	679.44
257.485	668.737
260.377	669.817
263.27	679.469
266.163	657.688
269.055	672.772
271.948	650.054
274.841	645.086
277.733	628.448
280.626	648.495
283.519	642.216
286.412	626.138
289.304	596.42
292.197	603.922
295.09	627.307
297.982	620.668
300.875	620.536
303.768	641.067
306.66	633.585
309.553	639.317
312.446	634.442
315.339	612.595
318.231	608.516
321.124	606.61
324.017	577.08
326.909	620.029
329.802	636.044
332.695	621.899
335.587	604.545
338.48	623.099
341.373	613.561
344.266	628.93
347.158	618.323
350.051	613.396
352.944	623.463
355.836	615.669
358.729	594.51
361.622	623.695
364.514	614.319
367.407	626.137
370.3	625.038
373.193	636.601
376.085	647.959
378.978	648.659
381.871	655.17
384.763	623.236
387.656	616.838
390.549	614.258
393.441	615.392
396.334	625.973
399.227	603.346
402.12	629.934
405.012	635.22
407.905	626.426
410.798	645.602
413.69	648.599
416.583	637.808
419.476	622.923
422.368	635.846
425.261	616.997
428.154	637.265
431.047	642.643
433.939	615.444
436.832	596.829
439.725	624.833
442.617	627.787
445.51	617.903
448.403	633.859
451.296	691.879
454.188	649.404
457.081	653.301
459.974	651.164
462.866	678.555
465.759	686.552
468.652	678.695
471.544	669.045
474.437	696.796
477.33	692.873
480.223	689.925
483.115	656.867
486.008	674.538
488.901	691.259
491.793	640.395
494.686	684.928
497.579	678.667
500.471	703.079
503.364	726.779
506.257	732.026
509.15	785.212
512.042	806.553
514.935	838.925
517.828	864.957
520.72	912.129
523.613	936.789
526.506	920.652
529.398	892.643
532.291	859.224
535.184	848.819
538.076	838.078
540.969	860.75
543.862	883.544
546.755	891.273
549.647	861.2
552.54	897.034
555.433	900.094
558.325	871.485
561.218	903.575
564.111	907.401
567.003	902.867
569.896	891.135
572.789	990.044
575.682	955.28
578.574	945.171
581.467	953.438
584.36	958.951
587.252	945.042
590.145	941.508
593.038	951.698
595.93	951.338
598.823	973.569
601.716	908.215
604.609	915.033
607.501	877.788
610.394	845.478
613.287	829.069
616.179	784.44
619.072	773.42
621.965	734.173
624.857	740.244
627.75	725.959
630.643	733.928
633.536	791.073
636.428	867.509
639.321	910.321
642.214	971.799
645.106	981.11
647.999	1007.75
650.892	1012.28
653.784	1013.5
656.677	1007.55
659.57	1017.11
662.463	1073.01
665.355	1099.87
668.248	1147.73
671.141	1227.07
674.033	1347.21
676.926	1411.67
679.819	1555.14
682.711	1722.48
685.604	1883.15
688.497	1980.81
691.39	2038.73
694.282	2041.01
697.175	1946.08
700.068	1834.12
702.96	1683.57
705.853	1414.29
708.746	1303.1
711.638	1179.59
714.531	1045.69
717.424	970.589
720.317	882.769
723.209	829.771
726.102	755.439
728.995	723.885
731.887	700.125
734.78	676.716
737.673	636.255
740.565	631.05
743.458	633.421
746.351	566.838
749.244	606.842
752.136	576.213
755.029	563.923
757.922	561.592
760.814	546.521
763.707	525.703
766.6	533.684
769.492	484.2
772.385	528.69
775.278	518.838
778.171	513.067
781.063	544.991
783.956	539.849
786.849	515.579
789.741	514.149
792.634	491.24
795.527	512.532
798.419	501.949
801.312	461.057
804.205	446.661
807.098	458.347
809.99	473.023
812.883	497.34
815.776	496.844
818.668	498.974
821.561	506.94
824.454	503.998
827.346	488.914
830.239	506.807
833.132	465.101
836.024	462.645
838.917	476.682
841.81	471.635
844.703	469.945
847.595	450.661
850.488	469.019
853.381	458.871
856.273	474.922
859.166	466.18
862.059	462.104
864.951	488.955
867.844	448.207
870.737	468.699
873.63	453.716
876.522	464.711
879.415	457.305
882.308	431.522
885.2	468.484
888.093	441.079
890.986	459.176
893.878	455.931
896.771	459.066
899.664	462.983
902.557	446.96
905.449	468.57
908.342	437.857
911.235	453.999
914.127	448.839
917.02	423.915
919.913	425.283
922.805	429.278
925.698	434.631
928.591	434.383
931.484	452.23
934.376	430.04
937.269	444.643
940.162	453.422
943.054	437.636
945.947	463.336
948.84	429.293
951.732	438.183
954.625	438.935
957.518	432.542
960.411	440.746
963.303	442.185
966.196	422.766
969.089	439.435
971.981	450.772
974.874	457.018
977.767	427.712
980.659	441.413
983.552	432.896
986.445	426.107
989.338	456.827
992.23	403.176
995.123	380.164
998.016	409.431
1000.91	439.057
1003.8	444.098
1006.69	427.289
1009.59	425.141
1012.48	469.307
1015.37	456.186
1018.26	472.854
1021.16	431.53
1024.05	423.484
1026.94	397.276
1029.84	416.251
1032.73	426.446
1035.62	420.335
1038.51	453.438
1041.41	435.934
1044.3	471.367
1047.19	468.867
1050.08	427.214
1052.98	458.093
1055.87	467.361
1058.76	448.196
1061.65	461.695
1064.55	453.256
1067.44	424.13
1070.33	427.443
1073.23	448.783
1076.12	453.854
1079.01	455.909
1081.9	447.061
1084.8	459.397
1087.69	459.07
1090.58	459.131
1093.47	449.142
1096.37	462.238
1099.26	458.634
1102.15	461.22
1105.05	432.371
1107.94	452.579
1110.83	431.488
1113.72	436.524
1116.62	439.119
1119.51	452.527
1122.4	441.847
1125.3	469.666
1128.19	486.841
1131.08	459.761
1133.97	468.237
1136.87	467.625
1139.76	448.902
1142.65	448.237
1145.54	460.753
1148.44	453.38
1151.33	436.918
1154.22	465.023
1157.11	448.531
1160.01	483.839
1162.9	459.314
1165.79	461.242
1168.68	496.267
1171.58	451.276
1174.47	475.413
1177.36	468.033
1180.26	459.013
1183.15	450.32
1186.04	432.084
1188.93	433.007
1191.83	466.578
1194.72	448.201
1197.61	464.225
1200.51	469.42
1203.4	453.062
1206.29	455.789
1209.18	442.65
1212.08	469.809
1214.97	440.162
1217.86	464.475
1220.75	451.883
1223.65	443.279
1226.54	454.701
1229.43	461.306
1232.32	434.182
1235.22	448.541
1238.11	430.449
1241	425.552
1243.89	475.283
1246.79	480.162
1249.68	482.567
1252.57	465.376
1255.47	455.119
1258.36	439.198
1261.25	475.104
1264.14	467.892
