Measurement: Raman, 532 nm, unoriented, Raman Data RAW
Mineral: Magnetoplumbite
Rruff sample: R060074
Ideal chemistry: Pb^2+^Fe^3+^_12_O_19_
Locality: Langban, Filipstad, Varmland, Sweden
Source: University of Arizona Mineral Museum
Description: Black granular and massive
Measured chemistry: Pb_1.00_(Fe^3+^_7.48_Mn^3+^_3.09_Ti_0.60_Mn^2+^_0.48_Al_0.23_Zn_0.12_)_Î£=12_O_19_
Raman shift (cm-1)	intensity
93.8848	7.44389
97.2596	3.98332
100.634	5.94835
104.009	8.83759
107.384	11.2217
110.759	13.7207
114.134	16.0017
117.508	17.4317
120.883	18.8874
124.258	20.2065
127.633	21.6115
131.008	22.4158
134.383	22.4174
137.757	22.2107
141.132	22.1828
144.507	22.3788
147.882	22.0505
151.257	22.5152
154.631	22.9538
158.006	22.9187
161.381	23.735
164.756	24.4955
168.131	25.7589
171.506	27.0312
174.88	27.8657
178.255	27.8462
181.63	27.799
185.005	27.2267
188.38	26.0386
191.754	24.7567
195.129	23.2102
198.504	22.1733
201.879	21.442
205.254	20.7384
208.629	20.2239
212.003	19.9534
215.378	19.7428
218.753	19.3391
222.128	19.1445
225.503	19.0931
228.877	19.0512
232.252	18.9091
235.627	18.8284
239.002	18.9033
242.377	19.0265
245.751	19.0124
249.126	19.2896
252.501	19.186
255.876	19.3505
259.251	19.5424
262.625	19.4042
266	19.3404
269.375	19.4205
272.75	19.6208
276.125	19.8194
279.5	19.6329
282.875	19.9626
286.249	20.081
289.624	20.2818
292.999	20.2115
296.374	20.56
299.748	20.5825
303.123	20.8143
306.498	20.7706
309.873	21.2697
313.248	21.5153
316.623	21.8417
319.997	21.922
323.372	22.0703
326.747	21.9906
330.122	22.3287
333.497	22.4761
336.872	22.3372
340.246	22.1592
343.621	22.0648
346.996	21.913
350.371	21.5934
353.746	21.1671
357.12	20.822
360.495	20.5278
363.87	19.9529
367.245	19.928
370.62	19.6403
373.995	19.4211
377.369	19.1238
380.744	19.038
384.119	18.8986
387.494	18.7869
390.869	18.4603
394.243	18.3669
397.618	18.355
400.993	18.2857
404.368	18.0217
407.743	17.9916
411.118	18.0964
414.492	17.9932
417.867	18.2756
421.242	18.3582
424.617	18.1193
427.991	18.5995
431.366	18.6413
434.741	18.826
438.116	18.6073
441.491	19.0977
444.866	19.3032
448.24	19.0431
451.615	18.8548
454.99	18.724
458.365	18.6264
461.74	18.5044
465.115	18.087
468.489	17.9574
471.864	17.8236
475.239	17.4846
478.614	17.3044
481.989	17.2174
485.363	17.1733
488.738	17.356
492.113	17.615
495.488	17.7046
498.863	17.9856
502.238	18.2414
505.612	18.6663
508.987	18.9605
512.362	19.1974
515.737	19.4047
519.112	19.7034
522.486	19.9483
525.861	19.968
529.236	20.1357
532.611	20.0235
535.986	20.075
539.361	20.1745
542.735	20.2699
546.11	20.1983
549.485	20.3638
552.86	20.0808
556.235	20.1966
559.609	20.1969
562.984	20.3098
566.359	20.2981
569.734	20.6592
573.109	20.6898
576.484	21.2595
579.858	21.8622
583.233	22.5299
586.608	23.0541
589.983	23.5419
593.357	24.0738
596.732	24.8516
600.107	25.6042
603.482	26.5612
606.857	27.6742
610.232	28.9909
613.606	30.4965
616.981	31.6856
620.356	33.3005
623.731	34.5031
627.106	35.582
630.481	36.4773
633.855	37.0578
637.23	37.6263
640.605	37.8083
643.98	37.7617
647.355	37.6201
650.729	37.1148
654.104	36.4744
657.479	35.47
660.854	33.4009
664.229	32.0375
667.604	30.4423
670.978	29.0085
674.353	27.8373
677.728	26.6378
681.103	26.0338
684.477	25.1179
687.852	23.9527
691.227	22.9602
694.602	21.9886
697.977	20.9966
701.352	20.1249
704.726	19.3568
708.101	18.4034
711.476	17.7521
714.851	17.098
718.226	16.3365
721.601	15.9004
724.975	15.1768
728.35	14.6783
731.725	14.424
735.1	14.1214
738.475	13.929
741.849	13.9146
745.224	13.5355
748.599	13.2687
751.974	13.0264
755.349	13.2082
758.723	12.9454
762.098	12.5617
765.473	12.4322
768.848	12.2443
772.223	12.2688
775.598	12.0701
778.972	12.0161
782.347	11.8956
785.722	11.6736
789.097	11.6203
792.472	11.7493
795.846	11.4123
799.221	11.4847
802.596	11.3157
805.971	11.2294
809.346	11.2106
812.721	11.1704
816.095	11.1792
819.47	11.0081
822.845	10.874
826.22	11.0323
829.595	11.0175
832.969	10.9756
836.344	10.8628
839.719	10.7176
843.094	10.6816
846.469	10.5558
849.843	10.5587
853.218	10.5965
856.593	10.5198
859.968	10.4127
863.343	10.2774
866.718	10.1814
870.092	9.93702
873.467	9.97003
876.842	9.8181
880.217	9.81758
883.592	9.61724
886.966	9.54777
890.341	9.24932
893.716	9.23262
897.091	9.08842
900.466	8.91644
903.841	8.87686
907.215	8.80849
910.59	8.45084
913.965	8.7185
917.34	8.6203
920.715	8.37805
924.09	8.3792
927.464	8.33332
930.839	8.15474
934.214	8.16352
937.589	8.07769
940.964	7.97194
944.338	8.14229
947.713	7.98098
951.088	7.9676
954.463	7.85249
957.838	7.96665
961.212	7.87288
964.587	7.9554
967.962	7.74239
971.337	7.92242
974.712	7.72769
978.087	7.7688
981.461	7.82409
984.836	7.74012
988.211	7.73691
991.586	7.78516
994.961	7.82729
998.335	7.70291
1001.71	7.79397
1005.09	7.73026
1008.46	7.70352
1011.84	7.58711
1015.21	7.65522
1018.58	7.62292
1021.96	7.67373
1025.33	7.69366
1028.71	7.76932
1032.08	7.7131
1035.46	7.76968
1038.83	7.80054
1042.21	7.75605
1045.58	7.69996
1048.96	7.58744
1052.33	7.49732
1055.71	7.48664
1059.08	7.29279
1062.46	7.51464
1065.83	7.40619
1069.21	7.35662
1072.58	7.27832
1075.96	7.30722
1079.33	7.28476
1082.71	7.16891
1086.08	7.21954
1089.45	7.1509
1092.83	7.10193
1096.2	7.0352
1099.58	7.14089
1102.95	6.91668
1106.33	6.98226
1109.7	7.03451
1113.08	7.02568
1116.45	6.97397
1119.83	7.09248
1123.2	6.86018
1126.58	6.81031
1129.95	6.86347
1133.33	7.03217
1136.7	6.88388
1140.08	6.90815
1143.45	6.95333
1146.83	6.73118
1150.2	6.6409
1153.58	6.88725
1156.95	6.64264
1160.33	6.63903
1163.7	6.82787
1167.08	6.77203
1170.45	6.70303
1173.83	6.82279
1177.2	6.77853
1180.58	6.76334
1183.95	6.65727
1187.33	6.81679
1190.7	6.69529
1194.08	6.74635
1197.45	6.81831
1200.82	6.62293
1204.2	6.55943
1207.57	6.55398
1210.95	6.70784
1214.32	6.58616
1217.7	6.8012
1221.07	6.49237
1224.45	6.61089
1227.82	6.63643
1231.2	6.66347
1234.57	6.70153
1237.95	6.56484
1241.32	6.67302
1244.7	6.77876
1248.07	6.5275
1251.45	6.62294
1254.82	6.64147
1258.2	6.50585
1261.57	6.51865
1264.95	6.61957
1268.32	6.51159
1271.7	6.57593
1275.07	6.5727
1278.44	6.57338
1281.82	6.552
1285.19	6.66072
1288.57	6.49088
1291.94	6.59901
1295.32	6.57955
1298.69	6.68734
1302.07	6.5977
1305.44	6.67233
