Measurement: Raman, 532 nm, unoriented, Raman Data Processed
Mineral: Magnesiochlorophoenicite
Rruff sample: R140719
Ideal chemistry: Mg_3_Zn^2+^_2_As^5+^O_4_(OH,O)_6_
Locality: Sterling mine, Sterling Hill, Ogdensburg, Franklin Mining District, Sussex County, New Jersey, USA
Source: Rock Currier
Description: Radial tufts of vitreous white acicular crystals on typical Franklin Hill zinc ore. The crystals are twinned by a 2-fold axis parallel to a*.
Raman shift (cm-1)	intensity
143.58	0
146.955	3.15637
150.33	0.665039
153.705	8.51819
157.079	5.38464
160.454	10.7058
163.829	32.7429
167.204	30.6689
170.579	16.191
173.953	0.109253
177.328	0.463257
180.703	21.1304
184.078	23.7577
187.453	31.9956
190.828	31.7899
194.202	40.8358
197.577	45.9796
200.952	56.6934
204.327	71.4413
207.702	94.4594
211.077	129.672
214.451	174.849
217.826	212.691
221.201	248.764
224.576	268.358
227.951	228.852
231.325	149.323
234.7	92.9083
238.075	51.92
241.45	24.5093
244.825	8.19702
248.2	1.32715
251.574	1.75391
254.949	0.911255
258.324	2.89099
261.699	5.53235
265.074	0.277954
268.448	2.19861
271.823	4.43896
275.198	5.80249
278.573	6.03613
281.948	5.39722
285.322	12.5541
288.697	11.3048
292.072	9.92456
295.447	3.15894
298.822	6.06738
302.197	11.2508
305.571	8.17651
308.946	3.27136
312.321	3.12866
315.696	2.53284
319.071	4.35986
322.445	1.92529
325.82	6.43494
329.195	14.8242
332.57	40.1219
335.945	72.0499
339.32	113.576
342.694	142.786
346.069	175.141
349.444	176.846
352.819	161.338
356.194	148.909
359.568	133.536
362.943	135.786
366.318	144.751
369.693	143.877
373.068	146.667
376.442	144.146
379.817	139.828
383.192	150.159
386.567	161.758
389.942	175.414
393.317	144.311
396.691	112.343
400.066	75.2214
403.441	60.9733
406.816	53.6184
410.191	60.6128
413.565	68.5254
416.94	73.4078
420.315	70.6154
423.69	71.2314
427.065	67.7549
430.44	68.8954
433.814	66.0537
437.189	56.7543
440.564	46.4108
443.939	37.2415
447.314	32.2881
450.688	23.989
454.063	15.8828
457.438	3.78406
460.813	4.58081
464.188	9.85022
467.563	5.55786
470.937	9.80041
474.312	25.6973
477.687	47.6406
481.062	60.2285
484.437	73.9054
487.812	71.9956
491.186	87.442
494.561	119.245
497.936	169.746
501.311	233.43
504.686	280.559
508.06	297.967
511.435	251.237
514.81	182.953
518.185	122.558
521.56	75.6566
524.934	43.0356
528.309	23.8223
531.684	16.5144
535.059	7.47339
538.434	2.88708
541.809	3.86743
545.183	5.11401
548.558	0.323853
551.933	1.09082
555.308	1.29651
558.683	0.616089
562.058	0.882568
565.432	2.94446
568.807	1.18286
572.182	4.2113
575.557	0.620605
578.932	3.11377
582.306	1.08252
585.681	4.05774
589.056	3.88806
592.431	3.01526
595.806	0.160156
599.181	1.02344
602.555	3.92224
605.93	6.8905
609.305	2.41638
612.68	3.07007
616.055	7.01257
619.429	3.16296
622.804	4.96533
626.179	2.91455
629.554	2.53186
632.929	7.47266
636.303	5.10742
639.678	4.39746
643.053	2.68799
646.428	9.64197
649.803	11.5206
653.178	11.1813
656.552	13.85
659.927	6.7561
663.302	5.76245
666.677	5.86707
670.052	4.94836
673.427	3.71655
676.801	5.07056
680.176	6.37732
683.551	0.926636
686.926	1.18347
690.301	1.49329
693.675	3.66296
697.05	7.33472
700.425	9.84912
703.8	14.2391
707.175	10.4008
710.549	5.16785
713.924	8.39075
717.299	10.5666
720.674	8.3114
724.049	5.97705
727.423	7.32519
730.798	6.52393
734.173	7.36023
737.548	9.12634
740.923	4.04736
744.298	2.02148
747.672	0.431763
751.047	3.5304
754.422	5.29456
757.797	12.0879
761.172	2.7019
764.547	4.64844
767.921	7.53796
771.296	23.1653
774.671	48.8842
778.046	89.224
781.421	146.664
784.795	228.571
788.17	340.929
791.545	482.243
794.92	652.165
798.295	864.739
801.669	1046.37
805.044	1061.72
808.419	867.277
811.794	640.29
815.169	468.174
818.544	350.085
821.918	261.003
825.293	188.103
828.668	114.627
832.043	78.4905
835.418	55.0712
838.793	52.2036
842.167	53.212
845.542	49.5847
848.917	62.3824
852.292	70.5325
855.667	72.6471
859.041	71.9382
862.416	79.3926
865.791	78.7068
869.166	86.934
872.541	101.362
875.915	124.969
879.29	176.791
882.665	258.132
886.04	344.455
889.415	429.286
892.79	483.795
896.164	469.03
899.539	377.603
902.914	256.675
906.289	152.768
909.664	82.8838
913.038	42.0653
916.413	16.6733
919.788	6.16772
923.163	2.93579
926.538	1.55896
929.913	2.03125
933.287	6.25732
936.662	2.65674
940.037	1.80835
943.412	1.51758
946.787	0.685669
950.162	1.86841
953.536	0.4646
956.911	5.06055
960.286	7.35156
963.661	12.8368
967.036	8.24316
970.41	6.78772
973.785	9.94665
977.16	13.7865
980.535	12.2082
983.91	17.816
987.284	16.7799
990.659	15.937
994.034	15.1005
997.409	12.6344
1000.78	13.5653
1004.16	11.535
1007.53	16.9324
1010.91	13.1432
1014.28	16.0802
1017.66	10.5136
1021.03	11.1492
1024.41	14.1554
1027.78	11.1213
1031.16	13.2679
1034.53	14.8375
1037.91	8.37146
1041.28	18.3401
1044.66	19.5769
1048.03	19.7644
1051.41	19.5919
1054.78	21.4112
1058.16	15.0585
1061.53	17.2992
1064.9	16.2553
1068.28	10.7722
1071.65	10.693
1075.03	13.3431
1078.4	6.77905
1081.78	7.18823
1085.15	11.3599
1088.53	12.859
1091.9	12.1752
1095.28	10.9019
1098.65	5.98572
1102.03	4.0979
1105.4	7.07056
1108.78	3.87634
1112.15	5.01904
1115.53	6.87024
1118.9	2.7074
1122.28	2.07678
1125.65	0.456177
1129.03	1.33191
1132.4	2.36426
1135.78	1.8501
1139.15	3.97205
1142.53	1.92956
1145.9	2.36975
1149.28	2.60242
1152.65	6.42432
1156.03	7.27783
1159.4	9.41321
1162.78	9.90418
1166.15	10.4559
1169.53	9.24475
1172.9	11.9725
1176.27	3.81519
1179.65	10.9778
1183.02	11.9109
1186.4	15.3186
1189.77	14.4331
1193.15	14.0815
1196.52	11.6309
1199.9	11.3545
1203.27	13.2551
1206.65	6.92871
1210.02	12.0977
1213.4	13.061
1216.77	10.5581
1220.15	14.0696
1223.52	13.5425
1226.9	5.43579
1230.27	9.31421
1233.65	11.8901
1237.02	3.70801
1240.4	2.45019
1243.77	0.67334
1247.14	0.762451
1250.52	5.854
1253.89	8.57959
1257.27	11.2563
1260.64	8.36133
1264.02	0.585205
1267.39	8.18286
1270.77	0.683594
1274.14	0.593262
1277.52	1.646
1280.89	5.40698
1284.27	8.70288
1287.64	5.77832
1291.02	6.39478
1294.39	5.06567
1297.77	0.234375
