Measurement: Raman, 532 nm, unoriented, Raman Data Processed
Mineral: Magnesio-fluoro-hastingsite
Rruff sample: R141082
Ideal chemistry: NaCa_2_(Mg_4_Fe^3+^)(Si_6_Al_2_)O_22_F_2_
Locality: Caspar quarry, Bellerberg volcano, Mayen, Eifel, Germany
Source: Ch. and H. Sch√§fer
Description: Euhedral brown crystal embedded in matrix
Raman shift (cm-1)	intensity
143.58	0
146.955	3.78436
150.33	1.44727
153.705	5.43408
157.079	7.72907
160.454	13.9302
163.829	18.0409
167.204	9.44287
170.579	9.46909
173.953	6.11996
177.328	8.21078
180.703	7.03235
184.078	7.74625
187.453	6.97021
190.828	1.50201
194.202	0.977081
197.577	0.309631
200.952	0.039795
204.327	0.719879
207.702	0.660126
211.077	3.66272
214.451	5.92392
217.826	11.805
221.201	15.2374
224.576	17.145
227.951	16.8449
231.325	15.9199
234.7	12.4972
238.075	11.4325
241.45	9.14355
244.825	6.46796
248.2	4.8783
251.574	3.4277
254.949	0.230347
258.324	0.592407
261.699	0.633453
265.074	0.208588
268.448	2.54672
271.823	3.14017
275.198	3.45169
278.573	3.6947
281.948	5.49637
285.322	7.6532
288.697	6.98389
292.072	6.53052
295.447	5.25528
298.822	4.66101
302.197	7.43671
305.571	7.37543
308.946	6.40164
312.321	5.37824
315.696	8.03506
319.071	7.15646
322.445	7.20544
325.82	8.61865
329.195	7.52121
332.57	8.24274
335.945	7.64441
339.32	8.17154
342.694	6.31802
346.069	7.45139
349.444	7.88995
352.819	10.3395
356.194	11.7568
359.568	10.3179
362.943	12.4593
366.318	12.3102
369.693	10.6495
373.068	7.97235
376.442	7.23492
379.817	5.97061
383.192	3.45499
386.567	1.36862
389.942	3.32809
393.317	2.04123
396.691	0.078644
400.066	1.21359
403.441	0.812317
406.816	0.594543
410.191	1.67737
413.565	0.619263
416.94	1.74329
420.315	3.73663
423.69	6.73807
427.065	9.05127
430.44	10.4523
433.814	11.4461
437.189	7.67776
440.564	6.35959
443.939	2.69388
447.314	1.99683
450.688	1.23996
454.063	0.285126
457.438	2.96509
460.813	2.42233
464.188	1.88065
467.563	0.572601
470.937	3.37396
474.312	3.60687
477.687	2.84524
481.062	4.42337
484.437	2.18216
487.812	1.89725
491.186	2.12485
494.561	4.58737
497.936	10.3462
501.311	15.9063
504.686	23.8658
508.06	30.0103
511.435	29.5879
514.81	24.7167
518.185	17.7702
521.56	12.2221
524.934	10.2249
528.309	9.22263
531.684	10.983
535.059	9.99017
538.434	10.3685
541.809	11.4174
545.183	10.6125
548.558	11.9051
551.933	10.4407
555.308	9.11511
558.683	10.2742
562.058	7.49872
565.432	9.93417
568.807	7.98706
572.182	8.74655
575.557	7.94183
578.932	8.35892
582.306	5.69394
585.681	4.93228
589.056	1.07736
592.431	0.085602
595.806	1.14694
599.181	2.05115
602.555	1.09415
605.93	1.13946
609.305	1.04382
612.68	3.19574
616.055	1.62183
619.429	2.16715
622.804	2.46555
626.179	3.01166
629.554	5.95578
632.929	10.5346
636.303	14.0555
639.678	16.14
643.053	15.7846
646.428	17.8389
649.803	22.5714
653.178	28.4867
656.552	31.9003
659.927	38.9602
663.302	42.8292
666.677	45.8797
670.052	44.9104
673.427	40.7252
676.801	31.8303
680.176	24.2938
683.551	19.0248
686.926	13.8751
690.301	11.7522
693.675	10.1627
697.05	8.46545
700.425	5.97055
703.8	4.60303
707.175	4.12271
710.549	1.45648
713.924	0.473846
717.299	0.500458
720.674	0.876831
724.049	2.0896
727.423	0.78598
730.798	3.3508
734.173	0.724365
737.548	4.41244
740.923	4.38074
744.298	7.9519
747.672	12.0645
751.047	16.5365
754.422	19.6605
757.797	21.2022
761.172	24.1964
764.547	24.2031
767.921	19.7011
771.296	20.0707
774.671	20.5091
778.046	17.9801
781.421	17.4763
784.795	14.2358
788.17	15.4279
791.545	16.2209
794.92	15.8562
798.295	14.764
801.669	11.6974
805.044	11.2617
808.419	11.6761
811.794	9.28174
815.169	7.0018
818.544	8.01627
821.918	8.26599
825.293	6.87128
828.668	7.7923
832.043	7.22031
835.418	3.25739
838.793	7.05215
842.167	3.64771
845.542	4.09659
848.917	4.64475
852.292	3.11768
855.667	1.99274
859.041	2.60043
862.416	1.87115
865.791	3.87732
869.166	3.40366
872.541	1.89887
875.915	1.99194
879.29	0.20932
882.665	0.644623
886.04	0.427124
889.415	1.32816
892.79	0.122864
896.164	2.59024
899.539	0.563263
902.914	1.53595
906.289	2.18485
909.664	3.3313
913.038	3.44513
916.413	5.81464
919.788	4.95105
923.163	4.30411
926.538	4.4718
929.913	5.3241
933.287	3.26312
936.662	3.7309
940.037	1.41742
943.412	1.60336
946.787	0.036652
950.162	0.310211
953.536	0.843231
956.911	0.351501
960.286	3.07938
963.661	5.02466
967.036	3.85483
970.41	6.40967
973.785	13.1507
977.16	16.2869
980.535	18.7795
983.91	21.2693
987.284	24.4548
990.659	20.8791
994.034	18.5258
997.409	14.5365
1000.78	12.4157
1004.16	10.8791
1007.53	10.1504
1010.91	7.55511
1014.28	8.6441
1017.66	7.3024
1021.03	4.83798
1024.41	7.01465
1027.78	5.70203
1031.16	6.57785
1034.53	6.3389
1037.91	6.18036
1041.28	7.75067
1044.66	7.55704
1048.03	6.82983
1051.41	5.49527
1054.78	5.50183
1058.16	3.70248
1061.53	3.14496
1064.9	2.75287
1068.28	0.722168
1071.65	1.00024
1075.03	0.857361
1078.4	1.95508
1081.78	1.14789
1085.15	1.52512
1088.53	0.183777
1091.9	2.3349
1095.28	0.08194
1098.65	0.857635
1102.03	2.02341
1105.4	4.54193
1108.78	9.45856
1112.15	10.8944
1115.53	8.33679
1118.9	2.91446
1122.28	0.105408
1125.65	1.86597
1129.03	1.2789
1132.4	0.767548
1135.78	5.39349
1139.15	2.01031
1142.53	0.238403
1145.9	0.64621
1149.28	1.09146
1152.65	0.835815
1156.03	2.77759
1159.4	1.16745
1162.78	2.2825
1166.15	1.28442
1169.53	1.49347
1172.9	1.35599
1176.27	2.70819
1179.65	3.45663
1183.02	7.60379
1186.4	8.64731
1189.77	7.77258
1193.15	2.59103
1196.52	3.40543
1199.9	0.55542
1203.27	1.59015
1206.65	0.608582
1210.02	2.4537
1213.4	4.79608
1216.77	5.34403
1220.15	6.58942
1223.52	8.16092
1226.9	7.78262
1230.27	9.59497
1233.65	6.29773
1237.02	3.82318
1240.4	4.64401
1243.77	4.4339
1247.14	6.56555
1250.52	8.80035
1253.89	5.56195
1257.27	7.5737
1260.64	7.23789
1264.02	3.56082
1267.39	2.12213
1270.77	2.78296
1274.14	1.07916
1277.52	0.270813
1280.89	0.574951
1284.27	3.57175
1287.64	3.76126
1291.02	3.16983
1294.39	0.706146
1297.77	2.56717
