Measurement: Raman, 532 nm, unoriented, Raman Data RAW
Mineral: Magnesioferrite
Rruff sample: R060869
Ideal chemistry: MgFe^3+^_2_O_4_
Locality: Langban, Filipstad, Varmland, Sweden
Source: Michael Scott
Description: Black semimetallic massive
Measured chemistry: (Mg_0.67_Mn^2+^_0.30_Fe^2+^_0.03_)_Σ=1_(Fe^3+^_1.97_Al_0.03_)_Σ=2_O_4_
Raman shift (cm-1)	intensity
83.918	178.941
87.2928	172.34
90.6676	155.913
94.0424	155.053
97.4172	133.292
100.792	143.99
104.167	144.752
107.542	129.502
110.916	155.147
114.291	189.522
117.666	219.013
121.041	298.458
124.416	340.981
127.79	376.457
131.165	399.191
134.54	384.77
137.915	413.41
141.29	434.154
144.665	422.678
148.039	419.777
151.414	418.798
154.789	414.872
158.164	405.933
161.539	403.885
164.913	432.612
168.288	444.093
171.663	432.162
175.038	411.329
178.413	460.728
181.788	422.201
185.162	440.202
188.537	446.67
191.912	464.638
195.287	468.001
198.662	448.892
202.036	453.481
205.411	437.553
208.786	455.943
212.161	449.613
215.536	429.4
218.911	435.198
222.285	414.784
225.66	422.122
229.035	403.909
232.41	398.1
235.785	446.216
239.159	393.541
242.534	404.217
245.909	423.979
249.284	432.962
252.659	449.716
256.033	419.489
259.408	436.635
262.783	459.138
266.158	442.301
269.533	445.955
272.908	456.473
276.282	467.988
279.657	459.61
283.032	467.475
286.407	450.896
289.782	478.36
293.156	449.327
296.531	496.952
299.906	496.565
303.281	497.128
306.656	504.09
310.031	537.022
313.405	551.239
316.78	559.993
320.155	592.733
323.53	599.519
326.904	625.972
330.279	637.048
333.654	649.389
337.029	652.285
340.404	628.34
343.779	636.013
347.153	581.57
350.528	593.568
353.903	571.157
357.278	581.324
360.653	554.165
364.027	564.467
367.402	545.515
370.777	556.053
374.152	549.607
377.527	556.619
380.902	552.407
384.276	547.251
387.651	518.14
391.026	546.264
394.401	526.399
397.776	539.458
401.151	506.596
404.525	538.52
407.9	537.428
411.275	546.16
414.65	552.291
418.024	538.611
421.399	539.506
424.774	531.043
428.149	555.684
431.524	538.778
434.899	573.21
438.273	564.325
441.648	543.816
445.023	568.375
448.398	582.194
451.773	617.799
455.147	579.241
458.522	588.277
461.897	627.461
465.272	621.428
468.647	627.801
472.022	634.465
475.396	650.475
478.771	663.723
482.146	666.861
485.521	690.778
488.896	677.081
492.27	666.698
495.645	673.437
499.02	673.955
502.395	655.57
505.77	683.056
509.144	685.836
512.519	715.899
515.894	704.697
519.269	726.434
522.644	781.211
526.019	802.515
529.393	785.419
532.768	790.4
536.143	754.44
539.518	766.122
542.893	784.206
546.268	800.41
549.642	822.826
553.017	828.281
556.392	832.745
559.767	865.02
563.141	899.756
566.516	948.343
569.891	984.612
573.266	1037.66
576.641	1094.08
580.016	1202.51
583.39	1298.56
586.765	1468.54
590.14	1652.61
593.515	1862.12
596.89	2075.47
600.264	2270.25
603.639	2494.92
607.014	2645.99
610.389	2636.76
613.764	2614.85
617.139	2477.42
620.513	2313.83
623.888	2089.87
627.263	1923.52
630.638	1708.86
634.013	1559.71
637.387	1445.17
640.762	1345.64
644.137	1284.56
647.512	1254.99
650.887	1219.78
654.261	1183.09
657.636	1183.5
661.011	1147.45
664.386	1111.76
667.761	1096.01
671.135	1074.39
674.51	1040.43
677.885	1052.93
681.26	1004.51
684.635	1008.29
688.01	1022.03
691.384	980.999
694.759	944.763
698.134	939.227
701.509	940.662
704.884	885.907
708.259	908.48
711.633	836.096
715.008	839.984
718.383	812.192
721.758	810.014
725.133	772.06
728.507	770.673
731.882	749.78
735.257	766.438
738.632	738.856
742.007	717.698
745.381	727.928
748.756	732.613
752.131	659.861
755.506	683.81
758.881	719.303
762.255	711.915
765.63	692.138
769.005	690.158
772.38	693.912
775.755	702.766
779.13	700.663
782.504	679.555
785.879	696.189
789.254	698.242
792.629	716.869
796.004	709.242
799.378	699.97
802.753	679.609
806.128	711.982
809.503	727.626
812.878	688.719
816.253	692.677
819.627	705.983
823.002	683.827
826.377	688.999
829.752	722.552
833.127	693.192
836.501	690.211
839.876	702.949
843.251	692.201
846.626	678.054
850.001	715.906
853.375	709.695
856.75	710.501
860.125	719.393
863.5	736.462
866.875	729.288
870.25	712.34
873.624	706.318
876.999	692.957
880.374	727.539
883.749	704.081
887.124	720.514
890.498	732.642
893.873	728.053
897.248	740.105
900.623	700.486
903.998	732.61
907.372	754.195
910.747	740.051
914.122	724.124
917.497	738.063
920.872	737.427
924.246	734.316
927.621	718.339
930.996	766.834
934.371	756.087
937.746	741.393
941.121	755.996
944.495	780.596
947.87	756.321
951.245	766.649
954.62	771.843
957.995	762.015
961.37	753.936
964.744	771.388
968.119	746.666
971.494	746.451
974.869	790.265
978.244	779.58
981.618	795.536
984.993	746.525
988.368	773.894
991.743	800.479
995.118	784.64
998.492	784.063
1001.87	792.973
1005.24	786.572
1008.62	790.666
1011.99	792.541
1015.37	794.38
1018.74	796.201
1022.12	808.152
1025.49	815.006
1028.87	793.495
1032.24	809.984
1035.62	801.512
1038.99	828.336
1042.37	833.394
1045.74	827.354
1049.12	819.567
1052.49	823.528
1055.86	838.07
1059.24	836.329
1062.61	808.386
1065.99	805.763
1069.36	818.126
1072.74	833.856
1076.11	829.765
1079.49	820.146
1082.86	833.949
1086.24	832.905
1089.61	822.989
1092.99	840.477
1096.36	837.943
1099.74	844.501
1103.11	869.224
1106.49	846.852
1109.86	850.041
1113.24	873.606
1116.61	857.549
1119.99	833.938
1123.36	830.934
1126.73	864.305
1130.11	839.843
1133.48	883.14
1136.86	877.414
1140.23	851.418
1143.61	862.442
1146.98	884.279
1150.36	872.878
1153.73	896.381
1157.11	906.166
1160.48	910.282
1163.86	901.024
1167.23	885.162
1170.61	911.389
1173.98	924.71
1177.36	902.033
1180.73	924.26
1184.11	944.362
1187.48	957.064
1190.86	933.145
1194.23	953.433
1197.61	978.5
1200.98	950.754
1204.36	979.284
1207.73	982.966
1211.11	983.971
1214.48	997.029
1217.86	986.865
1221.23	939.237
1224.61	971.512
1227.98	991.334
1231.36	980.064
1234.73	1002.31
1238.1	969.397
1241.48	994.47
1244.85	997.155
1248.23	968.63
1251.6	977.936
1254.98	976.247
1258.35	968.259
1261.73	968.52
1265.1	982.39
1268.48	980.123
1271.85	975.711
1275.23	986.196
1278.6	993.783
1281.98	1007.77
1285.35	977.547
1288.73	980.362
1292.1	978.452
1295.48	977.212
1298.85	989.839
