Measurement: Raman, 785 nm, unoriented, Raman Data RAW
Mineral: Magnesiochromite
Rruff sample: R060797
Ideal chemistry: MgCr^3+^_2_O_4_
Locality: Benbow mine, Stillwater Complex, Mount Wood area, Stillwater County, Montana, USA
Source: California Institute of Technology
Description: Black granular massive
Measured chemistry: (Mg_0.55_Fe^2+^_0.45_)_Σ=1_(Cr_1.28_Al_0.58_Fe^3+^_0.14_)_Σ=2_O_4_
Raman shift (cm-1)	intensity
177.453	652.422
180.346	676.57
183.239	645.626
186.131	671.834
189.024	642.665
191.917	640.098
194.809	614.395
197.702	623.844
200.595	601.896
203.488	630.846
206.38	601.439
209.273	581.523
212.166	571.445
215.058	561.596
217.951	582.551
220.844	592.187
223.736	573.243
226.629	569.329
229.522	569.348
232.415	579.562
235.307	589.362
238.2	556.835
241.093	552.058
243.985	588.24
246.878	560.305
249.771	565.716
252.663	545.493
255.556	537.869
258.449	545.398
261.341	546.172
264.234	536.686
267.127	532.313
270.02	567.517
272.912	550.684
275.805	566.627
278.698	551.286
281.59	587.709
284.483	528.621
287.376	555.856
290.268	498.896
293.161	540.747
296.054	539.561
298.947	534.923
301.839	506.234
304.732	568.26
307.625	547.333
310.517	550.206
313.41	541.154
316.303	571.85
319.195	566.667
322.088	550.662
324.981	509.244
327.874	566.007
330.766	608.789
333.659	572.989
336.552	543.854
339.444	537.619
342.337	556.179
345.23	568.045
348.122	536.285
351.015	552.411
353.908	551.219
356.801	528.192
359.693	553.998
362.586	547.453
365.479	548.68
368.371	566.157
371.264	577.901
374.157	608.108
377.049	577.838
379.942	522.53
382.835	569.591
385.728	559.585
388.62	542.997
391.513	555.768
394.406	567.855
397.298	574.618
400.191	572.866
403.084	566.843
405.977	555.607
408.869	573.015
411.762	571.052
414.655	550.978
417.547	609.329
420.44	584.965
423.333	584.664
426.225	572.89
429.118	585.448
432.011	593.279
434.904	568.075
437.796	571.608
440.689	584.971
443.582	577.149
446.474	580.49
449.367	601.361
452.26	615.367
455.152	636.15
458.045	608.341
460.938	603.961
463.831	614.729
466.723	616.907
469.616	615.702
472.509	626.128
475.401	651.608
478.294	615.801
481.187	641.547
484.079	632.824
486.972	647.756
489.865	680.213
492.758	674.541
495.65	701.193
498.543	693.671
501.436	709.37
504.328	722.067
507.221	715.779
510.114	758.286
513.006	705.307
515.899	807.929
518.792	795.771
521.685	755.149
524.577	757.885
527.47	735.304
530.363	736.236
533.255	707.5
536.148	743.223
539.041	751.926
541.933	769.581
544.826	767.213
547.719	768.94
550.612	762.929
553.504	787.741
556.397	773.675
559.29	771.403
562.182	796.915
565.075	797.6
567.968	771.856
570.86	774.663
573.753	816.195
576.646	847.305
579.539	838.876
582.431	807.171
585.324	817.778
588.217	829.253
591.109	810.581
594.002	785.97
596.895	799.491
599.787	817.357
602.68	771.393
605.573	807.693
608.466	737.937
611.358	760.787
614.251	727.001
617.144	740.476
620.036	724.271
622.929	718.472
625.822	664.676
628.714	661.365
631.607	691.647
634.5	696.81
637.393	746.481
640.285	771.202
643.178	800.376
646.071	829.319
648.963	840.917
651.856	856.261
654.749	860.906
657.641	840.625
660.534	862.662
663.427	861.987
666.32	846.739
669.212	901.384
672.105	893.576
674.998	931.434
677.89	986.949
680.783	1031.84
683.676	1039.13
686.568	1103.98
689.461	1131.28
692.354	1177.45
695.247	1192.04
698.139	1200.04
701.032	1195.38
703.925	1142.67
706.817	1072
709.71	1053.65
712.603	981.797
715.495	929.932
718.388	875.965
721.281	803.98
724.174	740.245
727.066	739.008
729.959	668.629
732.852	665.021
735.744	642.387
738.637	634.456
741.53	600.95
744.422	596.518
747.315	562.102
750.208	579.197
753.101	568.776
755.993	529.385
758.886	540.993
761.779	536.121
764.671	518.054
767.564	512.324
770.457	524.568
773.349	520.232
776.242	523.782
779.135	535.203
782.028	533.829
784.92	519.557
787.813	513.106
790.706	515.307
793.598	507.536
796.491	467.68
799.384	456.287
802.276	451.324
805.169	466.709
808.062	504.877
810.955	509.934
813.847	501.747
816.74	496.35
819.633	516.354
822.525	499.39
825.418	490.507
828.311	486.677
831.203	473.35
834.096	482.029
836.989	479.675
839.881	477.757
842.774	483.816
845.667	455.336
848.56	459.38
851.452	515.159
854.345	487.253
857.238	490.642
860.13	532.931
863.023	469.735
865.916	497.428
868.808	481.688
871.701	465.224
874.594	464.737
877.487	477.5
880.379	484.668
883.272	486.983
886.165	489.061
889.057	425.577
891.95	485.903
894.843	484.688
897.735	462.759
900.628	477.088
903.521	471.866
906.414	467.582
909.306	475.593
912.199	471.212
915.092	457.872
917.984	462.999
920.877	425.181
923.77	440.943
926.662	464.46
929.555	478.597
932.448	491.479
935.341	480
938.233	497.201
941.126	508.01
944.019	472.838
946.911	486.732
949.804	452.849
952.697	446.744
955.589	476.766
958.482	446.428
961.375	466.877
964.268	458.059
967.16	464.185
970.053	486.652
972.946	438.093
975.838	479.224
978.731	464.872
981.624	457.205
984.516	471.283
987.409	466.967
990.302	446.244
993.195	450.163
996.087	457.855
998.98	434.809
1001.87	452.316
1004.76	486.126
1007.66	489.89
1010.55	469.06
1013.44	488.441
1016.34	490.554
1019.23	491.853
1022.12	489.251
1025.01	487.811
1027.91	488.071
1030.8	489.026
1033.69	486.864
1036.59	478.449
1039.48	471.32
1042.37	502.707
1045.26	509.306
1048.16	479.409
1051.05	481.632
1053.94	480.682
1056.83	484.225
1059.73	454.763
1062.62	488.462
1065.51	474.196
1068.4	481.787
1071.3	490.289
1074.19	478.586
1077.08	473.55
1079.98	464.848
1082.87	493.85
1085.76	479.127
1088.65	455.339
1091.55	473.078
1094.44	494.151
1097.33	465.175
1100.22	470.722
1103.12	484.78
1106.01	478.25
1108.9	449.666
1111.8	460.926
1114.69	474.33
1117.58	477.828
1120.47	468.148
1123.37	481.748
1126.26	492.462
1129.15	501.113
1132.04	459.811
1134.94	481.164
1137.83	486.137
1140.72	454.657
1143.62	484.012
1146.51	456.375
1149.4	488.118
1152.29	467.276
1155.19	475.976
1158.08	485.937
1160.97	492.289
1163.86	481.92
1166.76	504.749
1169.65	472.057
1172.54	455.595
1175.43	471.226
1178.33	498.801
1181.22	456.717
1184.11	472.364
1187.01	504.371
1189.9	494.726
1192.79	481.305
1195.68	466.369
1198.58	491.466
1201.47	508.321
1204.36	506.576
1207.25	503.056
1210.15	495.666
1213.04	468.842
1215.93	494.798
1218.83	485.815
1221.72	464.205
1224.61	480.761
1227.5	474.885
1230.4	473.864
1233.29	486.266
1236.18	462.483
1239.07	429.315
1241.97	443.399
1244.86	479.479
1247.75	510.449
1250.64	504.801
1253.54	467.512
1256.43	487.878
