Measurement: Raman, 514 nm, unoriented, Raman Data RAW
Mineral: Magnesio-foitite
Rruff sample: X050186
Ideal chemistry: [box](Mg_2_Al)Al_6_(Si_6_O_18_)(BO_3_)_3_(OH)_3_OH
Locality: Honshu, Japan
Source: Caltech
Raman shift (cm-1)	intensity
152.8	94677.9
157.7	96640.1
162.6	98507.4
167.5	99581
172.4	100217
177.3	100769
182.1	101841
187	102330
191.9	103453
196.8	104977
201.7	107424
206.6	111563
211.5	119900
216.4	132333
221.3	144900
226.2	148963
231.1	140551
236	130218
240.9	125213
245.8	121562
250.7	117218
255.6	113403
260.5	111919
265.4	112432
270.2	114473
275.1	114904
280	111075
284.9	105164
289.8	100176
294.7	97107.6
299.6	97031
304.5	98601.5
309.4	101379
314.3	104308
319.2	104051
324.1	100450
329	97698.6
333.9	97648.6
338.8	98810.5
343.7	100585
348.6	103085
353.4	107993
358.3	117939
363.2	132329
368.1	144779
373	143918
377.9	130557
382.8	115739
387.7	107078
392.6	102228
397.5	99666.6
402.4	98184.7
407.3	97669.7
412.2	97795.4
417.1	97951.5
422	98421.7
426.9	98935.4
431.8	98741.3
436.7	98126
441.5	97588
446.4	97636.5
451.3	97599.2
456.2	98194
461.1	98311.5
466	98147
470.9	97684.5
475.8	97415.5
480.7	97553.7
485.6	98130.3
490.5	99337.7
495.4	100611
500.3	102024
505.2	103734
510.1	105411
515	107692
519.9	109153
524.8	108056
529.6	105491
534.5	104857
539.4	106282
544.3	106826
549.2	106029
554.1	103188
559	100561
563.9	98884
568.8	98100.7
573.7	98049.8
578.6	97874.8
583.5	97517.3
588.4	97699
593.3	97240.2
598.2	97396.5
603.1	97429.3
608	97740.2
612.8	97705.7
617.7	97920.2
622.6	98221.6
627.5	98962.2
632.4	99864.4
637.3	101676
642.2	104116
647.1	106935
652	110352
656.9	112448
661.8	111630
666.7	108950
671.6	107690
676.5	108219
681.4	108894
686.3	109084
691.2	109930
696.1	111982
700.9	116276
705.8	121051
710.7	122954
715.6	120116
720.5	115258
725.4	110344
730.3	106929
735.2	105786
740.1	105455
745	104246
749.9	103063
754.8	101921
759.7	100670
764.6	99491.4
769.5	98522.9
774.4	98510.1
779.3	98197.1
784.1	98091.5
789	98638.5
793.9	98172.5
798.8	98128.8
803.7	98102.9
808.6	98240.1
813.5	98302.8
818.4	98597
823.3	98199.8
828.2	97758.3
833.1	98194.2
838	97924.8
842.9	97849.3
847.8	97781
852.7	97974.6
857.6	98211.4
862.5	98189.6
867.4	98442.5
872.2	98120.5
877.1	98294.1
882	98256.7
886.9	97971.5
891.8	98331.2
896.7	98083.3
901.6	98359
906.5	98423.8
911.4	98844.7
916.3	99266.1
921.2	99559.6
926.1	100027
931	100144
935.9	100169
940.8	100647
945.7	101125
950.6	101602
955.4	102080
960.3	102622
965.2	103807
970.1	104323
975	104909
979.9	105444
984.8	105437
989.7	106604
994.6	106680
999.5	107802
1004.4	108182
1009.3	109335
1014.2	110828
1019.1	111373
1024	111489
1028.9	110572
1033.8	109780
1038.7	108610
1043.5	107756
1048.4	107098
1053.3	106642
1058.2	106868
1063.1	107094
1068	107415
1072.9	107521
1077.8	107237
1082.7	106232
1087.6	104540
1092.5	103203
1097.4	101899
1102.3	101108
1107.2	100659
1112.1	100123
1117	99822.4
1121.9	99648
1126.8	98996.6
1131.6	98671.6
1136.5	98569.8
1141.4	98034.5
1146.3	97676.5
1151.2	98003.5
1156.1	97703.2
1161	97708.7
1165.9	97481.6
1170.8	97460.9
1175.7	97486
1180.6	97889.4
1185.5	97834.2
1190.4	97475.4
1195.3	97605.6
1200.2	97667.1
1205.1	97581.4
1210	97713.4
1214.8	98008.1
1219.7	98105.1
1224.6	98053.4
1229.5	98446.5
1234.4	98304.6
1239.3	98691.6
1244.2	98804.2
1249.1	99259.2
1254	99248.4
1258.9	99502.4
1263.8	99860.4
1268.7	99511
1273.6	99410.7
1278.5	99944.6
1283.4	99822.9
1288.3	99878.3
1293.2	100040
1298.1	100314
1302.9	100204
1307.8	100485
1312.7	100698
1317.6	100864
1322.5	100949
1327.4	101551
1332.3	100725
1337.2	101147
1342.1	100723
1347	100366
1351.9	100484
1356.8	100469
1361.7	100560
1366.6	100186
1371.5	100010
1376.4	100196
1381.3	99958.8
1386.1	100118
1391	99824.2
1395.9	99964.5
1400.8	99479.9
1405.7	99886.9
1410.6	99493
1415.5	99451.7
1420.4	99613.4
1425.3	99391.4
1430.2	98643.8
1435.1	98718.5
1440	98793.3
1444.9	98868
1449.8	98776.8
1454.7	98479.1
1459.6	98364.4
1464.5	98292.7
1469.4	98171.6
1474.2	98172.4
1479.1	98264.1
1484	98002.6
1488.9	98315.7
1493.8	98449.3
1498.7	98272.9
1503.6	98463.1
1508.5	98709.3
1513.4	98858.9
1518.3	99117.8
1523.2	99385.9
1528.1	99671.8
1533	99363.7
1537.9	99163.5
1542.8	99730.1
1547.7	100286
1552.6	100566
1557.4	100801
1562.3	101073
1567.2	100529
1572.1	100891
1577	101354
1581.9	101707
1586.8	101534
1591.7	101636
1596.6	101657
1601.5	102170
1606.4	102410
1611.3	102318
1616.2	102656
1621.1	103043
1626	102291
1630.9	101616
1635.8	101512
1640.7	100823
1645.5	99931
1650.4	99477
1655.3	99730.4
1660.2	98970.3
1665.1	99115
1670	98920.7
1674.9	98808.2
1679.8	98672.7
1684.7	98537.1
1689.6	98391
1694.5	98534.2
1699.4	98325.8
1704.3	98427.7
1709.2	98393.7
1714.1	98484.6
1719	98256.7
1723.9	98216.5
1728.8	98286.5
1733.6	98055.4
1738.5	98651.4
1743.4	98002.4
1748.3	97934
1753.2	98230.1
1758.1	97953.6
1763	97767.6
1767.9	97862.5
1772.8	97793.5
1777.7	97953
1782.6	97482
1787.5	97864.1
1792.4	97806.1
1797.3	97478.4
1802.2	97728.3
1807.1	97540.3
1812	97585.5
1816.8	97630.8
1821.7	97676.1
1826.6	97721.4
1831.5	98170.4
1836.4	98213.5
1841.3	97824.2
1846.2	97974.3
1851.1	97918.2
1856	97958.7
1860.9	98005.4
1865.8	97792.9
1870.7	97840
1875.6	97732.9
1880.5	97594.2
1885.4	98216.8
1890.3	97993.6
1895.2	98113
1900.1	98067.7
1904.9	97881.4
1909.8	97877.1
1914.7	97684.8
1919.6	97514.6
1924.5	97694.7
1929.4	97683
1934.3	97586.3
1939.2	97288.4
1944.1	97831.8
1949	97498.3
1953.9	97486.8
1958.8	97662.3
1963.7	97684.4
1968.6	97889.8
1973.5	97864.2
1978.4	98262.1
1983.3	98008.3
1988.1	97873.4
1993	97695.9
1997.9	98173.6
2002.8	97633.2
