Measurement: Raman, 780 nm, unoriented, Raman Data Processed
Mineral: Magnetite
Rruff sample: R060656
Ideal chemistry: Fe^2+^Fe^3+^_2_O_4_
Locality: Jacupiranga Pegmatite, Sao Paulo State, Brazil
Source: Michael Scott
Description: Black rounded octahedra associated with phlogopite and diopside
Measured chemistry: (Fe^2+^_0.98_Mg_0.01_Mn_0.01_)(Fe^3+^_1.96_Ti_0.02_Mg_0.02_)O_4_
Raman shift (cm-1)	intensity
111.206	0
114.581	3.44897
117.956	1.23993
121.331	2.09985
124.705	1.84978
128.08	8.44823
131.455	10.4771
134.83	6.05417
138.205	12.6294
141.579	9.04556
144.954	5.79707
148.329	6.88441
151.704	4.88274
155.079	4.54524
158.453	0.65657
161.828	1.81992
165.203	0.571793
168.578	2.17305
171.953	1.81027
175.328	1.86551
178.702	4.38489
182.077	5.48072
185.452	7.61281
188.827	8.54936
192.202	9.50672
195.577	9.18299
198.951	8.66361
202.326	9.52096
205.701	10.7449
209.076	9.24398
212.451	10.2469
215.825	10.5782
219.2	9.71326
222.575	9.71568
225.95	8.43613
229.325	8.66521
232.7	7.65196
236.074	9.10701
239.449	9.45402
242.824	8.28768
246.199	9.20194
249.574	8.24986
252.948	5.83288
256.323	5.83705
259.698	5.79009
263.073	6.1918
266.448	3.59273
269.822	2.67083
273.197	1.55943
276.572	2.21767
279.947	1.538
283.322	2.59591
286.697	2.33952
290.071	3.53066
293.446	2.54969
296.821	3.57688
300.196	3.73837
303.571	4.17963
306.945	4.27038
310.32	3.10578
313.695	2.3158
317.07	2.13746
320.445	2.5654
323.82	2.37254
327.194	1.08016
330.569	1.60041
333.944	0.396053
337.319	0.672497
340.694	0.470333
344.068	0.705269
347.443	0.410828
350.818	0.094486
354.193	0.433659
357.568	0.231987
360.942	0.28371
364.317	0.208313
367.692	0.166145
371.067	0.175652
374.442	0.440132
377.817	0.309231
381.191	0.635891
384.566	1.00361
387.941	0.533558
391.316	1.37565
394.691	1.1743
398.065	0.807262
401.44	0.10624
404.815	0.533875
408.19	0.917225
411.565	0.609146
414.94	0.58374
418.314	0.386738
421.689	0.314529
425.064	0.147255
428.439	0.588997
431.814	0.455666
435.188	0.35405
438.563	0.601627
441.938	0.21236
445.313	0.4104
448.688	0.473717
452.063	0.761818
455.437	0.89986
458.812	0.342335
462.187	1.28798
465.562	0.747948
468.937	1.07442
472.312	1.2766
475.686	0.786743
479.061	0.56266
482.436	1.46146
485.811	1.2416
489.186	1.01594
492.56	0.544682
495.935	1.66833
499.31	1.83135
502.685	2.00567
506.06	1.5121
509.435	1.97834
512.809	2.02219
516.184	2.71593
519.559	2.85531
522.934	2.29503
526.308	3.00065
529.683	3.11458
533.058	2.99188
536.433	2.74512
539.808	2.72435
543.183	2.52226
546.557	1.7931
549.932	1.29357
553.307	1.86232
556.682	1.14872
560.057	0.430561
563.432	0.252903
566.806	0.252258
570.181	0.452469
573.556	0.023117
576.931	0.099003
580.306	0.44578
583.681	0.807407
587.055	0.588943
590.43	0.077671
593.805	0.174442
597.18	0.188225
600.555	0.618088
603.929	1.26746
607.304	2.09521
610.679	1.37592
614.054	2.41146
617.429	3.29395
620.803	4.46653
624.178	4.84856
627.553	7.65399
630.928	9.13947
634.303	11.1554
637.678	13.9833
641.052	16.9956
644.427	21.7854
647.802	26.1131
651.177	31.1929
654.552	35.2309
657.927	40.4368
661.301	43.3548
664.676	43.2924
668.051	41.8597
671.426	38.3821
674.801	35.2538
678.175	31.2892
681.55	27.6377
684.925	23.2046
688.3	19.3352
691.675	15.4753
695.049	12.6708
698.424	11.0186
701.799	8.86985
705.174	6.86484
708.549	5.64829
711.923	4.6217
715.298	3.64593
718.673	1.98952
722.048	1.51969
725.423	0.844166
728.798	1.05973
732.172	0.143257
735.547	0.077885
738.922	0.612305
742.297	0.198715
745.672	0.136646
749.047	0.303288
752.421	0.040802
755.796	0.012558
759.171	0.515938
762.546	0.177639
765.921	0.553528
769.295	0.573009
772.67	0.295216
776.045	0.702045
779.42	0.807411
782.795	0.788101
786.169	1.31524
789.544	0.946342
792.919	1.16369
796.294	1.72644
799.669	1.91063
803.044	1.97834
806.418	3.29489
809.793	2.42049
813.168	2.748
816.543	2.8892
819.918	2.6724
823.293	1.82809
826.667	3.65552
830.042	3.54173
833.417	3.55048
836.792	4.07417
840.167	3.81846
843.541	4.55296
846.916	4.40102
850.291	4.78742
853.666	3.87797
857.041	4.67472
860.415	4.02546
863.79	4.31334
867.165	3.78815
870.54	3.17732
873.915	3.80578
877.29	3.11643
880.664	2.94923
884.039	3.21054
887.414	1.79442
890.789	1.70888
894.164	1.87595
897.538	1.44349
900.913	1.15671
904.288	0.811787
907.663	0.249022
911.038	0.314018
914.413	0.109989
917.787	0.125759
921.162	0.412096
924.537	0.068966
927.912	0.000763
931.287	0.044243
934.661	0.652824
938.036	0.143629
941.411	0.144142
944.786	0.47715
948.161	0.389921
951.535	0.272661
954.91	0.338112
958.285	0.827528
961.66	0.728516
965.035	0.533796
968.41	0.297544
971.784	0.670069
975.159	0.610498
978.534	0.700769
981.909	0.881784
985.284	0.529619
988.659	0.883287
992.033	0.345068
995.408	0.253038
998.783	0.470081
1002.16	0.855656
1005.53	0.677357
1008.91	0.511896
1012.28	0.522514
1015.66	1.48712
1019.03	0.533108
1022.41	0.665005
1025.78	1.14394
1029.16	1.42983
1032.53	1.3658
1035.91	1.08857
1039.28	1.10047
1042.66	1.40086
1046.03	0.686161
1049.4	0.624432
1052.78	0.736948
1056.15	0.699739
1059.53	1.01047
1062.9	0.566071
1066.28	0.086718
1069.65	0.254128
1073.03	0.055098
1076.4	0.167665
1079.78	0.137525
1083.15	0.004326
1086.53	0.560144
1089.9	0.280865
1093.28	0.156157
1096.65	0.227098
1100.03	0.598457
1103.4	0.751062
1106.78	0.786234
1110.15	0.259087
1113.53	0.541782
1116.9	0.038332
1120.28	0.907904
1123.65	0.692867
1127.03	0.549574
1130.4	0.025375
1133.78	0.290176
1137.15	0.201284
1140.53	0.398441
1143.9	0.223261
1147.28	0.0571832
1150.65	0.09543
1154.03	0.370794
1157.4	0.131893
1160.77	0.085569
1164.15	0.313805
1167.52	0.362989
1170.9	0.340536
1174.27	0.845831
1177.65	0.03137
1181.02	0.446426
1184.4	0.383362
1187.77	0.406448
1191.15	0.2897
1194.52	0.44412
1197.9	0.708813
1201.27	0.058025
1204.65	0.649641
1208.02	0.262058
1211.4	0.194098
1214.77	0.475256
1218.15	0.210274
1221.52	1.03446
1224.9	0.768644
1228.27	0.665834
1231.64	0.496527
1235.02	0.732979
1238.39	0.571529
1241.77	1.05682
1245.14	0.37114
1248.52	0.898447
1251.89	0.735619
1255.27	0.989399
1258.64	0.547085
1262.02	0.433861
1265.39	0.768496
1268.77	0.305328
1272.14	0.710815
1275.52	0.413761
1278.89	0.626129
1282.27	0
