Measurement: Raman, 780 nm, unoriented, Raman Data RAW
Mineral: Magnetoplumbite
Rruff sample: R060074
Ideal chemistry: Pb^2+^Fe^3+^_12_O_19_
Locality: Langban, Filipstad, Varmland, Sweden
Source: University of Arizona Mineral Museum
Description: Black granular and massive
Measured chemistry: Pb_1.00_(Fe^3+^_7.48_Mn^3+^_3.09_Ti_0.60_Mn^2+^_0.48_Al_0.23_Zn_0.12_)_Î£=12_O_19_
Raman shift (cm-1)	intensity
93.5674	97.4926
96.9422	94.1197
100.317	79.9308
103.692	61.636
107.067	55.0485
110.442	49.7315
113.816	48.0468
117.191	45.34
120.566	44.2226
123.941	41.7899
127.316	39.1021
130.69	38.7268
134.065	36.3724
137.44	36.5674
140.815	35.9296
144.19	35.1627
147.564	34.9472
150.939	34.7116
154.314	34.5433
157.689	34.5555
161.064	35.2006
164.439	34.6606
167.813	34.7159
171.188	34.4186
174.563	34.2515
177.938	33.9113
181.313	32.958
184.687	32.5299
188.062	32.0327
191.437	31.4143
194.812	30.9562
198.187	30.4775
201.561	30.3491
204.936	30.0148
208.311	30.4335
211.686	29.9603
215.061	29.7821
218.436	30.0434
221.81	29.6194
225.185	29.8595
228.56	29.5659
231.935	29.793
235.31	29.5483
238.685	29.6472
242.059	29.8684
245.434	29.2839
248.809	29.5531
252.184	29.2138
255.559	29.4818
258.933	29.0855
262.308	29.2522
265.683	29.2097
269.058	29.3485
272.433	29.1787
275.808	29.1885
279.182	29.4845
282.557	29.0496
285.932	28.6922
289.307	28.8939
292.682	28.3775
296.056	28.525
299.431	28.8525
302.806	28.2167
306.181	28.0762
309.556	28.3014
312.93	28.1123
316.305	28.0164
319.68	28.1016
323.055	27.7625
326.43	27.8485
329.805	27.7122
333.179	27.5476
336.554	27.5714
339.929	27.6189
343.304	27.5115
346.679	26.8716
350.053	26.7103
353.428	26.334
356.803	26.2684
360.178	26.1618
363.553	25.8674
366.928	25.7014
370.302	25.6483
373.677	25.4209
377.052	25.2333
380.427	24.9763
383.802	24.7899
387.176	24.6542
390.551	24.8193
393.926	24.5764
397.301	24.1379
400.676	24.1401
404.05	24.1005
407.425	24.0948
410.8	24.1557
414.175	23.7408
417.55	23.763
420.925	23.594
424.299	23.6391
427.674	23.5987
431.049	23.4079
434.424	23.5421
437.799	23.64
441.173	23.1954
444.548	23.2021
447.923	22.9557
451.298	23.1014
454.673	23.2768
458.048	23.2098
461.422	23.1902
464.797	23.4764
468.172	23.2595
471.547	23.3335
474.922	23.5677
478.296	23.4082
481.671	23.6609
485.046	23.8099
488.421	23.9508
491.796	23.9048
495.171	24.3161
498.545	24.3949
501.92	24.4702
505.295	24.5552
508.67	24.6191
512.045	25.04
515.419	24.7764
518.794	24.7673
522.169	25.0428
525.544	24.5525
528.919	24.8216
532.293	24.595
535.668	24.4245
539.043	24.5074
542.418	24.4954
545.793	24.4407
549.168	25.0373
552.542	25.5316
555.917	25.4686
559.292	25.2725
562.667	25.2403
566.042	25.0108
569.417	25.2573
572.791	25.1919
576.166	25.3895
579.541	25.4212
582.916	25.6406
586.291	25.9879
589.665	26.047
593.04	26.1585
596.415	26.5053
599.79	27.0225
603.165	27.1027
606.539	27.8079
609.914	27.983
613.289	28.5347
616.664	28.7261
620.039	29.3134
623.413	29.5354
626.788	29.7075
630.163	29.7956
633.538	29.9315
636.913	29.9855
640.288	29.7057
643.662	29.3787
647.037	28.8926
650.412	28.6884
653.787	28.3261
657.162	27.5249
660.537	27.5567
663.911	27.2706
667.286	26.6009
670.661	26.1029
674.036	25.853
677.411	25.3508
680.785	24.9826
684.16	24.6101
687.535	23.8184
690.91	23.353
694.285	22.9662
697.659	22.3568
701.034	22.4487
704.409	21.9174
707.784	21.4969
711.159	21.3422
714.534	21.126
717.908	20.8031
721.283	20.5956
724.658	20.2186
728.033	20.2763
731.408	20.0638
734.783	20.0734
738.157	19.7341
741.532	19.5504
744.907	19.525
748.282	19.8797
751.657	19.6339
755.031	19.713
758.406	19.577
761.781	19.491
765.156	19.4984
768.531	19.5181
771.905	19.5357
775.28	19.4678
778.655	19.4809
782.03	19.3727
785.405	19.5178
788.779	19.2855
792.154	19.6509
795.529	19.5541
798.904	19.4441
802.279	19.4171
805.654	19.5967
809.028	19.4533
812.403	19.7053
815.778	19.5842
819.153	19.6937
822.528	19.5462
825.903	19.7548
829.277	19.6764
832.652	19.6549
836.027	19.7199
839.402	19.7373
842.777	19.6233
846.151	19.6672
849.526	19.48
852.901	19.4699
856.276	19.3207
859.651	19.4794
863.025	19.1847
866.4	19.1995
869.775	19.1059
873.15	18.9552
876.525	18.9271
879.9	18.8449
883.274	18.4001
886.649	18.3394
890.024	18.0258
893.399	17.8053
896.774	17.6681
900.149	17.9331
903.523	17.6214
906.898	17.3441
910.273	17.3155
913.648	17.2456
917.023	17.0789
920.397	17.2803
923.772	17.0042
927.147	17.0183
930.522	17.0494
933.897	17.1137
937.271	17.0621
940.646	17.0715
944.021	16.9164
947.396	16.7942
950.771	16.7906
954.145	16.8481
957.52	16.7754
960.895	16.6843
964.27	16.9332
967.645	16.8419
971.02	16.8044
974.394	16.8785
977.769	16.7533
981.144	16.4362
984.519	16.6327
987.894	16.6459
991.269	16.6295
994.643	16.5408
998.018	16.4799
1001.39	16.5766
1004.77	16.7839
1008.14	16.6446
1011.52	16.7103
1014.89	16.8022
1018.27	16.714
1021.64	16.7935
1025.02	16.6993
1028.39	16.8527
1031.77	16.8438
1035.14	16.7827
1038.52	16.8373
1041.89	16.8148
1045.27	16.7507
1048.64	16.7662
1052.02	16.8614
1055.39	16.8276
1058.77	16.7238
1062.14	16.788
1065.52	16.7313
1068.89	16.5895
1072.26	16.8089
1075.64	16.6029
1079.01	16.8055
1082.39	16.7064
1085.76	16.7446
1089.14	16.7994
1092.51	16.6414
1095.89	16.5885
1099.26	16.5817
1102.64	16.7018
1106.01	16.6997
1109.39	16.6018
1112.76	16.5809
1116.14	16.7943
1119.51	16.5916
1122.89	16.6187
1126.26	16.7107
1129.64	16.5267
1133.01	16.7275
1136.39	16.6105
1139.76	16.6884
1143.13	16.7833
1146.51	16.9115
1149.88	16.7541
1153.26	16.878
1156.63	17.0207
1160.01	17.0516
1163.38	17.0585
1166.76	17.0193
1170.13	17.1663
1173.51	17.0502
1176.88	16.9344
1180.26	17.2499
1183.63	17.0177
1187.01	17.1068
1190.38	17.2885
1193.76	17.0143
1197.13	17.4048
1200.51	17.2061
1203.88	17.3557
1207.26	17.2479
1210.63	17.5142
1214.01	17.3531
1217.38	17.2742
1220.76	17.3488
1224.13	17.5174
1227.51	17.5372
1230.88	17.5056
1234.26	17.6086
1237.63	17.4234
1241.01	17.5009
1244.38	17.4995
1247.76	17.6599
1251.13	17.8987
1254.5	17.8345
1257.88	18.0176
1261.25	17.8511
1264.63	17.9495
1268	17.886
1271.38	18.0953
1274.75	18.0601
1278.13	18.0553
1281.5	18.0317
1284.88	18.1716
