Measurement: Raman, 532 nm, unoriented, Raman Data Processed
Mineral: Magnetite
Rruff sample: R060656
Ideal chemistry: Fe^2+^Fe^3+^_2_O_4_
Locality: Jacupiranga Pegmatite, Sao Paulo State, Brazil
Source: Michael Scott
Description: Black rounded octahedra associated with phlogopite and diopside
Measured chemistry: (Fe^2+^_0.98_Mg_0.01_Mn_0.01_)(Fe^3+^_1.96_Ti_0.02_Mg_0.02_)O_4_
Raman shift (cm-1)	intensity
145.026	0
147.919	2.28995
150.812	1.51634
153.705	4.2563
156.597	3.93569
159.49	0.311638
162.383	4.10413
165.275	1.2469
168.168	0.21151
171.061	3.42955
173.953	2.8849
176.846	1.78644
179.739	2.56054
182.632	1.41962
185.524	3.56102
188.417	1.99061
191.31	1.59142
194.202	1.16206
197.095	1.27048
199.988	0.290726
202.881	0.241745
205.773	0.675934
208.666	0.23951
211.559	0.033966
214.451	0.251038
217.344	1.0372
220.237	0.662994
223.129	0.231934
226.022	0.257553
228.915	0.060921
231.808	0.929878
234.7	1.25751
237.593	1.64663
240.486	0.8601
243.378	0.957146
246.271	1.69841
249.164	2.15481
252.056	1.46568
254.949	1.97031
257.842	2.58324
260.735	3.18236
263.627	3.37279
266.52	2.7229
269.413	3.57813
272.305	3.98165
275.198	5.21858
278.091	6.23827
280.983	5.47682
283.876	7.67521
286.769	7.81908
289.661	7.71418
292.554	8.07597
295.447	8.87085
298.34	8.83163
301.232	9.03604
304.125	9.63886
307.018	8.38996
309.91	9.31066
312.803	7.78079
315.696	7.35463
318.589	6.46456
321.481	4.85107
324.374	4.59755
327.267	4.34563
330.159	3.57319
333.052	3.8261
335.945	3.01697
338.837	3.18492
341.73	2.58141
344.623	2.00166
347.515	2.15919
350.408	2.58946
353.301	1.84777
356.194	1.24504
359.086	1.95815
361.979	2.3789
364.872	1.73908
367.764	0.195797
370.657	0.860371
373.55	0.904873
376.442	0.711632
379.335	0.576691
382.228	0.261234
385.121	0.594357
388.013	0.133186
390.906	0.300896
393.799	0.135426
396.691	0.928547
399.584	0.203007
402.477	0.441036
405.37	0.027397
408.262	0.16235
411.155	0.384071
414.048	0.031208
416.94	0.411732
419.833	0.014595
422.726	0.24744
425.618	0.203365
428.511	0.866352
431.404	0.209621
434.296	0.712521
437.189	0.903603
440.082	0.550838
442.975	0.305046
445.867	0.69075
448.76	0.342045
451.653	0.894405
454.545	1.0102
457.438	1.06411
460.331	1.28965
463.224	0.877243
466.116	0.589115
469.009	0.800064
471.902	1.14467
474.794	0.836926
477.687	1.7689
480.58	1.8299
483.473	2.29752
486.365	1.8722
489.258	1.16337
492.151	0.610359
495.043	0.864109
497.936	0.43948
500.829	0.997303
503.721	0.872208
506.614	0.976421
509.507	1.21494
512.399	0.784275
515.292	1.69881
518.185	1.94804
521.078	2.25438
523.97	2.51173
526.863	3.33249
529.756	3.52657
532.648	4.63837
535.541	3.65303
538.434	3.7705
541.327	3.83525
544.219	2.56849
547.112	2.73218
550.005	2.9866
552.897	2.1517
555.79	1.64589
558.683	0.969761
561.575	1.09086
564.468	0.60358
567.361	0.56728
570.254	0.931076
573.146	0.056427
576.039	0.007679
578.932	0.592236
581.824	0.051254
584.717	0.407726
587.61	0.345417
590.502	0.205929
593.395	0.075516
596.288	0.08144
599.181	0.065136
602.073	0.025146
604.966	0.638329
607.859	0.322609
610.751	1.19235
613.644	1.19279
616.537	1.80362
619.429	2.96638
622.322	3.93431
625.215	4.93926
628.107	6.58997
631	7.3872
633.893	10.302
636.786	12.7254
639.678	15.3182
642.571	19.9533
645.464	23.414
648.356	28.8397
651.249	32.9733
654.142	38.0855
657.034	41.8333
659.927	45.135
662.82	46.3067
665.713	45.4524
668.605	42.6647
671.498	39.9945
674.391	35.5187
677.283	30.5665
680.176	26.3998
683.069	23.4503
685.962	20.6698
688.854	17.1407
691.747	13.9608
694.64	11.9306
697.532	10.0909
700.425	7.54481
703.318	7.39999
706.21	5.92705
709.103	4.07927
711.996	3.11707
714.889	2.02508
717.781	0.984612
720.674	1.48872
723.567	0.010147
726.459	0.229786
729.352	0.436005
732.245	0.30632
735.137	0.299908
738.03	0.339054
740.923	0.535778
743.816	0.347889
746.708	0.103977
749.601	0.197895
752.494	0.205647
755.386	0.399067
758.279	0.953194
761.172	0.685669
764.064	1.22466
766.957	0.823608
769.85	1.85947
772.742	2.53162
775.635	2.01628
778.528	2.55869
781.421	4.06729
784.313	3.68895
787.206	3.72762
790.099	4.87235
792.991	4.13574
795.884	4.45181
798.777	4.82302
801.669	5.17419
804.562	5.52138
807.455	6.86262
810.348	6.73286
813.24	7.14013
816.133	7.98745
819.026	8.58299
821.918	9.1956
824.811	9.06756
827.704	9.76794
830.597	9.73201
833.489	10.5526
836.382	10.6295
839.275	11.0946
842.167	11.899
845.06	11.3972
847.953	12.1336
850.846	11.4103
853.738	11.5425
856.631	11.5845
859.524	11.0926
862.416	11.2069
865.309	11.0499
868.202	10.1208
871.094	10.6125
873.987	9.19831
876.88	8.75768
879.773	7.87098
882.665	7.35376
885.558	6.61617
888.451	5.46647
891.343	4.93695
894.236	3.82027
897.129	3.46093
900.021	3.6343
902.914	2.59843
905.807	1.28699
908.699	1.29179
911.592	0.560516
914.485	0.077095
917.378	0.198849
920.27	0.011856
923.163	0.052338
926.056	0.898891
928.948	0.432259
931.841	0.068085
934.734	0.732368
937.626	0.446198
940.519	0.007057
943.412	0.157433
946.305	0.246407
949.197	0.132061
952.09	0.640032
954.983	0.547413
957.875	0.875839
960.768	0.870823
963.661	0.637571
966.553	1.15572
969.446	1.03185
972.339	0.369804
975.232	0.842882
978.124	0.824652
981.017	1.03146
983.91	0.87236
986.802	1.08825
989.695	1.49464
992.588	1.24888
995.481	1.30614
998.373	1.61427
1001.27	1.31938
1004.16	1.83019
1007.05	1.78803
1009.94	1.63242
1012.84	2.51697
1015.73	2.32239
1018.62	2.67923
1021.51	2.76108
1024.41	2.62458
1027.3	3.65176
1030.19	3.52002
1033.09	3.98101
1035.98	4.18451
1038.87	4.03851
1041.76	4.12265
1044.66	3.7955
1047.55	3.86136
1050.44	3.20433
1053.33	3.45322
1056.23	2.66555
1059.12	2.28034
1062.01	2.19228
1064.9	1.78263
1067.8	1.44646
1070.69	1.46986
1073.58	1.40428
1076.48	1.09914
1079.37	0.65497
1082.26	0.558102
1085.15	0.673521
1088.05	0.34532
1090.94	0.466398
1093.83	0.491188
1096.72	0.611507
1099.62	0.084675
1102.51	0.02784
1105.4	0.1528
1108.3	0.429312
1111.19	0.782101
1114.08	0.397087
1116.97	0.487953
1119.87	0.095097
1122.76	0.347641
1125.65	0.243078
1128.55	0.049152
1131.44	0.095726
1134.33	0.207298
1137.22	0.27453
1140.12	0.014208
1143.01	0.634214
1145.9	0.209745
1148.79	0.026913
1151.69	0.151846
1154.58	0.041031
1157.47	0.22072
1160.36	0.540825
1163.26	0.244568
1166.15	0.259991
1169.04	0.509091
1171.93	0.057481
1174.83	0.181314
1177.72	0.780583
1180.61	0.18996
1183.51	0.43447
1186.4	0.445862
1189.29	0.548239
1192.18	0.517389
1195.08	0.724666
1197.97	0.721639
1200.86	0.384258
1203.76	0.91735
1206.65	0.810032
1209.54	0.463371
1212.43	0.843667
1215.33	0.714314
1218.22	0.856598
1221.11	0.662568
1224	0.798923
1226.9	0.721216
1229.79	0.44744
1232.68	0.66177
1235.58	0.578887
1238.47	0.640748
1241.36	0.637815
1244.25	0.79304
1247.14	0.771519
1250.04	0.638921
1252.93	0.540383
1255.82	0.703444
1258.72	0.591588
1261.61	0.215018
1264.5	0.527068
1267.39	0.371655
1270.29	0.063676
1273.18	1.02045
1276.07	0.519711
1278.96	0.436464
1281.86	0.54975
1284.75	0.338692
1287.64	0.370394
1290.54	0.120642
1293.43	0.233118
1296.32	0.320605
1299.21	0.077395
