Measurement: Raman, 780 nm, unoriented, Raman Data Processed
Mineral: Malhmoodite
Rruff sample: R200009
Ideal chemistry: Fe^2+^Zr^4+^(P^5+^O_4_)_2_4H_2_O
Locality: Scott's R.Q. mine, Custer Co., South Dakota, U.S.A.
Source: Tom Loomis
Description: Yellowish flat lying plates, divergent groups on matrix.
Measured chemistry: Fe_1.06_(Zr_1.10_Hf_0.03_)_Σ1.13_[(P_1.85_As_0.02_)_Σ1.87_O_4_]_2_·4H_2_O. Microprobe also detected trace UO_2_.
Raman shift (cm-1)	intensity
97.2244	0
100.599	361.844
103.974	0.960938
107.349	164.422
110.724	362.801
114.099	555.352
117.473	481.086
120.848	434.699
124.223	422.293
127.598	356.09
130.972	122.375
134.347	9.50391
137.722	188.223
141.097	240.195
144.472	356.113
147.847	240.277
151.221	349.57
154.596	256.102
157.971	101.188
161.346	245.668
164.721	66.1172
168.096	78.168
171.47	166.785
174.845	221.715
178.22	309.633
181.595	458.773
184.97	486.547
188.345	386.426
191.719	303.168
195.094	100.137
198.469	104.004
201.844	197.231
205.219	128.398
208.593	41.8711
211.968	36.7617
215.343	179.258
218.718	277.18
222.093	243.352
225.468	96.2344
228.842	205.992
232.217	264.023
235.592	456.074
238.967	73.9805
242.341	188.086
245.716	163.879
249.091	87.1328
252.466	5.46484
255.841	2.40625
259.216	170.133
262.591	255.246
265.965	292.527
269.34	83.1406
272.715	326.703
276.09	307.594
279.464	310.309
282.839	384.18
286.214	774.262
289.589	903.363
292.964	657.426
296.339	560.453
299.713	489.019
303.088	281.961
306.463	502.785
309.838	391.504
313.213	530.941
316.587	218.008
319.962	228.938
323.337	178.539
326.712	159.359
330.087	209.699
333.462	394.797
336.837	82.6445
340.211	35.207
343.586	252.519
346.961	163.844
350.336	181.746
353.711	53.8906
357.085	69.7539
360.46	137.375
363.835	90.293
367.21	369.625
370.585	203.477
373.959	126.414
377.334	62.4531
380.709	106.316
384.084	201.496
387.459	4.30078
390.834	242.246
394.208	17.1172
397.583	88.9531
400.958	48.4258
404.333	1.03906
407.708	195.039
411.082	432.281
414.457	512.758
417.832	607.144
421.207	361.785
424.582	182.801
427.957	382.277
431.331	331.824
434.706	481.152
438.081	333.434
441.456	243.32
444.831	304.309
448.205	322.152
451.58	248.535
454.955	199.664
458.33	234.531
461.705	404.34
465.079	256.305
468.454	297.82
471.829	315.82
475.204	88.4062
478.579	250.551
481.954	239.023
485.328	233.344
488.703	193.035
492.078	280.039
495.453	342.941
498.828	419.078
502.202	188.394
505.577	131.754
508.952	98.1289
512.327	114.719
515.702	72.3906
519.077	301.441
522.451	66.9883
525.826	312.856
529.201	63.4219
532.576	153.793
535.951	264.094
539.326	181.856
542.7	13.0195
546.075	56.5078
549.45	189.785
552.825	227.731
556.2	289.906
559.574	197.582
562.949	56.5977
566.324	103.625
569.699	9.16016
573.074	111.977
576.448	264.973
579.823	263.859
583.198	443.402
586.573	145.617
589.948	104.148
593.323	106.027
596.697	244.809
600.072	259.43
603.447	261.785
606.822	86.6523
610.197	200.691
613.572	136.898
616.946	92.2188
620.321	236.852
623.696	277.492
627.071	355.152
630.446	147.258
633.82	353.258
637.195	242.875
640.57	145.43
643.945	94.8672
647.32	182.277
650.694	62.5273
654.069	87.8594
657.444	328.379
660.819	174.887
664.194	270.363
667.569	85.4258
670.943	95.4336
674.318	22.7227
677.693	183.969
681.068	350.496
684.443	286.852
687.817	253.824
691.192	64.3984
694.567	12.4102
697.942	146.668
701.317	79.0625
704.692	48.9453
708.066	83.293
711.441	140.527
714.816	104.242
718.191	62.2109
721.566	255.504
724.941	338.117
728.315	438.125
731.69	315.242
735.065	153.703
738.44	138.856
741.815	251.359
745.189	251.516
748.564	123.836
751.939	2.49219
755.314	79.0859
758.689	98.8945
762.063	182.621
765.438	179.309
768.813	282.723
772.188	198.473
775.563	164.422
778.938	124.023
782.312	26.8008
785.687	101.883
789.062	198.324
792.437	110.352
795.812	292.66
799.187	193.75
802.561	257.969
805.936	269.152
809.311	64.8164
812.686	73.4727
816.061	197.098
819.435	364.727
822.81	123.824
826.185	163.383
829.56	17.0039
832.935	140.699
836.309	382.445
839.684	186.231
843.059	374.695
846.434	258.59
849.809	369.273
853.184	272.519
856.558	275.758
859.933	359.727
863.308	426.297
866.683	285.441
870.058	248.676
873.433	286.746
876.807	88.8594
880.182	345.109
883.557	397.023
886.932	130.25
890.307	123.922
893.681	90.7266
897.056	236.688
900.431	99.5156
903.806	214.059
907.181	57.6836
910.556	7.57812
913.93	170.473
917.305	165.59
920.68	91.0234
924.055	75.9062
927.43	102.695
930.804	121.824
934.179	123.191
937.554	132.375
940.929	24.8984
944.304	59.2461
947.678	43.9688
951.053	122.664
954.428	31.3203
957.803	8.55078
961.178	43.4062
964.553	303.648
967.927	246.051
971.302	232.32
974.677	323.004
978.052	869.074
981.427	1492.67
984.802	1897.23
988.176	2623.11
991.551	3293.78
994.926	3195.4
998.301	3141.85
1001.68	3472.46
1005.05	3953.12
1008.42	3821.24
1011.8	2894.06
1015.17	1960.04
1018.55	1167.52
1021.92	918.734
1025.3	436.129
1028.67	426.723
1032.05	268.797
1035.42	389.188
1038.8	317.172
1042.17	425.043
1045.55	336.66
1048.92	272.129
1052.3	299.668
1055.67	423.188
1059.05	380.238
1062.42	241.812
1065.8	235.891
1069.17	101.172
1072.55	144.195
1075.92	170.746
1079.3	264.879
1082.67	167.648
1086.05	247.481
1089.42	188.57
1092.8	36.8242
1096.17	33.5
1099.55	132.465
1102.92	40.2266
1106.3	201.731
1109.67	79.5469
1113.05	12.9531
1116.42	55.2188
1119.79	123.969
1123.17	120.644
1126.54	64.9883
1129.92	57.2734
1133.29	73.1797
1136.67	325.984
1140.04	339.953
1143.42	284.195
1146.79	138.707
1150.17	357.789
1153.54	407.328
1156.92	332.41
1160.29	363.273
1163.67	136.82
1167.04	333.484
1170.42	314.293
1173.79	361.699
1177.17	383.223
1180.54	80.8008
1183.92	294.68
1187.29	317.871
1190.66	401.641
1194.04	328.621
1197.41	284.59
1200.79	169.305
1204.16	220.891
1207.54	341.75
1210.91	291.109
1214.29	205.773
1217.66	264.527
1221.04	424.09
1224.41	225.727
1227.79	81.6719
1231.16	31.0273
1234.54	151.18
1237.91	145.754
1241.29	105.898
1244.66	147.426
1248.04	30.1211
1251.41	5.30078
1254.79	42.5605
1258.16	140.211
1261.54	372.133
1264.91	302.391
1268.29	114.647
1271.66	60.8047
1275.04	222.717
1278.41	3.39453
1281.79	30.0508
