Measurement: Raman, 532 nm, unoriented, Raman Data Processed
Mineral: Malhmoodite
Rruff sample: R200009
Ideal chemistry: Fe^2+^Zr^4+^(P^5+^O_4_)_2_4H_2_O
Locality: Scott's R.Q. mine, Custer Co., South Dakota, U.S.A.
Source: Tom Loomis
Description: Yellowish flat lying plates, divergent groups on matrix.
Measured chemistry: Fe_1.06_(Zr_1.10_Hf_0.03_)_Σ1.13_[(P_1.85_As_0.02_)_Σ1.87_O_4_]_2_·4H_2_O. Microprobe also detected trace UO_2_.
Raman shift (cm-1)	intensity
88.1367	0
91.5115	57.2153
94.8863	60.0144
98.2612	8.47217
101.636	2.52563
105.011	46.4971
108.386	144.087
111.76	260.248
115.135	408.094
118.51	543.157
121.885	638.304
125.26	717.859
128.635	757.754
132.009	768.48
135.384	798.199
138.759	841.259
142.134	835.923
145.509	777.036
148.883	671.481
152.258	618.595
155.633	549.197
159.008	495.922
162.383	467.283
165.757	418.238
169.132	383.327
172.507	388.334
175.882	383.546
179.257	351.884
182.632	330.757
186.006	316.268
189.381	301.141
192.756	268.259
196.131	238.639
199.506	181.025
202.881	128.782
206.255	86.1018
209.63	90.5222
213.005	94.1362
216.38	64.5684
219.755	37.4268
223.129	14.0979
226.504	1.28442
229.879	9.95239
233.254	7.20972
236.629	7.54175
240.004	5.79199
243.378	1.81665
246.753	17.4907
250.128	3.88696
253.503	9.4126
256.878	23.9727
260.252	27.6453
263.627	33.3418
267.002	40.7527
270.377	68.0344
273.752	89.427
277.127	102.056
280.501	93.5908
283.876	125.08
287.251	159.417
290.626	206.63
294.001	230.978
297.375	239.833
300.75	218.634
304.125	190.793
307.5	147.551
310.875	97.8645
314.25	58.6946
317.624	10.6997
320.999	3.35303
324.374	0.358398
327.749	10.2415
331.124	12.9348
334.498	41.6592
337.873	68.8435
341.248	63.7944
344.623	56.385
347.998	43.2007
351.373	17.6052
354.747	23.3596
358.122	8.39893
361.497	3.81909
364.872	15.3704
368.247	32.4209
371.621	32.613
374.996	18.9351
378.371	13.0579
381.746	20.0798
385.121	16.9067
388.495	19.1882
391.87	15.0335
395.245	26.8547
398.62	63.6909
401.995	99.9231
405.37	163
408.744	276.856
412.119	401.515
415.494	387.877
418.869	308.312
422.244	257.905
425.618	265.047
428.993	312.047
432.368	347.363
435.743	343.096
439.118	258.732
442.493	175.088
445.867	110.731
449.242	65.5444
452.617	34.0972
455.992	29.9265
459.367	1.85742
462.741	25.249
466.116	13.5088
469.491	16.6011
472.866	17.6348
476.241	7.729
479.615	1.86523
482.99	1.08154
486.365	0.386719
489.74	15.3506
493.115	2.54199
496.49	14.7905
499.864	28.0776
503.239	10.2969
506.614	20.957
509.989	30.1138
513.364	14.5239
516.739	9.41357
520.113	0.557129
523.488	29.7661
526.863	38.6919
530.238	34.9263
533.613	36.0342
536.987	45.7305
540.362	48.5649
543.737	54.2183
547.112	58.919
550.487	65.6802
553.861	76.8086
557.236	71.8267
560.611	89.0186
563.986	85.0854
567.361	106.173
570.736	101.672
574.11	107.765
577.485	78.5869
580.86	68.8848
584.235	76.0811
587.61	68.6269
590.985	55.8057
594.359	35.4458
597.734	40.6196
601.109	37.6948
604.484	25.9932
607.859	46.4468
611.233	33.3403
614.608	37.6069
617.983	36.1265
621.358	32.0347
624.733	37.2212
628.107	14.542
631.482	1.81397
634.857	5.48486
638.232	13.0405
641.607	6.22119
644.982	8.27637
648.356	6.06396
651.731	30.0391
655.106	2.83398
658.481	24.3042
661.856	20.5137
665.231	0.047852
668.605	31.459
671.98	52.8374
675.355	30.7119
678.73	16.9243
682.105	17.5571
685.479	26.8057
688.854	21.9907
692.229	27.5596
695.604	27.6367
698.979	3.88672
702.354	8.04883
705.728	8.6084
709.103	22.6099
712.478	23.7812
715.853	9.5415
719.227	13.6758
722.602	17.6235
725.977	10.4565
729.352	13.2935
732.727	36.5557
736.102	44.9233
739.476	40.4785
742.851	14.0122
746.226	2.51269
749.601	23.3438
752.976	16.9106
756.351	28.7515
759.725	25.4888
763.1	16.5488
766.475	1.38184
769.85	5.71484
773.225	6.32275
776.599	9.4585
779.974	17.1948
783.349	25.5474
786.724	39.8711
790.099	31.6016
793.473	67.9404
796.848	113.095
800.223	137.536
803.598	93.1465
806.973	76.5327
810.348	79.2451
813.722	61.4087
817.097	46.9873
820.472	40.3081
823.847	33.3525
827.222	40.4116
830.597	88.8545
833.971	75.0503
837.346	46.7798
840.721	53.4893
844.096	53.0483
847.471	22.8013
850.846	18.6948
854.22	14.9985
857.595	24.8306
860.97	3.6001
864.345	29.2681
867.72	26.8896
871.094	41.8242
874.469	40.1084
877.844	33.6699
881.219	37.4731
884.594	43.1416
887.968	54.4477
891.343	39.1909
894.718	32.0474
898.093	14.1343
901.468	9.17188
904.842	26.6352
908.217	10.6777
911.592	6.92725
914.967	14.6816
918.342	0.487793
921.717	28.0098
925.091	12.959
928.466	14.0435
931.841	10.6167
935.216	11.7378
938.591	12.2993
941.966	1.31152
945.34	4.29443
948.715	2.77197
952.09	17.6079
955.465	40.3257
958.84	69.9951
962.214	131.888
965.589	198.255
968.964	312.916
972.339	466.194
975.714	714.534
979.088	1110.29
982.463	1680.02
985.838	2499.99
989.213	3613.79
992.588	4323.23
995.963	4099.25
999.337	3810.22
1002.71	4185.07
1006.09	5137.32
1009.46	5004.41
1012.84	3466.62
1016.21	2217.23
1019.59	1407.77
1022.96	922.665
1026.34	649.806
1029.71	464.245
1033.09	376.551
1036.46	308.759
1039.84	292.799
1043.21	296.937
1046.59	297.443
1049.96	292.986
1053.33	271.56
1056.71	219.093
1060.08	181.019
1063.46	105.457
1066.83	77.8335
1070.21	89.4458
1073.58	61.0132
1076.96	45.749
1080.33	47.5083
1083.71	25.7998
1087.08	32.2105
1090.46	9.20752
1093.83	8.23926
1097.21	6.17188
1100.58	2.35986
1103.96	15.8604
1107.33	4.67529
1110.71	23.1309
1114.08	18.6367
1117.46	27.2412
1120.83	28.5605
1124.21	33.0928
1127.58	8.26025
1130.95	10.9834
1134.33	39.3867
1137.7	66.2456
1141.08	53.9717
1144.45	60.0181
1147.83	48.1201
1151.2	64.8218
1154.58	64.7349
1157.95	60.6094
1161.33	96.6401
1164.7	66.376
1168.08	40.3047
1171.45	29.6743
1174.83	67.8076
1178.2	45.7969
1181.58	57.727
1184.95	59.2856
1188.33	40.8901
1191.7	68.3398
1195.08	72.8618
1198.45	48.9023
1201.83	52.4731
1205.2	27.6484
1208.58	6.20947
1211.95	38.6494
1215.33	66.8813
1218.7	69.4976
1222.08	29.9512
1225.45	27.273
1228.83	26.9995
1232.2	30.9966
1235.58	32.6318
1238.95	34.9634
1242.32	33.4019
1245.7	69.6416
1249.07	76.6773
1252.45	45.2812
1255.82	58.0977
1259.2	52.4263
1262.57	48.6431
1265.95	20.4067
1269.32	24.2749
1272.7	27.6387
1276.07	6.86719
1279.45	40.5713
1282.82	22.9311
1286.2	30.3164
1289.57	2.27295
1292.95	21.4756
1296.32	14.1665
1299.7	2.62207
