Measurement: Raman, 532 nm, unoriented, Raman Data Processed
Mineral: Mangani-obertiite
Rruff sample: R141096
Ideal chemistry: NaNa_2_(Mg_3_Mn^3+^Ti^4+^)Si_8_O_22_O_2_
Locality: Caspar quarry, Bellerberg volcano, Mayen, Eifel, Germany
Source: Ch. and H. Sch√§fer
Description: Acicular salmon-colored crystals, orthoclase, quartz, and allanite
Raman shift (cm-1)	intensity
140.687	0
144.062	3.92139
147.437	10.4536
150.812	14.6804
154.187	24.1145
157.561	29.7019
160.936	34.3496
164.311	17.5169
167.686	17.1675
171.061	23.405
174.436	24.6206
177.81	26.5237
181.185	20.8513
184.56	9.50928
187.935	2.17725
191.31	0.192871
194.685	1.17188
198.059	7.72803
201.434	11.331
204.809	19.2207
208.184	18.2
211.559	33.4106
214.933	46.6316
218.308	54.459
221.683	70.8035
225.058	79.9526
228.433	76.8521
231.808	75.5874
235.182	72.4678
238.557	56.4775
241.932	42.3562
245.307	43.0171
248.682	10.6497
252.056	11.0994
255.431	8.12476
258.806	10.8391
262.181	1.33667
265.556	3.54981
268.93	0.738525
272.305	6.77564
275.68	9.47705
279.055	18.3564
282.43	13.2483
285.805	21.9868
289.179	18.0188
292.554	5.73438
295.929	8.35498
299.304	11.2805
302.679	13.8313
306.053	11.8142
309.428	1.46314
312.803	5.08887
316.178	1.03003
319.553	6.2832
322.928	9.97192
326.302	12.8762
329.677	8.77539
333.052	16.0523
336.427	18.8232
339.802	13.2578
343.176	8.76514
346.551	13.7893
349.926	20.6357
353.301	27.802
356.676	39.3257
360.051	45.7725
363.425	55.4045
366.8	74.905
370.175	70.7061
373.55	43.4866
376.925	35.5147
380.3	13.7263
383.674	8.34595
387.049	8.34033
390.424	17.6487
393.799	12.4331
397.174	27.0149
400.548	24.2161
403.923	17.2764
407.298	7.5686
410.673	24.354
414.048	23.2893
417.423	16.8054
420.797	16.2988
424.172	2.82642
427.547	17.0481
430.922	10.5669
434.296	6.18066
437.671	0.895752
441.046	0.627441
444.421	6.52075
447.796	1.23901
451.171	1.32544
454.545	2.66626
457.92	8.47266
461.295	16.5207
464.67	13.054
468.045	6.30371
471.42	8.65137
474.794	10.3477
478.169	9.19898
481.544	2.823
484.919	2.39307
488.294	19.5132
491.668	19.8291
495.043	14.9102
498.418	25.186
501.793	44.794
505.168	59.2324
508.543	63.5395
511.917	57.0962
515.292	54.2339
518.667	46.772
522.042	29.1338
525.417	34.8735
528.791	36.4473
532.166	50.6553
535.541	53.6489
538.916	42.6494
542.291	43.8901
545.665	47.7305
549.04	50.4263
552.415	56.1514
555.79	59.707
559.165	56.7075
562.54	54.561
565.914	46.9082
569.289	49.1982
572.664	46.5303
576.039	51.3013
579.414	50.7778
582.788	43.2324
586.163	47.8667
589.538	42.9468
592.913	26.6055
596.288	9.86816
599.663	14.4907
603.037	16.4561
606.412	6.43994
609.787	16.1689
613.162	1.73633
616.537	1.98731
619.912	2.4331
623.286	0.305664
626.661	2.95703
630.036	3.72217
633.411	3.23584
636.786	2.02734
640.16	2.17676
643.535	0.768555
646.91	6.11768
650.285	19.6626
653.66	25.1016
657.034	16.3477
660.409	17.5015
663.784	22.3003
667.159	48.9497
670.534	68.0737
673.909	116.464
677.283	177.717
680.658	256.962
684.033	303.601
687.408	251.42
690.783	144.712
694.158	76.4331
697.532	44.4961
700.907	23.3159
704.282	11.957
707.657	7.93018
711.032	4.13281
714.406	3.34473
717.781	2.84717
721.156	0.885742
724.531	7.4165
727.906	2.75586
731.28	8.92871
734.655	11.6294
738.03	30.5459
741.405	38.9565
744.78	34.0645
748.154	40.8169
751.529	41.1289
754.904	55.2871
758.279	55.0625
761.654	68.3726
765.029	77.603
768.403	78.374
771.778	100.039
775.153	99.7231
778.528	99.2007
781.903	87.4956
785.278	62.4785
788.652	50.7505
792.027	40.5034
795.402	27.4126
798.777	15.9663
802.152	5.54834
805.526	2.75635
808.901	6.20019
812.276	1.25977
815.651	11.2412
819.026	15.8281
822.4	2.18262
825.775	1.34912
829.15	3.84277
832.525	0.088867
835.9	3.02783
839.275	4.95996
842.649	3.14111
846.024	1.01172
849.399	6.15137
852.774	9.10645
856.149	6.40527
859.524	2.04639
862.898	13.1304
866.273	26.8745
869.648	35.3955
873.023	26.7642
876.398	19.4194
879.773	26.4346
883.147	21.3379
886.522	18.3125
889.897	11.1958
893.272	29.1724
896.646	34.3506
900.021	25.3789
903.396	22.2017
906.771	12.9331
910.146	0.891602
913.521	0.397949
916.895	2.1543
920.27	8.4624
923.645	12.2358
927.02	19.0786
930.395	13.812
933.769	4.84863
937.144	6.61084
940.519	19.9253
943.894	16.4814
947.269	5.62988
950.644	1.07178
954.018	9.44971
957.393	12.1792
960.768	25.894
964.143	24.7939
967.518	17.1768
970.893	17.2607
974.267	21.3462
977.642	34.5459
981.017	15.3174
984.392	14.4146
987.767	14.5713
991.141	10.3701
994.516	12.5322
997.891	2.17676
1001.27	1.92139
1004.64	10.5483
1008.02	6.93994
1011.39	7.45996
1014.76	16.5186
1018.14	13.2617
1021.51	3.77978
1024.89	13.0337
1028.26	11.9477
1031.64	17.418
1035.01	9.48633
1038.39	10.0312
1041.76	24.77
1045.14	27.4023
1048.51	29.1699
1051.89	39.2524
1055.26	34.2725
1058.64	27.2871
1062.01	42.438
1065.39	31.9268
1068.76	39.5825
1072.14	35.5273
1075.51	37.5132
1078.89	29.4092
1082.26	26.6968
1085.64	30.0361
1089.01	28.1519
1092.39	28.874
1095.76	23.3677
1099.14	22.2373
1102.51	12.8565
1105.88	8.62598
1109.26	12.0356
1112.63	8.90625
1116.01	19.7744
1119.38	5.2085
1122.76	2.05469
1126.13	1.38574
1129.51	3.80713
1132.88	3.98975
1136.26	1.15527
1139.63	11.4297
1143.01	6.45215
1146.38	8.7627
1149.76	1.21338
1153.13	11.8169
1156.51	12.9033
1159.88	15.3418
1163.26	17.7524
1166.63	17.3291
1170.01	21.7808
1173.38	15.9004
1176.76	18.4282
1180.13	20.5679
1183.51	20.4189
1186.88	24.4834
1190.26	21.0303
1193.63	29.8872
1197.01	38.2197
1200.38	20.7168
1203.76	32.0044
1207.13	22.4268
1210.51	31.3384
1213.88	21.2969
1217.25	21.812
1220.63	21.5884
1224	25.7017
1227.38	11.3945
1230.75	7.79541
1234.13	14.7241
1237.5	5.53955
1240.88	9.61572
1244.25	10.1777
1247.63	11.5312
1251	12.0259
1254.38	13.7158
1257.75	18.855
1261.13	15.2217
1264.5	10.0063
1267.88	12.0825
1271.25	12.3711
1274.63	1.54785
1278	5.71387
1281.38	11.4043
1284.75	7.88135
1288.12	19.9727
1291.5	24.4692
1294.88	12.9736
1298.25	0.158691
