Measurement: Raman, 780 nm, unoriented, Raman Data Processed
Mineral: Mangani-obertiite
Rruff sample: R141096
Ideal chemistry: NaNa_2_(Mg_3_Mn^3+^Ti^4+^)Si_8_O_22_O_2_
Locality: Caspar quarry, Bellerberg volcano, Mayen, Eifel, Germany
Source: Ch. and H. Sch√§fer
Description: Acicular salmon-colored crystals, orthoclase, quartz, and allanite
Raman shift (cm-1)	intensity
149.293	0
152.186	12.331
155.079	26.6155
157.971	31.4871
160.864	32.1352
163.757	15.8633
166.649	5.78369
169.542	9.01172
172.435	27.3377
175.328	35.1497
178.22	23.8713
181.113	11.9678
184.006	4.77222
186.898	2.36206
189.791	0.106689
192.684	3.53247
195.577	1.38623
198.469	0.971436
201.362	11.6902
204.255	16.9619
207.147	24.4819
210.04	37.5996
212.933	47.1489
215.825	58.0725
218.718	72.1482
221.611	87.9394
224.504	97.4026
227.396	109.447
230.289	97.9399
233.182	73.6081
236.074	57.7302
238.967	43.0605
241.86	36.2456
244.752	32.4128
247.645	24.9585
250.538	16.4624
253.43	9.72021
256.323	5.021
259.216	1.32593
262.109	1.44409
265.001	2.81494
267.894	1.0144
270.787	2.06519
273.679	0.467041
276.572	6.67334
279.465	14.8767
282.358	9.52612
285.25	7.79712
288.143	10.2766
291.036	7.38061
293.928	9.27368
296.821	8.55908
299.714	6.67481
302.606	11.8198
305.499	8.7041
308.392	7.58008
311.284	13.3127
314.177	3.8269
317.07	8.94458
319.963	13.5806
322.855	6.68262
325.748	14.9688
328.641	12.5732
331.533	26.0637
334.426	39.1116
337.319	39.6123
340.212	49.7864
343.104	55.6404
345.997	65.6802
348.89	63.9133
351.782	66.5618
354.675	62.9705
357.568	65.0476
360.46	63.7568
363.353	69.3193
366.246	81.364
369.139	70.7429
372.031	49.4824
374.924	32.0142
377.817	27.2322
380.709	13.3001
383.602	5.38867
386.495	3.28491
389.387	7.19067
392.28	9.61572
395.173	6.23267
398.065	3.24146
400.958	0.080322
403.851	1.53394
406.744	1.62817
409.636	0.725586
412.529	5.44434
415.422	0.694824
418.314	1.30737
421.207	7.30054
424.1	11.6094
426.993	5.17725
429.885	6.17334
432.778	11.6094
435.671	5.27905
438.563	4.04785
441.456	10.3535
444.349	7.31885
447.241	5.13501
450.134	8.06641
453.027	8.89355
455.92	14.4136
458.812	21.5012
461.705	18.916
464.598	23.2029
467.49	15.2485
470.383	23.0735
473.276	16.5266
476.168	14.5076
479.061	15.9243
481.954	2.9563
484.846	9.89038
487.739	8.99902
490.632	15.5698
493.525	21.1223
496.417	22.2756
499.31	27.0532
502.203	29.3643
505.095	38.5776
507.988	58.1152
510.881	47.8545
513.774	46.3047
516.666	25.8814
519.559	20.9077
522.452	1.77734
525.344	7.52734
528.237	4.51904
531.13	8.71973
534.022	5.49219
536.915	1.38037
539.808	5.46973
542.701	9.9419
545.593	12.6148
548.486	9.37744
551.379	12.4756
554.271	7.25342
557.164	9.85938
560.057	12.856
562.949	13.187
565.842	23.9512
568.735	29.4902
571.628	27.2407
574.52	36.5498
577.413	36.0552
580.306	38.269
583.198	47.063
586.091	31.2202
588.984	22.8389
591.876	15.9951
594.769	24.0991
597.662	10.9614
600.555	15.5591
603.447	17.4087
606.34	16.0811
609.233	8.78467
612.125	1.71533
615.018	0.47998
617.911	5.54932
620.803	14.2925
623.696	1.6709
626.589	2.34082
629.482	2.51416
632.374	15.4526
635.267	27.0444
638.16	22.9912
641.052	4.91309
643.945	7.44824
646.838	7.91748
649.731	6.19922
652.623	10.1284
655.516	22.6382
658.409	27.6352
661.301	30.1587
664.194	36.8408
667.087	37.1108
669.979	55.0679
672.872	78.3154
675.765	110.889
678.658	160.111
681.55	225.219
684.443	237.034
687.336	184.763
690.228	125.204
693.121	72.7651
696.014	36.1035
698.906	26.6763
701.799	5.47607
704.692	13.0518
707.585	3.30078
710.477	0.325684
713.37	10.6543
716.263	7.17236
719.155	0.436523
722.048	4.03369
724.941	1.04199
727.833	0.384277
730.726	3.82373
733.619	7.77734
736.511	1.2583
739.404	6.97754
742.297	20.3516
745.19	21.9482
748.082	19.5435
750.975	17.5503
753.868	31.6279
756.76	32.5273
759.653	54.3262
762.546	55.7007
765.438	57.605
768.331	56.3696
771.224	47.2793
774.117	54.2358
777.009	56.1123
779.902	49.6641
782.795	25.8628
785.687	33.8423
788.58	21.335
791.473	11.6016
794.365	3.6958
797.258	5.95459
800.151	6.64893
803.044	7.55615
805.936	19.2266
808.829	10.2725
811.722	4.31592
814.614	10.7861
817.507	10.6929
820.4	10.7861
823.293	13.7051
826.185	30.7422
829.078	13.0771
831.971	13.5723
834.863	37.8037
837.756	31.7769
840.649	49.4404
843.541	38.0742
846.434	31.2217
849.327	39.9438
852.22	37.252
855.112	33.5352
858.005	29.6133
860.898	32.2617
863.79	15.0293
866.683	31.729
869.576	32.7637
872.468	40.9346
875.361	22.2739
878.254	22.6289
881.146	47.9424
884.039	52.5303
886.932	30.332
889.825	26.1777
892.717	16.9629
895.61	10.3018
898.503	14.1084
901.395	23.5215
904.288	28.1523
907.181	13.4902
910.073	22.7393
912.966	9.28418
915.859	14.6016
918.752	12.9688
921.644	1.29004
924.537	4.44141
927.43	17.2607
930.322	21.7646
933.215	15.1982
936.108	1.32129
939	4.56543
941.893	6.58594
944.786	13.4727
947.679	16.04
950.571	16.6182
953.464	26.4053
956.357	22.542
959.249	9.91211
962.142	8.88574
965.035	20.1377
967.928	36.4668
970.82	15.8418
973.713	29.4678
976.606	17.8838
979.498	14.624
982.391	31.2959
985.284	14.1758
988.176	17.1191
991.069	24.6074
993.962	31.6748
996.855	26.2393
999.747	23.667
1002.64	9.98145
1005.53	11.3604
1008.42	0.486328
1011.32	14.2559
1014.21	20.7637
1017.1	0.105469
1020	14.0381
1022.89	15.0752
1025.78	7.24121
1028.67	19.4678
1031.57	17.1133
1034.46	31.1787
1037.35	1.04297
1040.24	2.99414
1043.14	12.043
1046.03	9.4248
1048.92	19.7461
1051.82	32.4785
1054.71	17.083
1057.6	31.1768
1060.49	31.75
1063.39	33.7188
1066.28	19.9951
1069.17	28.8389
1072.07	37.0742
1074.96	33.2529
1077.85	48.1113
1080.74	38.9775
1083.63	43.9912
1086.53	37.6621
1089.42	33.7978
1092.31	24.2402
1095.21	46.8525
1098.1	32.9678
1100.99	37.3799
1103.88	34.1514
1106.78	43.8887
1109.67	27.4785
1112.56	31.0508
1115.45	1.16894
1118.35	7.81934
1121.24	12.4824
1124.13	0.362305
1127.03	5.54883
1129.92	20.9805
1132.81	17.6113
1135.7	14.9395
1138.6	18.9609
1141.49	0.640625
1144.38	15.6465
1147.28	18.8467
1150.17	4.65625
1153.06	15.167
1155.95	14.5508
1158.85	29.5459
1161.74	38.8594
1164.63	25.1621
1167.52	48.4707
1170.42	60.3389
1173.31	65.2412
1176.2	61.9297
1179.1	50.9873
1181.99	58.5
1184.88	46.5723
1187.77	66.8496
1190.66	44.8555
1193.56	65.291
1196.45	50.5371
1199.34	74.6709
1202.24	41.3525
1205.13	50.6367
1208.02	53.4629
1210.91	30.04
1213.81	40.1846
1216.7	32.5742
1219.59	8.70996
1222.48	23.6748
1225.38	15.9609
1228.27	5.25781
1231.16	17.3096
1234.06	18.4238
1236.95	2.84375
1239.84	12.6074
1242.73	30.501
1245.63	20.584
1248.52	6.69727
1251.41	2.70117
1254.31	27.9004
1257.2	54.1875
1260.09	30.4199
1262.98	43.6484
1265.88	51.6826
1268.77	51.4443
1271.66	53.8984
1274.55	53.7959
1277.45	23.5762
1280.34	0.518555
