Measurement: Raman, 780 nm, unoriented, Raman Data Processed
Mineral: Manitobaite
Rruff sample: R130259
Ideal chemistry: Na_16_Mn^2+^_25_Al_8_(PO_4_)_30_
Locality: Gottcha Claim (Pegmatite No. 22), Cross Lake, Manitoba, Canada
Source: Rock Currier
Description: Red-brown massive, associated with quartz
Measured chemistry: (Na_11.09_Ca_1.07_ [box]_3.84_)(Mn^2+^_20.97_Mg_0.56_Fe^2+^_3.55_Zn^2+^_0.24_)_Î£=25.32_(Al_7.29_Fe^3+^_0.71_)P_30.36_Si_0.08_O_120_
Raman shift (cm-1)	intensity
147.365	0
150.257	1.22882
153.15	3.01251
156.043	3.82275
158.936	4.52316
161.828	5.79343
164.721	5.68344
167.614	5.2962
170.506	7.4693
173.399	8.27597
176.292	8.00824
179.185	8.19434
182.077	5.51968
184.97	2.06201
187.863	1.7497
190.755	0.067719
193.648	0.349823
196.541	0.157288
199.433	0.697052
202.326	6.67184
205.219	3.62018
208.112	5.9353
211.004	9.7522
213.897	12.188
216.79	15.1231
219.682	16.6107
222.575	15.097
225.468	17.969
228.36	16.4582
231.253	18.012
234.146	18.3418
237.038	19.0287
239.931	21.9802
242.824	21.4835
245.717	20.3435
248.609	14.8507
251.502	12.0283
254.395	10.2079
257.287	9.25095
260.18	8.04268
263.073	7.9635
265.966	6.79515
268.858	4.44865
271.751	2.44247
274.644	4.87386
277.536	3.25722
280.429	2.15912
283.322	1.51141
286.214	1.09259
289.107	0.008209
292	1.32762
294.892	0.259674
297.785	2.16246
300.678	1.282
303.571	1.15051
306.463	0.226593
309.356	1.52954
312.249	1.95648
315.141	1.15413
318.034	1.18195
320.927	0.748184
323.82	0.521255
326.712	2.30632
329.605	1.2856
332.498	3.78075
335.39	3.87138
338.283	4.28639
341.176	5.75334
344.068	8.00386
346.961	7.05223
349.854	6.67934
352.747	7.94853
355.639	7.6871
358.532	6.80243
361.425	7.17444
364.317	7.75674
367.21	7.04852
370.103	6.16313
372.995	5.507
375.888	3.97269
378.781	3.05414
381.674	1.49049
384.566	0.609238
387.459	1.34688
390.352	1.76581
393.244	1.4592
396.137	1.39629
399.03	1.21794
401.923	2.04874
404.815	6.29652
407.708	7.0218
410.601	7.57323
413.493	6.82925
416.386	6.26743
419.279	6.0751
422.171	6.50809
425.064	8.18225
427.957	10.5851
430.849	12.2106
433.742	15.9062
436.635	22.6111
439.528	31.0287
442.42	40.0243
445.313	48.9418
448.206	60.5379
451.098	69.7408
453.991	76.2769
456.884	77.2345
459.776	75.6736
462.669	73.9851
465.562	69.7467
468.455	70.0335
471.347	68.5072
474.24	63.9582
477.133	61.0289
480.025	55.6269
482.918	50.927
485.811	47.914
488.704	44.7518
491.596	41.3755
494.489	38.0465
497.382	34.2486
500.274	30.104
503.167	25.918
506.06	21.9215
508.952	18.4856
511.845	17.4251
514.738	14.1611
517.63	12.1557
520.523	10.5397
523.416	7.91788
526.308	5.80415
529.201	1.84871
532.094	0.836945
534.987	0.733093
537.879	2.29804
540.772	3.89645
543.665	0.683563
546.557	1.57252
549.45	6.76733
552.343	13.8406
555.236	16.9079
558.128	22.2314
561.021	27.5745
563.914	33.1493
566.806	34.7698
569.699	32.7954
572.592	28.2511
575.484	25.1262
578.377	25.076
581.27	24.3951
584.163	26.4076
587.055	29.8282
589.948	33.2446
592.841	37.7352
595.733	41.5983
598.626	43.0134
601.519	41.9048
604.412	40.8876
607.304	40.1497
610.197	39.658
613.09	43.1961
615.982	43.2274
618.875	45.1272
621.768	44.3282
624.66	41.6441
627.553	38.1687
630.446	33.5198
633.338	30.5934
636.231	24.1066
639.124	21.4504
642.017	16.8444
644.909	14.6806
647.802	11.8946
650.695	10.2693
653.587	8.60661
656.48	6.62043
659.373	5.87569
662.265	5.85438
665.158	3.95737
668.051	2.89731
670.944	2.77712
673.836	1.26984
676.729	1.74693
679.622	0.987984
682.514	0.206757
685.407	0.0439
688.3	0.672752
691.192	0.17646
694.085	0.737373
696.978	0.61837
699.871	0.984825
702.763	0.185333
705.656	0.307159
708.549	1.1504
711.441	0.678406
714.334	1.42098
717.227	0.538849
720.12	2.08965
723.012	2.25241
725.905	2.36694
728.798	3.13135
731.69	2.63695
734.583	3.17495
737.476	3.42188
740.368	2.87701
743.261	3.97404
746.154	2.79443
749.047	2.11339
751.939	2.58948
754.832	1.84204
757.725	2.53535
760.617	2.10137
763.51	2.09938
766.403	1.82127
769.295	1.70493
772.188	1.77902
775.081	1.73256
777.973	2.28677
780.866	2.14502
783.759	2.32597
786.652	2.42792
789.544	1.77146
792.437	2.61585
795.33	2.67186
798.222	2.02062
801.115	1.68005
804.008	2.84755
806.9	2.59253
809.793	2.59089
812.686	2.512
815.579	3.27461
818.471	3.07259
821.364	2.95059
824.257	3.52032
827.149	4.99398
830.042	4.24316
832.935	6.35373
835.827	6.05025
838.72	5.59355
841.613	5.95943
844.506	5.65705
847.398	5.09839
850.291	4.28207
853.184	3.99466
856.076	4.34631
858.969	2.18778
861.862	2.63786
864.755	1.7217
867.647	1.27611
870.54	1.77265
873.433	0.790733
876.325	0.463913
879.218	1.22119
882.111	0.857323
885.003	1.40409
887.896	1.06448
890.789	1.32369
893.682	0.040268
896.574	0.517624
899.467	0.843132
902.36	1.53777
905.252	3.20172
908.145	5.02407
911.038	5.5294
913.93	7.62247
916.823	8.2509
919.716	10.5906
922.609	11.7197
925.501	13.74
928.394	14.1998
931.287	14.8299
934.179	15.6978
937.072	17.6161
939.965	20.1641
942.857	22.1151
945.75	26.454
948.643	32.0085
951.535	39.7669
954.428	47.7049
957.321	56.5683
960.214	66.6053
963.106	78.1664
965.999	92.8814
968.892	111.319
971.784	128.173
974.677	144.009
977.57	159.094
980.462	168.637
983.355	173.199
986.248	170.119
989.141	164.311
992.033	153.53
994.926	140.887
997.819	125.297
1000.71	109.567
1003.6	91.4006
1006.5	75.1616
1009.39	60.4311
1012.28	46.4063
1015.17	36.1073
1018.07	26.5335
1020.96	19.7632
1023.85	14.2789
1026.75	10.3032
1029.64	7.96062
1032.53	4.5721
1035.42	1.56654
1038.32	0.299149
1041.21	0.568695
1044.1	0.953873
1046.99	1.22575
1049.89	2.1003
1052.78	1.19179
1055.67	0.36293
1058.57	1.23959
1061.46	1.29681
1064.35	2.42882
1067.24	4.38176
1070.14	6.35783
1073.03	13.0642
1075.92	12.9716
1078.81	14.7325
1081.71	15.8966
1084.6	19.5447
1087.49	18.2039
1090.38	19.1819
1093.28	17.1907
1096.17	15.7042
1099.06	15.5996
1101.96	14.7001
1104.85	12.9506
1107.74	13.1225
1110.63	11.5805
1113.53	11.1954
1116.42	9.31432
1119.31	8.89995
1122.2	9.13464
1125.1	8.35548
1127.99	8.5917
1130.88	8.90399
1133.78	9.89093
1136.67	8.22876
1139.56	9.17981
1142.45	10.4064
1145.35	9.7374
1148.24	8.84163
1151.13	9.90144
1154.03	9.93248
1156.92	9.24352
1159.81	9.85324
1162.7	8.22203
1165.6	8.06099
1168.49	9.50311
1171.38	8.6098
1174.27	8.04184
1177.17	6.77168
1180.06	7.08849
1182.95	5.71973
1185.84	3.3658
1188.74	2.83278
1191.63	1.2366
1194.52	0.585388
1197.41	0.957268
1200.31	1.2103
1203.2	0.0914
1206.09	0.394707
1208.99	0.334145
1211.88	1.31979
1214.77	1.11313
1217.66	2.22035
1220.56	2.44
1223.45	1.80601
1226.34	2.93
1229.23	4.52359
1232.13	4.02243
1235.02	4.74052
1237.91	4.96964
1240.81	5.66107
1243.7	4.05266
1246.59	2.96742
1249.48	2.07446
1252.38	2.02254
1255.27	1.63368
1258.16	1.52641
1261.05	1.68697
1263.95	0.339371
1266.84	0.205154
1269.73	0.030975
1272.62	6.07077
1275.52	8.24252
1278.41	0.031967
1281.3	1.47214
