Measurement: Raman, 532 nm, unoriented, Raman Data Processed
Mineral: Manitobaite
Rruff sample: R130260
Ideal chemistry: Na_16_Mn^2+^_25_Al_8_(PO_4_)_30_
Locality: Gottcha Claim (Pegmatite No. 22), Cross Lake, Manitoba, Canada
Source: Rock Currier
Description: Green or brown massive.
Measured chemistry: (Na_14.11_Ca_1.02_ [box]_0.87_)(Mn^2+^_20.86_Fe^2+^_3.1_Mg_0.40_Zn^2+^_0.25_)_Î£=24.61_(Al_7.21_Fe^3+^_0.79_)P_30.07_Si_0.07_O_120_
Raman shift (cm-1)	intensity
103.082	0
106.457	19.7481
109.832	16.6051
113.207	18.3343
116.582	32.8205
119.956	21.807
123.331	43.7398
126.706	23.142
130.081	45.8404
133.456	52.2891
136.831	62.4564
140.205	95.0782
143.58	84.7924
146.955	91.2891
150.33	70.4068
153.705	62.3377
157.079	47.9423
160.454	35.457
163.829	29.366
167.204	15.94
170.579	15.1651
173.953	11.6543
177.328	9.79932
180.703	9.76062
184.078	9.11468
187.453	6.22394
190.828	3.49094
194.202	2.00848
197.577	3.63425
200.952	3.18152
204.327	1.83368
207.702	4.01389
211.077	0.416656
214.451	1.98526
217.826	6.6366
221.201	11.5239
224.576	14.0201
227.951	18.6727
231.325	26.7127
234.7	36.8794
238.075	40.1524
241.45	43.1931
244.825	36.4772
248.2	29.5635
251.574	22.7063
254.949	22.8801
258.324	30.7299
261.699	43.0984
265.074	55.9162
268.448	63.9116
271.823	68.1861
275.198	64.1638
278.573	51.9309
281.948	35.12
285.322	24.5583
288.697	17.6116
292.072	10.4805
295.447	5.63931
298.822	4.73096
302.197	1.96612
305.571	1.49063
308.946	0.011444
312.321	0.059631
315.696	1.64325
319.071	1.77121
322.445	1.34183
325.82	0.680725
329.195	1.47348
332.57	3.20911
335.945	8.14444
339.32	13.9822
342.694	17.1647
346.069	21.7302
349.444	18.5776
352.819	17.7325
356.194	21.1179
359.568	20.8502
362.943	24.4187
366.318	29.9845
369.693	28.5033
373.068	25.2453
376.442	17.6154
379.817	8.81995
383.192	1.76108
386.567	2.88599
389.942	2.30945
393.317	0.853455
396.691	3.10629
400.066	11.4772
403.441	33.0077
406.816	61.1729
410.191	80.0924
413.565	75.6219
416.94	53.9878
420.315	32.2965
423.69	18.9195
427.065	13.3189
430.44	16.8905
433.814	27.9968
437.189	43.7508
440.564	73.63
443.939	107.423
447.314	142.107
450.688	176.14
454.063	219.327
457.438	270.254
460.813	321.275
464.188	363.26
467.563	392.49
470.937	394.974
474.312	374.296
477.687	326.861
481.062	275.208
484.437	240.743
487.812	213.127
491.186	196.331
494.561	183.709
497.936	182.351
501.311	178.315
504.686	160.461
508.06	129.321
511.435	93.9359
514.81	59.9171
518.185	32.8584
521.56	16.1964
524.934	4.60159
528.309	1.2626
531.684	4.8302
535.059	5.99585
538.434	6.8179
541.809	2.86435
545.183	4.11433
548.558	19.9202
551.933	41.8968
555.308	59.4702
558.683	78.1534
562.058	90.2525
565.432	101.746
568.807	108.33
572.182	98.7688
575.557	89.5164
578.932	94.8548
582.306	107.325
585.681	128.788
589.056	152.513
592.431	179.186
595.806	194.077
599.181	200.685
602.555	206.671
605.93	207.66
609.305	197.68
612.68	183.165
616.055	177.202
619.429	170.619
622.804	157.763
626.179	138.605
629.554	124.814
632.929	108.882
636.303	91.4779
639.678	68.0436
643.053	46.3781
646.428	34.5161
649.803	28.2194
653.178	21.5997
656.552	14.5619
659.927	9.47505
663.302	5.90048
666.677	7.04056
670.052	5.63266
673.427	4.84586
676.801	3.75206
680.176	3.01871
683.551	1.14978
686.926	1.18747
690.301	1.53287
693.675	1.45613
697.05	1.45641
700.425	1.86755
703.8	1.59528
707.175	1.68411
710.549	0.172699
713.924	0.286484
717.299	1.70013
720.674	3.33438
724.049	2.77965
727.423	2.42763
730.798	3.58148
734.173	4.70215
737.548	4.81934
740.923	6.18236
744.298	5.56497
747.672	6.66892
751.047	5.23871
754.422	5.50253
757.797	5.80278
761.172	4.65253
764.547	3.81407
767.921	5.03332
771.296	2.55276
774.671	4.42937
778.046	4.02362
781.421	3.50275
784.795	4.25806
788.17	3.16199
791.545	4.02446
794.92	4.72572
798.295	4.41467
801.669	4.09596
805.044	2.83473
808.419	5.29089
811.794	5.54472
815.169	7.25324
818.544	7.93132
821.918	8.68428
825.293	9.80823
828.668	10.9098
832.043	10.3621
835.418	10.327
838.793	12.9425
842.167	13.0697
845.542	13.5143
848.917	14.7456
852.292	17.7667
855.667	19.7671
859.041	21.7874
862.416	22.8695
865.791	22.7386
869.166	22.0977
872.541	19.473
875.915	15.2734
879.29	14.708
882.665	12.0036
886.04	9.58789
889.415	8.51486
892.79	5.7868
896.164	4.63219
899.539	3.03117
902.914	0.415848
906.289	1.97305
909.664	3.14537
913.038	5.64273
916.413	5.44078
919.788	3.68066
923.163	1.06314
926.538	5.18417
929.913	18.1894
933.287	35.3569
936.662	57.7939
940.037	93.5623
943.412	141.972
946.787	205.269
950.162	298.11
953.536	437.037
956.911	616.1
960.286	823.931
963.661	1071.67
967.036	1360.47
970.41	1688.67
973.785	2026.67
977.16	2194.4
980.535	1952.24
983.91	1523.69
987.284	1210.13
990.659	998.665
994.034	836.214
997.409	677.835
1000.78	533.043
1004.16	430.008
1007.53	350.823
1010.91	273.511
1014.28	208.517
1017.66	158.971
1021.03	121.792
1024.41	92.7726
1027.78	68.7934
1031.16	46.8159
1034.53	27.8986
1037.91	16.2339
1041.28	9.88223
1044.66	6.8876
1048.03	1.19495
1051.41	5.36853
1054.78	7.40512
1058.16	7.23135
1061.53	0.531006
1064.9	14.3613
1068.28	39.1362
1071.65	68.7481
1075.03	101.077
1078.4	125.49
1081.78	128.897
1085.15	119.684
1088.53	110.429
1091.9	124.019
1095.28	140.131
1098.65	152.159
1102.03	161.675
1105.4	176.637
1108.78	151.7
1112.15	99.8831
1115.53	64.8309
1118.9	50.4902
1122.28	47.7668
1125.65	53.009
1129.03	56.2364
1132.4	61.7591
1135.78	67.3369
1139.15	64.4217
1142.53	55.4451
1145.9	40.9005
1149.28	27.7613
1152.65	15.909
1156.03	3.53423
1159.4	1.20074
1162.78	1.86562
1166.15	4.98213
1169.53	7.24014
1172.9	6.03725
1176.27	1.74197
1179.65	0.742981
1183.02	2.93665
1186.4	1.56937
1189.77	0.282242
1193.15	1.53056
1196.52	5.60364
1199.9	8.05556
1203.27	10.4182
1206.65	13.6788
1210.02	16.0416
1213.4	16.9537
1216.77	19.4832
1220.15	21.1185
1223.52	22.7085
1226.9	23.6483
1230.27	22.5734
1233.65	25.4247
1237.02	24.3171
1240.4	21.2015
1243.77	18.9018
1247.14	14.1065
1250.52	13.464
1253.89	13.0766
1257.27	11.272
1260.64	10.8999
1264.02	11.5489
1267.39	8.50668
1270.77	7.06078
1274.14	5.41193
1277.52	4.53421
1280.89	1.9899
1284.27	3.10403
1287.64	1.90259
1291.02	2.18365
1294.39	0.948898
1297.77	3.65639
