Measurement: Raman, 532 nm, unoriented, Raman Data Processed
Mineral: Manitobaite
Rruff sample: R130259
Ideal chemistry: Na_16_Mn^2+^_25_Al_8_(PO_4_)_30_
Locality: Gottcha Claim (Pegmatite No. 22), Cross Lake, Manitoba, Canada
Source: Rock Currier
Description: Red-brown massive, associated with quartz
Measured chemistry: (Na_11.09_Ca_1.07_ [box]_3.84_)(Mn^2+^_20.97_Mg_0.56_Fe^2+^_3.55_Zn^2+^_0.24_)_Î£=25.32_(Al_7.29_Fe^3+^_0.71_)P_30.36_Si_0.08_O_120_
Raman shift (cm-1)	intensity
200.952	0
203.845	0.171143
206.737	1.33185
209.63	4.60379
212.523	5.06632
215.416	6.52039
218.308	6.81323
221.201	6.55084
224.094	7.47952
226.986	5.53943
229.879	5.26816
232.772	5.13617
235.664	2.9808
238.557	3.01105
241.45	3.93497
244.343	1.02527
247.235	0.283447
250.128	0.149475
253.021	1.88788
255.913	0.615479
258.806	0.662048
261.699	1.14111
264.591	3.32181
267.484	3.64835
270.377	7.21967
273.27	9.04083
276.162	7.1489
279.055	6.60184
281.948	6.28192
284.84	5.84512
287.733	6.30203
290.626	3.37512
293.519	3.69946
296.411	5.88229
299.304	5.76013
302.197	5.06549
305.089	8.74573
307.982	7.17068
310.875	8.28458
313.767	7.56576
316.66	10.7582
319.553	12.4308
322.445	13.0092
325.338	15.9214
328.231	17.171
331.124	19.916
334.016	21.0738
336.909	28.9678
339.802	30.0543
342.694	33.7368
345.587	37.1461
348.48	39.2171
351.373	40.6844
354.265	42.2793
357.158	40.7762
360.051	40.6844
362.943	39.3646
365.836	39.4446
368.729	36.4618
371.621	32.3565
374.514	25.4432
377.407	19.8835
380.3	12.9788
383.192	7.5477
386.085	3.94958
388.978	0.263367
391.87	2.16538
394.763	3.61032
397.656	2.3578
400.548	1.686
403.441	2.55917
406.334	3.92769
409.226	5.3712
412.119	7.24991
415.012	9.34987
417.905	8.32784
420.797	10.2599
423.69	11.0342
426.583	15.21
429.475	20.6419
432.368	28.5417
435.261	37.2259
438.154	47.5951
441.046	61.8056
443.939	82.7669
446.832	101.194
449.724	121.821
452.617	133.315
455.51	141.069
458.402	141.691
461.295	141.222
464.188	139.346
467.08	138.695
469.973	140.099
472.866	138.893
475.759	134.818
478.651	131.074
481.544	125.611
484.437	118.934
487.329	113.213
490.222	107.073
493.115	98.275
496.007	92.0075
498.9	84.8891
501.793	74.0785
504.686	65.1789
507.578	55.5204
510.471	47.1462
513.364	40.4259
516.256	33.2828
519.149	26.1779
522.042	18.7757
524.934	10.1883
527.827	5.13626
530.72	0.271606
533.613	4.45631
536.505	7.36182
539.398	5.30528
542.291	1.3315
545.183	8.88232
548.076	22.1192
550.969	39.0918
553.861	53.7596
556.754	67.8411
559.647	80.4427
562.54	90.3606
565.432	96.185
568.325	94.8028
571.218	85.82
574.11	76.2597
577.003	74.317
579.896	77.399
582.788	81.0002
585.681	90.5657
588.574	100.841
591.467	111.641
594.359	118.702
597.252	124.802
600.145	124.936
603.037	125.309
605.93	123.377
608.823	125.557
611.716	131.262
614.608	136.495
617.501	139.54
620.394	135.959
623.286	131.101
626.179	117.318
629.072	101.85
631.964	87.6442
634.857	71.6451
637.75	58.7293
640.643	48.5359
643.535	40.8182
646.428	32.0025
649.321	25.6635
652.213	21.6637
655.106	14.2612
657.999	12.2425
660.891	7.56224
663.784	5.5802
666.677	1.98651
669.569	3.0049
672.462	1.56088
675.355	0.229332
678.248	1.13039
681.14	0.282791
684.033	0.378265
686.926	2.34925
689.818	0.894394
692.711	1.48571
695.604	0.757195
698.496	1.13668
701.389	0.161865
704.282	0.192017
707.175	0.549477
710.067	1.69373
712.96	1.81577
715.853	1.82551
718.745	3.47183
721.638	3.26044
724.531	3.58479
727.423	5.4056
730.316	4.72991
733.209	6.86649
736.102	6.12628
738.994	6.21851
741.887	7.23457
744.78	6.16969
747.672	5.17439
750.565	5.08376
753.458	5.27647
756.351	5.04138
759.243	4.63093
762.136	4.82683
765.029	4.29768
767.921	5.15754
770.814	5.18932
773.707	6.63381
776.599	5.66604
779.492	5.3591
782.385	5.69111
785.278	5.77322
788.17	5.68514
791.063	6.65046
793.956	6.10023
796.848	6.69488
799.741	7.5901
802.634	6.95569
805.526	7.2012
808.419	8.72752
811.312	7.93635
814.205	8.79679
817.097	8.06257
819.99	9.75604
822.883	11.0792
825.775	11.0153
828.668	13.6055
831.561	13.9625
834.453	14.6806
837.346	14.9758
840.239	15.7656
843.132	13.563
846.024	14.1406
848.917	12.3519
851.81	11.3225
854.702	9.38042
857.595	7.09992
860.488	6.87919
863.38	5.6194
866.273	4.41345
869.166	3.63852
872.059	2.23682
874.951	0.125885
877.844	0.015961
880.737	0.813019
883.629	2.4144
886.522	3.7258
889.415	2.4651
892.308	3.14755
895.2	0.639725
898.093	2.07137
900.986	4.86224
903.878	7.67113
906.771	13.2708
909.664	18.1142
912.556	20.8737
915.449	26.2008
918.342	30.8855
921.235	34.5856
924.127	37.3244
927.02	39.8605
929.913	42.3705
932.805	44.2041
935.698	47.362
938.591	51.4966
941.483	57.6474
944.376	64.4875
947.269	72.9864
950.162	88.9583
953.054	101.96
955.947	122.741
958.84	145.674
961.732	169.698
964.625	197.354
967.518	229.065
970.41	264.128
973.303	293.638
976.196	322.118
979.088	343.053
981.981	350.396
984.874	348.8
987.767	333.702
990.659	313.595
993.552	287.778
996.445	252.292
999.337	221.02
1002.23	187.352
1005.12	151.432
1008.02	123.542
1010.91	93.3387
1013.8	73.9092
1016.69	52.9806
1019.59	39.1247
1022.48	27.2722
1025.37	16.3934
1028.26	9.30154
1031.16	2.93643
1034.05	2.25717
1036.94	3.91061
1039.84	4.25443
1042.73	5.30823
1045.62	4.18024
1048.51	1.68466
1051.41	0.744171
1054.3	4.89993
1057.19	7.60507
1060.08	15.8846
1062.98	24.6062
1065.87	32.565
1068.76	45.15
1071.65	57.2405
1074.55	69.6958
1077.44	84.1026
1080.33	92.0938
1083.23	100.088
1086.12	104.817
1089.01	106.971
1091.9	106.756
1094.8	102.649
1097.69	99.7849
1100.58	96.2883
1103.47	94.1495
1106.37	90.4438
1109.26	86.4498
1112.15	84.8099
1115.05	81.4974
1117.94	82.8566
1120.83	79.6236
1123.72	78.092
1126.62	79.4029
1129.51	78.9238
1132.4	78.154
1135.29	78.6913
1138.19	78.1894
1141.08	78.9612
1143.97	76.3777
1146.87	73.636
1149.76	69.7849
1152.65	67.2412
1155.54	64.7154
1158.44	63.035
1161.33	61.8422
1164.22	61.3212
1167.11	60.7906
1170.01	57.9472
1172.9	52.2756
1175.79	48.7209
1178.68	41.9986
1181.58	34.5915
1184.47	25.873
1187.36	17.9151
1190.26	10.005
1193.15	4.97241
1196.04	1.36069
1198.93	1.52899
1201.83	3.19214
1204.72	3.7654
1207.61	2.05132
1210.51	1.46934
1213.4	0.393616
1216.29	1.12007
1219.18	3.55808
1222.08	5.11571
1224.97	5.46569
1227.86	6.99492
1230.75	7.17216
1233.65	9.33604
1236.54	10.0999
1239.43	12.6749
1242.32	10.3743
1245.22	13.4926
1248.11	15.3828
1251	13.7474
1253.89	12.0215
1256.79	9.86667
1259.68	8.22099
1262.57	8.80629
1265.47	6.83436
1268.36	6.65527
1271.25	6.75772
1274.14	5.92319
1277.04	4.40858
1279.93	1.80451
1282.82	2.55776
1285.71	1.81506
1288.61	1.30418
1291.5	1.92222
1294.39	0.425949
1297.29	2.27271
1300.18	0.255081
