Measurement: Raman, 780 nm, unoriented, Raman Data Processed
Mineral: Manitobaite
Rruff sample: R130260
Ideal chemistry: Na_16_Mn^2+^_25_Al_8_(PO_4_)_30_
Locality: Gottcha Claim (Pegmatite No. 22), Cross Lake, Manitoba, Canada
Source: Rock Currier
Description: Green or brown massive.
Measured chemistry: (Na_14.11_Ca_1.02_ [box]_0.87_)(Mn^2+^_20.86_Fe^2+^_3.1_Mg_0.40_Zn^2+^_0.25_)_Î£=24.61_(Al_7.21_Fe^3+^_0.79_)P_30.07_Si_0.07_O_120_
Raman shift (cm-1)	intensity
143.026	0
145.918	5.61993
148.811	5.63879
151.704	9.90656
154.597	19.1937
157.489	18.9533
160.382	20.9646
163.275	21.1131
166.167	22.4664
169.06	27.212
171.953	26.9615
174.845	21.6739
177.738	19.9094
180.631	10.7696
183.524	6.91812
186.416	4.46258
189.309	2.16946
192.202	2.58319
195.094	0.497101
197.987	1.2363
200.88	3.8934
203.773	4.74927
206.665	8.79666
209.558	9.99094
212.451	14.1795
215.343	18.1711
218.236	20.1716
221.129	24.152
224.021	26.5811
226.914	29.7652
229.807	34.7745
232.7	35.3471
235.592	41.488
238.485	42.9828
241.378	42.5496
244.27	41.4487
247.163	35.1676
250.056	32.368
252.948	27.162
255.841	27.8129
258.734	29.4906
261.627	31.5235
264.519	30.8009
267.412	29.3925
270.305	25.4944
273.197	22.2218
276.09	18.5785
278.983	13.0435
281.875	9.86591
284.768	6.69663
287.661	3.70123
290.553	2.92206
293.446	1.46625
296.339	0.1427
299.232	0.553253
302.124	1.44083
305.017	0.770508
307.91	0.788437
310.802	1.29561
313.695	1.0612
316.588	2.98196
319.481	2.16292
322.373	6.06953
325.266	7.93344
328.159	11.9121
331.051	13.1401
333.944	14.616
336.837	16.7407
339.729	18.4158
342.622	16.8961
345.515	15.3342
348.408	12.3346
351.3	11.9864
354.193	11.4858
357.086	10.0021
359.978	9.52828
362.871	9.89157
365.764	10.8574
368.656	9.32253
371.549	9.07793
374.442	8.38702
377.334	5.56006
380.227	2.71703
383.12	1.97835
386.013	0.372025
388.905	3.00302
391.798	1.85046
394.691	2.73076
397.583	0.31459
400.476	3.15869
403.369	7.86119
406.262	17.253
409.154	21.8829
412.047	25.6005
414.94	23.2607
417.832	21.7784
420.725	20.9928
423.618	21.2153
426.51	20.1129
429.403	22.8901
432.296	25.5463
435.188	29.4226
438.081	34.2192
440.974	40.5548
443.867	48.7287
446.759	54.9953
449.652	61.0386
452.545	67.0821
455.437	75.348
458.33	85.3875
461.223	95.8205
464.115	102.913
467.008	106.995
469.901	110.424
472.794	106.002
475.686	98.731
478.579	88.812
481.472	80.4819
484.364	71.6964
487.257	64.5658
490.15	62.2465
493.043	56.5058
495.935	54.7762
498.828	53.8576
501.721	50.3538
504.613	47.6001
507.506	40.6895
510.399	32.9962
513.291	25.2101
516.184	17.2894
519.077	9.6304
521.97	5.95341
524.862	2.62405
527.755	0.323654
530.648	1.18483
533.54	2.32074
536.433	3.007
539.326	2.26582
542.218	0.61116
545.111	0.097855
548.004	3.28891
550.896	9.507
553.789	14.2354
556.682	18.4863
559.575	23.7725
562.467	30.7334
565.36	36.4506
568.253	40.0886
571.145	37.699
574.038	35.1229
576.931	34.6535
579.823	38.2445
582.716	42.3413
585.609	48.9216
588.502	56.757
591.394	65.9989
594.287	73.9981
597.18	78.2253
600.072	80.7159
602.965	82.8627
605.858	81.8491
608.75	76.6491
611.643	69.5132
614.536	64.1092
617.429	58.3506
620.321	52.3687
623.214	45.5256
626.107	38.7154
629	33.1079
631.892	31.0582
634.785	25.3158
637.678	21.0753
640.57	15.6804
643.463	11.7148
646.356	8.87564
649.248	6.91096
652.141	6.1118
655.034	2.8821
657.927	1.98291
660.819	2.26771
663.712	3.49159
666.605	2.3079
669.497	0.893211
672.39	1.04839
675.283	0.222206
678.175	0.483192
681.068	0.501236
683.961	0.000755
686.854	0.877075
689.746	0.162163
692.639	0.340469
695.532	0.993774
698.424	0.374039
701.317	0.016701
704.21	1.04268
707.102	1.40614
709.995	0.10865
712.888	1.67173
715.78	0.951042
718.673	2.71552
721.566	1.48579
724.459	3.62437
727.351	2.02384
730.244	2.92481
733.137	2.71752
736.029	1.8604
738.922	3.00696
741.815	3.2655
744.707	4.26419
747.6	2.39503
750.493	3.21059
753.386	3.68652
756.278	3.59114
759.171	2.32098
762.064	3.61806
764.956	1.21677
767.849	2.61524
770.742	2.11839
773.635	2.62242
776.527	0.997787
779.42	1.22192
782.313	1.00573
785.205	1.25813
788.098	1.9599
790.991	1.37072
793.883	1.76141
796.776	1.52978
799.669	1.91061
802.562	0.950058
805.454	1.60572
808.347	2.03747
811.24	2.08094
814.132	1.93195
817.025	1.66614
819.918	2.80576
822.81	1.98863
825.703	2.45837
828.596	2.93999
831.489	1.1939
834.381	4.32369
837.274	4.40862
840.167	3.58671
843.059	4.29279
845.952	4.50333
848.845	4.22514
851.737	4.66865
854.63	5.89933
857.523	3.89085
860.415	6.91277
863.308	7.67591
866.201	5.31786
869.094	5.21734
871.986	5.02524
874.879	4.38229
877.772	3.7333
880.664	3.56978
883.557	3.49869
886.45	2.6821
889.342	3.38986
892.235	1.42682
895.128	1.47684
898.021	1.13014
900.913	0.622581
903.806	0.811798
906.699	0.097969
909.591	0.585312
912.484	0.319717
915.377	0.924438
918.269	1.26946
921.162	0.422119
924.055	1.20947
926.948	0.116776
929.84	1.84323
932.733	4.9989
935.626	9.09406
938.518	13.7662
941.411	21.3168
944.304	28.3923
947.197	39.8694
950.089	54.6914
952.982	75.3155
955.875	100.742
958.767	131.737
961.66	166.241
964.553	206.427
967.445	255.216
970.338	310.089
973.231	362.938
976.124	394.364
979.016	368.689
981.909	307.697
984.802	249.485
987.694	208.761
990.587	177.738
993.48	151.77
996.372	125.041
999.265	101.967
1002.16	83.1897
1005.05	68.1266
1007.94	54.0955
1010.84	43.0603
1013.73	32.5597
1016.62	25.4306
1019.51	17.6203
1022.41	13.2238
1025.3	8.70358
1028.19	4.83685
1031.09	1.6304
1033.98	0.007706
1036.87	1.35767
1039.76	1.3058
1042.66	0.349365
1045.55	1.65642
1048.44	0.276001
1051.33	1.77762
1054.23	1.56635
1057.12	4.07791
1060.01	8.84743
1062.9	11.2416
1065.8	15.8789
1068.69	23.1587
1071.58	30.4109
1074.47	37.0105
1077.37	40.5204
1080.26	42.4211
1083.15	38.281
1086.05	37.8154
1088.94	36.12
1091.83	38.3857
1094.72	40.0237
1097.62	46.8944
1100.51	49.6461
1103.4	51.2198
1106.3	50.355
1109.19	39.8361
1112.08	32.142
1114.97	27.0817
1117.87	25.4225
1120.76	23.8594
1123.65	25.3926
1126.54	25.9556
1129.44	26.7181
1132.33	27.9856
1135.22	28.7879
1138.12	23.9629
1141.01	18.3182
1143.9	14.9851
1146.79	11.9644
1149.69	8.6877
1152.58	5.65111
1155.47	4.25861
1158.36	2.93532
1161.26	2.84738
1164.15	1.364
1167.04	1.63493
1169.93	0.476242
1172.83	0.920708
1175.72	0.058853
1178.61	0.430397
1181.51	1.07707
1184.4	0.388313
1187.29	0.321007
1190.18	0.971771
1193.08	0.458115
1195.97	2.50983
1198.86	3.22775
1201.75	4.65424
1204.65	5.32627
1207.54	5.79645
1210.43	6.42184
1213.33	6.0432
1216.22	6.33831
1219.11	8.20255
1222	7.17388
1224.9	8.54043
1227.79	8.54392
1230.68	9.30841
1233.57	8.14229
1236.47	6.80662
1239.36	5.39323
1242.25	6.19036
1245.14	5.52999
1248.04	5.03177
1250.93	4.07347
1253.82	3.70174
1256.71	2.75797
1259.61	2.4036
1262.5	1.7287
1265.39	1.07278
1268.29	2.2119
1271.18	0.471153
1274.07	0.726921
1276.96	1.6537
1279.86	2.0493
