Measurement: Raman, 532 nm, unoriented, Raman Data Processed
Mineral: Manjiroite
Rruff sample: R060379
Ideal chemistry: Na(Mn^4+^_7_Mn^3+^)O_16_
Locality: Wessels mine, Kalahari Manganese Field, South Africa
Source: Michael Scott
Description: Steel gray bed of parallel fibers
Measured chemistry: (Na_0.60_K_0.28_Ca_0.12_)_Σ=1_(Mn^4+^_7.40_Mn^2+^_0.44_Mg_0.11_Si_0.03_Al_0.02_)_Σ=8_O_16_·2H_2_O
Raman shift (cm-1)	intensity
206.168	0
209.061	0.758514
211.953	0.440018
214.846	0.119949
217.739	1.19305
220.631	1.01228
223.524	0.671555
226.417	1.67362
229.31	0.676819
232.202	0.791306
235.095	1.47249
237.988	1.605
240.88	1.30666
243.773	1.25252
246.666	1.8641
249.559	0.868301
252.451	1.41545
255.344	1.88644
258.237	2.32919
261.129	3.59735
264.022	2.25012
266.915	3.35002
269.807	3.90816
272.7	3.55739
275.593	4.18663
278.486	4.51523
281.378	4.66956
284.271	4.44179
287.164	4.02165
290.056	4.93494
292.949	3.84776
295.842	4.12924
298.734	2.53021
301.627	3.34933
304.52	1.37439
307.413	1.9133
310.305	2.99538
313.198	1.96027
316.091	1.06052
318.983	1.56293
321.876	0.786331
324.769	0.047211
327.661	1.52992
330.554	0.968155
333.447	0.404144
336.339	0.72821
339.232	2.65082
342.125	2.4204
345.018	1.93623
347.91	2.76694
350.803	3.97449
353.696	1.79721
356.588	3.50426
359.481	2.79282
362.374	2.55443
365.267	2.62813
368.159	1.68852
371.052	1.59424
373.945	2.15265
376.837	2.50497
379.73	2.25198
382.623	1.32114
385.515	2.18164
388.408	1.76196
391.301	1.09409
394.193	0.480194
397.086	0.699692
399.979	1.62939
402.872	1.84543
405.764	0.584702
408.657	0.436722
411.55	1.44594
414.442	0.806824
417.335	1.12561
420.228	2.10349
423.12	0.240128
426.013	1.1684
428.906	0.364685
431.799	0.522583
434.691	1.98917
437.584	1.14654
440.477	1.49405
443.369	1.50258
446.262	2.56877
449.155	2.18593
452.048	2.34593
454.94	3.64134
457.833	4.16074
460.726	5.5916
463.618	5.75139
466.511	5.4621
469.404	6.68681
472.296	6.42619
475.189	5.51236
478.082	6.26076
480.974	5.78793
483.867	8.18747
486.76	6.50246
489.653	4.1642
492.545	4.20104
495.438	3.28276
498.331	1.27713
501.223	0.677185
504.116	0.085968
507.009	0.006912
509.901	1.3262
512.794	0.029343
515.687	0.460831
518.58	2.09152
521.472	0.969406
524.365	1.07184
527.258	2.02266
530.15	1.17793
533.043	0.639236
535.936	1.67261
538.829	1.46298
541.721	5.08377
544.614	6.76752
547.507	10.7463
550.399	12.9363
553.292	14.6989
556.185	17.19
559.077	19.6352
561.97	21.6644
564.863	24.4877
567.756	26.7721
570.648	25.7674
573.541	27.0437
576.434	28.2768
579.326	30.2549
582.219	30.1538
585.112	29.8725
588.004	31.2474
590.897	32.6721
593.79	36.6786
596.683	38.7341
599.575	41.234
602.468	44.6371
605.361	48.0733
608.253	51.8998
611.146	54.2649
614.039	60.5197
616.931	65.2412
619.824	69.7627
622.717	73.8344
625.61	80.0538
628.502	83.4082
631.395	88.6066
634.288	92.0053
637.18	95.3048
640.073	94.3668
642.966	89.3751
645.858	85.0025
648.751	80.0815
651.644	71.9369
654.537	64.4576
657.429	57.2743
660.322	48.3955
663.215	41.9027
666.107	36.7397
669	30.4302
671.893	25.7763
674.785	20.6233
677.678	16.9395
680.571	14.2024
683.463	10.9838
686.356	7.63927
689.249	6.29172
692.142	4.09378
695.034	1.58968
697.927	0.263184
700.82	0.174255
703.712	0.41069
706.605	0.210342
709.498	2.36098
712.39	1.9216
715.283	2.16998
718.176	0.934647
721.069	1.72768
723.961	0.993042
726.854	0.678619
729.747	0.463348
732.639	0.563995
735.532	0.958115
738.425	0.981674
741.317	1.28192
744.21	2.54916
747.103	1.91884
749.996	3.84894
752.888	3.53065
755.781	3.39122
758.674	4.84582
761.566	5.40788
764.459	5.92731
767.352	4.62982
770.245	5.02309
773.137	4.69229
776.03	4.29713
778.923	4.96024
781.815	5.69878
784.708	6.66327
787.601	5.48027
790.493	6.09631
793.386	6.91887
796.279	8.27234
799.172	7.48679
802.064	9.23415
804.957	10.5913
807.85	10.0148
810.742	10.4102
813.635	12.3933
816.528	13.6344
819.42	15.1369
822.313	14.5319
825.206	14.1711
828.098	16.217
830.991	16.6552
833.884	18.3747
836.777	18.4716
839.669	20.2708
842.562	20.9527
845.455	20.8611
848.347	20.8832
851.24	20.6349
854.133	20.2083
857.025	21.467
859.918	21.4568
862.811	21.5421
865.704	20.5239
868.596	18.8121
871.489	17.4531
874.382	17.1699
877.274	15.6863
880.167	14.5152
883.06	12.7484
885.952	10.3221
888.845	9.96391
891.738	7.64223
894.631	7.12373
897.523	5.59428
900.416	5.48415
903.309	3.24548
906.201	2.00594
909.094	2.55212
911.987	0.855904
914.88	0.741837
917.772	0.133957
920.665	0.325478
923.558	0.388199
926.45	0.377434
929.343	1.4209
932.236	0.749054
935.128	0.48201
938.021	0.670799
940.914	0.616257
943.807	0.992744
946.699	0.331192
949.592	0.095123
952.485	0.70015
955.377	0.846169
958.27	0.317642
961.163	0.958458
964.055	1.13328
966.948	1.08177
969.841	1.84824
972.734	2.01556
975.626	1.6666
978.519	2.86192
981.412	2.12759
984.304	1.70328
987.197	2.95966
990.09	1.85153
992.982	2.74897
995.875	1.48567
998.768	2.3749
1001.66	2.11114
1004.55	3.21065
1007.45	1.98111
1010.34	2.14553
1013.23	1.89593
1016.12	2.89263
1019.02	3.84162
1021.91	3.62858
1024.8	5.02706
1027.69	4.43616
1030.59	5.53167
1033.48	5.52564
1036.37	6.65328
1039.27	7.01054
1042.16	6.00922
1045.05	7.59519
1047.94	5.29056
1050.84	6.21673
1053.73	5.24207
1056.62	5.19665
1059.52	3.51295
1062.41	3.56043
1065.3	3.18405
1068.19	2.07505
1071.09	1.86269
1073.98	1.80562
1076.87	0.874382
1079.76	1.45594
1082.66	0.027061
1085.55	0.374634
1088.44	0.265633
1091.33	0.05854
1094.23	0.823685
1097.12	0.583099
1100.01	0.604355
1102.9	0.732552
1105.8	1.2841
1108.69	1.1946
1111.58	0.653969
1114.48	1.18169
1117.37	0.61998
1120.26	2.01555
1123.15	1.17335
1126.05	0.694016
1128.94	0.987968
1131.83	0.861046
1134.72	0.654984
1137.62	0.479912
1140.51	0.130615
1143.4	0.443344
1146.3	0.563049
1149.19	0.253944
1152.08	0.376289
1154.97	1.3091
1157.87	0.337715
1160.76	0.635773
1163.65	1.08275
1166.54	0.365059
1169.44	0.711952
1172.33	1.2964
1175.22	0.337509
1178.12	1.14274
1181.01	0.967865
1183.9	0.179268
1186.79	2.31742
1189.69	1.95285
1192.58	1.66299
1195.47	2.01644
1198.36	1.85083
1201.26	2.48679
1204.15	1.97771
1207.04	2.79904
1209.93	2.35248
1212.83	2.24229
1215.72	2.87626
1218.61	1.99681
1221.51	2.67418
1224.4	1.49677
1227.29	1.96125
1230.18	1.17206
1233.08	1.35807
1235.97	1.52615
1238.86	1.78913
1241.76	2.64936
1244.65	0.921127
1247.54	1.75533
1250.43	1.86472
1253.33	1.53821
1256.22	1.47913
1259.11	1.87022
1262	0.592117
1264.9	0.531738
1267.79	1.1395
1270.68	1.43349
1273.57	0.75972
1276.47	0.913269
1279.36	0.803612
1282.25	1.16666
1285.14	0.493843
1288.04	0.717712
1290.93	1.22208
1293.82	1.20023
1296.72	1.07156
1299.61	0.562744
