Measurement: Raman, 780 nm, unoriented, Raman Data Processed
Mineral: Manjiroite
Rruff sample: R060379
Ideal chemistry: Na(Mn^4+^_7_Mn^3+^)O_16_
Locality: Wessels mine, Kalahari Manganese Field, South Africa
Source: Michael Scott
Description: Steel gray bed of parallel fibers
Measured chemistry: (Na_0.60_K_0.28_Ca_0.12_)_Σ=1_(Mn^4+^_7.40_Mn^2+^_0.44_Mg_0.11_Si_0.03_Al_0.02_)_Σ=8_O_16_·2H_2_O
Raman shift (cm-1)	intensity
147.765	0
150.658	0.266296
153.551	2.65631
156.443	4.98761
159.336	2.34079
162.229	2.80801
165.121	0.337891
168.014	0.854431
170.907	3.51251
173.799	1.60175
176.692	2.39548
179.585	3.25684
182.478	1.80951
185.37	0.90976
188.263	1.91373
191.156	1.08057
194.048	0.009308
196.941	0.863617
199.834	0.160706
202.726	0.111237
205.619	0.185059
208.512	0.194092
211.405	0.305237
214.297	1.27026
217.19	1.39136
220.083	0.846863
222.975	0.784058
225.868	1.94
228.761	2.33057
231.654	2.77866
234.546	3.4729
237.439	4.14557
240.332	5.28732
243.224	5.78174
246.117	4.89484
249.01	4.19321
251.902	2.80371
254.795	3.43338
257.688	2.58221
260.58	4.71356
263.473	3.6405
266.366	2.2995
269.259	2.02445
272.151	2.62549
275.044	0.116241
277.937	1.06479
280.829	1.67834
283.722	1.36462
286.615	0.160172
289.507	1.30225
292.4	1.37065
295.293	1.60875
298.186	1.02759
301.078	1.78064
303.971	1.93646
306.864	1.13136
309.756	0.575439
312.649	0.725876
315.542	0.983185
318.435	1.16122
321.327	0.178268
324.22	2.38548
327.113	0.683304
330.005	0.083969
332.898	1.45309
335.791	2.14734
338.683	1.34943
341.576	1.14079
344.469	1.83128
347.361	0.209229
350.254	0.332474
353.147	0.717575
356.04	1.31584
358.932	2.37984
361.825	2.90327
364.718	1.80742
367.61	3.73871
370.503	1.24005
373.396	1.4653
376.288	2.36592
379.181	2.09494
382.074	1.45961
384.967	1.45285
387.859	1.54396
390.752	0.922531
393.645	1.24229
396.537	1.14803
399.43	0.696335
402.323	0.88028
405.216	0.376801
408.108	0.591949
411.001	0.235474
413.894	0.774216
416.786	0.435226
419.679	1.05522
422.572	0.265671
425.464	0.46907
428.357	0.651672
431.25	2.18927
434.142	0.356171
437.035	1.54295
439.928	0.912506
442.821	0.205383
445.713	1.79041
448.606	2.09117
451.499	2.0457
454.391	2.87146
457.284	1.83899
460.177	2.97104
463.07	2.5011
465.962	2.66769
468.855	2.64938
471.748	3.89647
474.64	1.30103
477.533	2.51155
480.426	3.05902
483.318	3.53648
486.211	3.67265
489.104	2.87312
491.997	2.74593
494.889	2.03899
497.782	1.05502
500.675	0.930389
503.567	1.38542
506.46	1.94725
509.353	0.930801
512.245	0.330658
515.138	0.258072
518.031	0.466766
520.923	0.696136
523.816	0.071335
526.709	0.663773
529.602	0.789841
532.494	1.00664
535.387	1.54141
538.28	0.055618
541.172	1.84459
544.065	0.10228
546.958	1.12186
549.851	2.87553
552.743	2.35748
555.636	1.23514
558.529	3.82895
561.421	4.96683
564.314	3.7168
567.207	5.89041
570.099	4.05356
572.992	4.11935
575.885	5.99152
578.778	5.57806
581.67	4.72336
584.563	3.70071
587.456	3.84436
590.348	2.76672
593.241	4.27789
596.134	5.76312
599.027	5.90875
601.919	5.98093
604.812	6.61175
607.705	6.92483
610.597	6.46008
613.49	6.37112
616.383	8.10095
619.275	8.33099
622.168	9.58005
625.061	9.668
627.953	8.79877
630.846	10.5117
633.739	9.80759
636.632	10.8654
639.524	11.1766
642.417	11.13
645.31	9.57886
648.202	10.0487
651.095	7.51462
653.988	7.39636
656.88	5.84729
659.773	6.00085
662.666	5.72726
665.559	4.53742
668.451	4.72192
671.344	3.06326
674.237	3.50772
677.129	2.40289
680.022	1.97928
682.915	0.451202
685.808	0.75293
688.7	1.24112
691.593	0.118011
694.486	0.022736
697.378	0.284485
700.271	1.53833
703.164	0.897308
706.056	0.236694
708.949	1.1073
711.842	0.780396
714.735	0.024658
717.627	0.337921
720.52	0.233032
723.413	0.233704
726.305	0.437592
729.198	0.210419
732.091	0.144684
734.983	1.20386
737.876	1.04117
740.769	0.864243
743.662	0.219208
746.554	0.597961
749.447	1.16119
752.34	0.924103
755.232	2.56662
758.125	0.706696
761.018	0.841095
763.91	0.711731
766.803	0.595398
769.696	2.49976
772.588	1.10513
775.481	0.689606
778.374	1.58002
781.267	1.09753
784.159	1.67374
787.052	2.10474
789.945	3.03314
792.837	0.650787
795.73	1.67789
798.623	1.12766
801.515	1.78525
804.408	2.43665
807.301	2.19211
810.194	0.957428
813.086	2.83432
815.979	2.53491
818.872	3.18152
821.764	3.13525
824.657	3.01053
827.55	3.71518
830.442	1.95184
833.335	1.53818
836.228	1.88626
839.121	3.39899
842.013	3.77685
844.906	4.63522
847.799	3.02417
850.691	2.90659
853.584	4.22348
856.477	1.78391
859.37	3.48575
862.262	2.92816
865.155	1.97485
868.048	3.03397
870.94	2.91373
873.833	2.90961
876.726	0.547791
879.618	2.74802
882.511	1.39587
885.404	1.12393
888.297	2.21085
891.189	1.64044
894.082	0.691833
896.975	1.25192
899.867	0.039368
902.76	2.50192
905.653	0.963531
908.545	1.98737
911.438	0.735809
914.331	0.024536
917.223	0.28241
920.116	0.815613
923.009	0.132477
925.902	1.26004
928.794	4.07416
931.687	0.15329
934.58	0.104065
937.472	0.510925
940.365	0.227081
943.258	1.07107
946.15	0.143646
949.043	2.25632
951.936	0.617889
954.829	1.04629
957.721	2.19702
960.614	1.59091
963.507	2.01572
966.399	1.27747
969.292	0.898193
972.185	1.02249
975.077	0.380005
977.97	1.52866
980.863	3.168
983.756	2.06857
986.648	2.58228
989.541	1.91449
992.434	1.40152
995.326	1.67514
998.219	1.87528
1001.11	1.76004
1004	3.04001
1006.9	2.21332
1009.79	1.14563
1012.68	1.16327
1015.58	2.20685
1018.47	2.52786
1021.36	2.21646
1024.25	2.57318
1027.15	1.78876
1030.04	2.25995
1032.93	2.91339
1035.82	2.58328
1038.72	2.14062
1041.61	2.672
1044.5	2.22263
1047.39	1.508
1050.29	2.8251
1053.18	1.42718
1056.07	3.58444
1058.97	3.29028
1061.86	0.890289
1064.75	2.14484
1067.64	1.94174
1070.54	1.58966
1073.43	2.6814
1076.32	1.37936
1079.21	0.811432
1082.11	0.971954
1085	2.29968
1087.89	1.62085
1090.79	1.45792
1093.68	0.079376
1096.57	0.567719
1099.46	1.39004
1102.36	0.615753
1105.25	2.02789
1108.14	1.40964
1111.03	1.17627
1113.93	1.59329
1116.82	0.818939
1119.71	1.71967
1122.61	0.309021
1125.5	0.177338
1128.39	1.60434
1131.28	0.567017
1134.18	0.161835
1137.07	2.62457
1139.96	0.205292
1142.85	3.93506
1145.75	1.69284
1148.64	2.41684
1151.53	2.14969
1154.42	1.77759
1157.32	2.11548
1160.21	1.47009
1163.1	3.54898
1166	3.26746
1168.89	2.58432
1171.78	3.18405
1174.67	4.03998
1177.57	3.41717
1180.46	2.62448
1183.35	2.87747
1186.24	4.51776
1189.14	3.22147
1192.03	3.35184
1194.92	4.43347
1197.82	3.47433
1200.71	4.06576
1203.6	3.68076
1206.49	3.42197
1209.39	3.33914
1212.28	4.28058
1215.17	2.78491
1218.06	1.03714
1220.96	1.09918
1223.85	3.47195
1226.74	3.62503
1229.63	1.9393
1232.53	2.6727
1235.42	2.94241
1238.31	2.41025
1241.21	0.024689
1244.1	0.691071
1246.99	0.0466
1249.88	1.31232
1252.78	0.65506
1255.67	0.670319
1258.56	1.75629
1261.45	0.379791
1264.35	2.77927
1267.24	1.83899
1270.13	1.01257
1273.03	2.0672
1275.92	2.59112
1278.81	1.55447
1281.7	0.923828
