Measurement: Raman, 532 nm, unoriented, Raman Data Processed
Mineral: Margaritasite
Rruff sample: R060461
Ideal chemistry: Cs^1+^_2_(U^6+^O_2_)_2_(V^5+^O_4_)_2_H_2_O
Locality: Margaritas Open Pit, Sierra Pena Blanca, Chihuahua, Mexico
Source: Michael Scott
Description: Yellow earthy, massive, sponge-like appearance
Raman shift (cm-1)	intensity
153.705	0
156.597	6.48047
159.49	65.3047
162.383	231.433
165.275	467.339
168.168	776.917
171.061	921.172
173.953	851.728
176.846	678.915
179.739	591.846
182.632	567.21
185.524	534.98
188.417	640.223
191.31	838.538
194.202	832.411
197.095	570.941
199.988	223.716
202.881	22.8237
205.773	3.34912
208.666	153.08
211.559	357.599
214.451	516.419
217.344	575.721
220.237	676.907
223.129	842.675
226.022	1069.27
228.915	1196.09
231.808	1061.88
234.7	817.151
237.593	739.378
240.486	867.404
243.378	1177.95
246.271	1620.01
249.164	1950.11
252.056	2055.45
254.949	1950.76
257.842	1762.05
260.735	1544.44
263.627	1423.93
266.52	1382.56
269.413	1260.7
272.305	954.781
275.198	510.512
278.091	161.714
280.983	41.5776
283.876	153.706
286.769	152.445
289.661	90.7612
292.554	75.8628
295.447	295.045
298.34	606.661
301.232	1033.87
304.125	1472.82
307.018	1936.51
309.91	2339.79
312.803	2490.98
315.696	2114.86
318.589	1366.85
321.481	807.216
324.374	457.709
327.267	361.748
330.159	404.747
333.052	617.863
335.945	918.466
338.837	1390.21
341.73	1934.8
344.623	2569.36
347.515	3330.03
350.408	4108.32
353.301	4854.32
356.194	5414.98
359.086	5894.39
361.979	6585.21
364.872	7322.94
367.764	7739.31
370.657	7449.56
373.55	6319.02
376.442	4884.87
379.335	3567.23
382.228	2599.21
385.121	1984.79
388.013	1608.18
390.906	1483.15
393.799	1528.44
396.691	1673.83
399.584	1940.82
402.477	2255.65
405.37	2472.48
408.262	2346.47
411.155	1889.7
414.048	1260.34
416.94	722.011
419.833	366.778
422.726	127.891
425.618	23.708
428.511	41.3867
431.404	70.6812
434.296	82.0781
437.189	87.6709
440.082	50.7222
442.975	58.6465
445.867	14.25
448.76	50.9951
451.653	85.7656
454.545	156.43
457.438	267.772
460.331	433.524
463.224	635.058
466.116	819.636
469.009	1031.16
471.902	1233.75
474.794	1391.66
477.687	1400.74
480.58	1287.44
483.473	1047.71
486.365	763.406
489.258	549.124
492.151	387.577
495.043	307.65
497.936	272.914
500.829	257.272
503.721	223.013
506.614	225.49
509.507	292.669
512.399	354.423
515.292	488.469
518.185	685.765
521.078	932.772
523.97	1250.32
526.863	1573.31
529.756	1877.22
532.648	2055.9
535.541	2064.85
538.434	1888.74
541.327	1501.23
544.219	1060.77
547.112	717.044
550.005	491.985
552.897	393.776
555.79	395.683
558.683	476.556
561.575	593.049
564.468	795.577
567.361	992.12
570.254	1222.86
573.146	1396.85
576.039	1490.65
578.932	1471.41
581.824	1343.3
584.717	1177.21
587.61	909.99
590.502	689.915
593.395	477.47
596.288	328.171
599.181	193.02
602.073	64.3511
604.966	18.5127
607.859	48.9033
610.751	52.0713
613.644	43.5464
616.537	18.9565
619.429	13.5576
622.322	91.0005
625.215	198.722
628.107	363.403
631	510.617
633.893	697.375
636.786	859.546
639.678	916.033
642.571	858.329
645.464	689.593
648.356	494.267
651.249	302.048
654.142	131.126
657.034	41.3247
659.927	45.3223
662.82	69.6987
665.713	75.8315
668.605	41.623
671.498	9.49219
674.391	47.5264
677.283	82.3867
680.176	214.834
683.069	366.239
685.962	573.023
688.854	782.679
691.747	1027.39
694.64	1384.77
697.532	1850.57
700.425	2397.21
703.318	3160.56
706.21	4205.99
709.103	5552.06
711.996	7397.17
714.889	9816.53
717.781	12982.3
720.674	16971.7
723.567	21481
726.459	25938.9
729.352	28898.8
732.245	29091.2
735.137	26045.2
738.03	21395.6
740.923	16745.5
743.816	12963.1
746.708	10036.6
749.601	7885.8
752.494	6209.64
755.386	4990.35
758.279	4017.76
761.172	3274.41
764.064	2630.62
766.957	2113.32
769.85	1656.34
772.742	1273.5
775.635	929.88
778.528	644.88
781.421	431.743
784.313	256.103
787.206	93.0156
790.099	56.4512
792.991	100.398
795.884	87.1025
798.777	25.7305
801.669	87.7891
804.562	283.778
807.455	660.996
810.348	1179.7
813.24	1810.44
816.133	2314.32
819.026	2531.63
821.918	2308.73
824.811	1872.11
827.704	1440.84
830.597	1140.83
833.489	930.456
836.382	752.085
839.275	617.562
842.167	534.149
845.06	466.291
847.953	393.298
850.846	334.602
853.738	262.749
856.631	186.711
859.524	131.675
862.416	86.6899
865.309	56.1699
868.202	54.1665
871.094	31.6689
873.987	3.13232
876.88	0.911621
879.773	1.39697
882.665	6.20606
885.558	1.84082
888.451	9.18457
891.343	1.97803
894.236	11.8623
897.129	15.6704
900.021	1.04541
902.914	14.0742
905.807	43.3184
908.699	40.9678
911.592	62.1211
914.485	96.7617
917.378	118.957
920.27	152.92
923.163	186.658
926.056	218.299
928.948	261.13
931.841	344.251
934.734	403.288
937.626	497.725
940.519	613.271
943.412	770.71
946.305	902.643
949.197	1115.79
952.09	1401.57
954.983	1758.7
957.875	2317.32
960.768	3052.22
963.661	3923.85
966.553	4863.71
969.446	5017.91
972.339	3624.15
975.232	2321.63
978.124	1565.96
981.017	1033.9
983.91	682.544
986.802	448.744
989.695	301.681
992.588	217.727
995.481	160.523
998.373	116.985
1001.27	75.2456
1004.16	62.3369
1007.05	61.1489
1009.94	36.0977
1012.84	20.7856
1015.73	12.4815
1018.62	22.9009
1021.51	16.6797
1024.41	1.53516
1027.3	9.24609
1030.19	1.38672
1033.09	51.2002
1035.98	37.1211
1038.87	15.7695
1041.76	40.5791
1044.66	21.708
1047.55	22.3267
1050.44	16.1587
1053.33	28.9429
1056.23	54.6909
1059.12	61.1411
1062.01	73.6191
1064.9	49.6953
1067.8	73.1694
1070.69	81.3721
1073.58	84.1333
1076.48	91.8535
1079.37	75.769
1082.26	84.8008
1085.15	83.3638
1088.05	97.8648
1090.94	64.6045
1093.83	49.771
1096.72	59.0732
1099.62	80.1958
1102.51	60.9409
1105.4	57.0562
1108.3	21.6714
1111.19	2.83301
1114.08	16.7129
1116.97	17.3936
1119.87	46.5586
1122.76	37.206
1125.65	16.7988
1128.55	4.92188
1131.44	1.22119
1134.33	22.8467
1137.22	25.5762
1140.12	39.0635
1143.01	43.2026
1145.9	29.4614
1148.79	0.046875
1151.69	18.0708
1154.58	23.4326
1157.47	26.2363
1160.36	33.3364
1163.26	27.0361
1166.15	2.90283
1169.04	2.95019
1171.93	24.9526
1174.83	56.4956
1177.72	52.8984
1180.61	35.3496
1183.51	33.1025
1186.4	34.9883
1189.29	42.2178
1192.18	50.189
1195.08	55.2075
1197.97	26.5947
1200.86	45.3062
1203.76	40.332
1206.65	19.7515
1209.54	22.7573
1212.43	17.8184
1215.33	41.7002
1218.22	60.4575
1221.11	42.1943
1224	17.2192
1226.9	13.1318
1229.79	19.2231
1232.68	0.937988
1235.58	2.75342
1238.47	11.8403
1241.36	23.4644
1244.25	28.4375
1247.14	48.4224
1250.04	69.4502
1252.93	61.1602
1255.82	42.4639
1258.72	61.8677
1261.61	53.7461
1264.5	19.189
1267.39	34.9038
1270.29	28.7905
1273.18	13.3735
1276.07	27.061
1278.96	9.54736
1281.86	35.9473
1284.75	31.4585
1287.64	5.80127
1290.54	2.67773
1293.43	17.6201
1296.32	6.07275
1299.21	10.8555
