Measurement: Raman, 780 nm, unoriented, Raman Data Processed
Mineral: Margaritasite
Rruff sample: R060461
Ideal chemistry: Cs^1+^_2_(U^6+^O_2_)_2_(V^5+^O_4_)_2_H_2_O
Locality: Margaritas Open Pit, Sierra Pena Blanca, Chihuahua, Mexico
Source: Michael Scott
Description: Yellow earthy, massive, sponge-like appearance
Raman shift (cm-1)	intensity
129.526	0
132.419	24.447
135.312	8.99292
138.204	11.0584
141.097	5.07227
143.99	6.88599
146.882	0.261963
149.775	7.95142
152.668	37.5586
155.56	97.5447
158.453	194.256
161.346	377.965
164.239	588.883
167.131	828.417
170.024	958.899
172.917	898.961
175.809	787.858
178.702	814.519
181.595	875.567
184.488	985.591
187.38	1226.86
190.273	1479.14
193.166	1411.68
196.058	1008.04
198.951	663.66
201.844	509.579
204.736	521.673
207.629	642.075
210.522	827.356
213.415	924.685
216.307	974.934
219.2	1097.75
222.093	1228.86
224.985	1274.36
227.878	1153.97
230.771	782.447
233.663	439.952
236.556	290.496
239.449	295.605
242.341	426.916
245.234	628.756
248.127	805.74
251.02	835.846
253.912	768.897
256.805	682.688
259.698	618.585
262.591	634.583
265.483	692.97
268.376	650.962
271.269	445.233
274.161	159.592
277.054	4.85864
279.947	83.9707
282.839	88.5474
285.732	34.5562
288.625	52.5483
291.517	148.057
294.41	253.257
297.303	394.789
300.196	592.826
303.088	860.954
305.981	1187.37
308.874	1500.6
311.766	1618.4
314.659	1321.94
317.552	760.882
320.445	304.597
323.337	67.7554
326.23	6.55737
329.123	6.08862
332.015	112.083
334.908	294.515
337.801	495.27
340.693	797.913
343.586	1202.43
346.479	1721.3
349.372	2259.13
352.264	2762.85
355.157	3169.99
358.05	3556.26
360.942	4076.9
363.835	4666.76
366.728	5065.16
369.62	4881.97
372.513	4181.24
375.406	3198.34
378.298	2310.58
381.191	1657.63
384.084	1251.26
386.977	1024.67
389.869	973.688
392.762	1024.19
395.655	1146.32
398.547	1364.71
401.44	1656.96
404.333	1899.93
407.226	1858.46
410.118	1444.93
413.011	931.185
415.904	520.38
418.796	271.684
421.689	104.519
424.582	17.9475
427.474	33.4866
430.367	54.8435
433.26	54.5808
436.152	48.3308
439.045	30.3906
441.938	6.64526
444.831	20.0176
447.723	67.2485
450.616	124.383
453.509	214.727
456.401	318.387
459.294	445.549
462.187	570.24
465.079	691.875
467.972	833.43
470.865	996.168
473.758	1128.09
476.65	1190.97
479.543	1110.82
482.436	905.242
485.328	688.936
488.221	506.41
491.114	397.53
494.007	330.048
496.899	296.916
499.792	273.867
502.685	234.692
505.577	205.058
508.47	201.277
511.363	209.792
514.255	262.533
517.148	366.106
520.041	505.44
522.933	666.196
525.826	875.351
528.719	1072.89
531.612	1240.01
534.504	1312.14
537.397	1205.11
540.29	948.987
543.182	663.755
546.075	420.037
548.968	257.345
551.861	179.398
554.753	151.92
557.646	180.617
560.539	235.256
563.431	303.441
566.324	401.941
569.217	506.129
572.109	595.4
575.002	662.42
577.895	680.713
580.788	617.179
583.68	516.147
586.573	389.074
589.466	282.528
592.358	196.376
595.251	149.251
598.144	96.637
601.037	44.9898
603.929	3.68286
606.822	22.5012
609.715	43.9692
612.607	40.0886
615.5	27.5715
618.393	5.29443
621.285	44.9143
624.178	102.752
627.071	187.272
629.963	275.842
632.856	377.695
635.749	459.729
638.642	526.069
641.534	507.654
644.427	431.463
647.32	324.793
650.212	206.603
653.105	124.289
655.998	60.0725
658.89	21.8543
661.783	2.22559
664.676	7.33862
667.569	12.2263
670.461	14.2073
673.354	9.80762
676.247	19.0183
679.139	48.7659
682.032	78.8144
684.925	101.888
687.817	132.904
690.71	175.721
693.603	260.495
696.496	392.273
699.388	542.512
702.281	748.085
705.174	1033.57
708.066	1424.53
710.959	1956.29
713.852	2666.69
716.745	3629.48
719.637	4852.8
722.53	6327.28
725.423	7879.44
728.315	9153.7
731.208	9377.45
734.101	8409.45
736.993	6803.74
739.886	5259
742.779	4038.77
745.672	3094.8
748.564	2391.04
751.457	1830.93
754.35	1436.14
757.242	1131.69
760.135	905.265
763.028	719.706
765.92	559.578
768.813	439.36
771.706	330.933
774.598	225.244
777.491	151.52
780.384	86.6604
783.277	31.709
786.169	0.576172
789.062	21.3686
791.955	28.4998
794.847	10.1731
797.74	39.4456
800.633	114.168
803.526	229.858
806.418	373.826
809.311	573.636
812.204	812.216
815.096	1012.5
817.989	1033.41
820.882	865.789
823.774	628.07
826.667	432.582
829.56	294.853
832.453	215.257
835.345	158.684
838.238	131.266
841.131	95.9273
844.023	77.3745
846.916	67.3005
849.809	51.4121
852.702	28.7773
855.594	17.1682
858.487	7.16675
861.38	5.11231
864.272	2.49853
867.165	6.69922
870.058	5.30981
872.95	2.80469
875.843	4.1853
878.736	1.98511
881.629	4.52002
884.521	0.537842
887.414	0.561523
890.307	2.24414
893.199	1.81006
896.092	6.58106
898.985	11.519
901.877	16.2209
904.77	23.4402
907.663	30.9023
910.556	39.2766
913.448	52.3838
916.341	75.2283
919.234	74.9617
922.126	96.1204
925.019	116.418
927.912	135.478
930.804	162.666
933.697	199.521
936.59	237.449
939.482	289.227
942.375	352.731
945.268	442.003
948.161	542.5
951.053	686.948
953.946	872.858
956.839	1159.89
959.731	1487.48
962.624	1943.43
965.517	2621.48
968.409	2924.98
971.302	2085.87
974.195	1285.36
977.088	849.641
979.98	575.244
982.873	370.34
985.766	243.963
988.658	155.332
991.551	103.907
994.444	58.846
997.337	46.4888
1000.23	32.593
1003.12	20.5259
1006.01	10.6602
1008.91	1.51685
1011.8	7.0813
1014.69	7.73755
1017.59	0.672852
1020.48	4.06128
1023.37	2.44507
1026.26	3.10498
1029.16	2.75903
1032.05	3.75366
1034.94	8.42773
1037.83	8.78442
1040.73	12.3831
1043.62	8.87402
1046.51	9.10693
1049.4	13.9021
1052.3	12.1716
1055.19	18.5762
1058.08	28.1123
1060.98	20.8577
1063.87	27.052
1066.76	22.4846
1069.65	23.1731
1072.55	26.5432
1075.44	28.1116
1078.33	26.9905
1081.22	31.8655
1084.12	35.4287
1087.01	25.9419
1089.9	25.2844
1092.8	20.8069
1095.69	15.7031
1098.58	18.4561
1101.47	16.5867
1104.37	7.80322
1107.26	14.5076
1110.15	9.36523
1113.05	1.96802
1115.94	4.92407
1118.83	9.01929
1121.72	10.3838
1124.62	1.61243
1127.51	0.491943
1130.4	4.18543
1133.29	6.81201
1136.19	6.25256
1139.08	9.47437
1141.97	0.304565
1144.86	4.25171
1147.76	4.86401
1150.65	11.3374
1153.54	9.23865
1156.43	8.3783
1159.33	12.0457
1162.22	4.92468
1165.11	0.594238
1168.01	5.20911
1170.9	9.85095
1173.79	12.2408
1176.68	7.32263
1179.58	3.85938
1182.47	7.82776
1185.36	10.304
1188.26	8.55225
1191.15	8.32056
1194.04	8.09314
1196.93	5.90564
1199.83	3.95898
1202.72	9.02271
1205.61	11.121
1208.5	8.3971
1211.4	16.194
1214.29	15.9387
1217.18	12.9641
1220.07	10.5584
1222.97	12.3982
1225.86	3.98755
1228.75	2.08874
1231.64	3.04077
1234.54	4.03503
1237.43	10.0614
1240.32	13.7068
1243.22	0.929932
1246.11	7.35388
1249	0.229614
1251.89	3.05212
1254.79	6.32556
1257.68	1.78479
1260.57	11.0399
1263.46	17.022
1266.36	12.3539
1269.25	9.8794
1272.14	4.81824
1275.04	9.24133
1277.93	4.69067
1280.82	2.66687
