Measurement: Raman, 532 nm, unoriented, Raman Data Processed
Mineral: Mascagnite
Rruff sample: R060640
Ideal chemistry: (N^3-^H_4_)_2_S^6+^O_4_
Locality: Ravat, Tajikistan
Source: Michael Scott
Description: Tan colored spheres forming a crust, associated with apjohnite
Raman shift (cm-1)	intensity
146.473	0
149.365	0.77356
152.258	1.24057
155.151	1.32327
158.044	1.69971
160.936	0.551453
163.829	0.204254
166.722	1.98019
169.614	1.02072
172.507	0.21936
175.4	4.14929
178.293	4.90823
181.185	9.46909
184.078	11.4847
186.971	13.1915
189.863	15.3514
192.756	15.445
195.649	14.1537
198.542	10.4847
201.434	8.42487
204.327	3.42581
207.22	1.98151
210.112	2.93439
213.005	4.62241
215.898	4.48425
218.79	3.63007
221.683	2.90124
224.576	1.90692
227.469	1.9726
230.361	3.70422
233.254	0.972137
236.147	0.123505
239.039	1.03494
241.932	0.313843
244.825	1.00208
247.717	2.54221
250.61	2.46698
253.503	0.392883
256.396	2.14145
259.288	1.54181
262.181	2.09662
265.074	0.597473
267.966	0.076172
270.859	0.375854
273.752	1.68161
276.644	1.85223
279.537	1.81967
282.43	2.49243
285.322	0.594208
288.215	2.91126
291.108	3.49368
294.001	4.78271
296.893	6.42175
299.786	5.89398
302.679	6.10382
305.571	7.57227
308.464	9.05258
311.357	8.76364
314.25	8.76746
317.142	8.32532
320.035	7.21881
322.928	8.91174
325.82	8.64047
328.713	10.7203
331.606	8.5014
334.498	6.9036
337.391	7.16879
340.284	5.80902
343.176	7.97406
346.069	6.13443
348.962	3.79828
351.855	3.5686
354.747	3.13364
357.64	1.35986
360.533	3.03986
363.425	1.84857
366.318	2.78854
369.211	2.20566
372.103	0.572723
374.996	0.172546
377.889	0.302277
380.782	0.324249
383.674	0.561829
386.567	1.20709
389.46	0.910889
392.352	0.198395
395.245	0.578156
398.138	0.41864
401.031	2.84195
403.923	2.07773
406.816	3.27026
409.709	4.03836
412.601	5.93887
415.494	4.90689
418.387	7.59964
421.279	7.94577
424.172	7.87857
427.065	12.7583
429.957	12.0494
432.85	14.7995
435.743	17.1873
438.636	19.6337
441.528	19.878
444.421	22.4437
447.314	22.8895
450.206	23.2266
453.099	24.1458
455.992	23.522
458.885	25.0856
461.777	24.2333
464.67	20.9412
467.563	17.2305
470.455	16.2903
473.348	11.9674
476.241	8.80792
479.133	7.66119
482.026	5.76007
484.919	6.31708
487.812	2.06476
490.704	2.25848
493.597	1.89084
496.49	2.24905
499.382	1.87573
502.275	1.92966
505.168	1.90784
508.06	1.74335
510.953	1.95331
513.846	0.516571
516.739	0.232788
519.631	0.078491
522.524	2.87903
525.417	2.86273
528.309	3.94968
531.202	1.89401
534.095	2.33047
536.987	3.61212
539.88	4.37485
542.773	0.688171
545.665	0.375763
548.558	0.895325
551.451	0.622528
554.344	1.38754
557.236	0.64093
560.129	0.804962
563.022	1.9007
565.914	2.2518
568.807	0.898926
571.7	2.47934
574.592	1.47223
577.485	1.86374
580.378	3.93878
583.271	4.86618
586.163	5.27191
589.056	7.7822
591.949	8.28787
594.841	10.6663
597.734	14.3121
600.627	17.2229
603.519	21.5853
606.412	25.9644
609.305	31.6222
612.198	35.3466
615.09	37.7709
617.983	34.5195
620.876	33.3803
623.768	29.2617
626.661	23.9718
629.554	21.1565
632.447	15.9065
635.339	14.5963
638.232	13.9442
641.125	9.97144
644.017	7.06598
646.91	6.59213
649.803	5.7836
652.695	3.83572
655.588	4.2186
658.481	2.25821
661.374	1.98566
664.266	1.12653
667.159	3.10962
670.052	3.65393
672.944	4.28397
675.837	3.05582
678.73	3.20822
681.622	2.02286
684.515	3.66931
687.408	1.711
690.301	1.34711
693.193	1.40335
696.086	1.97989
698.979	0.508972
701.871	1.66312
704.764	0.415192
707.657	0.7005
710.549	2.03943
713.442	1.84848
716.335	0.995728
719.227	1.38202
722.12	3.8692
725.013	3.51297
727.906	1.43054
730.798	0.634033
733.691	0.642487
736.584	3.96967
739.476	1.16281
742.369	1.6875
745.262	2.87805
748.154	1.65054
751.047	2.19214
753.94	3.40753
756.833	3.37759
759.725	1.21372
762.618	2.66028
765.511	0.812103
768.403	1.05722
771.296	2.51929
774.189	2.50501
777.082	1.95004
779.974	1.91275
782.867	2.44159
785.76	1.55029
788.652	2.92075
791.545	2.60834
794.438	0.297394
797.33	2.08835
800.223	0.932068
803.116	0.796509
806.009	0.380707
808.901	0.065216
811.794	8.08237
814.687	1.05698
817.579	4.84024
820.472	3.20993
823.365	1.16751
826.257	0.112762
829.15	3.16107
832.043	2.01505
834.936	2.59216
837.828	2.86334
840.721	6.30939
843.614	4.67664
846.506	1.59354
849.399	0.971741
852.292	1.46738
855.184	2.7041
858.077	3.97403
860.97	2.00793
863.863	2.06006
866.755	2.97998
869.648	3.19598
872.541	2.07169
875.433	0.235931
878.326	1.32187
881.219	1.39792
884.111	1.49579
887.004	3.12219
889.897	4.53592
892.79	1.48486
895.682	1.52035
898.575	2.71927
901.468	1.39206
904.36	2.35349
907.253	3.02698
910.146	1.5943
913.038	1.44812
915.931	0.454895
918.824	0.94577
921.717	4.21335
924.609	1.72653
927.502	0.706055
930.395	1.0693
933.287	0.501282
936.18	0.002563
939.073	0.928741
941.966	1.03357
944.858	2.10037
947.751	3.18124
950.644	4.13907
953.536	5.66135
956.429	6.3829
959.322	14.2718
962.214	15.8945
965.107	21.3239
968	30.5653
970.893	43.8566
973.785	62.609
976.678	80.6327
979.571	114.859
982.463	173.053
985.356	250.274
988.249	361.332
991.141	407.611
994.034	224.21
996.927	104.839
999.819	55.8016
1002.71	32.3209
1005.61	20.3527
1008.5	14.1384
1011.39	10.44
1014.28	7.5387
1017.18	4.64697
1020.07	0.495392
1022.96	1.21924
1025.85	3.36749
1028.75	3.19122
1031.64	1.9819
1034.53	1.11777
1037.42	0.981323
1040.32	0.277985
1043.21	0.753571
1046.1	0.588287
1048.99	1.44748
1051.89	0.396851
1054.78	0.82312
1057.67	1.05585
1060.57	1.71081
1063.46	1.70004
1066.35	1.31628
1069.24	1.78345
1072.14	1.99661
1075.03	3.94888
1077.92	3.7507
1080.82	3.80747
1083.71	4.6561
1086.6	7.77277
1089.49	7.3122
1092.39	7.81131
1095.28	10.1139
1098.17	12.3605
1101.06	12.8815
1103.96	13.124
1106.85	11.1886
1109.74	10.6802
1112.63	9.25705
1115.53	11.1394
1118.42	13.3514
1121.31	17.2225
1124.21	24.1284
1127.1	23.6645
1129.99	26.1597
1132.88	25.7895
1135.78	24.0533
1138.67	18.0032
1141.56	14.4631
1144.45	9.54208
1147.35	6.57474
1150.24	4.51474
1153.13	5.89151
1156.03	2.41202
1158.92	1.23889
1161.81	3.72806
1164.7	1.1824
1167.6	0.145203
1170.49	0.441101
1173.38	1.50061
1176.27	3.03787
1179.17	2.19385
1182.06	1.51904
1184.95	0.571564
1187.85	0.414093
1190.74	4.24301
1193.63	3.88745
1196.52	1.00259
1199.42	2.79449
1202.31	2.10583
1205.2	1.06796
1208.09	1.16541
1210.99	3.23779
1213.88	2.73706
1216.77	2.96051
1219.66	2.3725
1222.56	4.28064
1225.45	0.884949
1228.34	1.30212
1231.24	0.69519
1234.13	1.17596
1237.02	1.67279
1239.91	1.53717
1242.81	4.58301
1245.7	3.10327
1248.59	4.86005
1251.48	4.4978
1254.38	3.67584
1257.27	4.85413
1260.16	6.93103
1263.06	3.88342
1265.95	4.92566
1268.84	3.54846
1271.73	2.33673
1274.63	1.71436
1277.52	1.78131
1280.41	2.36761
1283.3	1.67413
1286.2	3.40149
1289.09	1.80853
1291.98	1.83856
1294.88	0.131775
1297.77	2.14459
1300.66	0
