Measurement: Raman, 532 nm, unoriented, Raman Data Processed
Mineral: Mascagnite
Rruff sample: R141117
Ideal chemistry: (N^3-^H_4_)_2_S^6+^O_4_
Locality: Ravat Saravanan, Tajikistan
Source: Kenny Lloyd and Dirk Andrews
Description: Colorless prismatic crystals
Raman shift (cm-1)	intensity
89.7832	0
93.158	71.4131
96.5328	67.9799
99.9077	14.847
103.282	5.43872
106.657	7.29419
110.032	79.9746
113.407	106.56
116.782	159.424
120.157	187.044
123.531	193.471
126.906	209.85
130.281	199.713
133.656	212.904
137.031	210.706
140.405	221.485
143.78	240.415
147.155	245.005
150.53	267.824
153.905	283.331
157.28	309.201
160.654	315.798
164.029	340.362
167.404	362.979
170.779	378.074
174.154	392.116
177.528	400.373
180.903	404.163
184.278	408.523
187.653	407.473
191.028	406.774
194.403	391.054
197.777	375.31
201.152	332.965
204.527	288.588
207.902	235.753
211.277	187.811
214.651	145.328
218.026	112.453
221.401	88.2539
224.776	55.1455
228.151	42.0449
231.525	19.3384
234.9	16.7524
238.275	13.9524
241.65	13.0044
245.025	7.27832
248.4	6.40112
251.774	7.13452
255.149	5.09888
258.524	2.24878
261.899	3.31397
265.274	12.8408
268.649	0.780273
272.023	2.63721
275.398	2.97266
278.773	8.17334
282.148	2.66748
285.523	5.11865
288.897	4.4187
292.272	8.43677
295.647	6.26245
299.022	4.04736
302.397	3.44653
305.772	11.4446
309.146	17.8269
312.521	15.4956
315.896	14.9741
319.271	6.54541
322.646	9.72144
326.02	16.4114
329.395	14.1597
332.77	13.0176
336.145	15.3013
339.52	20.8948
342.894	26.0652
346.269	20.7253
349.644	27.9839
353.019	25.9722
356.394	28.2866
359.769	24.0608
363.143	30.0381
366.518	28.4827
369.893	22.3709
373.268	13.2864
376.643	24.3237
380.017	21.4273
383.392	15.4443
386.767	10.2051
390.142	7.48315
393.517	11.2639
396.892	1.4895
400.266	5.021
403.641	5.63159
407.016	2.33496
410.391	6.07446
413.766	9.13525
417.14	31.6162
420.515	44.9736
423.89	56.6812
427.265	82.1794
430.64	140.72
434.014	234.644
437.389	407.207
440.764	666.389
444.139	986.751
447.514	1465.21
450.889	2011.59
454.263	2145.65
457.638	1233.6
461.013	534.935
464.388	280.254
467.763	171.203
471.137	105.4
474.512	69.4246
477.887	37.4568
481.262	31.0845
484.637	31.5205
488.012	28.5388
491.386	11.5176
494.761	5.42822
498.136	1.78247
501.511	3.19971
504.886	4.00098
508.26	6.80908
511.635	11.7756
515.01	5.26416
518.385	2.95386
521.76	4.22656
525.135	9.08057
528.509	7.64038
531.884	11.0049
535.259	8.07812
538.634	4.4563
542.009	4.52515
545.384	5.52344
548.758	21.1431
552.133	7.0459
555.508	5.15527
558.883	1.09302
562.258	9.9043
565.632	1.22314
569.007	5.03638
572.382	2.98755
575.757	6.26099
579.132	5.39941
582.506	12.1882
585.881	24.0444
589.256	30.4016
592.631	52.7405
596.006	76.8347
599.381	166.288
602.755	308.966
606.13	534.481
609.505	926.354
612.88	1505.68
616.255	1517.88
619.63	878.969
623.004	507.166
626.379	379.569
629.754	212.766
633.129	100.733
636.504	51.6367
639.878	22.0945
643.253	10.2261
646.628	12.0127
650.003	9.05884
653.378	15.7996
656.752	5.32739
660.127	1.76465
663.502	1.5332
666.877	10.918
670.252	6.33228
673.626	0.3479
677.001	3.32837
680.376	7.91382
683.751	3.50122
687.126	5.45288
690.501	13.5149
693.875	13.8687
697.25	3.80444
700.625	2.66553
704	20.1482
707.375	19.7981
710.75	11.5701
714.124	21.0623
717.499	20.4607
720.874	22.7808
724.249	18.6704
727.624	24.6643
730.998	18.3823
734.373	17.97
737.748	18.1592
741.123	14.3904
744.498	25.2803
747.872	31.4534
751.247	32.6108
754.622	24.1523
757.997	14.8909
761.372	13.0806
764.747	17.4353
768.121	2.84766
771.496	17.1274
774.871	5.65064
778.246	8.77197
781.621	10.364
784.995	12.7393
788.37	9.50073
791.745	8.06519
795.12	1.11035
798.495	5.60669
801.87	17.7163
805.244	22.1897
808.619	18.4844
811.994	11.4429
815.369	9.90234
818.744	15.6572
822.119	13.7515
825.493	3.3916
828.868	2.3794
832.243	4.77393
835.618	5.14746
838.993	5.52637
842.367	2.08887
845.742	16.4126
849.117	10.7642
852.492	5.79981
855.867	3.88135
859.241	9.53906
862.616	9.60107
865.991	9.88135
869.366	5.50928
872.741	10.9448
876.115	7.02783
879.49	7.55615
882.865	3.63086
886.24	5.16064
889.615	11.7881
892.99	13.2368
896.364	17.2671
899.739	17.3633
903.114	14.0337
906.489	12.6304
909.864	38.3315
913.239	8.71435
916.613	1.50342
919.988	13.769
923.363	0.012695
926.738	1.33545
930.113	11.0903
933.487	2.97168
936.862	0.397949
940.237	11.4844
943.612	40.4487
946.987	49.773
950.361	80.0376
953.736	121.147
957.111	204.892
960.486	391.75
963.861	910.694
967.236	2106.43
970.61	3565.88
973.985	7573.48
977.36	13189.1
980.735	4330.28
984.11	1216.96
987.485	536.66
990.859	298.072
994.234	185.59
997.609	136.637
1000.98	107.995
1004.36	64.1011
1007.73	37.9331
1011.11	18.9834
1014.48	15.1704
1017.86	1.87939
1021.23	8.71094
1024.61	4.24609
1027.98	5.86963
1031.36	1.01709
1034.73	0.819824
1038.11	15.8086
1041.48	36.812
1044.86	50.2622
1048.23	72.7319
1051.61	102.985
1054.98	147.18
1058.36	189.685
1061.73	239.186
1065.11	282.274
1068.48	312.429
1071.86	312.902
1075.23	327.804
1078.6	336.043
1081.98	349.018
1085.35	357.714
1088.73	336.564
1092.1	302.272
1095.48	259.383
1098.85	232.356
1102.23	199.005
1105.6	179.168
1108.98	162.661
1112.35	141.112
1115.73	110.431
1119.1	84.2983
1122.48	79.356
1125.85	58.0303
1129.23	34.9145
1132.6	22.0073
1135.98	22.79
1139.35	22.6885
1142.73	14.2012
1146.1	2.32031
1149.48	6.10498
1152.85	9.12109
1156.22	8.35596
1159.6	0.557129
1162.97	2.41992
1166.35	5.08643
1169.72	2.1167
1173.1	5.11768
1176.47	10.3574
1179.85	3.48926
1183.22	2.9292
1186.6	11.4727
1189.97	10.2144
1193.35	2.08398
1196.72	2.52246
1200.1	0.806152
1203.47	2.04394
1206.85	7.21143
1210.22	3.55029
1213.6	3.45703
1216.97	7.31494
1220.35	17.333
1223.72	20.9907
1227.1	10.0503
1230.47	12.2285
1233.85	16.23
1237.22	12.25
1240.6	14.9146
1243.97	16.2485
1247.35	20.2656
1250.72	23.9854
1254.1	20.6157
1257.47	18.7021
1260.85	23.2432
1264.22	6.71436
1267.59	1.19531
1270.97	12.581
1274.34	2.19434
1277.72	11.3633
1281.09	11.8774
1284.47	13.6177
1287.84	1.23535
1291.22	31.0928
1294.59	16.1162
1297.97	16.9399
1301.34	2.03418
