Measurement: Raman, 780 nm, unoriented, Raman Data Processed
Mineral: Mascagnite
Rruff sample: R141105
Ideal chemistry: (N^3-^H_4_)_2_S^6+^O_4_
Locality: Cultured biogenically in laboratory.
Source: Kenny Lloyd and Dirk Andrews
Description: White or colorless tabular, prismatic, granular, or bladed crystals, made by drying the liquid.
Raman shift (cm-1)	intensity
93.0063	0
96.3811	28.6735
99.7559	4.3905
103.131	0.269409
106.505	6.21191
109.88	10.7268
113.255	4.8562
116.63	10.1235
120.005	4.07397
123.38	4.4585
126.754	1.77698
130.129	2.07178
133.504	0.278809
136.879	2.34094
140.254	1.8822
143.629	8.88318
147.003	11.6916
150.378	14.4299
153.753	21.9763
157.128	27.0509
160.503	34.4513
163.877	38.2041
167.252	42.5476
170.627	45.6692
174.002	50.3682
177.377	52.2553
180.751	50.3856
184.126	54.6769
187.501	52.9783
190.876	50.2144
194.251	47.773
197.625	47.1018
201	37.922
204.375	29.2726
207.75	29.1251
211.125	19.9505
214.5	14.0701
217.874	12.2877
221.249	10.6227
224.624	8.10693
227.999	7.10486
231.374	4.53363
234.749	5.30536
238.123	3.92816
241.498	3.15814
244.873	0.741394
248.248	0.596252
251.623	4.02869
254.997	1.66956
258.372	0.418945
261.747	3.98474
265.122	0.97699
268.497	0.940308
271.872	1.1626
275.246	4.15381
278.621	1.19043
281.996	6.3241
285.371	2.24396
288.745	2.55444
292.12	6.15741
295.495	7.24793
298.87	1.29138
302.245	6.29767
305.62	4.63989
308.994	7.47028
312.369	5.99768
315.744	2.9975
319.119	4.42499
322.494	6.35138
325.868	4.48144
329.243	1.53772
332.618	0.239502
335.993	1.81683
339.368	4.30304
342.743	9.59106
346.117	5.80811
349.492	5.31928
352.867	2.11462
356.242	5.62842
359.617	5.72369
362.991	3.74091
366.366	7.15808
369.741	8.22351
373.116	2.55597
376.491	2.11493
379.865	0.108154
383.24	3.05316
386.615	4.34045
389.99	4.52862
393.365	2.2276
396.74	0.091675
400.114	0.42981
403.489	0.692017
406.864	1.39716
410.239	4.70392
413.614	1.27515
416.988	6.75781
420.363	10.1722
423.738	14.942
427.113	23.7614
430.488	40.1532
433.863	59.0608
437.237	91.4454
440.612	128.199
443.987	179.361
447.362	246.502
450.737	304.508
454.111	292.845
457.486	174.104
460.861	85.1777
464.236	48.1736
467.611	29.0511
470.986	23.3463
474.36	14.5173
477.735	13.2433
481.11	11.5743
484.485	6.58697
487.86	7.92981
491.234	4.57465
494.609	3.6947
497.984	1.48676
501.359	3.74902
504.734	4.45996
508.108	2.29657
511.483	5.12195
514.858	2.52472
518.233	4.37543
521.608	7.76056
524.982	2.15015
528.357	3.26965
531.732	0.692993
535.107	4.79132
538.482	0.208984
541.857	0.55719
545.231	0.949524
548.606	0.561584
551.981	0.6026
555.356	0.622498
558.731	3.82764
562.106	0.175171
565.48	1.33734
568.855	0.755371
572.23	4.72369
575.605	2.65289
578.98	2.40576
582.354	4.95197
585.729	5.47406
589.104	8.43512
592.479	11.0999
595.854	19.7133
599.229	35.0436
602.603	52.943
605.978	77.9293
609.353	128.045
612.728	193.262
616.102	195.556
619.477	153.978
622.852	111.432
626.227	103.34
629.602	64.9462
632.977	26.3223
636.351	13.0623
639.726	8.32941
643.101	4.0011
646.476	2.28082
649.851	1.03436
653.226	2.39246
656.6	1.04266
659.975	0.5224
663.35	0.411438
666.725	0.179443
670.1	3.27997
673.474	0.228333
676.849	0.61261
680.224	2.66235
683.599	0.659668
686.974	0.061829
690.348	0.266541
693.723	1.39337
697.098	4.53326
700.473	0.122803
703.848	2.87994
707.222	3.23071
710.597	5.17877
713.972	5.75861
717.347	3.22888
720.722	2.56256
724.097	2.88049
727.471	1.67371
730.846	2.5202
734.221	1.77826
737.596	5.25165
740.971	4.06952
744.346	5.33276
747.72	0.315979
751.095	2.7771
754.47	0.299011
757.845	4.03754
761.22	2.74249
764.594	3.33746
767.969	1.04773
771.344	0.497925
774.719	1.33954
778.094	0.669312
781.468	0.652466
784.843	3.93683
788.218	1.76642
791.593	4.27185
794.968	4.03729
798.342	0.904297
801.717	3.78754
805.092	6.1109
808.467	5.25671
811.842	2.48669
815.217	1.64856
818.591	1.84918
821.966	3.7019
825.341	4.35522
828.716	4.45715
832.091	4.13452
835.466	5.74811
838.84	3.94043
842.215	4.09619
845.59	3.51691
848.965	2.64185
852.34	0.444153
855.714	3.00226
859.089	0.775879
862.464	3.44208
865.839	0.961426
869.214	1.61713
872.588	1.62176
875.963	3.67578
879.338	2.38306
882.713	4.11322
886.088	2.35583
889.462	1.24548
892.837	2.41888
896.212	1.17267
899.587	2.78821
902.962	3.41235
906.337	4.08868
909.711	2.99664
913.086	0.97998
916.461	1.13275
919.836	1.55585
923.211	1.73901
926.585	0.009888
929.96	2.19818
933.335	1.16992
936.71	2.3161
940.085	3.41382
943.46	4.58179
946.834	7.48218
950.209	12.7354
953.584	17.7252
956.959	33.2492
960.334	68.8195
963.708	172.424
967.083	298.95
970.458	517.862
973.833	999.544
977.208	1595.25
980.582	621.356
983.957	175.56
987.332	74.3047
990.707	39.5609
994.082	25.8776
997.457	21.5856
1000.83	17.1194
1004.21	5.57654
1007.58	5.04925
1010.96	1.3963
1014.33	1.42645
1017.71	3.36462
1021.08	1.15536
1024.45	2.17532
1027.83	0.144989
1031.2	0.803528
1034.58	3.02445
1037.95	2.63852
1041.33	1.61716
1044.7	5.29315
1048.08	5.73886
1051.45	12.7907
1054.83	15.0933
1058.2	22.2112
1061.58	29.9482
1064.95	33.284
1068.33	32.3528
1071.7	32.393
1075.08	27.9549
1078.45	27.2463
1081.83	31.3106
1085.2	28.4152
1088.58	28.7455
1091.95	25.5476
1095.33	28.2423
1098.7	28.3873
1102.08	31.7811
1105.45	28.2628
1108.83	26.9979
1112.2	21.3942
1115.58	18.8149
1118.95	16.8108
1122.33	8.96509
1125.7	12.6328
1129.07	6.70193
1132.45	8.59625
1135.82	4.45746
1139.2	4.83469
1142.57	0.691772
1145.95	2.16852
1149.32	1.72678
1152.7	0.983826
1156.07	1.69266
1159.45	1.39111
1162.82	1.11581
1166.2	2.76431
1169.57	2.41251
1172.95	2.43698
1176.32	2.79038
1179.7	0.755432
1183.07	1.55493
1186.45	1.36935
1189.82	0.368378
1193.2	3.15329
1196.57	2.4588
1199.94	3.34354
1203.32	0.159546
1206.69	2.46384
1210.07	2.76828
1213.44	1.37326
1216.82	3.42798
1220.19	0.640259
1223.57	0.759979
1226.94	1.29001
1230.32	3.664
1233.69	3.33615
1237.07	5.69968
1240.44	2.04599
1243.82	2.95233
1247.19	0.868439
1250.57	0.883392
1253.94	12.0878
1257.32	0.884827
1260.69	2.11221
1264.07	4.60602
1267.44	2.92136
1270.82	3.49112
1274.19	1.33688
1277.57	1.1102
1280.94	4.46304
1284.32	1.87216
