Measurement: Raman, 532 nm, unoriented, Raman Data Processed
Mineral: Mascagnite
Rruff sample: R141105
Ideal chemistry: (N^3-^H_4_)_2_S^6+^O_4_
Locality: Cultured biogenically in laboratory.
Source: Kenny Lloyd and Dirk Andrews
Description: White or colorless tabular, prismatic, granular, or bladed crystals, made by drying the liquid.
Raman shift (cm-1)	intensity
89.7832	0
93.158	155.497
96.5328	149.454
99.9077	78.4253
103.282	4.20752
106.657	2.58545
110.032	79.8477
113.407	155.262
116.782	231.508
120.157	256.82
123.531	283.569
126.906	294.035
130.281	294.727
133.656	278.231
137.031	275.502
140.405	276.987
143.78	270.197
147.155	269.46
150.53	262.196
153.905	264.388
157.28	251.674
160.654	236.786
164.029	242.078
167.404	242.521
170.779	229.068
174.154	219.258
177.528	211.475
180.903	189.805
184.278	177.762
187.653	192.926
191.028	184.16
194.403	175.897
197.777	166.23
201.152	142.728
204.527	119.1
207.902	90.5312
211.277	75.9956
214.651	68.9009
218.026	66.4961
221.401	49.6763
224.776	32.9355
228.151	47.9785
231.525	0.699707
234.9	3.13672
238.275	14.6714
241.65	28.147
245.025	26.54
248.4	6.50195
251.774	10.3027
255.149	9.05322
258.524	12.186
261.899	3.34375
265.274	16.77
268.649	4.34766
272.023	18.1553
275.398	32.666
278.773	31.4932
282.148	13.7339
285.523	15.206
288.897	35.1191
292.272	23.1035
295.647	13.7529
299.022	0.146484
302.397	47.9141
305.772	6.125
309.146	30.7812
312.521	19.0195
315.896	19.2393
319.271	2.61426
322.646	9.56055
326.02	17.8965
329.395	16.7354
332.77	16.5508
336.145	25.4082
339.52	33.3897
342.894	36.875
346.269	30.5361
349.644	18.0449
353.019	15.6934
356.394	15.8867
359.769	25.9697
363.143	51.7666
366.518	38.9316
369.893	25.8438
373.268	7.83398
376.643	28.751
380.017	34.752
383.392	46.6338
386.767	43.8994
390.142	17.2314
393.517	13.9443
396.892	1.96191
400.266	20.2627
403.641	35.0225
407.016	31.7773
410.391	2.81934
413.766	19.4746
417.14	61.9805
420.515	91.9551
423.89	89.0127
427.265	73.1865
430.64	88.4522
434.014	133.221
437.389	202.303
440.764	335.036
444.139	483.144
447.514	675.224
450.889	827.009
454.263	761.136
457.638	461.678
461.013	222.385
464.388	157.456
467.763	91.0889
471.137	64.6572
474.512	48.2666
477.887	10.7783
481.262	14.8506
484.637	58.4209
488.012	76.1758
491.386	52.9697
494.761	35.2168
498.136	22.1396
501.511	25.0811
504.886	18.8086
508.26	15.6523
511.635	22.0078
515.01	42.2285
518.385	18.5898
521.76	22.54
525.135	21.2637
528.509	3.71777
531.884	9.11816
535.259	17.4424
538.634	1.57324
542.009	1.5918
545.384	11.2285
548.758	24.2129
552.133	16.6436
555.508	7.04199
558.883	17.0957
562.258	20.4688
565.632	23.1611
569.007	4.70215
572.382	11.3516
575.757	20.6953
579.132	18.1328
582.506	16.6602
585.881	36.9795
589.256	23.0957
592.631	25.8789
596.006	21.4971
599.381	54.9736
602.755	105.201
606.13	204.211
609.505	354.248
612.88	547.629
616.255	618.374
619.63	533.161
623.004	405.509
626.379	388.237
629.754	225.611
633.129	102.208
636.504	40.1611
639.878	30.6611
643.253	14.0264
646.628	11.8896
650.003	44.7451
653.378	22.7441
656.752	0.750977
660.127	11.8154
663.502	19.9033
666.877	21.9297
670.252	27.7598
673.626	11.4238
677.001	5.72949
680.376	1.94922
683.751	15.6133
687.126	16.6787
690.501	34.4336
693.875	16.2314
697.25	33.3369
700.625	22.8447
704	33.8945
707.375	62.5166
710.75	63.1963
714.124	65.3936
717.499	69.0215
720.874	80.0547
724.249	83.917
727.624	110.216
730.998	96.7285
734.373	94.8106
737.748	105.415
741.123	94.6064
744.498	128.779
747.872	144.449
751.247	166.81
754.622	130.393
757.997	80.8877
761.372	75.8438
764.747	73.0283
768.121	69.9092
771.496	88.9922
774.871	71.1367
778.246	57.9902
781.621	66.3144
784.995	67.8047
788.37	44.3535
791.745	33.4844
795.12	32.8291
798.495	19.5225
801.87	43.8701
805.244	62.1113
808.619	82.9756
811.994	60.6621
815.369	60.5723
818.744	75.5176
822.119	71.3799
825.493	30.2207
828.868	9.91016
832.243	8.51953
835.618	5.62891
838.993	17.9092
842.367	41.4033
845.742	45.2949
849.117	24.3174
852.492	5.70019
855.867	30.5762
859.241	55.8154
862.616	43.1279
865.991	28.1475
869.366	9.94727
872.741	53.3135
876.115	18.583
879.49	3.76465
882.865	8.47266
886.24	10.1865
889.615	30.8955
892.99	72.3379
896.364	63.7158
899.739	69.8906
903.114	51.2676
906.489	50.6475
909.864	35.7949
913.239	19.5547
916.613	56.2607
919.988	39.6885
923.363	30.3535
926.738	34.7012
930.113	11.6328
933.487	31.1484
936.862	8.28516
940.237	3.61914
943.612	35.6035
946.987	56.4102
950.361	75.1348
953.736	98.4746
957.111	101.01
960.486	190.648
963.861	521.607
967.236	1216.05
970.61	1951.13
973.985	3971.87
977.36	6088.57
980.735	2313.56
984.11	698.232
987.485	356.205
990.859	213.744
994.234	148.805
997.609	104.758
1000.98	107.426
1004.36	55.5625
1007.73	52.4473
1011.11	46.1621
1014.48	34.498
1017.86	36.2031
1021.23	19.8555
1024.61	13.5957
1027.98	26.9297
1031.36	15.1113
1034.73	9.875
1038.11	29.5508
1041.48	43.9355
1044.86	36.6543
1048.23	32.2734
1051.61	34.375
1054.98	48.8828
1058.36	36.7891
1061.73	42.4355
1065.11	87.0859
1068.48	91.4844
1071.86	72.3184
1075.23	80.9805
1078.6	79.2402
1081.98	79.2852
1085.35	104.326
1088.73	113.082
1092.1	102.941
1095.48	118.523
1098.85	116.709
1102.23	129.414
1105.6	136.647
1108.98	122.58
1112.35	142.672
1115.73	82.2969
1119.1	82.2031
1122.48	73.2852
1125.85	27.998
1129.23	3.53711
1132.6	5.64648
1135.98	0.566406
1139.35	13.2734
1142.73	24.2988
1146.1	5.55859
1149.48	3.97656
1152.85	44.3848
1156.22	73.6543
1159.6	40.873
1162.97	41.7207
1166.35	22.4824
1169.72	21.7168
1173.1	24.1348
1176.47	58.8145
1179.85	17.2617
1183.22	51.416
1186.6	71.1856
1189.97	72.375
1193.35	60.6172
1196.72	71.9746
1200.1	25.293
1203.47	32.8789
1206.85	35.4141
1210.22	68.2031
1213.6	36.3984
1216.97	24.9395
1220.35	54.9375
1223.72	23.2539
1227.1	2.73438
1230.47	3.74414
1233.85	12.0684
1237.22	7.61523
1240.6	43.1484
1243.97	36.9141
1247.35	56.8809
1250.72	74.3301
1254.1	54.0254
1257.47	79.668
1260.85	46.0723
1264.22	23.1895
1267.59	21.9766
1270.97	14.0801
1274.34	29.4883
1277.72	28.1562
1281.09	23.7129
1284.47	26.9844
1287.84	38.3945
1291.22	32.416
1294.59	58.6133
1297.97	29.3066
1301.34	5.16992
