Measurement: Raman, 780 nm, unoriented, Raman Data Processed
Mineral: Mascagnite
Rruff sample: R141117
Ideal chemistry: (N^3-^H_4_)_2_S^6+^O_4_
Locality: Ravat Saravanan, Tajikistan
Source: Kenny Lloyd and Dirk Andrews
Description: Colorless prismatic crystals
Raman shift (cm-1)	intensity
91.5599	0
94.9347	70.3734
98.3096	12.921
101.684	5.44458
105.059	0.836182
108.434	22.147
111.809	4.10925
115.184	8.11725
118.558	7.95593
121.933	0.830139
125.308	5.80017
128.683	0.952332
132.058	1.05542
135.433	0.889587
138.807	6.6142
142.182	12.167
145.557	10.8943
148.932	23.0916
152.307	34.1272
155.681	48.3921
159.056	64.3444
162.431	73.9682
165.806	85.03
169.181	89.9617
172.555	97.1442
175.93	100.116
179.305	96.8078
182.68	91.3325
186.055	90.5251
189.43	83.6518
192.804	77.271
196.179	73.1577
199.554	58.1891
202.929	52.0751
206.304	41.2371
209.678	32.0448
213.053	21.4781
216.428	14.5658
219.803	13.8387
223.178	11.912
226.553	5.37763
229.927	5.88239
233.302	5.11963
236.677	2.78674
240.052	1.34265
243.427	5.94647
246.801	5.93176
250.176	2.59479
253.551	4.64117
256.926	1.38294
260.301	3.97632
263.675	4.97827
267.05	4.46979
270.425	2.87433
273.8	2.35864
277.175	1.66827
280.55	2.56531
283.924	3.95599
287.299	2.88794
290.674	2.16003
294.049	2.50317
297.424	2.0332
300.798	0.233154
304.173	3.81995
307.548	1.37042
310.923	5.10388
314.298	2.31183
317.673	1.85608
321.047	5.867
324.422	1.8291
327.797	0.616211
331.172	0.062683
334.547	1.41235
337.921	4.98498
341.296	4.1413
344.671	3.49957
348.046	5.03332
351.421	5.77466
354.796	1.50372
358.17	5.30518
361.545	4.04517
364.92	4.96002
368.295	6.69397
371.67	4.86053
375.044	3.45544
378.419	0.282104
381.794	3.20898
385.169	5.01263
388.544	3.57965
391.918	0.418213
395.293	3.41565
398.668	1.29321
402.043	2.23425
405.418	0.011169
408.793	2.01764
412.167	0.119873
415.542	3.09583
418.917	7.97089
422.292	13.1137
425.667	22.0502
429.041	37.9379
432.416	64.326
435.791	96.3564
439.166	145.907
442.541	205.239
445.915	299.248
449.29	389.775
452.665	414.986
456.04	298.021
459.415	147.568
462.789	72.3899
466.164	43.2476
469.539	31.5652
472.914	21.6429
476.289	12.9174
479.664	12.2544
483.038	8.13916
486.413	11.8049
489.788	4.99768
493.163	4.6684
496.538	2.03784
499.913	2.95429
503.287	0.777527
506.662	1.95154
510.037	0.079956
513.412	3.03265
516.787	2.12726
520.161	2.93964
523.536	2.38953
526.911	3.15173
530.286	0.671082
533.661	3.43536
537.035	1.93726
540.41	2.14545
543.785	3.42194
547.16	1.84399
550.535	1.69519
553.909	0.347046
557.284	2.28363
560.659	2.46283
564.034	1.66229
567.409	2.38733
570.784	0.603271
574.158	0.370911
577.533	4.78766
580.908	1.90643
584.283	1.07519
587.658	7.50958
591.033	11.0508
594.407	21.6419
597.782	41.9431
601.157	68.0342
604.532	102.756
607.907	174.09
611.281	293.682
614.656	318.342
618.031	202.971
621.406	121.817
624.781	93.9286
628.155	69.8192
631.53	30.8332
634.905	14.2712
638.28	8.13837
641.655	7.55884
645.029	3.20636
648.404	4.20847
651.779	0.64267
655.154	0.862518
658.529	2.65344
661.904	0.175476
665.278	0.570068
668.653	0.085266
672.028	1.11795
675.403	0.05069
678.778	2.79279
682.153	0.030273
685.527	0.74295
688.902	3.77911
692.277	2.03537
695.652	1.10599
699.027	0.757233
702.401	1.29361
705.776	3.88376
709.151	3.00409
712.526	2.71542
715.901	3.59067
719.275	5.07993
722.65	0.91098
726.025	8.4505
729.4	0.161041
732.775	4.59128
736.149	2.11624
739.524	0.685547
742.899	2.7157
746.274	0.290131
749.649	0.955994
753.024	2.6839
756.398	0.507965
759.773	3.40561
763.148	2.00159
766.523	1.31021
769.898	0.482574
773.273	2.02023
776.647	2.3971
780.022	2.63388
783.397	1.37448
786.772	3.92603
790.146	1.74277
793.521	3.27118
796.896	4.24783
800.271	3.32831
803.646	3.18958
807.021	3.17935
810.395	2.93222
813.77	3.60596
817.145	6.03229
820.52	5.14771
823.895	2.07742
827.269	2.87802
830.644	3.39728
834.019	4.56317
837.394	2.7532
840.769	5.30844
844.144	3.90939
847.518	5.7518
850.893	2.98083
854.268	3.28012
857.643	3.54221
861.018	6.37402
864.393	2.29926
867.767	6.09757
871.142	0.262421
874.517	4.76672
877.892	5.54773
881.266	2.18253
884.641	2.06979
888.016	3.28931
891.391	2.54587
894.766	2.98315
898.141	5.68805
901.515	2.41421
904.89	4.16275
908.265	3.03543
911.64	0.888458
915.015	2.49966
918.389	2.60815
921.764	4.84866
925.139	2.01004
928.514	0.845886
931.889	0.072723
935.264	2.05222
938.638	4.13504
942.013	6.71143
945.388	7.1456
948.763	15.4675
952.138	26.2388
955.512	42.8463
958.887	81.2008
962.262	175.374
965.637	381.712
969.012	620.325
972.386	1252.43
975.761	2643.59
979.136	1755.68
982.511	474.118
985.886	166.936
989.261	84.0189
992.635	48.1212
996.01	39.0196
999.385	34.6651
1002.76	20.0613
1006.13	9.67645
1009.51	6.06851
1012.88	3.14539
1016.26	0.282074
1019.63	0.741974
1023.01	1.92499
1026.38	0.621826
1029.76	0.476471
1033.13	0.59848
1036.51	3.60394
1039.88	4.74588
1043.26	8.79401
1046.63	13.2118
1050.01	16.7065
1053.38	29.5821
1056.76	37.4026
1060.13	49.2266
1063.51	58.0846
1066.88	59.5765
1070.26	53.1675
1073.63	51.8411
1077.01	48.8152
1080.38	44.2949
1083.76	46.852
1087.13	42.3068
1090.51	38.4559
1093.88	33.4656
1097.26	32.6118
1100.63	29.0132
1104	30.9062
1107.38	29.3289
1110.75	24.0266
1114.13	17.3116
1117.5	13.3003
1120.88	12.4242
1124.25	5.97046
1127.63	5.74921
1131	6.34152
1134.38	3.45431
1137.75	4.94128
1141.13	2.8656
1144.5	0.164185
1147.88	1.74219
1151.25	0.722107
1154.63	0.745117
1158	0.705322
1161.38	1.50873
1164.75	1.82938
1168.13	1.26321
1171.5	1.41324
1174.88	0.091583
1178.25	1.05283
1181.62	2.91171
1185	1.90518
1188.38	2.43439
1191.75	1.31369
1195.12	0.628998
1198.5	2.73651
1201.87	7.33844
1205.25	3.06912
1208.62	0.391174
1212	4.05209
1215.37	2.88992
1218.75	3.01849
1222.12	1.67984
1225.5	0.737854
1228.87	3.54062
1232.25	1.83752
1235.62	3.27228
1239	2.54874
1242.37	0.520844
1245.75	1.97256
1249.12	1.07843
1252.5	1.30173
1255.87	2.35394
1259.25	0.876984
1262.62	1.14075
1265.99	3.40515
1269.37	0.405975
1272.74	3.23651
1276.12	2.8974
1279.49	0.580872
1282.87	1.65704
