Measurement: Raman, 780 nm, unoriented, Raman Data Processed
Mineral: Mascagnite
Rruff sample: R060640
Ideal chemistry: (N^3-^H_4_)_2_S^6+^O_4_
Locality: Ravat, Tajikistan
Source: Michael Scott
Description: Tan colored spheres forming a crust, associated with apjohnite
Raman shift (cm-1)	intensity
114.099	0
117.473	0.070808
120.848	0.171501
124.223	0.035187
127.598	0.258141
130.972	1.04452
134.347	0.658363
137.722	1.00056
141.097	1.86781
144.472	2.38592
147.847	1.8175
151.221	3.66177
154.596	3.15208
157.971	3.25228
161.346	1.92009
164.721	1.304
168.096	2.23646
171.47	1.50143
174.845	1.54368
178.22	1.37467
181.595	3.46905
184.97	3.78808
188.345	3.57024
191.719	2.6106
195.094	3.45167
198.469	2.31804
201.844	1.50403
205.219	1.45197
208.593	0.756653
211.968	1.33721
215.343	2.09083
218.718	1.2799
222.093	1.6456
225.468	1.4085
228.842	2.08141
232.217	1.51144
235.592	2.03977
238.967	1.30273
242.341	0.000893
245.716	0.027084
249.091	0.653656
252.466	0.454948
255.841	0.373024
259.216	0.189102
262.591	0.266304
265.965	0.056793
269.34	0.454659
272.715	0.016129
276.09	0.931587
279.464	0.596519
282.839	0.926079
286.214	0.853935
289.589	0.698769
292.964	1.3307
296.339	0.762947
299.713	1.46304
303.088	0.654655
306.463	1.40636
309.838	1.53728
313.213	2.30482
316.587	2.0369
319.962	1.77221
323.337	1.23872
326.712	1.99746
330.087	1.5958
333.462	0.116241
336.837	1.23114
340.211	1.16576
343.586	1.51755
346.961	0.450699
350.336	1.20036
353.711	0.959435
357.085	0.527206
360.46	1.05707
363.835	0.010826
367.21	0.038383
370.585	0.692085
373.959	1.0284
377.334	0.731247
380.709	0.03199
384.084	0.138901
387.459	0.442139
390.834	0.144707
394.208	0.197975
397.583	0.234978
400.958	0.299393
404.333	0.472595
407.708	0.86541
411.082	1.66295
414.457	1.61472
417.832	2.11339
421.207	2.55372
424.582	2.60885
427.957	3.20505
431.331	3.2115
434.706	3.74077
438.081	4.08726
441.456	4.39896
444.831	4.10567
448.205	3.84577
451.58	4.11118
454.955	5.46043
458.33	4.90109
461.705	5.81506
465.079	3.9948
468.454	3.23737
471.829	2.54057
475.204	2.47005
478.579	2.0709
481.954	1.32978
485.328	1.42874
488.703	0.39782
492.078	1.54664
495.453	1.2754
498.828	0.73468
502.202	0.425064
505.577	0.374191
508.952	0.526138
512.327	0.615227
515.702	0.807533
519.077	0.44268
522.451	0.073502
525.826	0.30674
529.201	1.21778
532.576	0.695152
535.951	1.04603
539.326	0.423477
542.7	0.416191
546.075	0.706535
549.45	0.376205
552.825	0.667747
556.2	0.546234
559.574	0.354454
562.949	0.579208
566.324	0.167213
569.699	0.594307
573.074	0.185539
576.448	0.337513
579.823	1.06559
583.198	1.02863
586.573	1.80103
589.948	1.12485
593.323	1.96217
596.697	2.29315
600.072	2.55381
603.447	3.91951
606.822	4.39963
610.197	5.04699
613.572	5.81888
616.946	4.41457
620.321	4.45257
623.696	4.24112
627.071	3.36523
630.446	3.01626
633.82	2.44886
637.195	2.16687
640.57	1.15445
643.945	1.2929
647.32	0.715286
650.694	0.429966
654.069	1.23117
657.444	0.584816
660.819	0.410442
664.194	0.955776
667.569	0.144398
670.943	0.085503
674.318	0.597698
677.693	0.503517
681.068	0.543552
684.443	0.073837
687.817	0.55212
691.192	1.03452
694.567	0.027512
697.942	0.159248
701.317	0.367641
704.692	0.540833
708.066	0.207687
711.441	1.31702
714.816	0.202904
718.191	0.472961
721.566	0.612694
724.941	1.07925
728.315	1.92746
731.69	1.98196
735.065	0.497169
738.44	1.13777
741.815	1.32871
745.189	0.533756
748.564	0.464272
751.939	1.2321
755.314	0.117023
758.689	0.404556
762.063	0.763729
765.438	0.268044
768.813	0.647381
772.188	0.911568
775.563	0.86676
778.938	0.695103
782.312	1.33956
785.687	0.584137
789.062	0.871227
792.437	1.49124
795.812	0.775021
799.187	0.627373
802.561	1.14807
805.936	0.752991
809.311	0.713844
812.686	0.544933
816.061	0.040325
819.435	0.786961
822.81	1.10848
826.185	0.254902
829.56	0.580544
832.935	0.20586
836.309	1.44954
839.684	0.898697
843.059	0.821781
846.434	0.893894
849.809	1.9889
853.184	0.753433
856.558	1.16992
859.933	1.04697
863.308	1.01259
866.683	0.658112
870.058	1.60216
873.433	0.7827
876.807	1.16087
880.182	0.685364
883.557	0.748684
886.932	1.14463
890.307	0.460579
893.681	0.360531
897.056	0.441719
900.431	0.450798
903.806	0.411472
907.181	0.487938
910.556	0.482586
913.93	0.301525
917.305	0.812492
920.68	0.614376
924.055	0.088848
927.43	0.43499
930.804	0.204792
934.179	0.322189
937.554	0.519661
940.929	0.657047
944.304	0.617214
947.678	0.56813
951.053	1.20803
954.428	1.57449
957.803	1.62976
961.178	2.09508
964.553	3.03976
967.927	4.09217
971.302	7.12196
974.677	9.80229
978.052	13.01
981.427	18.4944
984.802	28.2664
988.176	51.4479
991.551	39.0395
994.926	17.353
998.301	8.75785
1001.68	5.3645
1005.05	2.52345
1008.42	1.9381
1011.8	0.962643
1015.17	0.775158
1018.55	0.591984
1021.92	0.626457
1025.3	0.825066
1028.67	0.438053
1032.05	0.160858
1035.42	0.097435
1038.8	0.56884
1042.17	0.434662
1045.55	0.985081
1048.92	0.436928
1052.3	0.401897
1055.67	0.223789
1059.05	0.94978
1062.42	0.766384
1065.8	0.484222
1069.17	0.479259
1072.55	0.438267
1075.92	0.467628
1079.3	1.25725
1082.67	0.860493
1086.05	0.587212
1089.42	0.104355
1092.8	1.54892
1096.17	0.540356
1099.55	0.95158
1102.92	0.939137
1106.3	0.606033
1109.67	0.335892
1113.05	1.1286
1116.42	0.719246
1119.79	0.954258
1123.17	0.834553
1126.54	2.05452
1129.92	1.69351
1133.29	2.30236
1136.67	1.99595
1140.04	1.14052
1143.42	0.666985
1146.79	0.603973
1150.17	0.871761
1153.54	0.448212
1156.92	0.166195
1160.29	0.646938
1163.67	0.067932
1167.04	0.237064
1170.42	0.568001
1173.79	0.712479
1177.17	0.394459
1180.54	0.184082
1183.92	0.650898
1187.29	1.28815
1190.66	1.01899
1194.04	0.260399
1197.41	0.284599
1200.79	0.72485
1204.16	0.450504
1207.54	0.746479
1210.91	0.452183
1214.29	0.766891
1217.66	1.04573
1221.04	0.382347
1224.41	0.52813
1227.79	0.162971
1231.16	0.174965
1234.54	0.895821
1237.91	0.784962
1241.29	1.04879
1244.66	0.579674
1248.04	1.05086
1251.41	1.07109
1254.79	0.609779
1258.16	0.010498
1261.54	0.976482
1264.91	1.12426
1268.29	0.895916
1271.66	0.981228
1275.04	0.773338
1278.41	0.015137
1281.79	0.106865
