Measurement: Raman, 780 nm, unoriented, Raman Data Processed
Mineral: Massicot
Rruff sample: R060454
Ideal chemistry: Pb^2+^O
Locality: Arenas, Sardinia, Italy
Source: Michael Scott
Description: Tan colored earthy massive
Raman shift (cm-1)	intensity
110.724	0
114.099	35.1426
117.473	163.025
120.848	356.547
124.223	462.945
127.598	501.098
130.972	455.411
134.347	325.124
137.722	156.136
141.097	45.0054
144.472	0.403809
147.847	20.8296
151.221	6.55664
154.596	15.0654
157.971	24.314
161.346	79.6269
164.721	86.083
168.096	104.278
171.47	118.936
174.845	138.288
178.22	146.459
181.595	160.336
184.97	156.848
188.345	148.831
191.719	145.193
195.094	140.025
198.469	140.678
201.844	135.035
205.219	110.55
208.593	81.8025
211.968	75.4714
215.343	64.7185
218.718	50.971
222.093	49.3489
225.468	34.4031
228.842	43.9277
232.217	39.9775
235.592	48.8281
238.967	31.6997
242.341	11.1431
245.716	19.4429
249.091	2.93799
252.466	15.54
255.841	23.5161
259.216	13.3008
262.591	13.956
265.965	12.8765
269.34	26.9482
272.715	15.1211
276.09	11.1167
279.464	9.54346
282.839	11.1372
286.214	96.1416
289.589	133.782
292.964	190.969
296.339	235.004
299.713	277.731
303.088	376.512
306.463	449.187
309.838	500.818
313.213	555.352
316.587	513.319
319.962	502.281
323.337	485.404
326.712	467.982
330.087	472.252
333.462	481.241
336.837	450.275
340.211	458.375
343.586	459.086
346.961	467.199
350.336	459.401
353.711	499.162
357.085	490.152
360.46	527.055
363.835	585.142
367.21	660.012
370.585	647.424
373.959	668.296
377.334	660.582
380.709	674.057
384.084	702.803
387.459	717.165
390.834	787.807
394.208	736.894
397.583	734.072
400.958	721.302
404.333	680.425
407.708	652.164
411.082	615.055
414.457	549.751
417.832	530.002
421.207	465.695
424.582	387.62
427.957	349.908
431.331	285.004
434.706	235.958
438.081	181.522
441.456	136.616
444.831	95.1299
448.205	47.1812
451.58	23.0073
454.955	1.62158
458.33	7.76318
461.705	9.08105
465.079	32.0576
468.454	24.0298
471.829	22.5659
475.204	30.2471
478.579	10.2095
481.954	7.91113
485.328	12.2344
488.703	52.3965
492.078	90.3584
495.453	123.296
498.828	171.208
502.202	193.421
505.577	217.944
508.952	229.047
512.327	232.975
515.702	172.738
519.077	150.223
522.451	93.5815
525.826	78.4419
529.201	29.0933
532.576	7.23682
535.951	18.9238
539.326	0.838379
542.7	16.7178
546.075	10.3301
549.45	40.8052
552.825	52.2485
556.2	71.2588
559.574	61.0698
562.949	63.9775
566.324	65.2578
569.699	76.2598
573.074	79.7998
576.448	99.4746
579.823	109.912
583.198	137.748
586.573	123.466
589.948	118.002
593.323	132.291
596.697	126.861
600.072	145.996
603.447	121.14
606.822	133.144
610.197	131.55
613.572	149.119
616.946	154.44
620.321	167.009
623.696	175.044
627.071	183.312
630.446	197.529
633.82	184.315
637.195	177.898
640.57	174.059
643.945	155.148
647.32	159.917
650.694	136.123
654.069	153.607
657.444	147.761
660.819	137.841
664.194	125.955
667.569	115.482
670.943	110.744
674.318	94.2366
677.693	103.012
681.068	116.029
684.443	108.061
687.817	88.0886
691.192	58.3987
694.567	39.928
697.942	58.3777
701.317	35.1987
704.692	33.2207
708.066	27.5181
711.441	19.9006
714.816	3.15161
718.191	9.59985
721.566	6.85132
724.941	5.89502
728.315	10.6404
731.69	4.4978
735.065	15.1887
738.44	20.4287
741.815	9.04712
745.189	8.05078
748.564	23.5361
751.939	23.7305
755.314	52.6162
758.689	91.5981
762.063	89.012
765.438	86.814
768.813	78.2371
772.188	77.1882
775.563	95.3926
778.938	122.082
782.312	178.694
785.687	241.362
789.062	358.294
792.437	519.548
795.812	763.234
799.187	1105.87
802.561	1480.53
805.936	1560.93
809.311	1369.57
812.686	1006.62
816.061	661
819.435	437.316
822.81	278.915
826.185	193.694
829.56	132.177
832.935	104.962
836.309	88.1231
839.684	80.7825
843.059	75.1213
846.434	63.8049
849.809	51.8225
853.184	32.2402
856.558	23.9829
859.933	33.1011
863.308	18.8616
866.683	15.9331
870.058	18.2532
873.433	3.42285
876.807	2.33569
880.182	19.1899
883.557	10.7288
886.932	5.19482
890.307	5.35181
893.681	8.00122
897.056	5.79907
900.431	4.15503
903.806	1.52564
907.181	9.5166
910.556	13.678
913.93	18.417
917.305	7.18604
920.68	12.3257
924.055	5.22949
927.43	12.2402
930.804	17.1982
934.179	18.8784
937.554	17.9038
940.929	20.2185
944.304	15.0354
947.678	21.6352
951.053	24.6326
954.428	15.3521
957.803	26.5171
961.178	26.3535
964.553	37.3108
967.927	50.406
971.302	50.8357
974.677	36.4143
978.052	44.502
981.427	33.342
984.802	22.9453
988.176	21.2507
991.551	20.4412
994.926	17.2749
998.301	7.65649
1001.68	5.0813
1005.05	3.92944
1008.42	0.024658
1011.8	15.1133
1015.17	7.53149
1018.55	5.79224
1021.92	0.014404
1025.3	8.94849
1028.67	0.79541
1032.05	2.96655
1035.42	4.77783
1038.8	10.4912
1042.17	12.5544
1045.55	14.4485
1048.92	3.06201
1052.3	22.6484
1055.67	26.2166
1059.05	18.5425
1062.42	18.4719
1065.8	4.73169
1069.17	10.1912
1072.55	8.42041
1075.92	8.55591
1079.3	20.6081
1082.67	7.92944
1086.05	5.9751
1089.42	9.46851
1092.8	1.14209
1096.17	7.896
1099.55	16.8748
1102.92	2.50635
1106.3	4.54102
1109.67	1.22803
1113.05	9.11255
1116.42	4.21631
1119.79	12.8977
1123.17	15.4355
1126.54	14.8848
1129.92	17.7576
1133.29	24.9988
1136.67	32.0515
1140.04	36.0911
1143.42	41.9221
1146.79	43.863
1150.17	55.8411
1153.54	55.8237
1156.92	65.4846
1160.29	63.2114
1163.67	55.0374
1167.04	71.3865
1170.42	80.2876
1173.79	82.5876
1177.17	81.343
1180.54	83.9712
1183.92	69.3198
1187.29	74.9307
1190.66	57.5503
1194.04	65.8406
1197.41	50.1211
1200.79	40.8286
1204.16	35.7036
1207.54	32.9395
1210.91	22.8477
1214.29	11.0352
1217.66	1.39746
1221.04	3.08545
1224.41	1.31494
1227.79	14.9067
1231.16	6.62891
1234.54	41.6807
1237.91	48.1797
1241.29	78.9385
1244.66	96.5884
1248.04	96.6528
1251.41	93.7588
1254.79	79.0518
1258.16	65.0581
1261.54	79.25
1264.91	89.8823
1268.29	60.6602
1271.66	32.5952
1275.04	34.5513
1278.41	5.00049
1281.79	0.193848
