Measurement: Raman, 532 nm, unoriented, Raman Data Processed
Mineral: Massicot
Rruff sample: R060454
Ideal chemistry: Pb^2+^O
Locality: Arenas, Sardinia, Italy
Source: Michael Scott
Description: Tan colored earthy massive
Raman shift (cm-1)	intensity
155.151	0
158.044	9.21387
160.936	12.4385
163.829	29.9941
166.722	28.0137
169.614	43.4004
172.507	69.5147
175.4	98.2549
178.293	80.6826
181.185	82.7188
184.078	89.9414
186.971	79.5322
189.863	99.2891
192.756	140.917
195.649	145.685
198.542	140.277
201.434	74.2383
204.327	35.8389
207.22	18.7588
210.112	51.7451
213.005	54.5684
215.898	67.0898
218.79	5.99805
221.683	4.61719
224.576	24.9395
227.469	11.5508
230.361	17.8496
233.254	10.8525
236.147	7.24805
239.039	7.55078
241.932	9.27148
244.825	28.8291
247.717	51.0342
250.61	79.1377
253.503	66.4072
256.396	91.4609
259.288	107.797
262.181	121.402
265.074	95.9316
267.966	85.6943
270.859	131.385
273.752	182.185
276.644	224.629
279.537	211.612
282.43	204.09
285.322	261.013
288.215	298.606
291.108	337.123
294.001	385.066
296.893	453.71
299.786	504.184
302.679	557.763
305.571	580.012
308.464	607.061
311.357	621.015
314.25	592.85
317.142	552.041
320.035	483.134
322.928	431.281
325.82	417.316
328.713	398.823
331.606	366.192
334.498	317.546
337.391	295.045
340.284	272.326
343.176	242.89
346.069	188.879
348.962	154.93
351.855	119.834
354.747	86.418
357.64	57.2402
360.533	41.2666
363.425	64.4248
366.318	118.418
369.211	119.655
372.103	85.6934
374.996	33.915
377.889	0.206055
380.782	4.74219
383.674	8.66016
386.567	42.3906
389.46	19.8838
392.352	13.1338
395.245	48.9463
398.138	55.5645
401.031	76.7705
403.923	83.3154
406.816	55.1045
409.709	61.5889
412.601	67.084
415.494	52.752
418.387	24.6885
421.279	12.8076
424.172	30.6641
427.065	4.79199
429.957	19.4482
432.85	6.28516
435.743	0.334961
438.636	20.9668
441.528	17.8408
444.421	4.19336
447.314	53.2822
450.206	51.5303
453.099	27.4473
455.992	21.7354
458.885	70.415
461.777	124.823
464.67	166.31
467.563	188.31
470.455	194.123
473.348	193.895
476.241	197.91
479.133	175.035
482.026	155.328
484.919	163.297
487.812	200.624
490.704	192.309
493.597	292.235
496.49	373.349
499.382	462.766
502.275	478.904
505.168	547.604
508.06	568.317
510.953	538.542
513.846	473.415
516.739	355.182
519.631	302.086
522.524	212.343
525.417	200.76
528.309	122.995
531.202	62.2764
534.095	62.3262
536.987	34.0537
539.88	41.8037
542.773	7.34668
545.665	8.19043
548.558	2.07422
551.451	11.5205
554.344	21.584
557.236	13.9463
560.129	19.1182
563.022	24.1104
565.914	0.728516
568.807	6.41406
571.7	10.9697
574.592	31.1055
577.485	16.3936
580.378	7.92676
583.271	18.3818
586.163	19.8984
589.056	47.6514
591.949	19.8701
594.841	18.1035
597.734	46.626
600.627	26.4336
603.519	17.0811
606.412	50.9004
609.305	60.6728
612.198	123.559
615.09	131.216
617.983	135.919
620.876	125.796
623.768	126.334
626.661	115.588
629.554	100.45
632.447	89.2939
635.339	89.8652
638.232	96.5996
641.125	93.1856
644.017	82.0234
646.91	71.8428
649.803	87.3467
652.695	82.3662
655.588	74.0029
658.481	51.0156
661.374	52.2705
664.266	32.627
667.159	62.708
670.052	84.1494
672.944	113.122
675.837	47.5156
678.73	9.45312
681.622	40.8691
684.515	71.6777
687.408	62.5879
690.301	43.1728
693.193	29.2197
696.086	18.3633
698.979	16.3682
701.871	19.7734
704.764	11.1445
707.657	8.18555
710.549	40.3535
713.442	24.0791
716.335	8.48145
719.227	0.46582
722.12	0.503906
725.013	27.6523
727.906	0.308594
730.798	2.33398
733.691	65.5977
736.584	97.0576
739.476	73.1641
742.369	53.2148
745.262	50.0918
748.154	60.1377
751.047	115.502
753.94	181.041
756.833	250.589
759.725	289.188
762.618	296.199
765.511	274.518
768.403	254.957
771.296	230.759
774.189	214.042
777.082	252.897
779.974	314.904
782.867	387.571
785.76	461.087
788.652	573.303
791.545	752.837
794.438	1041.4
797.33	1482.47
800.223	2051.14
803.116	2644.41
806.009	3056.71
808.901	3015.01
811.794	2696.4
814.687	2116.76
817.579	1459.56
820.472	1034.56
823.365	686.3
826.257	510.247
829.15	391.41
832.043	349.965
834.936	318.816
837.828	276.175
840.721	251.627
843.614	243.998
846.506	178.182
849.399	105.314
852.292	110.853
855.184	114.314
858.077	99.2666
860.97	64.0478
863.863	67.7871
866.755	53.7842
869.648	59.7793
872.541	5.07324
875.433	17.5908
878.326	6.45312
881.219	27.5947
884.111	2.54004
887.004	51.9639
889.897	44.5664
892.79	11.8174
895.682	8.48926
898.575	10.6885
901.468	6.58106
904.36	52.7168
907.253	34.2139
910.146	28.7178
913.038	18.9141
915.931	28.8848
918.824	44.3076
921.717	26.0557
924.609	5.28516
927.502	3.76562
930.395	19.4082
933.287	18.5752
936.18	53.8828
939.073	23.5234
941.966	35.5898
944.858	54.7764
947.751	36.2168
950.644	34.6758
953.536	11.1504
956.429	17.6562
959.322	53.8965
962.214	91.4971
965.107	80.3428
968	91.168
970.893	122.26
973.785	143.673
976.678	194.716
979.571	131.667
982.463	81.2041
985.356	59.9639
988.249	60.8516
991.141	64.8389
994.034	63.3799
996.927	70.9551
999.819	52.8272
1002.71	40.9648
1005.61	74.0566
1008.5	66.1572
1011.39	48.2598
1014.28	23.8232
1017.18	17.5469
1020.07	2.31152
1022.96	8.95898
1025.85	36.582
1028.75	55.6357
1031.64	29.8545
1034.53	80.4619
1037.42	56.9639
1040.32	33.9346
1043.21	27.4795
1046.1	0.692383
1048.99	1.97266
1051.89	37.8389
1054.78	68.2686
1057.67	86.5439
1060.57	98.3213
1063.46	67.0625
1066.35	43.2041
1069.24	83.1133
1072.14	66.793
1075.03	74.0449
1077.92	84.8086
1080.82	70.8672
1083.71	72.5215
1086.6	82.0195
1089.49	49.4922
1092.39	47.3447
1095.28	16.2969
1098.17	89.71
1101.06	89.2227
1103.96	99.8721
1106.85	56.9922
1109.74	22.4785
1112.63	37.2432
1115.53	18.8936
1118.42	75.4834
1121.31	124.191
1124.21	60.7773
1127.1	35.21
1129.99	0.508789
1132.88	41.2705
1135.78	62.0459
1138.67	81.6201
1141.56	80.6514
1144.45	82.71
1147.35	67.9228
1150.24	54.3428
1153.13	66.584
1156.03	94.5596
1158.92	73.5361
1161.81	83.3389
1164.7	80.1406
1167.6	24.4688
1170.49	57.9844
1173.38	72.1025
1176.27	112.281
1179.17	90.0195
1182.06	43.5947
1184.95	63.5537
1187.85	69.2363
1190.74	135.366
1193.63	116.517
1196.52	126.002
1199.42	111.898
1202.31	80.2939
1205.2	52.293
1208.09	36.4883
1210.99	91.7207
1213.88	93.5723
1216.77	86.2012
1219.66	90.6064
1222.56	74.582
1225.45	36.8945
1228.34	42.1172
1231.24	15.75
1234.13	14.2324
1237.02	6.37109
1239.91	70.5078
1242.81	94.3936
1245.7	108.736
1248.59	143.791
1251.48	101.779
1254.38	91.9424
1257.27	110.724
1260.16	126.807
1263.06	87.2734
1265.95	51.0283
1268.84	34.0791
1271.73	47.8848
1274.63	20.5762
1277.52	15.8223
1280.41	65.3926
1283.3	70.8496
1286.2	71.332
1289.09	29.2734
1291.98	12.6592
1294.88	80.043
1297.77	65.5078
1300.66	0
