Measurement: Raman, 532 nm, unoriented, Raman Data Processed
Mineral: Mbobomkulite
Rruff sample: R060597
Ideal chemistry: (Ni^2+^,Cu^2+^)Al_4_(N^5+^O_3_,S^6+^O_4_)_2_(OH)_12_3H_2_O
Locality: Jomac mine, San Juan County, Utah, USA
Source: Michael Scott
Raman shift (cm-1)	intensity
126.706	0
130.081	1.37732
133.456	2.83362
136.831	5.20833
140.205	8.3472
143.58	7.97274
146.955	5.46221
150.33	1.51577
153.705	0.358589
157.079	0.117706
160.454	0.2794
163.829	1.7397
167.204	1.95083
170.579	3.58982
173.953	5.82825
177.328	10.6745
180.703	9.16211
184.078	3.36287
187.453	0.159306
190.828	0.017536
194.202	0.618641
197.577	0.101589
200.952	0.674309
204.327	0.863796
207.702	1.39694
211.077	1.79645
214.451	2.87864
217.826	2.99066
221.201	3.72442
224.576	4.66309
227.951	7.03427
231.325	8.91407
234.7	11.832
238.075	15.039
241.45	18.5357
244.825	21.3369
248.2	23.2787
251.574	21.3182
254.949	18.6258
258.324	14.8983
261.699	12.1447
265.074	9.03066
268.448	6.99913
271.823	6.99679
275.198	5.92668
278.573	4.49557
281.948	2.50381
285.322	0.893147
288.697	0.990322
292.072	1.2978
295.447	0.595501
298.822	0.86219
302.197	0.120609
305.571	0.745331
308.946	0.785843
312.321	1.4301
315.696	1.44357
319.071	0.387409
322.445	0.88456
325.82	0.76289
329.195	1.29467
332.57	1.23741
335.945	0.548824
339.32	0.802895
342.694	0.679516
346.069	0.830009
349.444	0.719486
352.819	0.471882
356.194	0.346115
359.568	0.663464
362.943	0.974113
366.318	0.687469
369.693	0.732811
373.068	0.419468
376.442	0.155106
379.817	0.95512
383.192	1.98786
386.567	4.15982
389.942	4.9885
393.317	5.60738
396.691	7.1408
400.066	11.5203
403.441	15.8016
406.816	20.5914
410.191	23.5092
413.565	25.4784
416.94	23.4763
420.315	19.336
423.69	13.6357
427.065	10.6812
430.44	9.26088
433.814	11.7088
437.189	15.0274
440.564	20.034
443.939	25.7201
447.314	33.2136
450.688	37.9532
454.063	36.9162
457.438	32.253
460.813	25.692
464.188	19.6315
467.563	15.1079
470.937	11.8495
474.312	9.36837
477.687	7.72142
481.062	6.61244
484.437	7.50637
487.812	9.43887
491.186	12.0873
494.561	14.3184
497.936	15.625
501.311	14.5985
504.686	11.8752
508.06	7.98795
511.435	5.80273
514.81	3.26833
518.185	1.73018
521.56	1.43317
524.934	1.57379
528.309	1.09616
531.684	0.928226
535.059	0.254936
538.434	0.252277
541.809	0.162762
545.183	0.732742
548.558	0.140842
551.933	0.665073
555.308	0.259312
558.683	0.472721
562.058	0.578342
565.432	0.56171
568.807	0.591621
572.182	1.72354
575.557	2.21298
578.932	2.49049
582.306	2.53695
585.681	4.08642
589.056	5.01964
592.431	6.04591
595.806	8.81822
599.181	12.1679
602.555	13.4213
605.93	14.4875
609.305	14.7626
612.68	15.2115
616.055	17.9232
619.429	20.9314
622.804	22.1314
626.179	19.3566
629.554	14.7361
632.929	9.65384
636.303	5.32581
639.678	2.78445
643.053	1.47467
646.428	0.573135
649.803	0.454082
653.178	0.889332
656.552	0.346714
659.927	0.275185
663.302	0.466385
666.677	0.853733
670.052	0.840168
673.427	0.665726
676.801	0.518158
680.176	0.449657
683.551	0.200878
686.926	0.014938
690.301	0.108082
693.675	0.033463
697.05	0.215176
700.425	0.28931
703.8	0.772537
707.175	0.135601
710.549	0.689091
713.924	1.3219
717.299	1.32343
720.674	1.09956
724.049	2.07336
727.423	2.01621
730.798	2.44776
734.173	3.23697
737.548	2.78866
740.923	2.86863
744.298	2.27296
747.672	2.37946
751.047	2.24371
754.422	2.62093
757.797	2.81083
761.172	3.20996
764.547	2.70759
767.921	2.93589
771.296	2.94141
774.671	2.10109
778.046	1.7992
781.421	2.79656
784.795	2.15379
788.17	2.29548
791.545	2.59969
794.92	2.35939
798.295	2.74646
801.669	2.62167
805.044	3.58099
808.419	3.60424
811.794	3.76129
815.169	3.91599
818.544	3.54471
821.918	2.95107
825.293	3.08576
828.668	1.20128
832.043	1.99617
835.418	1.14731
838.793	1.26499
842.167	1.19284
845.542	0.714264
848.917	0.178064
852.292	0.519054
855.667	0.212643
859.041	0.536293
862.416	0.150881
865.791	0.440769
869.166	0.305502
872.541	0.28105
875.915	0.006809
879.29	0.408064
882.665	0.621828
886.04	0.422018
889.415	0.344532
892.79	0.213493
896.164	0.041063
899.539	0.11446
902.914	0.393003
906.289	0.147635
909.664	0.306107
913.038	0.239275
916.413	0.449589
919.788	0.488064
923.163	0.323637
926.538	0.399036
929.913	0.104967
933.287	0.153694
936.662	0.296944
940.037	0.262117
943.412	0.446705
946.787	0.693056
950.162	1.11479
953.536	1.03993
956.911	1.92724
960.286	2.32836
963.661	4.31356
967.036	6.0606
970.41	10.2253
973.785	15.0965
977.16	20.1223
980.535	24.9573
983.91	30.0296
987.284	39.9071
990.659	61.5103
994.034	110.898
997.409	165.689
1000.78	149.989
1004.16	145.077
1007.53	55.3517
1010.91	17.3254
1014.28	7.86865
1017.66	4.11051
1021.03	2.67737
1024.41	1.69394
1027.78	0.749374
1031.16	0.447578
1034.53	0.011063
1037.91	0.056871
1041.28	0.055511
1044.66	0.474768
1048.03	0.03455
1051.41	0.586596
1054.78	0.173391
1058.16	0.506048
1061.53	1.02154
1064.9	1.44057
1068.28	2.32697
1071.65	3.56497
1075.03	4.4789
1078.4	4.28493
1081.78	3.37288
1085.15	3.08822
1088.53	3.53982
1091.9	3.8839
1095.28	3.58471
1098.65	4.97218
1102.03	6.36002
1105.4	8.20948
1108.78	13.0826
1112.15	19.442
1115.53	28.5853
1118.9	39.4486
1122.28	40.0826
1125.65	32.9031
1129.03	23.6256
1132.4	17.2356
1135.78	12.3236
1139.15	8.83724
1142.53	7.09347
1145.9	5.46813
1149.28	4.64263
1152.65	2.49345
1156.03	1.97438
1159.4	2.042
1162.78	1.52505
1166.15	0.543533
1169.53	0.620197
1172.9	0.331221
1176.27	0.247057
1179.65	0.42551
1183.02	0.382277
1186.4	0.238235
1189.77	0.43487
1193.15	0.270473
1196.52	0.009657
1199.9	0.475935
1203.27	0.190521
1206.65	0.048277
1210.02	0.080936
1213.4	0.437931
1216.77	0.723656
1220.15	0.858141
1223.52	1.23575
1226.9	0.927904
1230.27	0.800943
1233.65	0.981226
1237.02	0.459597
1240.4	0.792627
1243.77	0.704777
1247.14	0.924244
1250.52	0.807228
1253.89	1.01006
1257.27	0.721066
1260.64	0.90012
1264.02	0.738607
1267.39	0.551117
1270.77	0.62224
1274.14	0.218143
1277.52	0.605562
1280.89	0.853212
1284.27	0.157887
1287.64	0.068794
1291.02	0.729704
1294.39	0.19631
1297.77	0.191795
