Measurement: Raman, 780 nm, unoriented, Raman Data Processed
Mineral: Mbobomkulite
Rruff sample: R060597
Ideal chemistry: (Ni^2+^,Cu^2+^)Al_4_(N^5+^O_3_,S^6+^O_4_)_2_(OH)_12_3H_2_O
Locality: Jomac mine, San Juan County, Utah, USA
Source: Michael Scott
Raman shift (cm-1)	intensity
147.847	0
150.739	0.370288
153.632	0.41675
156.525	0.465884
159.417	0.298708
162.31	0.888049
165.203	0.562444
168.096	0.249192
170.988	0.257296
173.881	0.93642
176.774	1.01707
179.666	0.370451
182.559	0.534083
185.452	0.147662
188.345	0.429404
191.237	0.449839
194.13	0.528838
197.023	0.65388
199.915	0.016023
202.808	0.101627
205.701	0.47709
208.593	0.19994
211.486	0.569288
214.379	0.330652
217.272	0.440269
220.164	0.468486
223.057	0.617524
225.95	0.581295
228.842	1.16965
231.735	1.05181
234.628	0.965147
237.52	1.19012
240.413	1.1272
243.306	1.34573
246.198	1.35311
249.091	0.997982
251.984	1.20234
254.877	1.03527
257.769	0.799958
260.662	0.522783
263.555	0.224717
266.447	0.457278
269.34	0.349133
272.233	0.68721
275.125	0.834147
278.018	0.406405
280.911	0.217417
283.804	0.426332
286.696	0.098535
289.589	0.631242
292.482	0.321863
295.374	0.023052
298.267	0.530389
301.16	0.308933
304.053	0.019645
306.945	0.306445
309.838	0.00995
312.731	0.273391
315.623	0.442834
318.516	0.084757
321.409	0.419577
324.301	0.416669
327.194	0.391383
330.087	0.28217
332.979	0.273489
335.872	0.429312
338.765	0.181567
341.658	0.568351
344.55	0.326214
347.443	0.362821
350.336	0.360806
353.228	0.113713
356.121	0.422358
359.014	0.166921
361.906	0.134158
364.799	0.033655
367.692	0.080919
370.585	0.450075
373.477	0.151125
376.37	0.188182
379.263	0.239945
382.155	0.237691
385.048	0.292622
387.941	0.461894
390.834	0.26668
393.726	0.022927
396.619	0.533028
399.512	0.322142
402.404	0.381453
405.297	0.689748
408.19	0.960848
411.082	0.882697
413.975	0.846142
416.868	0.528714
419.76	0.269414
422.653	0.448933
425.546	0.536595
428.439	0.470483
431.331	0.358826
434.224	0.603174
437.117	0.872347
440.01	0.865561
442.902	1.10915
445.795	1.01772
448.688	1.3969
451.58	0.956041
454.473	1.1862
457.366	0.916543
460.258	1.09856
463.151	0.857327
466.044	0.560294
468.937	0.561891
471.829	0.253616
474.722	0.424776
477.615	0.219776
480.507	0.6367
483.4	0.613114
486.293	0.730699
489.185	0.88754
492.078	0.536433
494.971	0.649902
497.863	0.315467
500.756	0.357482
503.649	0.345474
506.542	0.654863
509.434	0.165972
512.327	0.072599
515.22	0.302069
518.112	0.257249
521.005	0.36668
523.898	0.526708
526.79	0.328279
529.683	0.011428
532.576	0.215032
535.469	0.138515
538.361	0.365464
541.254	0.435753
544.147	0.101308
547.039	0.439159
549.932	0.135338
552.825	0.511068
555.717	0.203399
558.61	0.00392
561.503	0.363854
564.396	0.502901
567.288	0.04682
570.181	0.146087
573.074	0.461313
575.966	0.283381
578.859	0.093963
581.752	0.344568
584.644	0.22669
587.537	0.37947
590.43	0.405588
593.323	0.30809
596.215	1.03401
599.108	0.655578
602.001	0.670617
604.893	0.957528
607.786	0.718179
610.679	0.904729
613.572	0.742041
616.464	0.623056
619.357	0.815848
622.25	0.620967
625.142	0.620122
628.035	0.487778
630.928	0.843843
633.82	0.313174
636.713	0.481217
639.606	0.08174
642.499	0.560212
645.391	0.248441
648.284	0.074819
651.177	0.525389
654.069	0.374628
656.962	0.24419
659.855	0.332883
662.747	0.283671
665.64	0.608846
668.533	0.442707
671.426	0.620701
674.318	0.384646
677.211	0.334371
680.104	0.121608
682.996	0.268432
685.889	0.410644
688.782	0.069577
691.674	0.389324
694.567	0.258332
697.46	0.040263
700.352	0.340902
703.245	0.20353
706.138	0.626005
709.031	0.330841
711.923	0.543056
714.816	0.186169
717.709	0.034988
720.601	0.549665
723.494	0.253314
726.387	0.019154
729.279	0.178499
732.172	0.355346
735.065	0.287091
737.958	0.215831
740.85	0.616628
743.743	0.390117
746.636	0.198557
749.528	0.171211
752.421	0.562819
755.314	0.348611
758.207	0.496296
761.099	0.197621
763.992	0.192786
766.885	0.108261
769.777	0.189948
772.67	0.04282
775.563	0.475202
778.455	0.201354
781.348	0.173743
784.241	0.070136
787.134	0.145259
790.026	0.446857
792.919	0.491042
795.812	0.260213
798.704	0.221672
801.597	0.204991
804.49	0.350772
807.383	0.371361
810.275	0.029378
813.168	0.108688
816.061	0.396293
818.953	0.446058
821.846	0.294548
824.739	0.289694
827.631	0.100941
830.524	0.137347
833.417	0.21065
836.309	0.69253
839.202	0.109886
842.095	0.297808
844.988	0.307482
847.88	0.414996
850.773	0.004642
853.666	0.888181
856.558	0.623577
859.451	0.770219
862.344	0.344862
865.236	0.402944
868.129	0.60011
871.022	0.525265
873.915	0.498674
876.807	0.623903
879.7	0.576891
882.593	0.378069
885.485	0.038653
888.378	0.458728
891.271	0.565168
894.163	0.125734
897.056	0.347308
899.949	0.61512
902.842	0.834701
905.734	0.24699
908.627	0.688965
911.52	0.173309
914.412	0.260119
917.305	0.259908
920.198	0.323615
923.091	0.231969
925.983	0.581345
928.876	0.416609
931.769	0.44754
934.661	0.388986
937.554	0.275323
940.447	0.175513
943.339	0.268855
946.232	0.18497
949.125	0.239018
952.018	0.127727
954.91	0.05102
957.803	0.078366
960.696	0.212996
963.588	0.454205
966.481	0.558534
969.374	0.494459
972.266	0.560724
975.159	0.410008
978.052	0.601126
980.945	0.8526
983.837	0.804402
986.73	1.33354
989.623	1.83081
992.515	3.27325
995.408	4.14641
998.301	3.43682
1001.19	4.08654
1004.09	2.93718
1006.98	1.10289
1009.87	0.062136
1012.76	0.094493
1015.66	0.099821
1018.55	0.522398
1021.44	0.267861
1024.34	0.498398
1027.23	0.35962
1030.12	0.501602
1033.01	0.002411
1035.91	0.444078
1038.8	0.42823
1041.69	0.114805
1044.58	0.02421
1047.48	0.061987
1050.37	0.078843
1053.26	0.342208
1056.15	0.218451
1059.05	0.065955
1061.94	0.54139
1064.83	0.421693
1067.73	0.060218
1070.62	0.243006
1073.51	0.575051
1076.4	0.799242
1079.3	0.41842
1082.19	0.292329
1085.08	0.011593
1087.97	0.000858
1090.87	0.493114
1093.76	0.078086
1096.65	0.416047
1099.55	0.148969
1102.44	0.195768
1105.33	0.804797
1108.22	0.502361
1111.12	0.712622
1114.01	1.28839
1116.9	1.33713
1119.79	1.45524
1122.69	1.25481
1125.58	0.734371
1128.47	0.815953
1131.37	0.448491
1134.26	0.123749
1137.15	0.809722
1140.04	0.685108
1142.94	0.635755
1145.83	0.743014
1148.72	0.327721
1151.61	0.445563
1154.51	0.070589
1157.4	0.13837
1160.29	0.571893
1163.18	0.430313
1166.08	0.337572
1168.97	0.323932
1171.86	0.314884
1174.76	0.587945
1177.65	0.1211
1180.54	0.359697
1183.43	0.118141
1186.33	0.340082
1189.22	0.075192
1192.11	0.279307
1195	0.098058
1197.9	0.202648
1200.79	0.366268
1203.68	0.437002
1206.58	0.124091
1209.47	0.294702
1212.36	0.308858
1215.25	0.440162
1218.15	0.557688
1221.04	0.396708
1223.93	0.161157
1226.82	0.407838
1229.72	0.284976
1232.61	0.517538
1235.5	0.783415
1238.39	0.571601
1241.29	0.455868
1244.18	0.74852
1247.07	0.31114
1249.97	0.463423
1252.86	0.649102
1255.75	0.513122
1258.64	0.66327
1261.54	0.587107
1264.43	0.459643
1267.32	0.743902
1270.21	0.344617
1273.11	0.518127
1276	0.013818
1278.89	0.769832
1281.79	0.16202
