Measurement: Raman, 780 nm, unoriented, Raman Data RAW
Mineral: Melanophlogite
Rruff sample: R110071
Ideal chemistry: C_2_H_17_O_5_Si_46_O_92_
Locality: Giona mine, Milena, Caltanissetta Province, Sicily, Italy
Source: Renato & Adriana Pagano
Description: Yellowish-brown cubes
Raman shift (cm-1)	intensity
103.174	225321
106.549	226510
109.924	227377
113.299	228261
116.674	229886
120.048	230307
123.423	231039
126.798	231602
130.173	232313
133.548	232611
136.923	233163
140.297	234159
143.672	234406
147.047	235482
150.422	235795
153.797	236491
157.171	237197
160.546	237814
163.921	238160
167.296	238236
170.671	238241
174.046	238088
177.42	238415
180.795	238772
184.17	238925
187.545	238840
190.92	239252
194.294	239525
197.669	239519
201.044	239308
204.419	239394
207.794	239822
211.168	239670
214.543	239907
217.918	239934
221.293	239880
224.668	239891
228.042	239693
231.417	239662
234.792	239747
238.167	238962
241.542	238974
244.917	239138
248.291	239037
251.666	238536
255.041	238301
258.416	238732
261.791	238674
265.166	238739
268.54	238795
271.915	238124
275.29	238068
278.665	238079
282.04	238413
285.414	237890
288.789	237676
292.164	237336
295.539	237133
298.914	236966
302.288	236659
305.663	235869
309.038	235779
312.413	235568
315.788	235507
319.163	235042
322.537	234523
325.912	233521
329.287	233809
332.662	233329
336.037	233378
339.411	232932
342.786	232635
346.161	232561
349.536	232333
352.911	231533
356.286	231805
359.66	231174
363.035	230537
366.41	229866
369.785	230492
373.16	229113
376.534	228563
379.909	228162
383.284	227723
386.659	227394
390.034	226973
393.409	225995
396.783	225817
400.158	225452
403.533	225161
406.908	225012
410.283	224046
413.658	223695
417.032	223388
420.407	223124
423.782	222812
427.157	222189
430.532	221724
433.906	221585
437.281	220784
440.656	220339
444.031	220462
447.406	219590
450.781	218952
454.155	218214
457.53	218131
460.905	217735
464.28	216942
467.654	216398
471.029	215849
474.404	215295
477.779	214470
481.154	213708
484.529	213300
487.903	212550
491.278	212018
494.653	211346
498.028	210872
501.403	210069
504.777	209469
508.152	208990
511.527	208324
514.902	207414
518.277	206745
521.652	205811
525.026	205342
528.401	204139
531.776	204084
535.151	203614
538.526	202990
541.9	202255
545.275	201595
548.65	201126
552.025	201008
555.4	199914
558.775	199694
562.149	198945
565.524	198224
568.899	197972
572.274	197474
575.649	196861
579.024	196302
582.398	195972
585.773	195485
589.148	194914
592.523	194660
595.898	194238
599.272	193412
602.647	192893
606.022	192675
609.397	191764
612.772	191472
616.146	191263
619.521	190259
622.896	189844
626.271	189625
629.646	188963
633.021	188372
636.395	187724
639.77	187365
643.145	186980
646.52	186319
649.895	185627
653.269	185166
656.644	184616
660.019	184318
663.394	182979
666.769	182691
670.144	182283
673.518	181533
676.893	180914
680.268	180725
683.643	179720
687.018	179288
690.393	178499
693.767	178050
697.142	177505
700.517	177191
703.892	176717
707.266	176306
710.641	175967
714.016	174973
717.391	174243
720.766	174579
724.141	173679
727.515	173332
730.89	173266
734.265	172368
737.64	171556
741.015	171040
744.389	170455
747.764	169877
751.139	169745
754.514	168835
757.889	168553
761.264	168147
764.638	167380
768.013	166587
771.388	166286
774.763	165860
778.138	165704
781.513	165321
784.887	164732
788.262	164111
791.637	163989
795.012	163879
798.387	163130
801.761	162448
805.136	162091
808.511	161831
811.886	161382
815.261	160856
818.635	160558
822.01	160160
825.385	159845
828.76	159416
832.135	158952
835.51	158726
838.884	158247
842.259	157702
845.634	156874
849.009	156462
852.384	156166
855.759	155790
859.133	155316
862.508	154973
865.883	154277
869.258	154048
872.633	153605
876.007	153256
879.382	152486
882.757	152126
886.132	151616
889.507	151094
892.881	150892
896.256	150059
899.631	149688
903.006	149286
906.381	148914
909.756	149006
913.13	148524
916.505	148027
919.88	147888
923.255	147498
926.63	146662
930.005	146684
933.379	146175
936.754	145828
940.129	145692
943.504	145108
946.879	144515
950.253	144640
953.628	144400
957.003	144136
960.378	143917
963.753	142823
967.127	142827
970.502	142223
973.877	141786
977.252	141537
980.627	141426
984.001	141359
987.376	140780
990.751	140736
994.126	140443
997.501	139942
1000.88	139750
1004.25	139326
1007.62	139229
1011	138948
1014.38	139050
1017.75	138408
1021.12	138324
1024.5	137572
1027.87	137622
1031.25	137376
1034.62	137142
1038	136916
1041.37	136539
1044.75	136054
1048.12	135456
1051.5	135529
1054.87	135522
1058.25	134834
1061.62	135131
1065	134486
1068.37	134148
1071.75	133866
1075.12	133674
1078.5	133462
1081.87	132557
1085.25	132557
1088.62	132229
1092	132002
1095.37	131856
1098.74	131237
1102.12	130918
1105.49	130775
1108.87	130639
1112.24	130228
1115.62	129600
1118.99	129316
1122.37	129489
1125.74	129032
1129.12	129121
1132.49	129040
1135.87	128960
1139.24	128434
1142.62	128463
1145.99	128335
1149.37	128215
1152.74	128034
1156.12	127762
1159.49	127785
1162.87	127541
1166.24	127310
1169.62	127348
1172.99	127335
1176.37	126954
1179.74	126851
1183.12	126446
1186.49	126532
1189.87	126686
1193.24	126123
1196.62	126266
1199.99	125619
1203.37	125514
1206.74	125226
1210.11	125096
1213.49	125008
1216.86	124709
1220.24	124472
1223.61	124117
1226.99	124080
1230.36	123787
1233.74	123907
1237.11	123610
1240.49	123035
1243.86	123068
1247.24	123239
1250.61	122713
1253.99	122519
1257.36	122639
1260.74	122610
1264.11	122384
1267.49	122660
1270.86	122262
1274.24	122218
1277.61	122277
1280.98	122088
1284.36	122498
