Measurement: Raman, 532 nm, unoriented, Raman Data RAW
Mineral: Melanophlogite
Rruff sample: R110071
Ideal chemistry: C_2_H_17_O_5_Si_46_O_92_
Locality: Giona mine, Milena, Caltanissetta Province, Sicily, Italy
Source: Renato & Adriana Pagano
Description: Yellowish-brown cubes
Raman shift (cm-1)	intensity
90.0101	0
93.3849	33.433
96.7597	35.9908
100.135	38.2683
103.509	38.7146
106.884	38.9565
110.259	39.6509
113.634	38.7287
117.009	38.5616
120.383	40.882
123.758	38.5222
127.133	41.7602
130.508	41.961
133.883	40.1483
137.257	41.395
140.632	40.3132
144.007	43.1786
147.382	41.2116
150.757	46.3501
154.132	54.4726
157.506	75.4808
160.881	116.9
164.256	180.643
167.631	244.117
171.006	280.413
174.381	328.551
177.755	395.691
181.13	441.885
184.505	480.246
187.88	499.433
191.255	516.437
194.629	529.43
198.004	548.806
201.379	566.543
204.754	577.125
208.129	588.42
211.504	591.539
214.878	600.098
218.253	602.357
221.628	614.323
225.003	613.643
228.377	623.44
231.752	623.62
235.127	629.712
238.502	627.594
241.877	632.408
245.252	631.348
248.626	638.008
252.001	639.056
255.376	642.154
258.751	648.542
262.126	648.413
265.5	653.022
268.875	655.003
272.25	657.261
275.625	661.974
279	669.441
282.375	666.349
285.75	660.024
289.124	666.88
292.499	666.185
295.874	668.625
299.249	674.995
302.623	679.771
305.998	681.198
309.373	683.578
312.748	687.516
316.123	685.901
319.498	686.834
322.872	691.089
326.247	690.027
329.622	695.443
332.997	695.509
336.372	701.452
339.747	704.285
343.121	705.895
346.496	705.122
349.871	705.61
353.246	713.053
356.621	718.317
359.995	716.771
363.37	721.008
366.745	722.484
370.12	725.461
373.495	724.771
376.87	726.304
380.244	726.249
383.619	735.646
386.994	734.754
390.369	733.553
393.744	736.446
397.118	740.555
400.493	742.734
403.868	743.429
407.243	746.188
410.618	749.228
413.993	756.755
417.367	754.407
420.742	754.933
424.117	751.145
427.492	756.991
430.866	762.686
434.241	761.624
437.616	764.221
440.991	765.501
444.366	770.864
447.741	771.286
451.115	773.465
454.49	774.851
457.865	778.528
461.24	778.861
464.615	782.144
467.99	782.207
471.364	784.387
474.739	787.469
478.114	787.841
481.489	791.105
484.864	793.443
488.238	791.669
491.613	794.245
494.988	798.423
498.363	801.124
501.738	802.108
505.113	801.325
508.487	806.91
511.862	806.726
515.237	807.733
518.612	809.292
521.987	811.985
525.361	815.972
528.736	817.984
532.111	817.813
535.486	818.711
538.861	819.438
542.236	821.896
545.61	820.418
548.985	826.353
552.36	825.011
555.735	830.441
559.11	828.795
562.484	829.225
565.859	830.94
569.234	826.561
572.609	829.672
575.984	831.434
579.359	836.987
582.733	842.086
586.108	840.137
589.483	842.063
592.858	846.334
596.232	843.053
599.607	846.981
602.982	848.647
606.357	845.694
609.732	850.209
613.107	848.38
616.481	850.5
619.856	846.305
623.231	851.999
626.606	852.071
629.981	852.801
633.356	856.993
636.73	858.411
640.105	860.731
643.48	860.496
646.855	862.712
650.23	864.806
653.604	868.628
656.979	870.822
660.354	872.784
663.729	871.404
667.104	875.85
670.479	875.678
673.853	888.511
677.228	879.178
680.603	880.975
683.978	885.932
687.353	888.613
690.727	887.833
694.102	893.141
697.477	897.063
700.852	895.114
704.227	891.173
707.601	896.332
710.976	897.056
714.351	900.029
717.726	899.237
721.101	900.181
724.476	905.768
727.85	911.969
731.225	908.899
734.6	910.497
737.975	912.431
741.35	908.173
744.725	911.65
748.099	911.395
751.474	917.732
754.849	924.858
758.224	924.792
761.599	925.053
764.973	921.714
768.348	927.096
771.723	925.755
775.098	932.394
778.473	931.857
781.847	932.159
785.222	935.412
788.597	933.21
791.972	935.871
795.347	937.937
798.722	938.323
802.096	940.454
805.471	942.487
808.846	947.151
812.221	948.075
815.596	945.916
818.971	953.58
822.345	953.893
825.72	949.729
829.095	952.641
832.47	956.035
835.845	960.522
839.219	956.218
842.594	964.638
845.969	958.469
849.344	963.276
852.719	964.021
856.093	970.985
859.468	970.019
862.843	971.218
866.218	973.104
869.593	973.649
872.967	972.849
876.342	981.989
879.717	977.596
883.092	982.194
886.467	981.311
889.842	988.795
893.216	985.868
896.591	985.727
899.966	986.571
903.341	992.715
906.716	991.251
910.091	997.036
913.465	1000.46
916.84	1000.51
920.215	1001.51
923.59	1004.82
926.965	1001.07
930.339	1003.86
933.714	1003.41
937.089	1004.82
940.464	1007.78
943.839	1008.59
947.213	1010.4
950.588	1012.94
953.963	1013.58
957.338	1018.23
960.713	1017.83
964.088	1018.54
967.462	1020.94
970.837	1025.76
974.212	1025.7
977.587	1028.38
980.962	1034.11
984.337	1029.77
987.711	1032.17
991.086	1035.48
994.461	1037.02
997.836	1035.68
1001.21	1040.87
1004.59	1042.98
1007.96	1044.09
1011.34	1045.48
1014.71	1045.22
1018.09	1050.43
1021.46	1054.13
1024.83	1053.29
1028.21	1055.43
1031.58	1055.7
1034.96	1064.62
1038.33	1067.09
1041.71	1064.28
1045.08	1065.46
1048.46	1068.76
1051.83	1068.64
1055.21	1070.53
1058.58	1075.65
1061.96	1080.42
1065.33	1082.78
1068.71	1084.09
1072.08	1077.51
1075.46	1082.41
1078.83	1082.51
1082.21	1086.69
1085.58	1087.4
1088.96	1089.97
1092.33	1092.65
1095.7	1095.3
1099.08	1096.32
1102.45	1102.05
1105.83	1098.65
1109.2	1102.41
1112.58	1103.54
1115.95	1111.21
1119.33	1108.09
1122.7	1111.9
1126.08	1112.61
1129.45	1111.61
1132.83	1112.75
1136.2	1122.91
1139.58	1126.04
1142.95	1126.36
1146.33	1123.61
1149.7	1130.22
1153.08	1132.9
1156.45	1128.5
1159.83	1129.21
1163.2	1134.56
1166.58	1135.28
1169.95	1134.34
1173.33	1136.32
1176.7	1145.88
1180.08	1144.8
1183.45	1148.99
1186.83	1150.81
1190.2	1150.17
1193.58	1155.6
1196.95	1149.43
1200.33	1155.47
1203.7	1157.75
1207.07	1163.55
1210.45	1170.43
1213.82	1172.09
1217.2	1169.71
1220.57	1175.27
1223.95	1173.33
1227.32	1176.21
1230.7	1173.21
1234.07	1173.56
1237.45	1177.38
1240.82	1182.93
1244.2	1186.67
1247.57	1189.68
1250.95	1187.44
1254.32	1192.44
1257.7	1196.82
1261.07	1198.95
1264.45	1202.08
1267.82	1201.53
1271.2	1209.82
1274.57	1209.92
1277.95	1212.25
1281.32	1216.07
1284.69	1212.2
1288.07	1222.78
1291.44	1228.03
1294.82	1226.78
1298.19	1232.11
1301.57	1231.69
