Measurement: Raman, 785 nm, unoriented, Raman Data RAW
Mineral: Meliphanite
Rruff sample: R060786
Ideal chemistry: Ca_4_(Na,Ca)_4_Be_4_AlSi_7_O_24_(F,O)_4_
Locality: Brevig, Norway
Source: Michael Scott
Description: Greenish-yellow tabular crystal
Raman shift (cm-1)	intensity
118.153	335.538
121.046	381.12
123.938	460.673
126.831	629.727
129.724	1166.41
132.616	1319.18
135.509	1311.75
138.402	1220.95
141.294	1670.39
144.187	1977.28
147.08	2516.81
149.973	2896.28
152.865	2950.24
155.758	2675.94
158.651	2590.71
161.543	2534.45
164.436	2726.34
167.329	3025.54
170.221	3054.56
173.114	3007.24
176.007	3061.62
178.9	3166.51
181.792	3193.24
184.685	3216.66
187.578	3245.41
190.47	3649.41
193.363	3658.7
196.256	3974.02
199.149	4236.45
202.041	4580.33
204.934	4671.28
207.827	4922.43
210.719	5229.33
213.612	5445.3
216.505	5917.87
219.397	6112.94
222.29	6581.19
225.183	6958.19
228.076	7495.74
230.968	8246.65
233.861	9019.99
236.754	9791.29
239.646	10786.6
242.539	11557.7
245.432	12460.4
248.324	13073.5
251.217	13645
254.11	14594.5
257.002	15498.7
259.895	16326.2
262.788	17035.1
265.681	17268.9
268.573	17118.9
271.466	16675.7
274.359	15811.7
277.251	15075.2
280.144	14550.6
283.037	13605.7
285.93	13363.3
288.822	12284.6
291.715	12318.1
294.608	12549.7
297.5	12806.2
300.393	13435.6
303.286	14357.4
306.178	15302.3
309.071	16632.3
311.964	18112.8
314.856	19721.5
317.749	21519.6
320.642	23324.4
323.535	25558
326.427	28765.8
329.32	31963.3
332.213	34596.3
335.105	37501.5
337.998	39952.1
340.891	42432
343.784	43979
346.676	45238.7
349.569	45756.6
352.462	45199.8
355.354	43600.8
358.247	40939.4
361.14	37971.8
364.032	34663.6
366.925	31661.8
369.818	28841.2
372.711	26266.7
375.603	24313.5
378.496	22486.2
381.389	20769.8
384.281	19231.3
387.174	18119.8
390.067	17255.7
392.959	16534
395.852	16185.5
398.745	15556.1
401.637	15409.4
404.53	15324.8
407.423	15172.9
410.316	15179.6
413.208	15454
416.101	15705.8
418.994	15987.8
421.886	16127.9
424.779	16186.9
427.672	16349
430.565	16374.5
433.457	16314
436.35	16192.3
439.243	16140.5
442.135	16374
445.028	16135.1
447.921	15958
450.813	15688.4
453.706	15335.4
456.599	15138.5
459.492	14930.6
462.384	14573.6
465.277	14193.8
468.17	14272.6
471.062	13755.7
473.955	13619.3
476.848	13170.5
479.74	12931.3
482.633	12529
485.526	11999.8
488.419	11733.3
491.311	11509.5
494.204	11221.6
497.097	11241.2
499.989	11201.2
502.882	11234.3
505.775	11380.1
508.668	11351.3
511.56	11513
514.453	11717.9
517.346	11567.8
520.238	11542.4
523.131	11684.8
526.024	11688.7
528.916	11666.7
531.809	11565.7
534.702	11461.8
537.595	11119.6
540.487	11278.2
543.38	11332.7
546.273	11008.5
549.165	10860.4
552.058	10718.1
554.951	10418.7
557.843	10453.9
560.736	10268.1
563.629	10025.5
566.521	9480.77
569.414	8911.24
572.307	9045.49
575.2	8949.81
578.092	8775.31
580.985	8650.99
583.878	8416.34
586.77	8378.11
589.663	8198.72
592.556	8189.02
595.448	8113.48
598.341	7995.37
601.234	7827.33
604.127	7972.11
607.019	7823.07
609.912	7835.78
612.805	7722.14
615.697	7525.87
618.59	7608.44
621.483	7578.59
624.375	7676.34
627.268	7650.45
630.161	7568.73
633.054	7685.62
635.946	7598.55
638.839	7577.42
641.732	7466.89
644.624	7375.81
647.517	7238.28
650.41	6935.72
653.303	6764.94
656.195	6666.37
659.088	6620.38
661.981	6289.83
664.873	6033.48
667.766	6010.55
670.659	5594.81
673.551	5637.98
676.444	5429.01
679.337	5130.4
682.23	5052.81
685.122	4784.12
688.015	4601.13
690.908	4517.9
693.8	4069.37
696.693	3822.72
699.586	3824.32
702.478	3845.98
705.371	3233.54
708.264	3554.89
711.157	3585.62
714.049	3461.09
716.942	3707.93
719.835	3482.38
722.727	3383.91
725.62	3394.22
728.513	3182.32
731.405	3139.74
734.298	3031.27
737.191	2909.62
740.083	2786.57
742.976	2958.57
745.869	2827.09
748.762	2729.89
751.654	2708.88
754.547	2892.91
757.44	2560.42
760.332	2580.97
763.225	2590.55
766.118	2482.97
769.01	2221.11
771.903	2380.34
774.796	2330.65
777.689	1969.71
780.581	2220.07
783.474	2032.35
786.367	2115.08
789.259	2025.38
792.152	2271.74
795.045	2075.45
797.938	1840.37
800.83	1751.11
803.723	1881.09
806.616	1832
809.508	1916.08
812.401	1778.02
815.294	1711.72
818.186	1571.02
821.079	1687.06
823.972	1491.2
826.865	1595.56
829.757	1685.46
832.65	1691.33
835.543	1933.39
838.435	1689.44
841.328	1760.79
844.221	1527.43
847.114	1568.01
850.006	1588.95
852.899	1478.1
855.792	1517.34
858.684	1509.68
861.577	1596.34
864.47	1300.65
867.362	1717.41
870.255	1639.62
873.148	1725.97
876.04	1967.62
878.933	1516.37
881.826	1761.65
884.719	1690.26
887.611	1724.3
890.504	1782.86
893.397	1731.21
896.289	1710.58
899.182	1638.11
902.075	1810.31
904.967	1683.05
907.86	1819.58
910.753	1818.47
913.646	1985.55
916.538	1902.33
919.431	1894.39
922.324	1853.08
925.216	2079.34
928.109	1967.47
931.002	1814.52
933.894	2040.54
936.787	1850.64
939.68	1919.96
942.573	2043.31
945.465	2019.38
948.358	2345.12
951.251	2262.85
954.143	2391.29
957.036	2532.89
959.929	2364.32
962.822	2433.05
965.714	2564.43
968.607	2708.09
971.5	2543.8
974.392	2498.33
977.285	2537.21
980.178	2648.18
983.07	2681.29
985.963	2913.89
988.856	3045.96
991.749	3007.99
994.641	2928.93
997.534	3206.92
1000.43	3315.29
1003.32	3387.58
1006.21	3453.28
1009.11	3231.86
1012	3617.68
1014.89	3482.48
1017.78	3743.47
1020.67	3507.83
1023.57	3550.21
1026.46	3872.46
1029.35	3972.92
1032.25	4276.25
1035.14	4365.93
1038.03	4501.61
1040.92	4559.8
1043.82	4423.04
1046.71	4953.78
1049.6	5028.14
1052.49	5172.68
1055.39	5171.46
1058.28	5570.49
1061.17	5843.69
1064.07	5890.33
1066.96	6273.01
1069.85	6617.22
1072.74	6562.36
1075.64	6674.81
1078.53	6914.77
1081.42	7086.44
1084.32	7469.92
1087.21	7515.24
1090.1	8050.63
1092.99	8256.22
1095.89	8663.73
1098.78	8989.81
1101.67	9259.73
1104.56	9670.38
1107.46	9964.18
1110.35	10674.7
1113.24	10991
1116.13	11402.5
1119.03	11794
1121.92	12270.6
1124.81	13124.6
1127.7	13573.7
1130.6	14264
1133.49	14877.5
1136.38	15558.6
1139.28	16318.5
1142.17	17350.8
1145.06	18059
1147.95	18964.4
1150.85	19851.6
1153.74	20846.3
1156.63	21944.9
1159.53	23308.2
1162.42	24592
1165.31	26777.7
1168.2	28386.1
1171.1	30564.1
1173.99	32961.6
1176.88	35947.2
1179.77	39080
1182.67	42783.9
1185.56	46687.8
1188.45	51040.6
1191.35	56039
1194.24	61797.2
1197.13	67856.5
1200.02	75262.1
1202.92	82442.3
1205.81	91175.1
1208.7	99853.4
1211.59	109912
1214.49	120724
1217.38	132655
1220.27	144508
1223.16	157547
1226.06	171818
1228.95	187442
1231.84	203723
1234.73	221618
1237.63	239274
1240.52	255714
1243.41	267589
1246.31	271875
1249.2	268876
1252.09	257568
1254.98	241744
1257.88	223651
1260.77	205566
1263.66	189822
1266.56	175169
1269.45	161710
