Measurement: Raman, 780 nm, unoriented, Raman Data Processed
Mineral: Metarossite
Rruff sample: R100065
Ideal chemistry: CaV^5+^_2_O_6_2H_2_O
Locality: Blue Cap mine, San Juan County, Utah, USA
Source: Bob Jenkins
Description: Pale yellow bladed crystals
Measured chemistry: Ca_0.94_V^5+^_2.02_O_6_Â·2H_2_O
Raman shift (cm-1)	intensity
91.5599	0
94.9347	246.448
98.3096	423.936
101.684	418.244
105.059	147.357
108.434	7.19031
111.809	15.7561
115.184	62.5745
118.558	230.545
121.933	463.655
125.308	612.842
128.683	497.665
132.058	526.322
135.433	682.481
138.807	919.437
142.182	813.868
145.557	451.821
148.932	254.938
152.307	248.54
155.681	341.929
159.056	511.315
162.431	395.93
165.806	40.86
169.181	110.453
172.555	76.4083
175.93	103.168
179.305	379.625
182.68	524.323
186.055	496.298
189.43	605.098
192.804	971.039
196.179	1424.1
199.554	1500.96
202.929	1282.64
206.304	1212.88
209.678	1422.47
213.053	1444.39
216.428	1036.75
219.803	587.348
223.178	407.145
226.553	412.637
229.927	513.201
233.302	654.47
236.677	841.475
240.052	1057.59
243.427	1303.79
246.801	1365.97
250.176	1290.09
253.551	1358.89
256.926	1586.63
260.301	1847.37
263.675	2078.87
267.05	2249.68
270.425	2511.64
273.8	2916.37
277.175	3040.99
280.55	2999.81
283.924	2717.72
287.299	1785.53
290.674	914.057
294.049	441.025
297.424	237.612
300.798	127.904
304.173	73.0703
307.548	44.5072
310.923	34.3142
314.298	10.5316
317.673	13.1443
321.047	32.9753
324.422	32.3359
327.797	47.7087
331.172	34.8843
334.547	6.64691
337.921	26.0675
341.296	82.429
344.671	141.706
348.046	217.2
351.421	302.674
354.796	364.062
358.17	410.846
361.545	396.352
364.92	344.709
368.295	275.786
371.67	220.78
375.044	164.992
378.419	133.774
381.794	103.595
385.169	80.9547
388.544	87.2994
391.918	49.5425
395.293	23.1621
398.668	18.8497
402.043	48.5838
405.418	106.948
408.793	200.2
412.167	305.568
415.542	458.488
418.917	639.451
422.292	853.679
425.667	869.55
429.041	642.205
432.416	367.152
435.791	209.595
439.166	128.073
442.541	117.53
445.915	120.541
449.29	123.345
452.665	130.416
456.04	138.828
459.415	139.923
462.789	156.301
466.164	177.074
469.539	229.443
472.914	286.606
476.289	285.025
479.664	230.463
483.038	139.197
486.413	61.4495
489.788	27.6854
493.163	0.841187
496.538	9.27637
499.913	17.9457
503.287	6.70782
506.662	6.89099
510.037	18.5573
513.412	27.5438
516.787	59.6463
520.161	87.8491
523.536	130.891
526.911	190.729
530.286	246.084
533.661	307.391
537.035	343.309
540.41	317.236
543.785	251.082
547.16	201.81
550.535	162.911
553.909	143.776
557.284	110.59
560.659	97.1348
564.034	81.853
567.409	62.4813
570.784	52.467
574.158	39.7692
577.533	28.7432
580.908	21.4998
584.283	23.1567
587.658	9.74854
591.033	13.9751
594.407	10.3738
597.782	4.81293
601.157	2.7522
604.532	8.69263
607.907	3.05103
611.281	0.692322
614.656	1.0614
618.031	1.01898
621.406	1.23468
624.781	2.66382
628.155	0.676331
631.53	5.05316
634.905	2.65222
638.28	1.56653
641.655	0.90918
645.029	1.60852
648.404	4.07068
651.779	3.72632
655.154	1.38647
658.529	17.472
661.904	12.437
665.278	15.5787
668.653	21.4322
672.028	44.166
675.403	73.342
678.778	97.3187
682.153	151.408
685.527	221.144
688.902	314.13
692.277	438.708
695.652	583.897
699.027	739.114
702.401	837.476
705.776	845.153
709.151	727.999
712.526	570.389
715.901	446.262
719.275	350.633
722.65	300.541
726.025	284.242
729.4	257.305
732.775	272.124
736.149	293.949
739.524	318.255
742.899	354.985
746.274	385.057
749.649	416.679
753.024	428.974
756.398	397.575
759.773	341.552
763.148	267.923
766.523	186.161
769.898	132.968
773.273	81.221
776.647	50.519
780.022	37.0188
783.397	23.6074
786.772	11.5024
790.146	6.46256
793.521	4.37436
796.896	2.27246
800.271	3.1182
803.646	0.766815
807.021	4.21478
810.395	0.668335
813.77	3.46655
817.145	1.65555
820.52	2.6958
823.895	6.80313
827.269	5.08325
830.644	0.226166
834.019	6.40851
837.394	6.28241
840.769	11.5937
844.144	17.4711
847.518	33.2758
850.893	48.3521
854.268	84.2826
857.643	163.638
861.018	290.228
864.393	444.584
867.767	744.721
871.142	1192.71
874.517	1234.91
877.892	839.911
881.266	705.515
884.641	795.388
888.016	943.731
891.391	805.924
894.766	475.198
898.141	247.913
901.515	128.16
904.89	72.0468
908.265	51.3031
911.64	28.0515
915.015	22.9253
918.389	36.8232
921.764	84.4282
925.139	141.386
928.514	241.085
931.889	441.49
935.264	688.303
938.638	539.815
942.013	552.052
945.388	777.741
948.763	1223.77
952.138	2157.81
955.512	3051.75
958.887	1644.76
962.262	574.18
965.637	237.206
969.012	112.312
972.386	64.0271
975.761	29.2023
979.136	12.2607
982.511	4.28378
985.886	1.43637
989.261	0.311462
992.635	2.62656
996.01	6.19635
999.385	3.85767
1002.76	2.22763
1006.13	1.61969
1009.51	1.76602
1012.88	5.52405
1016.26	5.24811
1019.63	6.73697
1023.01	1.31757
1026.38	0.705261
1029.76	9.18951
1033.13	12.5964
1036.51	3.31992
1039.88	10.065
1043.26	17.7479
1046.63	12.6389
1050.01	18.1648
1053.38	12.0807
1056.76	17.4543
1060.13	11.5937
1063.51	14.7323
1066.88	12.2999
1070.26	10.2988
1073.63	14.6627
1077.01	15.6687
1080.38	12.9096
1083.76	8.6626
1087.13	6.04388
1090.51	5.34671
1093.88	6.16687
1097.26	4.35745
1100.63	4.55029
1104	3.15494
1107.38	4.19348
1110.75	7.27579
1114.13	2.67905
1117.5	3.17795
1120.88	4.89417
1124.25	5.34888
1127.63	6.56317
1131	5.94803
1134.38	5.27173
1137.75	6.55478
1141.13	1.63205
1144.5	8.97287
1147.88	1.85236
1151.25	3.18668
1154.63	0.584808
1158	0.283539
1161.38	6.17905
1164.75	0.493591
1168.13	0.388062
1171.5	9.45895
1174.88	2.96982
1178.25	4.24725
1181.62	1.78076
1185	2.1424
1188.38	3.98096
1191.75	0.453491
1195.12	5.42303
1198.5	3.91251
1201.87	4.02286
1205.25	6.09552
1208.62	5.3338
1212	4.46924
1215.37	2.1738
1218.75	0.439087
1222.12	5.29703
1225.5	2.38104
1228.87	1.51535
1232.25	0.927917
1235.62	5.90362
1239	3.24097
1242.37	6.03036
1245.75	1.27896
1249.12	3.7796
1252.5	7.65118
1255.87	5.82611
1259.25	0.209198
1262.62	2.85156
1265.99	5.67136
1269.37	4.22025
1272.74	4.94705
1276.12	1.19226
1279.49	3.67477
1282.87	3.75455
