Measurement: Raman, 780 nm, unoriented, Raman Data Processed
Mineral: Metaborite
Rruff sample: R130694
Ideal chemistry: HBO_2_
Locality: Chelkar salt dome, Aksai Valley, Aktobe Province, Kazakhstan
Source: Rock Currier
Description: Colorless fragment
Raman shift (cm-1)	intensity
89.9929	0
93.3677	123.816
96.7425	47.8687
100.117	16.2844
103.492	0.704163
106.867	23.5549
110.242	5.36175
113.617	10.2938
116.992	1.04401
120.366	6.35101
123.741	0.576111
127.116	3.98608
130.491	1.89191
133.865	1.87183
137.24	14.8631
140.615	19.7066
143.99	36.7678
147.365	90.9056
150.74	123.053
154.114	9.34058
157.489	6.0191
160.864	9.90039
164.239	6.9762
167.614	4.91681
170.988	4.4505
174.363	4.78625
177.738	6.46985
181.113	3.4696
184.488	2.9447
187.863	1.13141
191.237	2.99963
194.612	0.953674
197.987	0.884644
201.362	4.34845
204.737	9.84607
208.112	17.8879
211.486	41.3085
214.861	49.9895
218.236	71.2968
221.611	113.478
224.986	193.147
228.36	377.707
231.735	251.662
235.11	45.2052
238.485	14.1577
241.86	4.72717
245.234	4.61761
248.609	0.44165
251.984	0.174133
255.359	1.60992
258.734	6.43787
262.109	9.7536
265.483	17.9961
268.858	39.9408
272.233	23.0269
275.608	0.198486
278.983	2.0788
282.358	2.12225
285.732	4.62848
289.107	8.87817
292.482	10.5084
295.857	18.1234
299.232	27.0947
302.606	54.0911
305.981	47.3741
309.356	35.0199
312.731	47.1691
316.106	68.9412
319.481	95.1407
322.855	52.2991
326.23	29.4204
329.605	25.0977
332.98	30.1057
336.355	36.6869
339.729	43.5473
343.104	49.9873
346.479	59.3384
349.854	67.4022
353.229	81.2331
356.603	95.1827
359.978	119.085
363.353	143.03
366.728	177.445
370.103	189.89
373.478	227.159
376.852	292.475
380.227	412.741
383.602	430.015
386.977	116.948
390.352	5.36005
393.726	6.90601
397.101	5.30878
400.476	0.664429
403.851	4.52716
407.226	7.18512
410.601	12.862
413.975	16.7421
417.35	21.5171
420.725	23.9653
424.1	29.1956
427.475	31.5359
430.849	33.6529
434.224	35.4395
437.599	30.5467
440.974	28.2401
444.349	29.2361
447.724	26.9972
451.098	27.6732
454.473	23.5394
457.848	24.8729
461.223	31.4872
464.598	32.0131
467.972	41.2542
471.347	58.3322
474.722	73.7312
478.097	74.9306
481.472	68.866
484.846	73.0156
488.221	87.9322
491.596	103.146
494.971	119.595
498.346	132.577
501.721	152.21
505.095	168.592
508.47	187.607
511.845	96.1619
515.22	10.1534
518.595	4.85974
521.97	2.0404
525.344	1.66443
528.719	9.79456
532.094	12.8915
535.469	16.5699
538.844	19.7919
542.218	23.2906
545.593	26.62
548.968	30.7184
552.343	32.2391
555.718	33.8769
559.092	34.0645
562.467	34.5703
565.842	38.1764
569.217	40.731
572.592	44.8743
575.967	46.0172
579.341	48.6855
582.716	53.5449
586.091	57.6114
589.466	61.7833
592.841	68.6374
596.216	76.4834
599.59	87.8354
602.965	100.739
606.34	108.105
609.715	123.09
613.09	145.919
616.464	154.573
619.839	54.8489
623.214	1.17071
626.589	1.24298
629.964	5.83295
633.338	11.6415
636.713	14.2982
640.088	18.9057
643.463	19.5781
646.838	23.9315
650.213	24.9507
653.587	26.2128
656.962	24.8948
660.337	23.7562
663.712	20.4352
667.087	16.9811
670.462	15.9359
673.836	13.9304
677.211	9.26623
680.586	8.68378
683.961	3.22253
687.336	1.3689
690.71	0.651184
694.085	2.71967
697.46	3.14148
700.835	5.03375
704.21	2.75568
707.585	0.866516
710.959	4.95697
714.334	13.4307
717.709	22.1315
721.084	31.2581
724.459	43.1587
727.833	58.7184
731.208	70.5257
734.583	80.3228
737.958	94.5953
741.333	106.024
744.707	115.245
748.082	118.564
751.457	117.588
754.832	116.306
758.207	117.188
761.582	112.705
764.956	111.378
768.331	108.07
771.706	102.153
775.081	104.729
778.456	102.16
781.83	97.513
785.205	97.7439
788.58	98.288
791.955	97.1472
795.33	95.0359
798.705	93.038
802.079	98.5038
805.454	97.732
808.829	100.836
812.204	106.145
815.579	108.147
818.953	109.419
822.328	99.1535
825.703	83.0688
829.078	57.0818
832.453	36.2136
835.827	24.5414
839.202	15.832
842.577	8.70776
845.952	1.7868
849.327	0.577606
852.702	1.11847
856.076	0.421173
859.451	2.26663
862.826	2.60916
866.201	0.488281
869.576	0.502686
872.951	0.202972
876.325	1.50485
879.7	1.21396
883.075	6.93091
886.45	6.55719
889.825	7.56073
893.199	3.43936
896.574	9.42358
899.949	9.29077
903.324	10.3109
906.699	10.3661
910.073	9.58826
913.448	8.4606
916.823	8.48215
920.198	3.5842
923.573	2.61881
926.948	1.06516
930.322	2.96564
933.697	1.5293
937.072	0.006104
940.447	0.519409
943.822	0.641541
947.197	1.77914
950.571	2.0882
953.946	3.82016
957.321	10.7367
960.696	4.58389
964.071	6.29056
967.445	6.86639
970.82	3.99493
974.195	4.59488
977.57	4.78607
980.945	3.99005
984.319	3.60599
987.694	1.49426
991.069	3.50684
994.444	3.85281
997.819	3.93698
1001.19	3.7699
1004.57	2.12769
1007.94	2.84357
1011.32	3.40546
1014.69	9.4433
1018.07	6.83685
1021.44	8.79758
1024.82	5.77478
1028.19	9.62601
1031.57	7.61871
1034.94	10.2525
1038.32	5.9646
1041.69	9.88208
1045.07	7.06409
1048.44	4.92453
1051.82	5.94287
1055.19	6.29483
1058.57	6.52328
1061.94	5.66455
1065.32	11.589
1068.69	8.47293
1072.07	6.85098
1075.44	7.85962
1078.81	9.6294
1082.19	11.5988
1085.56	10.0564
1088.94	9.4046
1092.31	6.77322
1095.69	5.3342
1099.06	5.61606
1102.44	2.57965
1105.81	7.0997
1109.19	3.86206
1112.56	0.491241
1115.94	0.326141
1119.31	0.25351
1122.69	0.987427
1126.06	2.26837
1129.44	0.867157
1132.81	0.369293
1136.19	0.999878
1139.56	1.42426
1142.94	1.50293
1146.31	1.30789
1149.69	1.53323
1153.06	1.6918
1156.43	1.46551
1159.81	1.89218
1163.18	1.51028
1166.56	0.615997
1169.93	0.266449
1173.31	2.68225
1176.68	1.86063
1180.06	1.62317
1183.43	0.000244
1186.81	0.044373
1190.18	2.95123
1193.56	0.453064
1196.93	1.01013
1200.31	1.01868
1203.68	4.7182
1207.06	3.28186
1210.43	3.86395
1213.81	4.39984
1217.18	6.43884
1220.56	6.86325
1223.93	8.49002
1227.31	5.85498
1230.68	6.2832
1234.06	8.03787
1237.43	5.06525
1240.81	5.70166
1244.18	5.84579
1247.56	2.56189
1250.93	4.31607
1254.31	2.46115
1257.68	3.02872
1261.05	3.86517
1264.43	5.14862
1267.8	2.65814
1271.18	4.43204
1274.55	1.06836
1277.93	2.47394
1281.3	1.96399
