Measurement: Raman, 532 nm, unoriented, Raman Data Processed
Mineral: Metarossite
Rruff sample: R100065
Ideal chemistry: CaV^5+^_2_O_6_2H_2_O
Locality: Blue Cap mine, San Juan County, Utah, USA
Source: Bob Jenkins
Description: Pale yellow bladed crystals
Measured chemistry: Ca_0.94_V^5+^_2.02_O_6_Â·2H_2_O
Raman shift (cm-1)	intensity
89.7832	0
93.158	391.733
96.5328	966.978
99.9077	1250.01
103.282	492.869
106.657	4.00635
110.032	18.7212
113.407	155.957
116.782	613.21
120.157	1444.54
123.531	2385.79
126.906	2465.49
130.281	2116.62
133.656	2385.29
137.031	3406.58
140.405	3889.23
143.78	2595.92
147.155	1445.56
150.53	1063.24
153.905	1207.97
157.28	1771.51
160.654	1959.51
164.029	635.111
167.404	326.29
170.779	406.368
174.154	18.2349
177.528	911.43
180.903	1949.8
184.278	2257.95
187.653	2449.12
191.028	3567.89
194.403	5536.75
197.777	6762.74
201.152	6045.58
204.527	5267.9
207.902	5650.88
211.277	6018.26
214.651	4469.56
218.026	2826.47
221.401	1941.05
224.776	1998.24
228.151	2530.18
231.525	3210.37
234.9	3805.49
238.275	4472.97
241.65	5352.4
245.025	5874.82
248.4	5582.05
251.774	5443.06
255.149	6156.94
258.524	7450.65
261.899	8552.78
265.274	9514.04
268.649	10530.1
272.023	12207
275.398	13101.7
278.773	12749.8
282.148	12090.4
285.523	9120.11
288.897	5071.62
292.272	2549.56
295.647	1327.07
299.022	739.07
302.397	440.365
305.772	290.871
309.146	217.81
312.521	102.895
315.896	6.41284
319.271	117.582
322.646	176.945
326.02	208.46
329.395	169.225
332.77	67.0915
336.145	116.033
339.52	419.019
342.894	829.369
346.269	1322.38
349.644	1890.43
353.019	2437.65
356.394	2852.52
359.769	2925.39
363.143	2642.43
366.518	2113.09
369.893	1555.26
373.268	1150.55
376.643	813.146
380.017	558.196
383.392	366.305
386.767	283.89
390.142	207.2
393.517	107.812
396.892	144.053
400.266	296.81
403.641	669.748
407.016	1317.92
410.391	2208.2
413.766	3367.88
417.14	4886.37
420.515	6535.67
423.89	7301.27
427.265	5988.39
430.64	3706.31
434.014	2209.42
437.389	1473.16
440.764	1191.43
444.139	1157.25
447.514	1257.43
450.889	1343.59
454.263	1391.81
457.638	1429.32
461.013	1578.95
464.388	1856
467.763	2258.06
471.137	2731.74
474.512	2914.2
477.887	2509.29
481.262	1720.17
484.637	958.555
488.012	450.563
491.386	173.265
494.761	16.8054
498.136	56.4932
501.511	91.1511
504.886	68.6794
508.26	24.4477
511.635	62.0344
515.01	188.258
518.385	370.588
521.76	605.337
525.135	919.367
528.509	1273.45
531.884	1653.58
535.259	1892.41
538.634	1855.1
542.009	1593.85
545.384	1319.73
548.758	1101.67
552.133	971.377
555.508	839.516
558.883	725.906
562.258	583.583
565.632	454.161
569.007	349.642
572.382	263.241
575.757	216.426
579.132	160.577
582.506	130.695
585.881	97.3174
589.256	77.3872
592.631	57.4939
596.006	44.384
599.381	37.3547
602.755	17.0553
606.13	7.84412
609.505	5.53467
612.88	2.07178
616.255	11.2001
619.63	10.1282
623.004	13.0917
626.379	17.1864
629.754	12.265
633.129	16.9419
636.504	15.1942
639.878	13.1251
643.253	1.90637
646.628	1.16785
650.003	14.7981
653.378	30.5024
656.752	47.8191
660.127	72.3851
663.502	106.115
666.877	165.028
670.252	246.369
673.626	375.139
677.001	539.092
680.376	813.684
683.751	1210.04
687.126	1799.3
690.501	2643.41
693.875	3542.85
697.25	4548.53
700.625	5367.73
704	5519.24
707.375	4962.97
710.75	3991.19
714.124	3119.8
717.499	2482.54
720.874	2112.92
724.249	1907.26
727.624	1837.41
730.998	1857.93
734.373	1952.3
737.748	2111.21
741.123	2333.76
744.498	2630.8
747.872	2836.56
751.247	2957.82
754.622	2860.06
757.997	2506.7
761.372	1999.9
764.747	1486.01
768.121	1028.6
771.496	706.375
774.871	468.06
778.246	310.563
781.621	192.655
784.995	119.156
788.37	61.1145
791.745	30.483
795.12	1.82446
798.495	16.8029
801.87	28.1659
805.244	28.1239
808.619	23.8998
811.994	28.14
815.369	30.6682
818.744	20.6868
822.119	12.2839
825.493	21.7617
828.868	14.0131
832.243	7.09607
835.618	34.5057
838.993	60.7139
842.367	101.926
845.742	167.099
849.117	261.561
852.492	430.062
855.867	774.388
859.241	1501.93
862.616	2642.05
865.991	4234.94
869.366	6728.13
872.741	8281.84
876.115	6100.36
879.49	4627.76
882.865	4907.27
886.24	5804.69
889.615	5753.33
892.99	3809.12
896.364	2002.67
899.739	1071.86
903.114	615.076
906.489	369.139
909.864	247.857
913.239	202.432
916.613	264.278
919.988	463.813
923.363	1018.78
926.738	1699.97
930.113	2889.85
933.487	4739
936.862	4708.83
940.237	3882.07
943.612	6035.22
946.987	9603.38
950.361	15895.3
953.736	24730.2
957.111	18824.5
960.486	6832.63
963.861	2625.9
967.236	1254.88
970.61	669.424
973.985	373.826
977.36	202.905
980.735	105.676
984.11	45.834
987.485	6.48682
990.859	9.50415
994.234	26.9622
997.609	29.3994
1000.98	22.3527
1004.36	18.1965
1007.73	13.8336
1011.11	2.71631
1014.48	9.10706
1017.86	12.1077
1021.23	22.2294
1024.61	29.015
1027.98	38.3909
1031.36	46.7725
1034.73	50.7634
1038.11	56.9741
1041.48	72.9447
1044.86	74.6827
1048.23	83.4296
1051.61	87.1847
1054.98	87.2778
1058.36	80.8027
1061.73	70.033
1065.11	64.2758
1068.48	61.5935
1071.86	53.2693
1075.23	48.1647
1078.6	54.6148
1081.98	48.6284
1085.35	44.875
1088.73	38.4679
1092.1	47.0125
1095.48	33.4346
1098.85	35.1073
1102.23	27.3463
1105.6	41.3897
1108.98	21.3562
1112.35	24.4398
1115.73	19.0681
1119.1	19.5942
1122.48	16.4955
1125.85	8.77112
1129.23	6.69141
1132.6	9.76062
1135.98	8.77014
1139.35	8.68994
1142.73	14.4214
1146.1	10.5935
1149.48	16.4655
1152.85	12.4369
1156.22	12.1049
1159.6	26.0841
1162.97	9.91272
1166.35	10.306
1169.72	13.1034
1173.1	4.43787
1176.47	14.1985
1179.85	7.59302
1183.22	10.9452
1186.6	10.0543
1189.97	8.86597
1193.35	3.73645
1196.72	3.16187
1200.1	8.34045
1203.47	4.24756
1206.85	3.6095
1210.22	6.72327
1213.6	4.23608
1216.97	2.03748
1220.35	7.94202
1223.72	8.97632
1227.1	3.24976
1230.47	2.4563
1233.85	1.11719
1237.22	6.87256
1240.6	7.57959
1243.97	6.26831
1247.35	10.5162
1250.72	8.07556
1254.1	8.38354
1257.47	1.8573
1260.85	14.6804
1264.22	2.2782
1267.59	7.49121
1270.97	10.0384
1274.34	0.700562
1277.72	10.0546
1281.09	7.91321
1284.47	9.98242
1287.84	12.3354
1291.22	2.44812
1294.59	7.02844
1297.97	6.68506
1301.34	0.04541
