Measurement: Raman, 532 nm, unoriented, Raman Data Processed
Mineral: Metaborite
Rruff sample: R130694
Ideal chemistry: HBO_2_
Locality: Chelkar salt dome, Aksai Valley, Aktobe Province, Kazakhstan
Source: Rock Currier
Description: Colorless fragment
Raman shift (cm-1)	intensity
91.5115	0
94.8863	12.6768
98.2612	0.086334
101.636	1.57289
105.011	11.9179
108.386	33.9753
111.76	37.5111
115.135	65.9237
118.51	74.1268
121.885	81.9922
125.26	90.5946
128.635	103.911
132.009	122.886
135.384	134.008
138.759	168.959
142.134	174.478
145.509	221.775
148.883	381.508
152.258	203.623
155.633	111.319
159.008	107.855
162.383	93.594
165.757	80.1812
169.132	67.7441
172.507	49.5877
175.882	47.7972
179.257	45.9566
182.632	28.5101
186.006	26.6485
189.381	22.8498
192.756	21.5766
196.131	19.7304
199.506	20.5633
202.881	29.1029
206.255	27.8464
209.63	39.0747
213.005	81.96
216.38	118.761
219.755	173.12
223.129	283.145
226.504	568.836
229.879	1195.59
233.254	212.61
236.629	42.9339
240.004	4.78461
243.378	4.86844
246.753	6.05127
250.128	2.93671
253.503	2.81888
256.878	7.0737
260.252	9.67346
263.627	17.6119
267.002	38.1617
270.377	81.7593
273.752	6.23914
277.127	4.3642
280.501	1.38898
283.876	3.09155
287.251	13.6443
290.626	19.5644
294.001	32.2172
297.375	57.368
300.75	106.715
304.125	223.305
307.5	75.339
310.875	62.8925
314.25	87.1137
317.624	131.909
320.999	135.446
324.374	69.2569
327.749	61.3658
331.124	63.0898
334.498	72.4096
337.873	89.9912
341.248	111.424
344.623	129.919
347.998	147.673
351.373	170.991
354.747	198.211
358.122	235.909
361.497	289.524
364.872	347.865
368.247	381.492
371.621	428.439
374.996	533.3
378.371	748.905
381.746	1044.31
385.121	690.643
388.495	92.0651
391.87	9.84097
395.245	14.0247
398.62	2.55804
401.995	3.61789
405.37	12.5225
408.744	22.858
412.119	34.3204
415.494	40.5002
418.869	51.3588
422.244	58.1465
425.618	67.2579
428.993	77.9183
432.368	91.1627
435.743	88.3771
439.118	70.7065
442.493	74.7551
445.867	78.9404
449.242	82.5538
452.617	78.8959
455.992	66.5991
459.367	65.3025
462.741	70.0927
466.116	74.7825
469.491	97.552
472.866	122.422
476.241	147.99
479.615	149.866
482.99	169.1
486.365	171.82
489.74	201.12
493.115	237.52
496.49	282.236
499.864	319.821
503.239	357.148
506.614	396.552
509.989	385.849
513.364	22.7856
516.739	29.9271
520.113	10.4399
523.488	5.02368
526.863	20.4485
530.238	42.162
533.613	57.4099
536.987	66.2311
540.362	77.7081
543.737	89.5054
547.112	97.0004
550.487	114.383
553.861	115.363
557.236	124.58
560.611	130.328
563.986	134.125
567.361	142.149
570.736	147.762
574.11	147.382
577.485	146.177
580.86	152.554
584.235	160.15
587.61	167.411
590.985	174.651
594.359	188.136
597.734	204.433
601.109	223.481
604.484	249.941
607.859	279.749
611.233	319.473
614.608	363.501
617.983	287.165
621.358	32.8926
624.733	0.041016
628.107	10.509
631.482	17.8961
634.857	29.4954
638.232	34.9407
641.607	48.5404
644.982	56.6027
648.356	62.9208
651.731	63.3527
655.106	61.2648
658.481	57.5369
661.856	53.3897
665.231	50.6133
668.605	39.0569
671.98	28.8973
675.355	25.7801
678.73	17.8448
682.105	10.314
685.479	3.61938
688.854	2.15774
692.229	6.12115
695.604	9.32071
698.979	11.6636
702.354	8.2771
705.728	5.35873
709.103	10.706
712.478	22.8755
715.853	45.4733
719.227	71.0186
722.602	99.8129
725.977	131.505
729.352	166.246
732.727	197.003
736.102	224.539
739.476	252.712
742.851	270.014
746.226	281.464
749.601	290.716
752.976	286.859
756.351	279.526
759.725	270.976
763.1	263.769
766.475	261.932
769.85	260.092
773.225	256.463
776.599	254.296
779.974	255.624
783.349	250.016
786.724	247.723
790.099	245.21
793.473	245.168
796.848	246.515
800.223	250.834
803.598	257.158
806.973	266.273
810.348	275.948
813.722	289.166
817.097	294.832
820.472	291.046
823.847	257.535
827.222	203.229
830.597	146.374
833.971	95.8181
837.346	62.9547
840.721	35.382
844.096	17.3294
847.471	5.85544
850.846	0.685242
854.22	6.85248
857.595	8.74487
860.97	5.66907
864.345	2.99719
867.72	2.53412
871.094	4.56824
874.469	7.10941
877.844	13.1002
881.219	20.2088
884.594	29.9516
887.968	35.5169
891.343	40.226
894.718	49.3555
898.093	56.0638
901.468	59.373
904.842	63.5875
908.217	65.4073
911.592	62.5064
914.967	56.4161
918.342	46.466
921.717	34.3208
925.091	24.052
928.466	12.3392
931.841	5.36426
935.216	1.64526
938.591	2.63504
941.966	1.01578
945.34	2.8981
948.715	5.68054
952.09	8.39804
955.465	14.2996
958.84	18.3468
962.214	20.2295
965.589	19.377
968.964	16.4262
972.339	14.195
975.714	11.1605
979.088	8.5206
982.463	7.85126
985.838	2.95108
989.213	2.42474
992.588	2.08356
995.963	3.02048
999.337	2.10791
1002.71	0.157654
1006.09	4.16983
1009.46	6.92072
1012.84	10.1994
1016.21	16.8223
1019.59	18.9562
1022.96	23.4332
1026.34	29.5307
1029.71	33.0027
1033.09	38.2806
1036.46	42.6357
1039.84	43.9727
1043.21	47.8312
1046.59	46.8937
1049.96	44.3934
1053.33	47.8019
1056.71	45.4659
1060.08	45.2297
1063.46	47.3823
1066.83	48.3042
1070.21	46.38
1073.58	50.218
1076.96	50.3517
1080.33	47.8905
1083.71	47.548
1087.08	44.8057
1090.46	41.5674
1093.83	37.5384
1097.21	32.3211
1100.58	31.0782
1103.96	27.4886
1107.33	23.8844
1110.71	21.2155
1114.08	15.1741
1117.46	14.3442
1120.83	9.88348
1124.21	8.55951
1127.58	4.44229
1130.95	1.42395
1134.33	0.728638
1137.7	1.28415
1141.08	0.759949
1144.45	0.509766
1147.83	0.082825
1151.2	2.54718
1154.58	1.18698
1157.95	0.439331
1161.33	0.536438
1164.7	0.347656
1168.08	0.777435
1171.45	0.888916
1174.83	1.73276
1178.2	1.57632
1181.58	3.43103
1184.95	5.99252
1188.33	7.41357
1191.7	9.5799
1195.08	13.4699
1198.45	16.0026
1201.83	19.4274
1205.2	23.0635
1208.58	27.9605
1211.95	29.9391
1215.33	34.782
1218.7	40.4132
1222.08	43.7988
1225.45	45.74
1228.83	47.2413
1232.2	47.762
1235.58	49.5782
1238.95	49.4871
1242.32	45.44
1245.7	43.4241
1249.07	40.907
1252.45	37.3221
1255.82	32.7255
1259.2	25.2214
1262.57	25.2592
1265.95	19.3648
1269.32	17.4152
1272.7	10.4353
1276.07	9.72269
1279.45	7.94604
1282.82	3.64343
1286.2	1.88532
1289.57	0.364014
1292.95	0.596252
1296.32	2.22098
1299.7	0.932556
