Measurement: Raman, 532 nm, unoriented, Raman Data Processed
Mineral: Metakottigite
Rruff sample: R130695
Ideal chemistry: (Zn^2+^,Fe^3+^)_3_(As^5+^O_4_)_2_8(H_2_O,OH)
Locality: Ojuela mine, Mapimí, Municipio de Mapimí, Durango, Mexico
Source: Rock Currier
Description: Dark green prismatic crystalline bundles
Raman shift (cm-1)	intensity
99.7075	0
103.082	0.425964
106.457	24.795
109.832	12.6128
113.207	11.8009
116.582	26.4088
119.956	19.2333
123.331	49.4683
126.706	35.0872
130.081	54.6649
133.456	64.2448
136.831	83.6769
140.205	107.462
143.58	98.3944
146.955	105.112
150.33	84.8522
153.705	64.465
157.079	39.7633
160.454	18.9464
163.829	9.98743
167.204	1.33676
170.579	4.73581
173.953	1.13617
177.328	4.86743
180.703	11.6081
184.078	19.0827
187.453	24.5292
190.828	31.8152
194.202	37.698
197.577	47.501
200.952	58.2566
204.327	69.2191
207.702	76.361
211.077	88.337
214.451	97.0642
217.826	109.037
221.201	122.277
224.576	133.104
227.951	148.764
231.325	158.739
234.7	166.782
238.075	167.122
241.45	158.708
244.825	148.871
248.2	135.482
251.574	119.399
254.949	109.485
258.324	107.69
261.699	107.724
265.074	108.529
268.448	104.895
271.823	101.812
275.198	95.0782
278.573	91.7651
281.948	85.9792
285.322	80.8103
288.697	72.0177
292.072	60.0109
295.447	45.1701
298.822	33.49
302.197	22.9387
305.571	10.0732
308.946	0.076782
312.321	4.35873
315.696	8.26294
319.071	6.73248
322.445	2.78229
325.82	1.02728
329.195	7.66293
332.57	13.0746
335.945	23.3681
339.32	32.4713
342.694	43.1884
346.069	56.5169
349.444	69.8419
352.819	82.2516
356.194	100.566
359.568	111.65
362.943	124.654
366.318	133.673
369.693	135.897
373.068	134.726
376.442	127.127
379.817	116.194
383.192	98.8556
386.567	82.4561
389.942	61.489
393.317	45.2209
396.691	32.0057
400.066	19.3374
403.441	11.529
406.816	3.6709
410.191	0.029968
413.565	3.16257
416.94	2.20056
420.315	0.791809
423.69	2.33124
427.065	9.58014
430.44	21.1086
433.814	27.4466
437.189	35.1153
440.564	39.411
443.939	39.7643
447.314	37.6785
450.688	28.886
454.063	22.5601
457.438	17.8729
460.813	12.6757
464.188	9.43085
467.563	9.15952
470.937	11.7553
474.312	14.1191
477.687	20.406
481.062	22.4874
484.437	26.4261
487.812	32.1726
491.186	37.3108
494.561	44.9547
497.936	56.1442
501.311	64.3054
504.686	76.3324
508.06	85.3872
511.435	92.5025
514.81	96.3003
518.185	93.8976
521.56	89.1602
524.934	82.3448
528.309	73.0169
531.684	66.2859
535.059	60.1509
538.434	54.5548
541.809	49.6473
545.183	46.2512
548.558	41.5102
551.933	36.3931
555.308	31.9767
558.683	26.4316
562.058	19.8566
565.432	14.362
568.807	10.2355
572.182	6.25699
575.557	2.99246
578.932	1.34271
582.306	0.671753
585.681	1.71201
589.056	2.0779
592.431	2.58978
595.806	0.623611
599.181	0.270432
602.555	0.321747
605.93	1.75308
609.305	3.22615
612.68	3.99362
616.055	5.74348
619.429	6.91211
622.804	9.4203
626.179	10.1989
629.554	11.9463
632.929	13.2061
636.303	14.6086
639.678	15.9047
643.053	16.1231
646.428	19.0394
649.803	19.7882
653.178	22.4266
656.552	23.5038
659.927	23.2382
663.302	24.7443
666.677	24.2335
670.052	22.7951
673.427	20.4475
676.801	18.3965
680.176	16.5584
683.551	13.6189
686.926	12.5137
690.301	9.58035
693.675	8.20338
697.05	5.75508
700.425	1.96407
703.8	0.580887
707.175	0.761475
710.549	2.59438
713.924	4.68864
717.299	5.29086
720.674	5.9153
724.049	5.25348
727.423	1.49526
730.798	2.9604
734.173	7.71524
737.548	17.4712
740.923	27.4335
744.298	39.1578
747.672	52.6363
751.047	67.7974
754.422	78.8621
757.797	86.9552
761.172	83.2049
764.547	75.335
767.921	66.2463
771.296	54.9993
774.671	45.5818
778.046	40.3776
781.421	38.0352
784.795	35.6043
788.17	35.7992
791.545	35.0145
794.92	35.2855
798.295	36.2587
801.669	40.4175
805.044	38.095
808.419	40.8692
811.794	45.3941
815.169	51.9438
818.544	63.3818
821.918	80.6865
825.293	105.335
828.668	138.831
832.043	176.573
835.418	212.873
838.793	244.311
842.167	261.237
845.542	261.992
848.917	257.92
852.292	247.62
855.667	238.988
859.041	227.183
862.416	217.886
865.791	202.816
869.166	185.169
872.541	161.502
875.915	142.701
879.29	121.063
882.665	105.403
886.04	89.2653
889.415	76.0213
892.79	67.2022
896.164	55.7886
899.539	44.2343
902.914	33.6013
906.289	22.7594
909.664	11.7008
913.038	4.66119
916.413	1.29576
919.788	3.03743
923.163	2.1313
926.538	4.8723
929.913	5.0389
933.287	4.16695
936.662	2.8745
940.037	0.616486
943.412	1.92442
946.787	3.6349
950.162	5.57315
953.536	8.41446
956.911	10.238
960.286	14.1905
963.661	17.3886
967.036	18.4308
970.41	20.4322
973.785	22.8708
977.16	24.5018
980.535	25.1238
983.91	25.5533
987.284	24.7677
990.659	23.2611
994.034	22.3853
997.409	19.3397
1000.78	19.0154
1004.16	19.4524
1007.53	17.339
1010.91	16.8273
1014.28	16.7655
1017.66	15.7326
1021.03	14.9852
1024.41	15.2815
1027.78	15.0945
1031.16	14.6529
1034.53	14.6417
1037.91	13.4461
1041.28	13.7418
1044.66	12.7721
1048.03	12.9054
1051.41	11.2143
1054.78	8.52262
1058.16	7.59082
1061.53	6.99869
1064.9	6.63215
1068.28	5.39406
1071.65	4.64889
1075.03	3.72062
1078.4	3.36277
1081.78	2.39422
1085.15	2.01869
1088.53	1.43359
1091.9	1.76978
1095.28	2.32206
1098.65	1.31666
1102.03	1.65981
1105.4	1.19578
1108.78	0.490311
1112.15	0.21109
1115.53	0.731361
1118.9	1.56098
1122.28	0.190529
1125.65	0.293434
1129.03	1.04141
1132.4	0.147202
1135.78	0.421158
1139.15	0.445633
1142.53	0.351776
1145.9	0.848816
1149.28	0.730797
1152.65	0.246506
1156.03	0.036171
1159.4	0.308304
1162.78	0.72496
1166.15	0.830246
1169.53	0.325874
1172.9	0.115829
1176.27	0.380104
1179.65	0.803841
1183.02	0.196358
1186.4	0.533287
1189.77	0.96891
1193.15	0.486938
1196.52	1.54674
1199.9	1.54543
1203.27	1.24117
1206.65	1.29974
1210.02	0.786034
1213.4	0.623039
1216.77	0.344284
1220.15	0.818932
1223.52	0.595078
1226.9	0.687187
1230.27	1.90651
1233.65	0.875374
1237.02	1.24528
1240.4	3.06278
1243.77	0.317505
1247.14	0.659866
1250.52	0.42131
1253.89	1.54421
1257.27	1.26115
1260.64	0.676445
1264.02	0.377022
1267.39	1.1046
1270.77	0.21286
1274.14	0.381073
1277.52	0.696869
1280.89	0.599113
1284.27	1.00196
1287.64	1.12279
1291.02	0.896973
1294.39	0.051239
1297.77	0.251343
