Measurement: Raman, 780 nm, unoriented, Raman Data Processed
Mineral: Metakottigite
Rruff sample: R130695
Ideal chemistry: (Zn^2+^,Fe^3+^)_3_(As^5+^O_4_)_2_8(H_2_O,OH)
Locality: Ojuela mine, Mapimí, Municipio de Mapimí, Durango, Mexico
Source: Rock Currier
Description: Dark green prismatic crystalline bundles
Raman shift (cm-1)	intensity
93.3677	0
96.7425	1.02197
100.117	8.48926
103.492	5.60901
106.867	20.8323
110.242	2.03833
113.617	3.1947
116.992	3.76282
120.366	2.88647
123.741	18.7515
127.116	10.1553
130.491	8.05786
133.865	5.0675
137.24	9.78149
140.615	9.35645
143.99	0.637451
147.365	0.883667
150.74	0.90918
154.114	9.00915
157.489	6.21057
160.864	14.3614
164.239	14.0977
167.614	10.8303
170.988	15.397
174.363	14.4285
177.738	16.6771
181.113	18.743
184.488	19.2901
187.863	18.8334
191.237	18.0601
194.612	16.8502
197.987	16.4796
201.362	21.1104
204.737	21.1019
208.112	17.7324
211.486	20.1988
214.861	17.325
218.236	17.3512
221.611	18.4224
224.986	17.914
228.36	16.7312
231.735	17.2252
235.11	24.0169
238.485	15.4794
241.86	15.6099
245.234	18.599
248.609	18.8825
251.984	10.0776
255.359	10.7037
258.734	12.7079
262.109	8.35449
265.483	8.88226
268.858	5.22729
272.233	4.5047
275.608	2.55237
278.983	5.77472
282.358	2.64502
285.732	3.2569
289.107	3.54382
292.482	0.452881
295.857	2.49774
299.232	0.956848
302.606	4.07989
305.981	2.34924
309.356	1.4494
312.731	0.438904
316.106	0.821472
319.481	2.28229
322.855	4.01422
326.23	2.37976
329.605	0.704285
332.98	3.48065
336.355	3.3512
339.729	0.414673
343.104	1.21558
346.479	0.624573
349.854	0.615662
353.229	1.58246
356.603	1.22217
359.978	3.48657
363.353	0.851318
366.728	3.87451
370.103	0.070435
373.478	0.730042
376.852	0.012695
380.227	0.576416
383.602	2.5285
386.977	1.7522
390.352	1.15607
393.726	3.9563
397.101	1.51636
400.476	0.476135
403.851	7.28491
407.226	1.27277
410.601	1.83545
413.975	4.36456
417.35	5.38251
420.725	7.22711
424.1	7.73498
427.475	8.38458
430.849	7.05426
434.224	7.62286
437.599	9.48285
440.974	11.0792
444.349	13.2689
447.724	14.1126
451.098	17.8397
454.473	15.4803
457.848	16.1597
461.223	18.9932
464.598	17.3061
467.972	17.5488
471.347	20.3623
474.722	18.1498
478.097	20.2821
481.472	17.2905
484.846	17.5151
488.221	17.847
491.596	18.4498
494.971	17.8973
498.346	16.7592
501.721	15.1317
505.095	16.2906
508.47	13.4989
511.845	16.8503
515.22	13.5407
518.595	12.7211
521.97	11.321
525.344	10.1861
528.719	10.6412
532.094	7.32385
535.469	10.8915
538.844	4.03803
542.218	5.71289
545.593	4.05591
548.968	4.21332
552.343	2.51654
555.718	1.47638
559.092	2.1955
562.467	1.14172
565.842	0.272217
569.217	0.985962
572.592	0.62085
575.967	0.111816
579.341	1.44824
582.716	1.99792
586.091	0.935486
589.466	1.66083
592.841	0.684204
596.216	1.94116
599.59	4.76471
602.965	2.56903
606.34	2.5506
609.715	4.41479
613.09	3.05011
616.464	4.3761
619.839	6.61755
623.214	4.81213
626.589	5.20648
629.964	4.96808
633.338	8.24225
636.713	8.53113
640.088	11.1202
643.463	10.134
646.838	8.97858
650.213	7.64459
653.587	8.57074
656.962	12.3898
660.337	8.73438
663.712	6.55658
667.087	9.31891
670.462	9.83466
673.836	7.44568
677.211	8.1294
680.586	9.8656
683.961	9.02252
687.336	7.11768
690.71	8.80945
694.085	4.6308
697.46	6.45502
700.835	2.67554
704.21	4.09399
707.585	4.36231
710.959	2.49054
714.334	2.37372
717.709	0.129578
721.084	2.11511
724.459	3.61218
727.833	0.406494
731.208	0.832581
734.583	0.581421
737.958	1.62244
741.333	1.06036
744.707	0.821472
748.082	1.66425
751.457	2.40778
754.832	0.787109
758.207	3.1405
761.582	6.84723
764.956	8.53882
768.331	3.38647
771.706	3.15936
775.081	4.56952
778.456	7.69287
781.83	3.64508
785.205	3.66437
788.58	7.49713
791.955	8.94196
795.33	9.55359
798.705	9.66254
802.079	12.6548
805.454	16.2359
808.829	20.0817
812.204	17.0449
815.579	21.7471
818.953	24.6923
822.328	23.7335
825.703	27.6834
829.078	30.9083
832.453	30.7627
835.827	38.0438
839.202	37.8736
842.577	40.8499
845.952	40.161
849.327	44.8716
852.702	43.6643
856.076	46.2231
859.451	46.7934
862.826	46.1754
866.201	48.5701
869.576	44.6812
872.951	45.0955
876.325	41.7682
879.7	40.0084
883.075	37.4002
886.45	32.2095
889.825	28.678
893.199	24.0092
896.574	23.7955
899.949	16.099
903.324	14.8458
906.699	11.3649
910.073	11.6553
913.448	4.83649
916.823	7.75684
920.198	0.336182
923.573	3.15051
926.948	3.78522
930.322	6.33154
933.697	0.267334
937.072	1.82941
940.447	1.97998
943.822	0.02655
947.197	1.04547
950.571	4.45288
953.946	0.650757
957.321	1.07257
960.696	0.215637
964.071	1.03888
967.445	0.485291
970.82	4.61224
974.195	0.627502
977.57	1.98358
980.945	5.05505
984.319	1.39734
987.694	5.81213
991.069	4.12616
994.444	3.2157
997.819	7.08148
1001.19	6.37225
1004.57	6.09564
1007.94	6.97961
1011.32	6.50519
1014.69	10.18
1018.07	7.461
1021.44	6.2179
1024.82	6.87543
1028.19	11.0968
1031.57	5.87933
1034.94	11.7007
1038.32	9.38379
1041.69	12.1549
1045.07	8.55347
1048.44	6.77002
1051.82	7.32446
1055.19	9.58313
1058.57	8.71252
1061.94	6.39954
1065.32	7.20282
1068.69	6.95111
1072.07	3.19421
1075.44	0.057983
1078.81	4.45856
1082.19	5.39258
1085.56	5.94879
1088.94	8.58356
1092.31	0.544006
1095.69	0.204041
1099.06	2.8988
1102.44	1.10474
1105.81	7.25726
1109.19	0.343018
1112.56	0.037109
1115.94	1.90112
1119.31	5.75317
1122.69	2.28259
1126.06	6.46649
1129.44	2.02112
1132.81	5.15125
1136.19	7.33643
1139.56	6.98126
1142.94	9.69281
1146.31	4.66266
1149.69	7.60638
1153.06	6.73804
1156.43	6.72247
1159.81	6.21912
1163.18	4.31201
1166.56	5.36438
1169.93	4.91675
1173.31	5.25873
1176.68	7.40448
1180.06	2.9754
1183.43	2.34973
1186.81	2.47382
1190.18	7.18414
1193.56	4.37189
1196.93	6.4154
1200.31	2.53351
1203.68	3.55664
1207.06	1.84638
1210.43	2.3833
1213.81	1.70618
1217.18	2.30273
1220.56	5.62189
1223.93	4.02405
1227.31	0.871582
1230.68	1.30011
1234.06	1.46094
1237.43	1.53137
1240.81	2.65686
1244.18	3.45996
1247.56	1.31458
1250.93	0.664734
1254.31	8.90936
1257.68	4.75732
1261.05	5.83795
1264.43	3.82703
1267.8	1.69318
1271.18	4.82147
1274.55	2.77472
1277.93	2.84412
1281.3	4.27692
