Measurement: Raman, 532 nm, unoriented, Raman Data RAW
Mineral: Microlite
Rruff sample: R070058
Ideal chemistry: (Ca,Na)_2_Ta_2_(O,OH,F)_7_
Locality: Kyoktogai pegmatite field, Altai, Xinjinag Province, China
Source: Michael Scott
Description: Bluish-green fragments embedded in epoxy, co-type material. Originally labeled as 'natrobistantite', a discredited species.
Raman shift (cm-1)	intensity
142.949	18658.3
146.324	19399.4
149.698	20347.9
153.073	21000
156.448	20973.2
159.823	21057.6
163.198	21344.7
166.573	21411.7
169.947	21481.4
173.322	21365.5
176.697	21098.5
180.072	20896.9
183.447	20679.8
186.821	20547.6
190.196	20445.1
193.571	20229.2
196.946	20187.2
200.321	20189.2
203.696	20220.8
207.07	20372.6
210.445	20493.2
213.82	20522
217.195	20545.6
220.57	20804.1
223.945	20734
227.319	20987.7
230.694	21144.5
234.069	21331.8
237.444	21697
240.819	22393.8
244.193	23250.3
247.568	24335.2
250.943	25706.3
254.318	26519.8
257.693	26858.6
261.067	26354.4
264.442	25153.9
267.817	24158.2
271.192	23344.9
274.567	22810.9
277.942	22272.3
281.316	21830.4
284.691	21520.5
288.066	21202.8
291.441	20874.5
294.816	20552.7
298.19	20308.9
301.565	20086
304.94	19976.2
308.315	19830.5
311.69	19696.3
315.065	19772.8
318.439	19560.9
321.814	19674.2
325.189	19693.9
328.564	19627.8
331.939	19665.3
335.313	19815.6
338.688	19749.4
342.063	19804.1
345.438	19880.2
348.813	19790.8
352.188	19914.3
355.562	19974.3
358.937	19906.6
362.312	19908.3
365.687	20072.1
369.062	20119.4
372.437	20204.7
375.811	20363.8
379.186	20587.2
382.561	20577.4
385.936	20574.7
389.311	20480.4
392.685	20351.2
396.06	20205.6
399.435	20032.8
402.81	19913.7
406.185	19763.2
409.56	19729.4
412.934	19538.8
416.309	19473.6
419.684	19491.2
423.059	19540.7
426.434	19569.3
429.808	19518.9
433.183	19451.8
436.558	19504.3
439.933	19504.9
443.308	19479.3
446.683	19376.7
450.057	19370.1
453.432	19318.5
456.807	19192.2
460.182	19144.5
463.557	19204.2
466.931	19176.6
470.306	19262
473.681	19288.3
477.056	19395
480.431	19505.4
483.805	19663.5
487.18	19673.7
490.555	19592.1
493.93	19436
497.305	19443.8
500.68	19346.5
504.054	19225.3
507.429	19157.2
510.804	19137
514.179	18979
517.554	18917.2
520.928	18806.6
524.303	18710.7
527.678	18628.4
531.053	18645.9
534.428	18597.7
537.803	18713.9
541.177	18609.5
544.552	18622.6
547.927	18611.6
551.302	18555.9
554.677	18626.7
558.052	18605.9
561.426	18618.2
564.801	18665
568.176	18729
571.551	18680.4
574.926	18687.6
578.3	18682.5
581.675	18730.6
585.05	18646.1
588.425	18695.3
591.8	18605
595.174	18462
598.549	18432
601.924	18513.5
605.299	18368.5
608.674	18407.5
612.049	18430.7
615.423	18498.3
618.798	18449.5
622.173	18503.4
625.548	18278
628.923	18104.1
632.298	18003.3
635.672	18005.7
639.047	17929.5
642.422	17911.6
645.797	17713.7
649.172	17572.4
652.546	17435.6
655.921	17330.9
659.296	17115
662.671	17073
666.046	16795.3
669.42	16627.2
672.795	16388
676.17	16178.6
679.545	16020.4
682.92	15781.2
686.295	15618.3
689.669	15454.1
693.044	15297
696.419	15183.3
699.794	15023.3
703.169	14904.4
706.543	14780.9
709.918	14721.7
713.293	14590.4
716.668	14538.6
720.043	14384.5
723.418	14289.1
726.792	14250.9
730.167	14180.7
733.542	14156
736.917	14153.8
740.292	14086
743.667	14041.1
747.041	13897
750.416	13962.7
753.791	13885.9
757.166	13959.7
760.541	13932.7
763.915	13888
767.29	13907.8
770.665	13881.7
774.04	13869.9
777.415	13870.6
780.79	13826.1
784.164	13760.5
787.539	13908.6
790.914	13797.7
794.289	13749.5
797.664	13673.2
801.038	13616.2
804.413	13509
807.788	13448.6
811.163	13444.6
814.538	13384.5
817.913	13336.3
821.287	13366.9
824.662	13353.2
828.037	13301.2
831.412	13158.7
834.787	13239.1
838.161	13233.3
841.536	13209.8
844.911	13123.6
848.286	13007.2
851.661	12983.5
855.035	12893.2
858.41	12924
861.785	12828.4
865.16	12771.9
868.535	12663.9
871.91	12749.5
875.284	12695.6
878.659	12616.8
882.034	12524.3
885.409	12462.8
888.784	12446.3
892.159	12412.4
895.533	12349.5
898.908	12286
902.283	12210.3
905.658	12173.3
909.033	12136
912.408	12037.7
915.782	11932.5
919.157	11825
922.532	11733.6
925.907	11692.7
929.282	11688.1
932.656	11580.1
936.031	11639.3
939.406	11515.6
942.781	11467.6
946.156	11367.8
949.53	11277.4
952.905	11246.3
956.28	11206.6
959.655	11104.8
963.03	11079.4
966.404	10938.3
969.779	10971.7
973.154	10847.9
976.529	10767
979.904	10758.1
983.279	10742.7
986.653	10731.8
990.028	10729.1
993.403	10967.5
996.778	11244.7
1000.15	11596
1003.53	11361
1006.9	10786.5
1010.28	10416.5
1013.65	10368.5
1017.03	10309.7
1020.4	10362.4
1023.78	10367.4
1027.15	10385.2
1030.53	10405.5
1033.9	10353.4
1037.28	10231.7
1040.65	10030.3
1044.03	10064.5
1047.4	10053
1050.78	9924.49
1054.15	9840.18
1057.53	9971.42
1060.9	9837.1
1064.27	9786.48
1067.65	9748.46
1071.02	9722.93
1074.4	9648.73
1077.77	9713.55
1081.15	9694.42
1084.52	9648.21
1087.9	9593.47
1091.27	9596.25
1094.65	9534.68
1098.02	9568.46
1101.4	9511.57
1104.77	9426.23
1108.15	9432.58
1111.52	9304.47
1114.9	9334.54
1118.27	9301.68
1121.65	9291.98
1125.02	9284.88
1128.4	9229.65
1131.77	9237.28
1135.15	9229.78
1138.52	9182.32
1141.89	9186.91
1145.27	9184.93
1148.64	9223.26
1152.02	9175.17
1155.39	9214.03
1158.77	9190.55
1162.14	9131.38
1165.52	9105.16
1168.89	9080.92
1172.27	9083.77
1175.64	9071.42
1179.02	9087.22
1182.39	9159.93
1185.77	8997.94
1189.14	9004.1
1192.52	9042.94
1195.89	9024.6
1199.27	9000.13
1202.64	8953.52
1206.02	8876.02
1209.39	8842.76
1212.77	8768.41
1216.14	8736.78
1219.52	8700.61
1222.89	8648.39
1226.27	8618.07
1229.64	8632.92
1233.02	8647.96
1236.39	8542.88
1239.77	8522.82
1243.14	8552.58
1246.52	8493.62
1249.89	8461.7
1253.26	8438.02
1256.64	8477.99
1260.01	8436.69
1263.39	8439.77
1266.76	8403.68
1270.14	8403.19
1273.51	8409.47
1276.89	8378.63
1280.26	8373.09
1283.64	8323.49
1287.01	8376.75
1290.39	8354.78
1293.76	8298.49
1297.14	8248.29
1300.51	8243.31
1303.89	8229.44
1307.26	8251.79
1310.64	8240.38
1314.01	8230.27
