Measurement: Raman, 785 nm, unoriented, Raman Data RAW
Mineral: Mimetite
Rruff sample: R060920
Ideal chemistry: Pb^2+^_5_(As^5+^O_4_)_3_Cl
Locality: Tsumeb mine, Tsumeb, Otavi District, Oshikoto, Namibia
Source: Marcus Origlieri
Description: Yellow to brownish hexagonal prism, monoclinic polytype
Raman shift (cm-1)	intensity
123.938	1075.32
126.831	1982.84
129.723	3158.97
132.616	4451.48
135.509	4142.99
138.401	3902.44
141.294	4573.1
144.187	6277.47
147.08	8514.18
149.972	9831.43
152.865	9777.39
155.758	9272.7
158.65	9405.83
161.543	10233.2
164.436	11497.1
167.328	12824.4
170.221	13437.7
173.114	13288.2
176.007	12502.4
178.899	11845.4
181.792	11132.5
184.685	10419.7
187.577	9633.04
190.47	8839.44
193.363	7975.55
196.256	7246.35
199.148	6566.01
202.041	5951.86
204.934	5452.72
207.826	5085.13
210.719	4717.56
213.612	4451.4
216.504	4146.21
219.397	3943.54
222.29	3700.77
225.183	3520.83
228.075	3274.3
230.968	3160.4
233.861	2971.88
236.753	2886.02
239.646	2796.3
242.539	2709.52
245.431	2619.12
248.324	2524.58
251.217	2480.52
254.109	2435.74
257.002	2407.1
259.895	2377.61
262.788	2316.38
265.68	2310.06
268.573	2318.93
271.466	2319.12
274.358	2343.16
277.251	2379.53
280.144	2473.06
283.036	2627.61
285.929	2799.96
288.822	3005.82
291.715	3549.54
294.607	4412.45
297.5	5616.65
300.393	7379.64
303.285	9145.01
306.178	10511.6
309.071	12135.4
311.964	13632.1
314.856	13536.7
317.749	11586.9
320.642	9475.53
323.534	8600.08
326.427	8972.34
329.32	10092.9
332.212	11616.9
335.105	12869
337.998	13210.1
340.891	12552.8
343.783	11119.8
346.676	9360.05
349.569	7658.46
352.461	6318.56
355.354	5275.93
358.247	4637.89
361.139	4379.43
364.032	4579.76
366.925	5164.78
369.818	6019.87
372.71	6186.01
375.603	5417.6
378.496	4494.9
381.388	4018.28
384.281	3844.34
387.174	3923.02
390.067	3924.93
392.959	3717.98
395.852	3786.63
398.745	4227.06
401.637	5019.83
404.53	6053.28
407.423	6962.62
410.315	6925.64
413.208	5951.47
416.101	5264.3
418.993	5212.15
421.886	5345.98
424.779	4938.07
427.672	4019.85
430.564	3163.84
433.457	2629.95
436.35	2307.24
439.242	2088.61
442.135	1852.27
445.028	1602.12
447.921	1427.86
450.813	1316.71
453.706	1189.1
456.599	1091.27
459.491	1040.69
462.384	988.112
465.277	965.111
468.169	902.237
471.062	897.371
473.955	890.23
476.848	847.189
479.74	833.47
482.633	788.308
485.526	781.912
488.418	742.37
491.311	741.315
494.204	745.415
497.096	706.054
499.989	699.011
502.882	696.459
505.774	662.822
508.667	643.345
511.56	652.798
514.453	632.755
517.345	597.221
520.238	590.555
523.131	595.11
526.023	574.108
528.916	561.502
531.809	528.384
534.702	499.103
537.594	525.139
540.487	520.039
543.38	545.809
546.272	520.183
549.165	526.248
552.058	512.894
554.95	521.107
557.843	516.725
560.736	527.107
563.629	520.648
566.521	482.654
569.414	474.322
572.307	502.254
575.199	539.337
578.092	521.768
580.985	506.124
583.877	499.315
586.77	512.71
589.663	537.887
592.556	540.487
595.448	543.326
598.341	535.823
601.234	566.571
604.126	564.307
607.019	573.368
609.912	576.457
612.804	576.5
615.697	589.719
618.59	558.119
621.482	554.297
624.375	547.252
627.268	521.299
630.161	526.234
633.053	528.581
635.946	507.586
638.839	477.655
641.731	498.3
644.624	491.017
647.517	478.068
650.409	485.642
653.302	483.644
656.195	514.755
659.088	512.956
661.98	477.045
664.873	488.848
667.766	520.895
670.658	520.986
673.551	527.147
676.444	552.183
679.337	553.025
682.229	558.109
685.122	574.369
688.015	594.709
690.907	618.979
693.8	627.621
696.693	622.238
699.585	694.696
702.478	728.163
705.371	736.987
708.264	778.857
711.156	839.621
714.049	886.704
716.942	951.578
719.834	1022.12
722.727	1109.31
725.62	1144.65
728.513	1259.99
731.405	1383.46
734.298	1483.43
737.191	1627.06
740.083	1791.13
742.976	2008.09
745.869	2208.34
748.761	2677.56
751.654	3266.03
754.547	4304.3
757.439	5965.42
760.332	8495.5
763.225	11515.2
766.118	12638.5
769.01	10913.4
771.903	8978.5
774.796	8128.09
777.688	8345.02
780.581	9874.55
783.474	12111.4
786.366	13712.3
789.259	13871.3
792.152	14424.6
795.045	16897.8
797.937	23785
800.83	38281.2
803.723	64316.6
806.615	79366.8
809.508	68613.6
812.401	69796.7
815.293	66336.4
818.186	45034.9
821.079	25968.3
823.972	16366.3
826.864	11424.1
829.757	8726.85
832.65	7034.64
835.542	5897.56
838.435	5033.64
841.328	4405.35
844.221	3904.57
847.113	3501.3
850.006	3122.22
852.899	2747.09
855.791	2472.19
858.684	2240.66
861.577	2049.91
864.469	1825.86
867.362	1710.92
870.255	1610.09
873.148	1524.94
876.04	1419.44
878.933	1330.45
881.826	1264.41
884.718	1211.38
887.611	1153.37
890.504	1102.78
893.396	1015.18
896.289	949.882
899.182	857.783
902.074	801.865
904.967	731.599
907.86	684.319
910.753	653.103
913.645	603.75
916.538	627.527
919.431	655.423
922.323	638.597
925.216	550.504
928.109	489.791
931.001	454.627
933.894	414.468
936.787	415.473
939.68	405.462
942.572	379.192
945.465	401.249
948.358	379.873
951.25	368.99
954.143	385.864
957.036	373.091
959.928	340.917
962.821	339.95
965.714	343.726
968.607	349.971
971.499	356.554
974.392	330.747
977.285	323.315
980.177	318.486
983.07	327.785
985.963	318.456
988.856	292.425
991.748	261.904
994.641	281.157
997.534	278.412
1000.43	282.063
1003.32	302.038
1006.21	268.051
1009.1	267.14
1012	273.979
1014.89	267.391
1017.78	268.567
1020.67	254.582
1023.57	230.655
1026.46	229.869
1029.35	232.586
1032.25	254.276
1035.14	217.801
1038.03	249.662
1040.92	252.623
1043.82	272.984
1046.71	253.258
1049.6	272.184
1052.49	245.087
1055.39	250.324
1058.28	260.816
1061.17	278.794
1064.07	291.497
1066.96	297.768
1069.85	298.856
1072.74	308.893
1075.64	321.042
1078.53	336.198
1081.42	342.308
1084.32	354.188
1087.21	399.81
1090.1	365.84
1092.99	432.014
1095.88	436.241
1098.78	468.858
1101.67	544.661
1104.56	538.593
1107.46	583.413
1110.35	663.042
1113.24	717.898
1116.13	779.292
1119.03	902.703
1121.92	993.354
1124.81	1173.3
1127.7	1296.83
1130.6	1424.92
1133.49	1469.64
1136.38	1444.94
1139.28	1417.36
1142.17	1434.19
1145.06	1430.01
1147.95	1440.62
1150.85	1476.72
1153.74	1529.48
1156.63	1580.63
1159.53	1649.58
1162.42	1723.1
1165.31	1709.44
1168.2	1840.03
1171.1	1819.15
1173.99	1827.35
1176.88	1863.59
1179.77	1855.98
1182.67	1824.18
1185.56	1842.13
1188.45	1839.71
1191.35	1801.42
1194.24	1853
1197.13	1853.72
1200.02	1897.69
1202.91	1816.36
1205.81	1850.78
1208.7	1840.82
1211.59	1828.13
1214.49	1825.86
1217.38	1826.55
1220.27	1826.89
1223.16	1797.98
1226.06	1735.01
1228.95	1709.85
1231.84	1719.62
1234.73	1683.97
1237.63	1614.34
1240.52	1661.59
1243.41	1699.39
1246.31	1690.44
1249.2	1705.72
1252.09	1692.17
1254.98	1739.91
1257.88	1774.4
