Measurement: Raman, 780 nm, unoriented, Raman Data RAW
Mineral: Miserite
Rruff sample: R060095
Ideal chemistry: K_1.5-x_(Ca,Y,REE)_5_[Si_6_O_15_][Si_2_O_7_](OH,F)_2_yH_2_O
Locality: Magnet Cove, Garland County, Arkansas, USA
Source: University of Arizona Mineral Museum
Description: Massive pink fine fibers associated with eudialyte, wollastonite, and orthoclase
Measured chemistry: K_1.00_(Ca_5.85_Mn_0.05_Ti_0.05_[box]_0.05_)_Σ=6_Si_8.00_O_22_(F_1.46_(OH)_0.54_)_Σ=2_
Raman shift (cm-1)	intensity
93.4668	184.771
96.8416	186.083
100.216	183.158
103.591	178.004
106.966	175.371
110.341	172.329
113.716	173.26
117.091	173.799
120.465	177.772
123.84	178.755
127.215	176.08
130.59	175.782
133.965	176.986
137.339	179.374
140.714	181.901
144.089	183.675
147.464	185.51
150.839	188.028
154.214	192.18
157.588	195.536
160.963	202.504
164.338	206.589
167.713	209.848
171.088	216.034
174.462	220.774
177.837	227.496
181.212	230.975
184.587	235.058
187.962	237.022
191.337	241.085
194.711	246.394
198.086	254.54
201.461	259.182
204.836	265.896
208.211	268.723
211.585	271.839
214.96	276.18
218.335	281.74
221.71	289.651
225.085	299.453
228.459	310.52
231.834	320.292
235.209	331.571
238.584	338.417
241.959	347.303
245.333	350.411
248.708	353.921
252.083	354.114
255.458	353.092
258.833	354.937
262.208	360.599
265.582	370.737
268.957	382.628
272.332	401.889
275.707	421.575
279.082	445.579
282.457	470.344
285.831	496.145
289.206	516.602
292.581	532.831
295.956	546.718
299.331	554
302.705	557.57
306.08	558.166
309.455	551.424
312.83	538.29
316.205	523.903
319.579	511.986
322.954	500.935
326.329	499.92
329.704	505.938
333.079	516.797
336.454	534.197
339.828	550.676
343.203	567.721
346.578	584.414
349.953	599.912
353.328	609.652
356.702	625.788
360.077	645.682
363.452	668.655
366.827	696.987
370.202	727.828
373.577	762.242
376.951	792
380.326	819.679
383.701	837.383
387.076	842.326
390.451	828.931
393.825	802.818
397.2	762.75
400.575	725.315
403.95	688.967
407.325	667.397
410.7	657.581
414.074	662.969
417.449	679.64
420.824	712.39
424.199	758.192
427.574	816.135
430.948	880.778
434.323	952.733
437.698	1021.71
441.073	1080.16
444.448	1123.22
447.822	1141.82
451.197	1131.17
454.572	1101.86
457.947	1057.47
461.322	1001.03
464.697	935.706
468.071	867.479
471.446	806.885
474.821	753.377
478.196	702.312
481.571	657.877
484.945	622.25
488.32	587.335
491.695	558.592
495.07	535.407
498.445	513.057
501.82	493.751
505.194	479.505
508.569	463.21
511.944	449.33
515.319	436.955
518.694	425.118
522.068	411.502
525.443	401.539
528.818	391.585
532.193	382.25
535.568	373.474
538.943	367.316
542.317	359.803
545.692	352.495
549.067	344.559
552.442	342.567
555.817	338.512
559.192	335.036
562.566	334.552
565.941	332.799
569.316	331.924
572.691	332.118
576.066	332.033
579.44	330.023
582.815	328.457
586.19	329.137
589.565	325.573
592.94	325.881
596.314	324.365
599.689	325.322
603.064	325.368
606.439	329.397
609.814	331.683
613.188	336.385
616.563	343.171
619.938	351.192
623.313	360.95
626.688	366.558
630.063	373.031
633.437	383.739
636.812	396.021
640.187	399.656
643.562	381.598
646.937	356.304
650.312	338.528
653.686	324.612
657.061	314.231
660.436	307.784
663.811	299.129
667.186	293.783
670.56	287.81
673.935	282.252
677.31	277.134
680.685	272.642
684.06	267.909
687.434	263.283
690.809	260.218
694.184	257.401
697.559	253.321
700.934	251.768
704.308	249.756
707.683	249.068
711.058	250.207
714.433	251.271
717.808	253.463
721.183	259.162
724.557	261.868
727.932	267.411
731.307	273.95
734.682	279.301
738.057	284.007
741.432	288.393
744.806	291.367
748.181	295.8
751.556	298.59
754.931	302.883
758.306	307.828
761.68	314.542
765.055	322.033
768.43	329.204
771.805	335.037
775.18	341.094
778.554	339.317
781.929	333.176
785.304	322.31
788.679	310.228
792.054	300.003
795.429	294.201
798.803	287.359
802.178	281.784
805.553	275.314
808.928	273.72
812.303	270.758
815.678	269.182
819.052	271.276
822.427	273.1
825.802	276.598
829.177	280.432
832.552	284.423
835.926	290.836
839.301	295.98
842.676	300.674
846.051	303.659
849.426	305.759
852.801	306.762
856.175	306.423
859.55	305.751
862.925	304.019
866.3	304.4
869.675	304.258
873.049	306.823
876.424	313.075
879.799	318.646
883.174	324.351
886.549	331.12
889.923	338.419
893.298	343.227
896.673	344.685
900.048	342.708
903.423	344.319
906.798	343.089
910.172	341.958
913.547	338.936
916.922	334.18
920.297	328.285
923.672	321.646
927.046	312.122
930.421	305.427
933.796	296.417
937.171	291.211
940.546	288.55
943.92	286.607
947.295	285.209
950.67	285.185
954.045	285.132
957.42	288.205
960.795	290.024
964.169	292.567
967.544	294.719
970.919	298.258
974.294	301.821
977.669	301.496
981.043	306.195
984.418	309.375
987.793	313.304
991.168	313.681
994.543	313.504
997.918	317.045
1001.29	316.626
1004.67	316.883
1008.04	316.476
1011.42	316.35
1014.79	315.204
1018.17	315.455
1021.54	313.606
1024.92	314.592
1028.29	316.519
1031.67	317.613
1035.04	319.327
1038.41	326.134
1041.79	328
1045.16	333.236
1048.54	336.492
1051.91	340.433
1055.29	345.992
1058.66	349.534
1062.04	355.895
1065.41	354.545
1068.79	356.366
1072.16	359.285
1075.54	363.183
1078.91	367.565
1082.29	371.981
1085.66	379.572
1089.04	386.278
1092.41	392.386
1095.79	400.261
1099.16	406.575
1102.54	416.807
1105.91	428.653
1109.29	441.994
1112.66	456.466
1116.04	471.195
1119.41	484.941
1122.79	497.758
1126.16	499.575
1129.54	500.481
1132.91	509.719
1136.29	523.178
1139.66	538.225
1143.04	555.919
1146.41	574.465
1149.78	593.628
1153.16	617.207
1156.53	648.157
1159.91	672.713
1163.28	702.646
1166.66	731.115
1170.03	756.808
1173.41	777.391
1176.78	798.695
1180.16	817.775
1183.53	835.161
1186.91	851.635
1190.28	867.268
1193.66	883.386
1197.03	901.898
1200.41	920.293
1203.78	942.905
1207.16	963.533
1210.53	991.552
1213.91	1023
1217.28	1050.89
1220.65	1090.43
1224.03	1132.77
1227.4	1179.04
1230.78	1230.78
1234.15	1283.61
1237.53	1349.47
1240.9	1419.84
1244.28	1496.15
1247.65	1590.57
1251.03	1687.18
1254.4	1797.05
1257.78	1919.75
1261.15	2067.21
1264.53	2226.14
1267.9	2415.17
1271.28	2614.08
1274.65	2825.51
1278.03	3051.38
1281.4	3283.84
1284.78	3512.93
