Measurement: Raman, 532 nm, unoriented, Raman Data Processed
Mineral: Mitridatite
Rruff sample: R060367
Ideal chemistry: Ca_2_Fe^3+^_3_O_2_(PO_4_)_3_3H_2_O
Locality: Palermo #1 mine, North Groton, Grafton County, New Hampshire, USA
Source: Michael Scott
Description: Olive-green crust
Raman shift (cm-1)	intensity
140.687	0
144.062	7.35828
147.437	5.94855
150.812	6.47498
154.187	3.88464
157.561	0.727051
160.936	3.60449
164.311	8.63922
167.686	3.75793
171.061	7.45197
174.436	15.1133
177.81	24.6403
181.185	29.8543
184.56	33.3781
187.935	38.3981
191.31	39.8484
194.685	34.9009
198.059	15.2673
201.434	7.4328
204.809	1.75104
208.184	2.99237
211.559	7.56165
214.933	14.2628
218.308	13.1761
221.683	10.314
225.058	10.2889
228.433	4.87305
231.808	5.40912
235.182	0.232544
238.557	1.74023
241.932	0.762634
245.307	10.0739
248.682	15.8144
252.056	25.8315
255.431	36.8345
258.806	53.671
262.181	67.6338
265.556	79.3827
268.93	85.312
272.305	96.6456
275.68	89.7283
279.055	84.4104
282.43	66.8176
285.805	59.7858
289.179	51.6522
292.554	42.4995
295.929	37.9317
299.304	40.587
302.679	40.5747
306.053	37.3566
309.428	35.8463
312.803	35.126
316.178	35.63
319.553	31.5476
322.928	26.1183
326.302	23.0599
329.677	16.9504
333.052	8.64081
336.427	7.17755
339.802	8.82227
343.176	5.14368
346.551	3.61304
349.926	1.76703
353.301	2.2309
356.676	0.615784
360.051	3.73541
363.425	0.486389
366.8	4.79553
370.175	9.37164
373.55	9.60712
376.925	16.6692
380.3	23.6436
383.674	35.7485
387.049	49.4952
390.424	55.1257
393.799	62.2744
397.174	71.6281
400.548	78.1709
403.923	79.8109
407.298	90.7969
410.673	102.512
414.048	109.534
417.423	121.804
420.797	118.629
424.172	115.858
427.547	121.08
430.922	118.227
434.296	106.413
437.671	101.819
441.046	97.6585
444.421	93.0522
447.796	88.5413
451.171	75.5876
454.545	61.2358
457.92	50.4828
461.295	49.8701
464.67	45.465
468.045	39.7825
471.42	36.7902
474.794	26.0985
478.169	21.9387
481.544	14.4666
484.919	11.3167
488.294	7.53033
491.668	5.61218
495.043	5.73798
498.418	8.74646
501.793	3.29126
505.168	0.317261
508.543	0.344421
511.917	1.53558
515.292	2.99438
518.667	6.3349
522.042	1.82519
525.417	3.16907
528.791	2.32446
532.166	4.16516
535.541	6.87555
538.916	10.4661
542.291	16.7356
545.665	20.6244
549.04	18.7456
552.415	19.9615
555.79	17.8023
559.165	17.168
562.54	11.4383
565.914	7.81036
569.289	11.7307
572.664	11.7476
576.039	10.3557
579.414	8.40424
582.788	12.205
586.163	17.3817
589.538	23.3029
592.913	22.4285
596.288	26.5348
599.663	26.9283
603.037	19.2721
606.412	16.7614
609.787	18.1844
613.162	22.5308
616.537	27.4103
619.912	26.1707
623.286	26.0601
626.661	27.6741
630.036	22.314
633.411	20.7873
636.786	19.5978
640.16	20.3133
643.535	12.2686
646.91	11.332
650.285	13.0619
653.66	11.9097
657.034	6.54675
660.409	4.89227
663.784	3.10803
667.159	6.01166
670.534	8.61328
673.909	11.9059
677.283	1.95673
680.658	1.31696
684.033	4.33801
687.408	5.177
690.783	3.81622
694.158	1.28949
697.532	1.16888
700.907	1.47815
704.282	1.13452
707.657	1.26947
711.032	5.20728
714.406	5.32617
717.781	0.635254
721.156	0.973145
724.531	0.918213
727.906	2.69751
731.28	0.824707
734.655	2.29291
738.03	8.51544
741.405	6.28625
744.78	3.9364
748.154	3.19574
751.529	4.19641
754.904	3.75049
758.279	10.6434
761.654	7.01386
765.029	4.74506
768.403	4.81177
771.778	5.59326
775.153	5.65851
778.528	5.92664
781.903	10.6405
785.278	9.61639
788.652	5.77313
792.027	9.65375
795.402	7.49029
798.777	10.905
802.152	7.78894
805.526	6.85089
808.901	5.40045
812.276	8.29285
815.651	7.42688
819.026	8.56982
822.4	8.1098
825.775	5.10516
829.15	8.59131
832.525	10.2283
835.9	10.3617
839.275	9.96039
842.649	10.0861
846.024	11.381
849.399	5.02246
852.774	7.13434
856.149	9.56183
859.524	6.43469
862.898	2.75885
866.273	4.6684
869.648	5.27911
873.023	1.04065
876.398	0.721985
879.773	0.757629
883.147	0.429443
886.522	3.5321
889.897	2.39307
893.272	0.579163
896.646	0.138
900.021	0.756714
903.396	2.21582
906.771	4.64252
910.146	5.00726
913.521	14.0079
916.895	24.2698
920.27	43.9233
923.645	63.0087
927.02	89.3046
930.395	102.448
933.769	101.197
937.144	113.117
940.519	150.725
943.894	184.422
947.269	127.467
950.644	76.0887
954.018	51.8508
957.393	48.5025
960.768	48.4158
964.143	45.0675
967.518	40.8379
970.893	29.918
974.267	23.6635
977.642	19.9884
981.017	16.0126
984.392	11.9702
987.767	8.5592
991.141	1.73682
994.516	2.1853
997.891	1.25366
1001.27	0.110718
1004.64	6.70557
1008.02	10.5992
1011.39	16.1194
1014.76	19.8103
1018.14	27.2819
1021.51	32.6178
1024.89	41.9688
1028.26	55.3799
1031.64	62.4406
1035.01	60.554
1038.39	52.8403
1041.76	40.8406
1045.14	25.2877
1048.51	19.1271
1051.89	9.03967
1055.26	9.69922
1058.64	7.47852
1062.01	5.49597
1065.39	1.59912
1068.76	1.13477
1072.14	0.219238
1075.51	0.140625
1078.89	2.98596
1082.26	6.33948
1085.64	13.4119
1089.01	16.13
1092.39	26.526
1095.76	29.7633
1099.14	22.2407
1102.51	13.8501
1105.88	11.2604
1109.26	2.50317
1112.63	1.17371
1116.01	0.685669
1119.38	6.01184
1122.76	3.31677
1126.13	2.20813
1129.51	3.30029
1132.88	2.66126
1136.26	6.0061
1139.63	10.5454
1143.01	10.261
1146.38	9.02185
1149.76	8.4447
1153.13	16.8367
1156.51	12.6274
1159.88	14.7928
1163.26	15.8341
1166.63	17.0343
1170.01	19.142
1173.38	25.8478
1176.76	32.3545
1180.13	40.3614
1183.51	38.579
1186.88	33.9471
1190.26	30.6644
1193.63	21.8799
1197.01	16.6263
1200.38	13.9816
1203.76	9.07581
1207.13	5.82263
1210.51	3.81519
1213.88	8.04016
1217.25	7.00281
1220.63	5.61816
1224	1.95911
1227.38	0.342529
1230.75	0.591797
1234.13	1.98181
1237.5	0.500977
1240.88	4.88232
1244.25	8.75537
1247.63	9.50476
1251	5.68225
1254.38	7.96228
1257.75	10.8973
1261.13	11.8745
1264.5	6.19482
1267.88	6.64172
1271.25	3.05188
1274.63	2.72571
1278	1.08643
1281.38	6.02722
1284.75	3.20496
1288.12	4.70227
1291.5	1.13892
1294.88	3.74744
1298.25	3.51917
