Measurement: Raman, 780 nm, unoriented, Raman Data Processed
Mineral: Mitridatite
Rruff sample: R060367
Ideal chemistry: Ca_2_Fe^3+^_3_O_2_(PO_4_)_3_3H_2_O
Locality: Palermo #1 mine, North Groton, Grafton County, New Hampshire, USA
Source: Michael Scott
Description: Olive-green crust
Raman shift (cm-1)	intensity
129.526	0
132.419	0.428864
135.312	1.76245
138.204	0.919983
141.097	0.914642
143.99	3.47577
146.882	4.15295
149.775	4.42355
152.668	4.6532
155.56	4.31097
158.453	5.83206
161.346	9.2948
164.239	8.97134
167.131	3.76422
170.024	6.02362
172.917	6.82608
175.809	7.58044
178.702	11.5776
181.595	14.3879
184.488	13.9714
187.38	16.7783
190.273	17.7912
193.166	13.8888
196.058	5.72601
198.951	1.90048
201.844	3.17734
204.736	2.2207
207.629	1.93948
210.522	1.8446
213.415	1.65814
216.307	3.38965
219.2	4.71759
222.093	6.34656
224.985	2.88486
227.878	0.140228
230.771	0.230621
233.663	0.592529
236.556	0.258331
239.449	1.14697
242.341	1.3096
245.234	2.53357
248.127	1.90826
251.02	1.23108
253.912	4.1297
256.805	7.33188
259.698	9.09772
262.591	12.1723
265.483	15.3195
268.376	15.7018
271.269	14.2247
274.161	15.8161
277.054	12.9796
279.947	11.8031
282.839	9.66592
285.732	11.0021
288.625	10.0983
291.517	8.41431
294.41	7.93387
297.303	9.29486
300.196	8.77533
303.088	10.3839
305.981	9.20258
308.874	9.77563
311.766	10.8698
314.659	10.7346
317.552	9.62003
320.445	10.338
323.337	8.74286
326.23	8.03
329.123	5.33066
332.015	5.16711
334.908	3.40674
337.801	0.226196
340.693	1.15512
343.586	0.532806
346.479	0.698975
349.372	0.422974
352.264	0.701569
355.157	1.14413
358.05	1.14386
360.942	5.89654
363.835	3.08704
366.728	6.68201
369.62	6.54031
372.513	5.72311
375.406	6.88831
378.298	8.76639
381.191	10.2212
384.084	13.8353
386.977	12.9515
389.869	15.1122
392.762	16.8215
395.655	16.1826
398.547	18.5111
401.44	19.0733
404.333	21.1328
407.226	23.7876
410.118	25.5518
413.011	29.8287
415.904	32.0551
418.796	34.3307
421.689	30.5095
424.582	29.4628
427.474	29.2652
430.367	29.049
433.26	25.4438
436.152	24.7798
439.045	22.3839
441.938	21.8014
444.831	20.1478
447.723	18.2599
450.616	16.5156
453.509	13.9922
456.401	10.7706
459.294	10.726
462.187	9.37952
465.079	7.18561
467.972	6.50119
470.865	7.92639
473.758	5.98627
476.65	6.80914
479.543	8.15979
482.436	3.59876
485.328	4.09631
488.221	2.84723
491.114	3.66568
494.007	1.85275
496.899	0.897156
499.792	1.24219
502.685	0.449585
505.577	0.85788
508.47	0.139282
511.363	0.115051
514.255	1.418
517.148	0.593109
520.041	2.29623
522.933	1.21808
525.826	2.34552
528.719	1.41003
531.612	1.56177
534.504	1.84558
537.397	2.89059
540.29	3.23016
543.182	5.76239
546.075	7.79736
548.968	9.35022
551.861	10.5668
554.753	7.47842
557.646	6.53296
560.539	5.19379
563.431	2.52243
566.324	1.98325
569.217	2.55985
572.109	2.59045
575.002	2.54608
577.895	4.94623
580.788	4.27594
583.68	6.24786
586.573	7.62897
589.466	8.4606
592.358	10.1884
595.251	11.7094
598.144	12.9177
601.037	9.60403
603.929	4.72308
606.822	2.39679
609.715	0.895599
612.607	1.04288
615.5	0.699509
618.393	0.630676
621.285	2.77354
624.178	2.71136
627.071	2.96831
629.963	3.07111
632.856	2.96118
635.749	3.82031
638.642	2.22476
641.534	3.86851
644.427	1.43372
647.32	4.5171
650.212	2.37134
653.105	1.20207
655.998	2.63442
658.89	2.13003
661.783	1.66969
664.676	0.166397
667.569	1.35403
670.461	2.06316
673.354	0.69693
676.247	0.650131
679.139	0.541885
682.032	1.42975
684.925	0.787262
687.817	1.87875
690.71	0.240494
693.603	1.19116
696.496	0.9702
699.388	0.083038
702.281	1.07404
705.174	1.31064
708.066	1.57649
710.959	0.069168
713.852	2.47049
716.745	0.548828
719.637	0.96022
722.53	0.987854
725.423	1.79564
728.315	1.87506
731.208	3.00813
734.101	1.83411
736.993	3.11047
739.886	1.24764
742.779	0.732452
745.672	1.97086
748.564	0.895905
751.457	0.504593
754.35	1.03557
757.242	1.33658
760.135	0.979614
763.028	1.35184
765.92	0.178253
768.813	0.912354
771.706	0.275803
774.598	0.56044
777.491	2.27974
780.384	0.314148
783.277	0.350906
786.169	1.41147
789.062	1.52951
791.955	1.29144
794.847	0.377121
797.74	2.03532
800.633	2.11038
803.526	1.00996
806.418	1.52928
809.311	0.061111
812.204	0.012833
815.096	1.79285
817.989	3.37257
820.882	3.74666
823.774	2.64667
826.667	2.82404
829.56	1.55983
832.453	2.54468
835.345	1.78036
838.238	1.26015
841.131	1.27214
844.023	2.43939
846.916	3.1539
849.809	2.28467
852.702	4.30043
855.594	3.05446
858.487	2.37517
861.38	3.4664
864.272	2.57466
867.165	2.32405
870.058	2.30391
872.95	2.20778
875.843	1.41196
878.736	1.52779
881.629	0.618088
884.521	0.340622
887.414	0.347412
890.307	0.823196
893.199	0.150101
896.092	0.209152
898.985	1.1911
901.877	2.25783
904.77	2.87962
907.663	2.34163
910.556	4.25006
913.448	6.33989
916.341	10.3846
919.234	11.4579
922.126	19.8564
925.019	29.0366
927.912	34.7402
930.804	33.4826
933.697	28.7154
936.59	30.5309
939.482	42.864
942.375	57.3311
945.268	47.9087
948.161	27.0041
951.053	17.3532
953.946	14.1827
956.839	14.8991
959.731	14.2159
962.624	14.1427
965.517	12.5618
968.409	8.63815
971.302	3.51826
974.195	3.39181
977.088	3.30632
979.98	3.35553
982.873	3.02976
985.766	1.42091
988.658	1.06511
991.551	0.5186
994.444	0.613419
997.337	0.314224
1000.23	0.374832
1003.12	1.18234
1006.01	1.08106
1008.91	2.74605
1011.8	5.07622
1014.69	7.91383
1017.59	7.7688
1020.48	7.56091
1023.37	7.67343
1026.26	7.57498
1029.16	8.45515
1032.05	9.19438
1034.94	6.79573
1037.83	7.07234
1040.73	6.40454
1043.62	2.74596
1046.51	0.760834
1049.4	2.963
1052.3	1.03937
1055.19	1.51617
1058.08	1.48732
1060.98	0.945251
1063.87	0.309967
1066.76	1.34651
1069.65	1.61353
1072.55	0.725311
1075.44	3.80362
1078.33	6.07109
1081.22	5.62575
1084.12	10.361
1087.01	5.77216
1089.9	8.95094
1092.8	10.5752
1095.69	10.2897
1098.58	7.31873
1101.47	5.61578
1104.37	4.41159
1107.26	3.5976
1110.15	0.895309
1113.05	1.19426
1115.94	1.15355
1118.83	1.37685
1121.72	7.33373
1124.62	0.667542
1127.51	1.91899
1130.4	0.906021
1133.29	0.64035
1136.19	1.30808
1139.08	2.44557
1141.97	2.02113
1144.86	3.22032
1147.76	0.68808
1150.65	2.99954
1153.54	2.25136
1156.43	1.58675
1159.33	2.72809
1162.22	1.29282
1165.11	1.57474
1168.01	2.87308
1170.9	2.10634
1173.79	4.48383
1176.68	3.47887
1179.58	3.79042
1182.47	5.37854
1185.36	5.1405
1188.26	6.60429
1191.15	4.70343
1194.04	2.7379
1196.93	2.72496
1199.83	1.39078
1202.72	0.725983
1205.61	2.33609
1208.5	2.03622
1211.4	2.172
1214.29	2.7253
1217.18	1.21167
1220.07	1.60861
1222.97	1.24635
1225.86	0.025467
1228.75	0.516876
1231.64	1.64308
1234.54	2.21728
1237.43	2.70563
1240.32	1.95015
1243.22	1.67595
1246.11	2.47754
1249	0.079651
1251.89	0.790131
1254.79	0.337204
1257.68	1.13173
1260.57	0.959564
1263.46	2.21834
1266.36	1.63376
1269.25	0.543381
1272.14	0.073334
1275.04	2.05511
1277.93	1.01782
1280.82	1.83255
