Measurement: Raman, 532 nm, unoriented, Raman Data Processed
Mineral: Moissanite
Rruff sample: R110106
Ideal chemistry: SiC
Locality: Synthetic
Source: Gemological Institute of America
Description: A cut, colorless (0.45ct) gemstone, sublimation grown.
Raman shift (cm-1)	intensity
90.4922	0
93.867	6.50606
97.2418	2.55029
100.617	6.32841
103.992	30.7777
107.366	39.2947
110.741	61.4304
114.116	40.8449
117.491	57.3052
120.865	82.3457
124.24	117.501
127.615	108.146
130.99	65.8374
134.365	51.29
137.74	54.656
141.114	20.75
144.489	16.0474
147.864	7.26907
151.239	40.0574
154.614	8.06892
157.988	3.52731
161.363	26.5326
164.738	68.8569
168.113	122.382
171.488	162.033
174.863	177.636
178.237	245.997
181.612	273.71
184.987	282.018
188.362	327.216
191.737	323.039
195.112	336.376
198.486	325.192
201.861	311.32
205.236	299.272
208.611	301.439
211.986	274.431
215.36	264.562
218.735	266.162
222.11	292.582
225.485	486.865
228.86	493.911
232.234	618.768
235.609	1087.56
238.984	1264.01
242.359	1070.09
245.734	151.868
249.109	149.189
252.483	140.349
255.858	138.086
259.233	142.729
262.608	223.486
265.983	402.801
269.358	100.471
272.732	37.7371
276.107	36.8786
279.482	33.4011
282.857	31.9987
286.232	33.2683
289.606	30.9406
292.981	21.8752
296.356	30.049
299.731	21.5408
303.106	20.6871
306.481	14.4688
309.855	36.7693
313.23	17.3668
316.605	9.36932
319.98	7.89319
323.355	20.8574
326.729	2.49536
330.104	2.65991
333.479	11.1226
336.854	12.2468
340.229	3.37457
343.603	6.56757
346.978	10.5975
350.353	4.7395
353.728	3.19086
357.103	10.2172
360.478	3.38361
363.852	17.3252
367.227	1.61896
370.602	18.7871
373.977	8.15185
377.352	4.81714
380.726	14.3028
384.101	15.8789
387.476	36.3185
390.851	19.8911
394.226	15.3546
397.601	35.7159
400.975	33.4586
404.35	33.4028
407.725	28.0955
411.1	19.9688
414.475	37.6212
417.849	32.4665
421.224	17.4144
424.599	20.0701
427.974	37.4165
431.349	31.8691
434.724	21.5467
438.098	12.3535
441.473	14.6977
444.848	10.6562
448.223	28.5602
451.598	3.20099
454.972	16.2078
458.347	24.9741
461.722	11.4356
465.097	6.70673
468.472	3.38837
471.846	4.86023
475.221	0.354187
478.596	4.36023
481.971	2.85919
485.346	8.3432
488.721	4.71118
492.095	92.103
495.47	130.059
498.845	242.905
502.22	515.114
505.595	939.751
508.969	309.008
512.344	234.328
515.719	154.439
519.094	21.5098
522.469	18.6022
525.844	34.558
529.218	50.5898
532.593	59.501
535.968	64.4264
539.343	49.9126
542.718	50.7142
546.092	64.0565
549.467	66.4683
552.842	64.2066
556.217	63.751
559.592	54.9448
562.967	71.0469
566.341	61.4251
569.716	66.4186
573.091	69.5562
576.466	94.8811
579.841	106.962
583.216	103.684
586.59	104.632
589.965	95.3944
593.34	113.947
596.715	107.875
600.09	121.546
603.464	103.478
606.839	92.7546
610.214	88.1039
613.589	68.6064
616.964	68.1658
620.338	59.3914
623.713	56.9297
627.088	29.1049
630.463	21.0523
633.838	18.5121
637.212	13.7701
640.587	19.5392
643.962	3.97656
647.337	3.3031
650.712	15.4266
654.087	14.4755
657.461	12.2269
660.836	9.13403
664.211	3.44629
667.586	4.70435
670.961	11.3992
674.335	14.1442
677.71	16.0146
681.085	26.5552
684.46	11.3158
687.835	11.0922
691.21	12.3683
694.584	11.0704
697.959	38.9485
701.334	60.9728
704.709	60.6397
708.084	35.0176
711.458	20.022
714.833	43.5317
718.208	10.8148
721.583	1.59839
724.958	16.4974
728.332	43.0752
731.707	107.222
735.082	163.672
738.457	253.932
741.832	343.177
745.207	473.524
748.581	634.155
751.956	944.864
755.331	2117.57
758.706	3264.82
762.081	5767.9
765.456	9895.83
768.83	10851.9
772.205	4310.73
775.58	7655.72
778.955	16260.5
782.33	27442.4
785.704	54011.6
789.079	83016
792.454	35763.7
795.829	22081.2
799.204	15788
802.578	3061.74
805.953	1125.76
809.328	581.775
812.703	319.056
816.078	176.396
819.453	97.6058
822.827	40.173
826.202	11.9102
829.577	3.66602
832.952	16.9343
836.327	23.0319
839.702	14.6002
843.076	14.6908
846.451	13.3011
849.826	3.20514
853.201	13.2043
856.576	0.045715
859.95	5.73529
863.325	1.93317
866.7	3.07806
870.075	10.4083
873.45	30.5131
876.824	62.2797
880.199	146.851
883.574	246.798
886.949	361.126
890.324	479.38
893.698	87.9655
897.073	39.2047
900.448	33.7452
903.823	40.114
907.198	51.1272
910.573	74.1342
913.947	74.3706
917.322	122.897
920.697	167.838
924.072	252.266
927.447	354.25
930.822	492.398
934.196	717.977
937.571	1043.2
940.946	1462.12
944.321	1959.01
947.696	2120.5
951.07	2037.41
954.445	3292.2
957.82	7758.39
961.195	15590.1
964.57	29390.1
967.944	47990.1
971.319	38935.4
974.694	11033.1
978.069	3593.14
981.444	1752.5
984.819	1017.72
988.193	657.856
991.568	452.915
994.943	309.144
998.318	209.755
1001.69	134.467
1005.07	73.7895
1008.44	28.926
1011.82	21.3433
1015.19	24.9413
1018.57	20.0983
1021.94	14.0882
1025.32	19.042
1028.69	15.3271
1032.07	7.22473
1035.44	17.1441
1038.82	30.5541
1042.19	34.0077
1045.57	55.4096
1048.94	82.9226
1052.32	102.045
1055.69	99.2917
1059.07	118.803
1062.44	116.097
1065.81	129.708
1069.19	152.584
1072.56	167.186
1075.94	178.826
1079.31	173.499
1082.69	199.55
1086.06	213.553
1089.44	214.613
1092.81	210.712
1096.19	212.846
1099.56	195.377
1102.94	200.488
1106.31	205.484
1109.69	203.817
1113.06	204.565
1116.44	198.958
1119.81	209.425
1123.19	213.708
1126.56	216.985
1129.94	213.05
1133.31	199.004
1136.68	168.86
1140.06	139.909
1143.43	118.491
1146.81	95.4487
1150.18	84.1407
1153.56	66.2757
1156.93	55.5778
1160.31	32.6875
1163.68	29.8153
1167.06	1.57208
1170.43	10.1827
1173.81	5.95642
1177.18	22.5936
1180.56	9.0188
1183.93	7.72931
1187.31	4.73175
1190.68	5.76111
1194.06	14.9443
1197.43	5.78528
1200.81	10.4724
1204.18	34.011
1207.56	42.6572
1210.93	52.4164
1214.31	56.8934
1217.68	44.8721
1221.06	49.6691
1224.43	64.9194
1227.81	74.3984
1231.18	79.6816
1234.56	77.3963
1237.93	56.7984
1241.31	51.9277
1244.68	20.7844
1248.05	23.5342
1251.43	5.0708
1254.8	0.353149
1258.18	4.41064
1261.55	1.73688
1264.93	10.8542
1268.3	19.2144
1271.68	27.6172
1275.05	38.8114
1278.43	46.3202
1281.8	32.7856
1285.18	26.9395
1288.55	25.3807
1291.93	33.1223
1295.3	24.818
1298.68	11.7402
1302.05	2.22955
