Measurement: Raman, 780 nm, unoriented, Raman Data RAW
Mineral: Molybdenite
Rruff sample: R050209
Ideal chemistry: Mo^4+^S^2-^_2_
Locality: Boss Mountain mine, Hendrix Lake, British Columbia, Canada
Source: Lloyd Twaites
Description: Foiliated gray colored, represents the 2H polytype
Measured chemistry: Mo_1.00_S_2.00_
Raman shift (cm-1)	intensity
92.9658	100.453
96.3406	87.2917
99.7155	64.8989
103.09	47.6335
106.465	41.9678
109.84	37.6591
113.215	36.8282
116.59	37.9806
119.964	38.3727
123.339	38.8087
126.714	37.4153
130.089	38.3323
133.464	39.2564
136.838	37.5585
140.213	37.8969
143.588	36.7128
146.963	35.2305
150.338	33.4781
153.713	32.0078
157.087	35.7256
160.462	38.2402
163.837	40.0123
167.212	43.5133
170.587	47.4841
173.961	48.8737
177.336	48.145
180.711	44.9921
184.086	40.1663
187.461	37.134
190.835	36.1629
194.21	33.3725
197.585	31.8364
200.96	30.6818
204.335	28.3905
207.709	27.887
211.084	26.9685
214.459	26.6896
217.834	26.3594
221.209	25.9044
224.584	25.4742
227.958	24.8085
231.333	24.0321
234.708	23.4207
238.083	22.5838
241.458	22.0791
244.833	21.4562
248.207	20.9223
251.582	20.8198
254.957	20.5752
258.332	20.5213
261.707	20.5361
265.081	20.5616
268.456	20.4784
271.831	20.6447
275.206	20.6257
278.581	20.3882
281.955	20.6009
285.33	20.6715
288.705	20.8845
292.08	20.8835
295.455	21.2618
298.83	21.6689
302.204	22.0502
305.579	22.5412
308.954	23.1024
312.329	23.808
315.704	24.0697
319.079	24.4016
322.453	24.7847
325.828	25.6593
329.203	26.1893
332.578	27.1194
335.952	28.3512
339.327	29.074
342.702	29.7571
346.077	30.5889
349.452	31.1877
352.827	32.5501
356.201	34.2889
359.576	40.1297
362.951	59.9702
366.326	160.247
369.701	143.659
373.075	157.865
376.45	169.342
379.825	156.792
383.2	131.379
386.575	71.6057
389.95	59.7226
393.324	78.9261
396.699	77.7939
400.074	88.4641
403.449	92.2019
406.824	89.6487
410.199	81.6886
413.573	68.0462
416.948	70.794
420.323	74.8212
423.698	81.9115
427.072	91.3211
430.447	105.454
433.822	125.752
437.197	151.012
440.572	165.969
443.947	179.804
447.321	187.444
450.696	184.894
454.071	165.551
457.446	135.268
460.821	106.921
464.195	78.4922
467.57	51.132
470.945	29.7081
474.32	18.1132
477.695	14.9427
481.07	14.5217
484.444	14.3853
487.819	14.9845
491.194	15.137
494.569	15.7137
497.944	16.1316
501.318	16.9437
504.693	17.7702
508.068	18.7797
511.443	19.8919
514.818	21.223
518.193	22.5241
521.567	22.971
524.942	23.9548
528.317	24.9724
531.692	26.098
535.067	27.4309
538.442	29.2915
541.816	32.2812
545.191	35.3057
548.566	38.4063
551.941	41.9111
555.316	45.0968
558.69	45.0063
562.065	43.9611
565.44	41.2246
568.815	37.493
572.19	33.5748
575.564	31.8105
578.939	30.7761
582.314	32.9892
585.689	36.5254
589.064	38.2515
592.438	39.1116
595.813	39.075
599.188	37.1285
602.563	34.4426
605.938	32.394
609.313	32.5761
612.687	35.8738
616.062	39.8707
619.437	43.4616
622.812	47.6311
626.187	50.6563
629.562	51.3178
632.936	46.9092
636.311	40.5459
639.686	33.9138
643.061	26.047
646.436	18.6364
649.81	14.1847
653.185	12.9719
656.56	12.8361
659.935	12.9723
663.31	13.388
666.684	13.8389
670.059	13.7559
673.434	13.4968
676.809	13.2363
680.184	13.2773
683.558	13.407
686.933	14.0853
690.308	15.2507
693.683	16.5974
697.058	17.2217
700.433	17.5631
703.807	17.4607
707.182	17.6016
710.557	17.8045
713.932	17.6639
717.307	17.9436
720.682	18.8093
724.056	19.9794
727.431	21.736
730.806	25.148
734.181	29.649
737.556	34.7695
740.93	40.9165
744.305	41.99
747.68	42.3485
751.055	39.8921
754.43	34.9213
757.804	28.8943
761.179	25.7597
764.554	25.2159
767.929	26.0924
771.304	26.9042
774.678	27.961
778.053	26.5694
781.428	22.4641
784.803	17.9723
788.178	15.759
791.553	15.0774
794.927	15.6983
798.302	16.909
801.677	18.6836
805.052	20.9036
808.427	23.1006
811.802	24.1488
815.176	24.087
818.551	22.2949
821.926	19.4219
825.301	16.1442
828.676	13.9566
832.05	12.6243
835.425	12.0136
838.8	11.793
842.175	11.7456
845.55	11.5221
848.924	11.5664
852.299	11.5389
855.674	11.5746
859.049	11.5092
862.424	11.3657
865.799	11.344
869.173	11.0519
872.548	11.0276
875.923	10.8467
879.298	10.604
882.673	10.4656
886.047	10.3276
889.422	10.1368
892.797	10.0294
896.172	9.72772
899.547	9.64695
902.922	9.69966
906.296	9.51497
909.671	9.41538
913.046	9.17438
916.421	9.11578
919.796	9.15959
923.17	9.25968
926.545	9.16033
929.92	8.95524
933.295	9.00725
936.67	8.88648
940.044	8.88428
943.419	8.82566
946.794	8.86844
950.169	8.79681
953.544	8.7341
956.919	8.69581
960.293	8.7301
963.668	8.84956
967.043	8.86612
970.418	8.91415
973.793	8.965
977.168	8.9004
980.542	8.85564
983.917	8.82903
987.292	8.96499
990.667	9.11897
994.042	8.84854
997.416	8.79112
1000.79	9.00524
1004.17	9.07607
1007.54	9.04727
1010.92	9.0411
1014.29	8.84267
1017.66	8.87335
1021.04	8.90474
1024.41	8.81787
1027.79	8.85762
1031.16	8.90327
1034.54	8.91688
1037.91	9.00418
1041.29	8.85628
1044.66	9.10763
1048.04	8.95706
1051.41	9.15402
1054.79	9.0609
1058.16	9.04558
1061.54	8.98945
1064.91	8.94899
1068.29	9.04518
1071.66	9.07895
1075.04	9.24058
1078.41	9.13055
1081.79	9.29416
1085.16	9.33771
1088.54	9.19307
1091.91	9.20406
1095.29	9.17633
1098.66	9.29106
1102.04	9.10691
1105.41	9.17048
1108.79	9.25514
1112.16	9.29681
1115.54	9.30024
1118.91	9.55245
1122.29	9.58985
1125.66	9.57865
1129.03	9.73534
1132.41	9.85149
1135.78	9.79392
1139.16	9.83524
1142.53	9.99092
1145.91	9.94232
1149.28	10.0535
1152.66	10.7162
1156.03	10.1522
1159.41	10.0942
1162.78	10.1558
1166.16	10.077
1169.53	10.1091
1172.91	10.0078
1176.28	10.1682
1179.66	10.404
1183.03	10.4638
1186.41	10.5565
1189.78	10.6134
1193.16	10.6819
1196.53	10.7642
1199.9	10.7674
1203.28	10.9191
1206.65	10.8587
1210.03	10.9556
1213.4	11.0324
1216.78	11.2431
1220.15	10.9088
1223.53	11.0665
1226.9	11.1454
1230.28	11.1683
1233.65	11.1509
1237.03	11.2827
1240.4	11.4133
1243.78	11.3165
1247.15	11.7921
1250.53	11.5904
1253.9	11.805
1257.28	11.8918
1260.65	11.9753
1264.03	12.26
1267.4	12.3015
1270.78	12.3146
1274.15	12.5788
1277.53	12.5536
1280.9	12.4188
1284.28	12.7091
