Measurement: Raman, 532 nm, unoriented, Raman Data Processed
Mineral: Molybdomenite
Rruff sample: R140388
Ideal chemistry: Pb^2+^Se^4+^O_3_
Locality: Virgen de Surumi mine, Pakajake Canyon, Chayanta Province, Potos√≠ Department, Bolivia
Source: Rock Currier
Description: Yellowish white tabular crystal with good cleavage, associated with calcite
Raman shift (cm-1)	intensity
88.1367	0
91.5115	5.55652
94.8863	0.001038
98.2612	9.75537
101.636	59.2633
105.011	152.394
108.386	297.903
111.76	554.712
115.135	877.26
118.51	926.015
121.885	673.891
125.26	475.106
128.635	369.28
132.009	316.801
135.384	283.51
138.759	263.084
142.134	239.072
145.509	221.306
148.883	212.938
152.258	203.296
155.633	214.647
159.008	231.425
162.383	267.024
165.757	292.327
169.132	340.91
172.507	377.776
175.882	402.761
179.257	394.138
182.632	376.114
186.006	352.817
189.381	344.128
192.756	348.546
196.131	341.638
199.506	309.923
202.881	252.787
206.255	198.648
209.63	140.636
213.005	98.4581
216.38	64.9702
219.755	39.3738
223.129	26.2653
226.504	11.0722
229.879	2.48236
233.254	2.43622
236.629	6.50006
240.004	6.16858
243.378	4.15356
246.753	1.03052
250.128	2.73572
253.503	5.62775
256.878	0.567932
260.252	0.055786
263.627	0.003052
267.002	0.49118
270.377	1.23892
273.752	10.3133
277.127	11.6691
280.501	13.0584
283.876	10.4518
287.251	6.62582
290.626	1.15445
294.001	2.74857
297.375	2.78455
300.75	2.6182
304.125	2.58594
307.5	8.61612
310.875	7.85773
314.25	15.4888
317.624	19.5142
320.999	19.4709
324.374	23.8072
327.749	36.1136
331.124	34.6506
334.498	47.4367
337.873	68.7044
341.248	108.554
344.623	166.478
347.998	257.924
351.373	417.009
354.747	676.503
358.122	962.082
361.497	1061.12
364.872	913.114
368.247	739.197
371.621	454.141
374.996	249.742
378.371	141.798
381.746	97.3493
385.121	69.779
388.495	48.1209
391.87	42.1407
395.245	27.8686
398.62	22.2411
401.995	9.82605
405.37	14.2058
408.744	6.06732
412.119	4.71381
415.494	3.28549
418.869	5.62817
422.244	4.4324
425.618	22.1312
428.993	31.6764
432.368	56.8431
435.743	99.9429
439.118	88.8661
442.493	41.142
445.867	15.8744
449.242	2.11371
452.617	3.00354
455.992	4.48779
459.367	0.590149
462.741	3.84097
466.116	0.95874
469.491	1.88498
472.866	0.23111
476.241	2.3595
479.615	7.03625
482.99	2.18552
486.365	2.99731
489.74	12.4051
493.115	7.64624
496.49	11.1135
499.864	12.3288
503.239	11.964
506.614	8.17557
509.989	11.8913
513.364	12.9513
516.739	11.3538
520.113	3.97821
523.488	8.79822
526.863	7.92029
530.238	9.33765
533.613	8.44086
536.987	10.0162
540.362	11.2837
543.737	8.4956
547.112	12.0558
550.487	15.4784
553.861	14.1382
557.236	13.9399
560.611	14.7037
563.986	5.04468
567.361	8.73321
570.736	12.1973
574.11	7.72632
577.485	12.3442
580.86	8.05121
584.235	12.5081
587.61	15.8048
590.985	11.4626
594.359	14.6265
597.734	14.0692
601.109	16.2415
604.484	12.0302
607.859	17.6639
611.233	16.4027
614.608	14.0506
617.983	12.9377
621.358	14.5115
624.733	5.62793
628.107	5.13232
631.482	2.86395
634.857	4.05432
638.232	4.53009
641.607	3.90222
644.982	2.9057
648.356	5.56171
651.731	1.30084
655.106	1.75
658.481	1.22351
661.856	2.84522
665.231	1.81488
668.605	5.59039
671.98	12.0021
675.355	21.1174
678.73	41.2141
682.105	73.825
685.479	112.635
688.854	143.615
692.229	122.549
695.604	77.9302
698.979	33.356
702.354	13.2949
705.728	6.69122
709.103	21.9894
712.478	42.927
715.853	88.0578
719.227	145.199
722.602	172.291
725.977	126.853
729.352	72.7842
732.727	34.1047
736.102	15.3626
739.476	0.710632
742.851	5.29089
746.226	11.5501
749.601	28.1882
752.976	51.9896
756.351	83.4428
759.725	121.129
763.1	167.137
766.475	230.885
769.85	327.705
773.225	504.281
776.599	842.314
779.974	1456.56
783.349	2497
786.724	3878.27
790.099	4640.44
793.473	3356.44
796.848	1790.47
800.223	942.786
803.598	525.14
806.973	308.004
810.348	189.051
813.722	119.745
817.097	71.6352
820.472	46.8076
823.847	32.7431
827.222	15.3722
830.597	14.5216
833.971	13.4592
837.346	1.16864
840.721	1.98907
844.096	1.85596
847.471	3.10706
850.846	1.9801
854.22	5.87402
857.595	3.10425
860.97	4.93988
864.345	3.36932
867.72	4.70447
871.094	5.10638
874.469	6.06873
877.844	7.62927
881.219	5.85138
884.594	13.7372
887.968	27.1979
891.343	12.3846
894.718	9.85834
898.093	16.3782
901.468	7.34351
904.842	13.9703
908.217	18.4713
911.592	15.0758
914.967	15.2526
918.342	17.5543
921.717	11.7504
925.091	4.18054
928.466	4.98529
931.841	8.03558
935.216	11.3227
938.591	18.9763
941.966	9.63934
945.34	5.70245
948.715	10.44
952.09	13.3692
955.465	10.9145
958.84	18.2949
962.214	21.2817
965.589	21.1069
968.964	15.3862
972.339	10.8777
975.714	12.087
979.088	6.03449
982.463	8.20575
985.838	1.1156
989.213	3.62195
992.588	3.64874
995.963	12.0621
999.337	8.61969
1002.71	12.5879
1006.09	1.50671
1009.46	11.579
1012.84	9.99573
1016.21	4.1131
1019.59	6.51794
1022.96	3.27112
1026.34	10.7033
1029.71	10.5122
1033.09	17.889
1036.46	3.97534
1039.84	7.18103
1043.21	7.24719
1046.59	5.30731
1049.96	8.05591
1053.33	13.7293
1056.71	5.27447
1060.08	1.92883
1063.46	4.89703
1066.83	7.8493
1070.21	7.49676
1073.58	9.86304
1076.96	7.61993
1080.33	5.78601
1083.71	8.19836
1087.08	7.92438
1090.46	5.854
1093.83	9.06323
1097.21	5.62628
1100.58	7.88513
1103.96	13.8715
1107.33	4.73767
1110.71	2.98584
1114.08	3.47473
1117.46	4.96759
1120.83	9.74066
1124.21	11.0858
1127.58	7.83404
1130.95	2.07947
1134.33	6.62824
1137.7	13.0219
1141.08	6.54096
1144.45	8.57257
1147.83	8.28674
1151.2	9.98639
1154.58	5.6051
1157.95	7.26813
1161.33	10.4025
1164.7	4.7746
1168.08	3.28626
1171.45	8.01489
1174.83	8.01733
1178.2	5.32782
1181.58	0.626465
1184.95	1.52344
1188.33	5.1864
1191.7	7.58575
1195.08	9.06812
1198.45	0.787476
1201.83	7.55109
1205.2	3.56598
1208.58	3.08514
1211.95	2.24628
1215.33	4.50604
1218.7	11.3403
1222.08	8.37665
1225.45	4.53046
1228.83	0.528137
1232.2	6.11194
1235.58	3.46045
1238.95	6.96405
1242.32	4.40033
1245.7	12.0382
1249.07	10.4716
1252.45	5.09265
1255.82	2.99707
1259.2	9.28894
1262.57	11.8512
1265.95	8.58343
1269.32	2.13196
1272.7	8.31958
1276.07	2.88769
1279.45	13.1852
1282.82	8.45184
1286.2	1.58637
1289.57	0.541748
1292.95	6.20599
1296.32	10.1038
1299.7	0.69519
