Measurement: Raman, 780 nm, unoriented, Raman Data Processed
Mineral: Molybdomenite
Rruff sample: R140388
Ideal chemistry: Pb^2+^Se^4+^O_3_
Locality: Virgen de Surumi mine, Pakajake Canyon, Chayanta Province, Potos√≠ Department, Bolivia
Source: Rock Currier
Description: Yellowish white tabular crystal with good cleavage, associated with calcite
Raman shift (cm-1)	intensity
87.582	0
90.9569	430.789
94.3317	646.689
97.7065	362.575
101.081	335.408
104.456	545.998
107.831	1045.61
111.206	1835.1
114.581	2389.35
117.955	1888.06
121.33	1098.43
124.705	625.829
128.08	343.181
131.455	175.148
134.829	77.4863
138.204	16.3323
141.579	16.7561
144.954	23.0112
148.329	35.24
151.704	12.521
155.078	64.7261
158.453	162.061
161.828	281.377
165.203	441.114
168.578	596.814
171.952	711.985
175.327	751.754
178.702	733.85
182.077	677.442
185.452	657.533
188.827	653
192.201	649.759
195.576	633.348
198.951	556.278
202.326	449.262
205.701	314.946
209.076	193.571
212.45	114.147
215.825	64.0037
219.2	41.4043
222.575	40.4333
225.95	73.0454
229.324	145
232.699	215.449
236.074	150.829
239.449	50.4363
242.824	3.07617
246.198	7.15051
249.573	21.076
252.948	10.8666
256.323	8.15918
259.698	0.536377
263.073	12.2275
266.447	11.0466
269.822	18.8245
273.197	24.9663
276.572	25.208
279.947	38.2576
283.322	40.9701
286.696	44.8546
290.071	60.5551
293.446	60.2047
296.821	71.3237
300.196	62.6979
303.57	70.157
306.945	63.9001
310.32	66.5297
313.695	65.5515
317.07	50.8849
320.445	54.9358
323.819	63.8079
327.194	67.0302
330.569	85.1204
333.944	124.474
337.319	151.139
340.693	240.669
344.068	370.824
347.443	613.678
350.818	1056.81
354.193	1797.79
357.567	2652.05
360.942	2633.03
364.317	2198
367.692	1660.56
371.067	945.68
374.442	522.527
377.816	318.908
381.191	210.804
384.566	138.867
387.941	93.0781
391.316	70.4247
394.69	44.7336
398.065	22.7936
401.44	13.1309
404.815	5.25561
408.19	3.09448
411.565	2.75403
414.939	3.32544
418.314	5.12354
421.689	6.49988
425.064	26.4088
428.439	80.6439
431.813	173.273
435.188	278.546
438.563	222.135
441.938	88.6171
445.313	27.1787
448.688	4.17248
452.062	2.20862
455.437	7.73523
458.812	1.93445
462.187	2.85742
465.562	7.07373
468.937	5.10486
472.311	5.24231
475.686	6.00574
479.061	11.1392
482.436	16.6923
485.81	16.347
489.185	13.3837
492.56	22.3726
495.935	19.6456
499.31	31.0376
502.685	22.8704
506.059	12.9592
509.434	20.3945
512.809	17.6368
516.184	20.7426
519.559	14.0765
522.933	24.667
526.308	20.3147
529.683	8.5813
533.058	11.2736
536.433	14.6416
539.808	9.98352
543.182	12.1622
546.557	23.5818
549.932	24.9697
553.307	19.0093
556.682	22.0625
560.057	17.8212
563.431	13.2384
566.806	18.3966
570.181	16.6705
573.556	18.8839
576.931	18.3005
580.305	14.8915
583.68	13.1965
587.055	15.5848
590.43	22.5098
593.805	25.0503
597.18	33.2006
600.554	36.4637
603.929	25.426
607.304	33.2179
610.679	29.0911
614.054	20.7974
617.428	25.5397
620.803	17.8798
624.178	15.5785
627.553	17.7014
630.928	17.0881
634.303	5.52893
637.677	4.01807
641.052	3.47754
644.427	7.42737
647.802	5.34595
651.177	8.8136
654.552	7.00781
657.926	2.62927
661.301	2.19434
664.676	0.071045
668.051	1.78564
671.426	17.0569
674.8	30.1914
678.175	68.2943
681.55	121.964
684.925	209.935
688.3	247.513
691.674	200.838
695.049	129.552
698.424	56.8031
701.799	19.4357
705.174	9.49207
708.548	23.3201
711.923	62.7334
715.298	134.69
718.673	233.956
722.048	269.438
725.423	205.549
728.797	112.197
732.172	44.4689
735.547	26.7384
738.922	4.37622
742.297	22.1605
745.672	36.5635
749.046	74.1256
752.421	118.542
755.796	166.301
759.171	235.833
762.546	315.589
765.92	431.751
769.295	598.646
772.67	888.83
776.045	1443.92
779.42	2486.91
782.795	4437.43
786.169	7249.35
789.544	8195.18
792.919	5511.6
796.294	2904.8
799.669	1552.15
803.043	887.265
806.418	532.713
809.793	313.558
813.168	201.435
816.543	130.455
819.918	82.9048
823.292	56.412
826.667	30.8424
830.042	9.70727
833.417	10.026
836.792	2.84729
840.166	1.09204
843.541	3.93945
846.916	6.75879
850.291	5.37952
853.666	7.77637
857.04	6.36694
860.415	4.41125
863.79	3.65796
867.165	6.05078
870.54	13.3123
873.915	15.5684
877.289	16.8547
880.664	21.9371
884.039	22.7954
887.414	22.4841
890.789	22.5337
894.163	15.5925
897.538	20.5294
900.913	23.8468
904.288	19.4794
907.663	18.2039
911.038	9.05127
914.412	15.8008
917.787	12.9885
921.162	5.89844
924.537	12.2632
927.912	16.0529
931.287	9.70654
934.661	18.7953
938.036	24.8435
941.411	21.787
944.786	22.7931
948.161	20.0527
951.535	26.2068
954.91	17.659
958.285	29.244
961.66	33.0853
965.035	30.6942
968.409	24.6281
971.784	13.8201
975.159	9.96637
978.534	6.09595
981.909	5.47729
985.284	6.54486
988.658	8.73224
992.033	6.51532
995.408	4.88617
998.783	5.90527
1002.16	9.64081
1005.53	4.91553
1008.91	2.10718
1012.28	4.1073
1015.66	9.4538
1019.03	4.02496
1022.41	11.3946
1025.78	7.3913
1029.16	9.41211
1032.53	17.0529
1035.91	10.4334
1039.28	5.51947
1042.66	1.94873
1046.03	6.25275
1049.4	1.36292
1052.78	3.77246
1056.15	4.28564
1059.53	13.2093
1062.9	4.97436
1066.28	1.95276
1069.65	0.632751
1073.03	2.70709
1076.4	3.94696
1079.78	7.98602
1083.15	13.6331
1086.53	10.955
1089.9	6.55383
1093.28	6.77795
1096.65	6.78693
1100.03	8.16559
1103.4	2.79065
1106.78	4.11316
1110.15	4.04089
1113.53	2.31946
1116.9	3.01965
1120.28	9.32867
1123.65	4.12268
1127.03	3.07275
1130.4	1.74286
1133.78	1.50269
1137.15	4.67377
1140.53	14.1613
1143.9	9.36755
1147.28	10.3155
1150.65	9.80176
1154.03	10.0688
1157.4	8.08356
1160.77	6.87921
1164.15	3.84638
1167.52	16.844
1170.9	13.27
1174.27	12.8257
1177.65	14.8622
1181.02	13.2555
1184.4	8.79633
1187.77	14.6144
1191.15	12.0193
1194.52	10.4731
1197.9	10.7012
1201.27	8.9989
1204.65	8.6394
1208.02	5.11444
1211.4	8.2904
1214.77	4.41449
1218.15	8.48102
1221.52	9.30341
1224.9	7.5011
1228.27	1.24298
1231.64	1.78906
1235.02	1.56659
1238.39	8.7937
1241.77	8.85736
1245.14	7.9986
1248.52	5.63599
1251.89	11.5592
1255.27	8.68756
1258.64	8.52124
1262.02	15.4767
1265.39	15.558
1268.77	7.84808
1272.14	7.28589
1275.52	3.13062
1278.89	12.2578
1282.27	0
