Measurement: Raman, 532 nm, unoriented, Raman Data Processed
Mineral: Molybdofornacite
Rruff sample: R130755
Ideal chemistry: Cu^2+^Pb^2+^_2_Mo^6+^O_4_As^5+^O_4_(OH)
Locality: 30 level South 110, Tsumeb, Namibia
Source: Bill Pinch
Description: Pale green prismatic crystals associated with dioptase
Raman shift (cm-1)	intensity
88.1367	0
91.5115	16.3604
94.8863	6.62073
98.2612	0.295868
101.636	8.3107
105.011	15.2152
108.386	24.0638
111.76	37.4222
115.135	63.8724
118.51	79.892
121.885	95.3564
125.26	115.124
128.635	140.695
132.009	160.133
135.384	161.95
138.759	141.481
142.134	111.023
145.509	86.5931
148.883	73.739
152.258	65.0164
155.633	60.9003
159.008	61.0367
162.383	65.9354
165.757	76.768
169.132	91.3842
172.507	98.7186
175.882	98.4019
179.257	94.9843
182.632	85.8957
186.006	68.6703
189.381	52.8001
192.756	41.831
196.131	34.4252
199.506	28.0148
202.881	21.4607
206.255	11.2956
209.63	7.99945
213.005	2.13644
216.38	1.6597
219.755	0.190842
223.129	0.922989
226.504	1.72371
229.879	2.07933
233.254	2.35913
236.629	1.56128
240.004	0.004913
243.378	0.239517
246.753	0.150497
250.128	1.83818
253.503	3.2953
256.878	1.68365
260.252	0.013779
263.627	4.10133
267.002	10.843
270.377	21.5846
273.752	37.568
277.127	63.9001
280.501	102.619
283.876	171.28
287.251	257.908
290.626	346.96
294.001	415.019
297.375	483.139
300.75	515.765
304.125	498.528
307.5	483.854
310.875	505.214
314.25	560.231
317.624	640.599
320.999	724.946
324.374	806.136
327.749	872.765
331.124	875.902
334.498	771.173
337.873	617.683
341.248	474.676
344.623	370.677
347.998	292.365
351.373	227.22
354.747	165.896
358.122	111.806
361.497	71.7399
364.872	48.6262
368.247	38.2972
371.621	39.6785
374.996	46.9688
378.371	46.71
381.746	24.4989
385.121	0.309265
388.495	12.8981
391.87	8.31635
395.245	7.04332
398.62	30.1561
401.995	50.1198
405.37	60.5908
408.744	57.823
412.119	41.6292
415.494	24.9516
418.869	16.9985
422.244	13.4977
425.618	25.7351
428.993	47.047
432.368	74.9532
435.743	94.6526
439.118	89.5994
442.493	78.1035
445.867	77.1186
449.242	89.4283
452.617	112.342
455.992	140.113
459.367	157.689
462.741	147.778
466.116	104.329
469.491	56.2632
472.866	24.1403
476.241	9.53951
479.615	1.77297
482.99	0.226654
486.365	3.94108
489.74	4.66212
493.115	2.29525
496.49	0.815109
499.864	0.996117
503.239	2.92658
506.614	6.2886
509.989	10.2271
513.364	15.8085
516.739	23.1013
520.113	28.4691
523.488	30.8685
526.863	25.5683
530.238	19.2754
533.613	13.7542
536.987	12.7266
540.362	12.5142
543.737	12.4161
547.112	11.6476
550.487	9.23173
553.861	8.00324
557.236	7.87849
560.611	7.7552
563.986	7.38771
567.361	7.44444
570.736	6.65983
574.11	7.58215
577.485	8.73756
580.86	8.99292
584.235	10.0891
587.61	9.86243
590.985	10.4751
594.359	11.3036
597.734	11.8829
601.109	13.5515
604.484	14.1318
607.859	15.7352
611.233	16.9396
614.608	17.3021
617.983	19.0656
621.358	19.3681
624.733	21.113
628.107	21.8909
631.482	24.8834
634.857	25.9161
638.232	27.6258
641.607	29.575
644.982	32.9789
648.356	36.6616
651.731	39.6363
655.106	44.5519
658.481	50.0182
661.856	53.9501
665.231	56.6304
668.605	56.1658
671.98	55.3715
675.355	50.8595
678.73	48.0109
682.105	43.5808
685.479	40.32
688.854	35.0293
692.229	29.1316
695.604	24.399
698.979	19.3245
702.354	12.9532
705.728	6.15926
709.103	1.44257
712.478	3.76399
715.853	7.89572
719.227	8.07893
722.602	7.98193
725.977	6.01222
729.352	4.06532
732.727	5.48277
736.102	3.90179
739.476	1.64784
742.851	2.23944
746.226	5.73646
749.601	4.896
752.976	7.80945
756.351	20.597
759.725	47.8977
763.1	77.0913
766.475	89.9568
769.85	83.8995
773.225	79.4428
776.599	94.371
779.974	131.186
783.349	187.232
786.724	255.971
790.099	335.853
793.473	430.854
796.848	538.32
800.223	642.498
803.598	745.791
806.973	879.076
810.348	1081.59
813.722	1396.94
817.097	1828.36
820.472	2201.4
823.847	2220.22
827.222	1916.36
830.597	1496.57
833.971	1087.57
837.346	778.633
840.721	567.416
844.096	418.308
847.471	300.424
850.846	206.545
854.22	137.982
857.595	86.8605
860.97	58.9599
864.345	46.296
867.72	52.8173
871.094	74.1212
874.469	104.901
877.844	160.311
881.219	267.811
884.594	459.255
887.968	796.952
891.343	1217.96
894.718	1236.6
898.093	719.723
901.468	326.352
904.842	139.894
908.217	56.4472
911.592	12.5389
914.967	5.63855
918.342	12.3115
921.717	10.0593
925.091	9.37126
928.466	4.87804
931.841	5.50583
935.216	3.13278
938.591	0.563675
941.966	4.49444
945.34	8.81199
948.715	12.1025
952.09	14.9113
955.465	19.614
958.84	24.7418
962.214	29.1129
965.589	33.0023
968.964	36.8371
972.339	41.6368
975.714	43.5763
979.088	42.3053
982.463	42.8085
985.838	42.8578
989.213	42.1063
992.588	38.9914
995.963	36.5811
999.337	35.5946
1002.71	33.9229
1006.09	33.7416
1009.46	30.6718
1012.84	29.1322
1016.21	28.0207
1019.59	26.9268
1022.96	25.2739
1026.34	24.4197
1029.71	23.3514
1033.09	22.1081
1036.46	21.2596
1039.84	20.4807
1043.21	19.5418
1046.59	18.8139
1049.96	16.5103
1053.33	14.6931
1056.71	12.8209
1060.08	11.5112
1063.46	11.0611
1066.83	8.92432
1070.21	7.09659
1073.58	5.90484
1076.96	4.64741
1080.33	4.28481
1083.71	3.7154
1087.08	2.26091
1090.46	1.88265
1093.83	2.24111
1097.21	1.31196
1100.58	1.32879
1103.96	0.449566
1107.33	1.68032
1110.71	0.419003
1114.08	0.013481
1117.46	0.802395
1120.83	0.065163
1124.21	1.34109
1127.58	0.217281
1130.95	0.118736
1134.33	0.476425
1137.7	0.201225
1141.08	0.165737
1144.45	0.39233
1147.83	0.070583
1151.2	0.522949
1154.58	0.364334
1157.95	0.702885
1161.33	0.915077
1164.7	0.322479
1168.08	0.363583
1171.45	0.729809
1174.83	0.40596
1178.2	0.348122
1181.58	1.07432
1184.95	1.26227
1188.33	1.09776
1191.7	1.07231
1195.08	0.868313
1198.45	0.818825
1201.83	0.997009
1205.2	0.025948
1208.58	0.909142
1211.95	0.549324
1215.33	1.07735
1218.7	0.739891
1222.08	0.845409
1225.45	0.66515
1228.83	0.891689
1232.2	0.944138
1235.58	0.816078
1238.95	1.17668
1242.32	1.55829
1245.7	1.35627
1249.07	1.27587
1252.45	0.525749
1255.82	1.339
1259.2	1.33216
1262.57	1.29688
1265.95	0.664539
1269.32	0.919689
1272.7	1.14436
1276.07	2.12818
1279.45	0.085842
1282.82	1.12209
1286.2	1.53117
1289.57	0.791977
1292.95	0.978588
1296.32	0.440521
1299.7	0.879967
