Measurement: Raman, 780 nm, unoriented, Raman Data Processed
Mineral: Molybdofornacite
Rruff sample: R130755
Ideal chemistry: Cu^2+^Pb^2+^_2_Mo^6+^O_4_As^5+^O_4_(OH)
Locality: 30 level South 110, Tsumeb, Namibia
Source: Bill Pinch
Description: Pale green prismatic crystals associated with dioptase
Raman shift (cm-1)	intensity
93.3677	0
96.7425	7.89465
100.117	10.8472
103.492	2.44775
106.867	29.1743
110.242	13.9794
113.617	14.8054
116.992	4.14404
120.366	0.360962
123.741	5.49097
127.116	1.07385
130.491	3.40076
133.865	3.32202
137.24	5.54565
140.615	7.03748
143.99	3.42993
147.365	6.83948
150.74	2.71338
154.114	10.5142
157.489	14.6097
160.864	14.775
164.239	11.3744
167.614	8.91852
170.988	10.5361
174.363	11.9865
177.738	8.39416
181.113	6.23846
184.488	6.04596
187.863	0.602112
191.237	5.10321
194.612	0.229797
197.987	0.121582
201.362	1.47351
204.737	1.75531
208.112	1.30365
211.486	2.74853
214.861	1.61499
218.236	3.05133
221.611	1.63769
224.986	1.65027
228.36	1.72363
231.735	0.561768
235.11	0.787048
238.485	2.39679
241.86	2.04163
245.234	2.28479
248.609	2.44495
251.984	1.28601
255.359	2.08905
258.734	3.05524
262.109	4.24518
265.483	5.78204
268.858	7.14307
272.233	9.35986
275.608	10.8222
278.983	14.3105
282.358	20.8696
285.732	28.072
289.107	38.6058
292.482	43.9908
295.857	56.9366
299.232	67.4918
302.606	80.3962
305.981	91.2103
309.356	99.2573
312.731	104.155
316.106	103.345
319.481	94.9565
322.855	82.2053
326.23	75.2255
329.605	62.8699
332.98	56.4082
336.355	49.3679
339.729	40.6123
343.104	32.3603
346.479	29.0482
349.854	26.2109
353.229	19.413
356.603	14.1799
359.978	10.7418
363.353	6.3515
366.728	7.67657
370.103	5.29956
373.478	2.52313
376.852	4.20087
380.227	0.743774
383.602	0.107666
386.977	0.917236
390.352	4.4693
393.726	2.81409
397.101	1.51862
400.476	0.013
403.851	2.1029
407.226	0.075073
410.601	1.37622
413.975	2.4054
417.35	0.868225
420.725	0.15094
424.1	1.26996
427.475	5.43133
430.849	1.48645
434.224	3.73254
437.599	2.81085
440.974	5.41113
444.349	4.50269
447.724	5.2666
451.098	6.00232
454.473	4.88452
457.848	8.77673
461.223	10.2684
464.598	5.23419
467.972	8.06982
471.347	7.42377
474.722	5.40228
478.097	9.00165
481.472	1.16071
484.846	6.24683
488.221	4.61883
491.596	7.64593
494.971	4.96686
498.346	3.58447
501.721	3.21527
505.095	2.65814
508.47	6.05865
511.845	3.23126
515.22	3.56909
518.595	3.06488
521.97	1.66071
525.344	1.72858
528.719	6.01398
532.094	2.59583
535.469	1.03186
538.844	3.43304
542.218	4.24896
545.593	5.58502
548.968	3.31543
552.343	1.16064
555.718	1.13849
559.092	6.51147
562.467	3.16717
565.842	1.14984
569.217	1.6261
572.592	3.8081
575.967	7.63959
579.341	3.64838
582.716	5.23114
586.091	5.15015
589.466	3.92139
592.841	1.82031
596.216	1.49719
599.59	5.25024
602.965	5.31171
606.34	5.36853
609.715	7.66852
613.09	4.15271
616.464	3.23877
619.839	3.04272
623.214	7.17572
626.589	4.73407
629.964	3.90753
633.338	8.25537
636.713	5.16425
640.088	4.95227
643.463	7.80731
646.838	8.71582
650.213	9.34906
653.587	8.18304
656.962	7.90564
660.337	9.41119
663.712	8.5506
667.087	6.32471
670.462	3.82367
673.836	5.98566
677.211	8.66809
680.586	4.28473
683.961	2.0141
687.336	1.31635
690.71	4.53449
694.085	1.90601
697.46	3.9765
700.835	3.00037
704.21	1.41382
707.585	0.941284
710.959	1.19873
714.334	2.82849
717.709	1.4707
721.084	1.31598
724.459	0.917175
727.833	2.94299
731.208	1.61627
734.583	1.38629
737.958	2.12219
741.333	3.83551
744.707	3.81262
748.082	2.00256
751.457	1.57159
754.832	2.08594
758.207	3.17633
761.582	3.54675
764.956	3.07648
768.331	1.54474
771.706	1.50147
775.081	0.247498
778.456	2.67481
781.83	4.00586
785.205	6.94885
788.58	9.13959
791.955	11.9251
795.33	17.5492
798.705	22.925
802.079	26.3051
805.454	33.0044
808.829	35.4994
812.204	39.7382
815.579	41.1216
818.953	47.7417
822.328	46.1883
825.703	43.9883
829.078	36.2765
832.453	32.5073
835.827	30.4825
839.202	29.3722
842.577	24.0486
845.952	24.1322
849.327	25.9985
852.702	34.1364
856.076	37.9728
859.451	52.7844
862.826	65.2347
866.201	75.5989
869.576	75.296
872.951	64.3436
876.325	48.9496
879.7	43.1672
883.075	38.3219
886.45	34.6598
889.825	36.9778
893.199	33.5792
896.574	24.8888
899.949	16.2398
903.324	8.30396
906.699	5.22266
910.073	2.40002
913.448	0.229004
916.823	0.049927
920.198	1.51428
923.573	2.68652
926.948	3.51184
930.322	2.63831
933.697	2.83447
937.072	2.89331
940.447	0.236572
943.822	2.74072
947.197	4.4176
950.571	2.87158
953.946	8.57971
957.321	6.83337
960.696	0.027588
964.071	2.33594
967.445	7.18555
970.82	6.68335
974.195	3.76868
977.57	5.28516
980.945	5.9613
984.319	1.70215
987.694	6.84473
991.069	6.57996
994.444	7.95874
997.819	5.45813
1001.19	3.67908
1004.57	6.28027
1007.94	4.45801
1011.32	6.77698
1014.69	5.36572
1018.07	5.94067
1021.44	6.57019
1024.82	0.847168
1028.19	5.58093
1031.57	2.85583
1034.94	6.63855
1038.32	6.25366
1041.69	6.18823
1045.07	3.43579
1048.44	8.59229
1051.82	9.24146
1055.19	5.88171
1058.57	11.6355
1061.94	5.0824
1065.32	5.5896
1068.69	7.50293
1072.07	8.84497
1075.44	4.75232
1078.81	8.48877
1082.19	8.6554
1085.56	8.19714
1088.94	6.59351
1092.31	4.39136
1095.69	1.86706
1099.06	4.62732
1102.44	2.0929
1105.81	5.37964
1109.19	0.394775
1112.56	0.082153
1115.94	2.40393
1119.31	2.44617
1122.69	0.884155
1126.06	2.75378
1129.44	1.38232
1132.81	4.88501
1136.19	6.92127
1139.56	5.13464
1142.94	4.20581
1146.31	2.87048
1149.69	7.26392
1153.06	6.73181
1156.43	4.95007
1159.81	5.39624
1163.18	8.27795
1166.56	10.3147
1169.93	7.95154
1173.31	10.5104
1176.68	7.91235
1180.06	3.98022
1183.43	4.57336
1186.81	7.38684
1190.18	7.66809
1193.56	8.26807
1196.93	5.74219
1200.31	5.49756
1203.68	8.38965
1207.06	10.3059
1210.43	6.75964
1213.81	8.65564
1217.18	6.50537
1220.56	6.78979
1223.93	4.67224
1227.31	2.23242
1230.68	4.43018
1234.06	6.16431
1237.43	0.880249
1240.81	2.85877
1244.18	6.1593
1247.56	4.15039
1250.93	0.095703
1254.31	8.74231
1257.68	7.77576
1261.05	11.8293
1264.43	6.46545
1267.8	6.94556
1271.18	12.6405
1274.55	8.89123
1277.93	0.753784
1281.3	0.393311
