Measurement: Raman, 514 nm, unoriented, Raman Data RAW
Mineral: Monazite-(Ce)
Rruff sample: X050118
Ideal chemistry: CePO_4_
Locality: unknown
Source: Caltech
Description: radioactive
Raman shift (cm-1)	intensity
152.734	955
157.771	1327.45
162.809	1787.51
167.846	2382.86
172.883	3033.16
177.921	3448.18
182.958	3594.93
187.995	3792.78
193.032	3964.56
198.07	4084.86
203.107	4274.98
208.144	4537.58
213.182	4827.52
218.219	5097.15
223.256	5293.89
228.293	5374.85
233.331	5425.49
238.368	5407.78
243.405	5487.21
248.443	5601.66
253.48	5767.49
258.517	5922.17
263.555	6163.99
268.592	6567.84
273.629	7086.48
278.666	7406.54
283.704	7694.05
288.741	7871.44
293.778	7813.04
298.816	7713.37
303.853	7724.16
308.89	7475.21
313.928	7350.98
318.965	7158.68
324.002	6887.9
329.039	6773.76
334.077	6873.07
339.114	6871.23
344.151	6868.26
349.189	7139.4
354.226	7421.81
359.263	7858.14
364.3	8353.07
369.338	8830.85
374.375	9461.96
379.412	10004.9
384.45	10571
389.487	10923.4
394.524	11215
399.562	11410.3
404.599	11658.2
409.636	12231.3
414.673	13094.1
419.711	13255.8
424.748	12006.8
429.785	10656.5
434.823	9606.03
439.86	9360.94
444.897	9611.31
449.935	10153.8
454.972	11345.5
460.009	12579.9
465.046	13514.5
470.084	13234.1
475.121	11978.4
480.158	10484.4
485.196	9366.02
490.233	8677.36
495.27	8006.86
500.308	7750.52
505.345	7411.69
510.382	7195.1
515.419	6978.6
520.457	6906.25
525.494	6943
530.531	7201.83
535.569	7342.35
540.606	7400.7
545.643	7217.78
550.681	7232.73
555.718	7369.49
560.755	7668.18
565.793	8194.49
570.83	8845.22
575.867	8794.18
580.904	8131.79
585.942	7777.95
590.979	7678.25
596.016	7639.96
601.054	7604.26
606.091	7697.8
611.128	7904.37
616.165	8186.16
621.203	8651.75
626.24	8285.04
631.277	7964.51
636.315	7773.54
641.352	7558.13
646.389	7642.11
651.427	7461.67
656.464	7525.18
661.501	7366.29
666.538	7414.28
671.576	7391.04
676.613	7360.06
681.65	7523.25
686.688	7523.89
691.725	7468.39
696.762	7458.06
701.8	7337.62
706.837	7167.9
711.874	7041.33
716.911	6721.93
721.949	6491.31
726.986	6283.8
732.023	6173.38
737.061	6078.59
742.098	5969.73
747.135	6039.9
752.173	5875.62
757.21	5891.62
762.247	5931.92
767.284	5979.47
772.322	6010.44
777.359	6089.75
782.396	6121.42
787.434	6244.49
792.471	6327.18
797.508	6435.89
802.545	6610.17
807.583	6689.9
812.62	6841.74
817.657	6936.9
822.695	7129.68
827.732	7216.76
832.769	7324.36
837.807	7426.28
842.844	7361.21
847.881	7440.28
852.918	7319.66
857.956	7285.79
862.993	7151.39
868.03	7048.77
873.068	6885.7
878.105	6798.1
883.142	6597.11
888.18	6569.79
893.217	6486.69
898.254	6533.07
903.292	6487.23
908.329	6403.72
913.366	6453.14
918.403	6484.1
923.441	6533.3
928.478	6792.59
933.515	7159.07
938.553	7832.74
943.59	8657.04
948.627	9754.45
953.664	11400.4
958.702	14173.3
963.739	18133.8
968.776	23640.9
973.814	26920.7
978.851	23864.7
983.888	17520.5
988.926	13016.1
993.963	10883.3
999	9737.03
1004.04	9020.77
1009.07	8489.44
1014.11	8279.13
1019.15	8284.55
1024.19	8259.79
1029.22	8525.92
1034.26	8708.41
1039.3	9103.86
1044.34	9690.53
1049.37	10687.6
1054.41	11961.8
1059.45	13177.5
1064.49	13286.1
1069.52	12361.9
1074.56	10883.9
1079.6	9619.32
1084.63	8597.45
1089.67	7811.21
1094.71	7292.77
1099.75	6935.98
1104.78	6678.31
1109.82	6465.75
1114.86	6459.01
1119.9	6290.69
1124.93	6174.2
1129.97	6158.39
1135.01	6162.79
1140.04	5960.23
1145.08	6009.5
1150.12	5960.5
1155.16	5978.06
1160.19	5926.6
1165.23	5906.65
1170.27	5823.27
1175.31	5882.69
1180.34	5907.81
1185.38	5837.15
1190.42	5842.61
1195.45	5834.06
1200.49	5870.56
1205.53	5821.98
1210.57	5743.84
1215.6	5747.59
1220.64	5768.63
1225.68	5685.17
1230.72	5685.97
1235.75	5663.29
1240.79	5652.59
1245.83	5673.52
1250.87	5732.07
1255.9	5677.05
1260.94	5821.63
1265.98	5883.54
1271.01	5941.04
1276.05	6011.21
1281.09	6026.15
1286.13	6181.19
1291.16	6257.36
1296.2	6345.55
1301.24	6325.44
1306.28	6341.76
1311.31	6313.78
1316.35	6359.79
1321.39	6252.98
1326.42	6201.34
1331.46	6093.99
1336.5	6070.12
1341.54	6124.82
1346.57	6009.18
1351.61	6024.43
1356.65	5992.68
1361.69	5825.58
1366.72	5909.09
1371.76	5944.82
1376.8	5863.52
1381.84	5865.64
1386.87	5908.67
1391.91	5829.01
1396.95	5829.79
1401.98	5845.64
1407.02	5802.44
1412.06	5766.14
1417.1	5733.74
1422.13	5652.72
1427.17	5706.23
1432.21	5639.2
1437.25	5655.65
1442.28	5564.52
1447.32	5636.14
1452.36	5564.4
1457.39	5535.89
1462.43	5504.35
1467.47	5604.08
1472.51	5482.62
1477.54	5515.45
1482.58	5550.9
1487.62	5500.44
1492.66	5552.25
1497.69	5537.52
