Measurement: Raman, 785 nm, unoriented, Raman Data RAW
Mineral: Monazite-(La)
Rruff sample: R070263
Ideal chemistry: LaPO_4_
Locality: Bear Lodge, Bear Creek placers, First Choice District (Garnet District), Granite County, Montana, USA
Source: Michael Scott
Description: Black polished surface
Raman shift (cm-1)	intensity
121.019	1163.43
123.912	1254.4
126.805	2001.07
129.697	4063.51
132.59	7307.54
135.483	5511.63
138.376	3689.45
141.268	2823.05
144.161	3498.06
147.054	5431.45
149.946	6971.09
152.839	5283.88
155.732	3576.36
158.625	3067.53
161.517	3504.25
164.41	3309.76
167.303	3206.56
170.195	3025.98
173.088	2922.42
175.981	2758.18
178.873	2566.34
181.766	2485.95
184.659	2430.71
187.552	2585.56
190.444	2430.2
193.337	2377.31
196.23	2419.7
199.122	2278.23
202.015	2330.54
204.908	2282.3
207.8	2202.63
210.693	2166.07
213.586	2170.27
216.478	2111.72
219.371	2139.72
222.264	2114.17
225.157	2054.46
228.049	2010.38
230.942	1948.33
233.835	2002.26
236.727	2015.19
239.62	1998.64
242.513	1956.2
245.405	1942.16
248.298	1938.49
251.191	1935.03
254.084	1939.69
256.976	1921.32
259.869	1917.64
262.762	1885.57
265.654	1864.72
268.547	1899.74
271.44	1898.3
274.332	1818.31
277.225	1865.8
280.118	1843.11
283.011	1820.81
285.903	1834.19
288.796	1850.21
291.689	1842.73
294.581	1831.32
297.474	1769.7
300.367	1833.07
303.26	1783.89
306.152	1806.54
309.045	1802.41
311.938	1756.95
314.83	1816.41
317.723	1809.91
320.616	1775.85
323.508	1760.53
326.401	1764.84
329.294	1752.26
332.187	1783.37
335.079	1771.42
337.972	1738.03
340.865	1770.75
343.757	1738.45
346.65	1781.21
349.543	1741.96
352.435	1747.63
355.328	1720.88
358.221	1688.08
361.113	1703.36
364.006	1711.29
366.899	1701.57
369.792	1726.6
372.684	1723.52
375.577	1704.08
378.47	1725.07
381.362	1694.56
384.255	1695.13
387.148	1698.96
390.041	1691.05
392.933	1705.37
395.826	1652.63
398.719	1659.06
401.611	1662.78
404.504	1644.96
407.397	1612.83
410.289	1617.62
413.182	1697.3
416.075	1677.35
418.967	1645.69
421.86	1601.25
424.753	1631.1
427.646	1638.54
430.538	1628.85
433.431	1650.88
436.324	1643.61
439.216	1604.79
442.109	1607.5
445.002	1613.59
447.894	1634.19
450.787	1583.64
453.68	1615.84
456.573	1620.91
459.465	1629.28
462.358	1620.24
465.251	1593.48
468.143	1621.98
471.036	1610
473.929	1583.43
476.822	1504.56
479.714	1614.38
482.607	1579.08
485.5	1587.91
488.392	1574.34
491.285	1567.26
494.178	1596.99
497.07	1548.54
499.963	1547.17
502.856	1567.94
505.748	1571.9
508.641	1542.18
511.534	1567.61
514.427	1572.29
517.319	1553.48
520.212	1598.53
523.105	1569.68
525.997	1541.95
528.89	1551.94
531.783	1550.39
534.676	1558.14
537.568	1556.61
540.461	1563.19
543.354	1514.04
546.246	1510.69
549.139	1573.14
552.032	1528.08
554.924	1567.78
557.817	1567.39
560.71	1544.31
563.602	1568.01
566.495	1524.77
569.388	1582.93
572.281	1543.6
575.173	1548.89
578.066	1560.7
580.959	1559.95
583.851	1565.22
586.744	1546.23
589.637	1555.8
592.529	1570.23
595.422	1539.71
598.315	1571.71
601.208	1557.09
604.1	1601.89
606.993	1583.18
609.886	1555.32
612.778	1545.34
615.671	1562.91
618.564	1546.36
621.457	1536.67
624.349	1589.58
627.242	1555.8
630.135	1584.49
633.027	1588.8
635.92	1593.77
638.813	1594
641.705	1555.44
644.598	1582.12
647.491	1580.72
650.384	1599.51
653.276	1572.44
656.169	1599.59
659.062	1549.89
661.954	1577.78
664.847	1588.54
667.74	1589.14
670.632	1593.47
673.525	1588.15
676.418	1582.1
679.311	1580.53
682.203	1556.27
685.096	1578.91
687.989	1551.56
690.881	1557.35
693.774	1546.1
696.667	1508.9
699.559	1549.27
702.452	1525.43
705.345	1543.73
708.237	1531.51
711.13	1538.95
714.023	1529.26
716.916	1503.65
719.808	1497.3
722.701	1473.99
725.594	1510.81
728.486	1476.1
731.379	1480.6
734.272	1457.92
737.164	1484.15
740.057	1424.8
742.95	1466.07
745.843	1417.55
748.735	1434.48
751.628	1434.5
754.521	1402.26
757.413	1403.35
760.306	1417.68
763.199	1381.97
766.091	1401.36
768.984	1387.2
771.877	1351.94
774.77	1319.12
777.662	1359.75
780.555	1319.05
783.448	1286.36
786.34	1309.67
789.233	1327.42
792.126	1290.37
795.019	1281.33
797.911	1283.67
800.804	1274.35
803.697	1261.27
806.589	1231.59
809.482	1209.58
812.375	1192.58
815.267	1201.06
818.16	1194.45
821.053	1164.95
823.946	1161.82
826.838	1126.82
829.731	1145.75
832.624	1147.53
835.516	1106.58
838.409	1126.14
841.302	1100.91
844.194	1104.5
847.087	1111.22
849.98	1031.81
852.872	1063.68
855.765	1053.89
858.658	1044.42
861.551	1040.65
864.443	1031.58
867.336	1025.12
870.229	1015.64
873.121	992.355
876.014	986.57
878.907	971.583
881.799	993.47
884.692	987.696
887.585	977.23
890.478	941.004
893.37	955.091
896.263	929.68
899.156	931.392
902.048	913.553
904.941	890.489
907.834	904.766
910.726	894.361
913.619	893.525
916.512	879.999
919.405	903.183
922.297	856.917
925.19	860.998
928.083	864.579
930.975	860.18
933.868	837.622
936.761	819.003
939.654	842.341
942.546	844.517
945.439	815.872
948.332	853.977
951.224	837.322
954.117	843.098
957.01	833.894
959.902	863.351
962.795	834.656
965.688	808.669
968.581	821.832
971.473	802.677
974.366	785.728
977.259	791.35
980.151	786.422
983.044	771.277
985.937	795.756
988.829	809.407
991.722	767.888
994.615	813.697
997.508	748.234
1000.4	790.679
1003.29	780.939
1006.19	778.979
1009.08	786.183
1011.97	801.958
1014.86	765.641
1017.76	765.202
1020.65	775.822
1023.54	772.326
1026.43	774.28
1029.33	799.971
1032.22	765.755
1035.11	786.361
1038.01	769.907
1040.9	754.403
1043.79	731.721
1046.68	732.735
1049.58	780.97
1052.47	750.474
1055.36	756.433
1058.25	734.812
1061.15	746.904
1064.04	768.425
1066.93	754.698
1069.83	745.08
1072.72	760.962
1075.61	736.489
1078.5	744.809
1081.4	755.746
1084.29	737.378
1087.18	728.798
1090.07	727.379
1092.97	757.758
1095.86	767.043
1098.75	743.008
1101.64	746.587
1104.54	743.429
1107.43	716.292
1110.32	688.759
1113.21	728.096
1116.11	755.603
1119	744.489
1121.89	737.349
1124.79	723.604
1127.68	755.935
1130.57	745.668
1133.46	804.679
1136.36	755.327
1139.25	751.162
1142.14	795.712
1145.04	807.531
1147.93	797.88
1150.82	824.521
1153.71	771.819
1156.61	824.982
1159.5	796.527
1162.39	803.021
1165.28	772.439
1168.18	799.585
1171.07	775.77
1173.96	767.682
1176.86	768.957
1179.75	761.54
1182.64	801.059
1185.53	804.184
1188.43	766.663
1191.32	802.098
1194.21	785.006
1197.1	783.492
1200	797.542
1202.89	761.416
1205.78	772.633
1208.67	795.221
1211.57	751.971
1214.46	753.63
1217.35	756.19
1220.24	766.874
1223.14	754.497
1226.03	758.718
1228.92	762.265
1231.82	718.837
1234.71	754.938
1237.6	703.744
1240.49	766.224
