Measurement: Raman, 785 nm, unoriented, Raman Data RAW
Mineral: Monazite-(Ce)
Rruff sample: R060925
Ideal chemistry: CePO_4_
Locality: Siglo Veinte mine, Llallagua, Bustillos Province, Potosi Department, Bolivia
Source: Alfredo Petrov
Description: Pale peach semi-transparent crystals associated with quartz
Measured chemistry: (Ce_0.52_La_0.21_Nd_0.19_Y_0.06_Ca_0.01_Th_0.01_)_Σ=1_P_1.00_O_4_ ; = light phase, and dark phase = (Ce_0.49_La_0.21_Nd_0.20_Y_0.07_Ca_0.02_Th_0.02_)_Σ=1_P_1.00_O_4_
Raman shift (cm-1)	intensity
136.955	587.051
139.848	688.579
142.741	949.827
145.633	1235.07
148.526	1461.1
151.419	1626.43
154.311	1667.72
157.204	1707.32
160.097	1877.91
162.989	2071.17
165.882	2308.54
168.775	2504.49
171.668	2608.43
174.56	2609.95
177.453	2633.05
180.346	2618.53
183.238	2608.05
186.131	2630.49
189.024	2591.04
191.917	2540.01
194.809	2504.9
197.702	2476.71
200.595	2482.35
203.487	2474.73
206.38	2452.8
209.273	2494.42
212.165	2558.78
215.058	2677.26
217.951	2896
220.844	3027.19
223.736	3261.15
226.629	3457.2
229.522	3630.34
232.414	3842.02
235.307	4010.29
238.2	4148.29
241.092	4228.27
243.985	4169.19
246.878	4099.16
249.77	3896.79
252.663	3683.98
255.556	3540.8
258.449	3387.59
261.341	3251.79
264.234	3145.25
267.127	3083.97
270.019	3017.09
272.912	3095.28
275.805	3145.69
278.697	3235.85
281.59	3445.07
284.483	3689.86
287.376	3931.66
290.268	4196.81
293.161	4485.69
296.054	4784.08
298.946	5044.67
301.839	5360.77
304.732	5550.81
307.625	5676.42
310.517	5713.23
313.41	5598.02
316.303	5558.69
319.195	5363.93
322.088	5215.48
324.981	5110.91
327.873	4893.69
330.766	4720.54
333.659	4512.42
336.551	4430.78
339.444	4219.64
342.337	4151.91
345.23	4072.84
348.122	4012.06
351.015	3952.84
353.908	3928.7
356.8	3904.97
359.693	3860.82
362.586	3846.19
365.478	3810.07
368.371	3822.07
371.264	3828.36
374.157	3828.92
377.049	3819.97
379.942	3771.71
382.835	3740.53
385.727	3753.75
388.62	3762.04
391.513	3767.18
394.406	3741.25
397.298	3810.64
400.191	3756.95
403.084	3703.51
405.976	3707.91
408.869	3646.75
411.762	3701.08
414.654	3786.27
417.547	3824
420.44	3860.77
423.332	3883.4
426.225	3962.94
429.118	3981.47
432.011	4010.02
434.903	4050.26
437.796	4099.98
440.689	4140.19
443.581	4135.43
446.474	4120.78
449.367	4120.53
452.26	4090.41
455.152	4005.78
458.045	3985.04
460.938	3918.53
463.83	3853.51
466.723	3817.55
469.616	3716.41
472.508	3593.23
475.401	3497.2
478.294	3366.97
481.187	3287.05
484.079	3181.59
486.972	3093.14
489.865	3007.75
492.757	2947.95
495.65	2806.04
498.543	2750.92
501.435	2692.17
504.328	2569.89
507.221	2532.33
510.114	2463.25
513.006	2420.47
515.899	2402.86
518.792	2299.44
521.684	2325.28
524.577	2264.68
527.47	2278.42
530.362	2230.89
533.255	2197.49
536.148	2194.71
539.04	2209.68
541.933	2204.51
544.826	2213.06
547.719	2206.05
550.611	2211.81
553.504	2169.72
556.397	2190.1
559.289	2175.36
562.182	2178.49
565.075	2150.26
567.967	2093.91
570.86	2056.03
573.753	2014.61
576.646	2005.26
579.538	1947.28
582.431	1906.29
585.324	1862.22
588.216	1826.36
591.109	1769.24
594.002	1769.49
596.895	1717.98
599.787	1675.95
602.68	1656.88
605.573	1624.84
608.465	1593.33
611.358	1581.63
614.251	1563.43
617.144	1540.58
620.036	1541.31
622.929	1530.97
625.822	1430.41
628.714	1426.01
631.607	1393.51
634.5	1361.15
637.392	1301.01
640.285	1295.14
643.178	1256.37
646.071	1225.49
648.963	1246.75
651.856	1240.47
654.749	1214.04
657.641	1235.4
660.534	1236.73
663.427	1228.84
666.319	1284.1
669.212	1297.92
672.105	1371.01
674.997	1418.73
677.89	1460.16
680.783	1471.89
683.676	1518.08
686.568	1527.09
689.461	1563.91
692.354	1567.28
695.246	1534.9
698.139	1546.69
701.032	1454.01
703.924	1405.44
706.817	1341.03
709.71	1254.92
712.603	1193.29
715.495	1099.39
718.388	1040.84
721.281	985.352
724.173	927.518
727.066	864.757
729.959	822.333
732.851	750.142
735.744	711.871
738.637	696.301
741.53	656.581
744.422	617.775
747.315	613.647
750.208	583.624
753.1	564.298
755.993	540.391
758.886	535.512
761.779	533.798
764.671	523
767.564	502.508
770.457	494.434
773.349	495.293
776.242	491.483
779.135	489.461
782.027	505.787
784.92	469.666
787.813	463.349
790.706	471.163
793.598	486.618
796.491	466.716
799.384	456.895
802.276	466.224
805.169	460.029
808.062	469.272
810.954	459.266
813.847	470.061
816.74	461.689
819.633	451.147
822.525	473.054
825.418	452.738
828.311	468.345
831.203	473.652
834.096	481.913
836.989	497.038
839.881	519.636
842.774	528.508
845.667	536.421
848.559	547.694
851.452	563.654
854.345	567.336
857.238	588.818
860.13	624.231
863.023	618.24
865.916	648.605
868.808	629.306
871.701	645.3
874.594	664.301
877.486	677.26
880.379	692.165
883.272	710.233
886.165	715.197
889.057	730.048
891.95	757.585
894.843	771.099
897.735	796.694
900.628	804.375
903.521	863.969
906.413	882.555
909.306	925.299
912.199	944.466
915.092	956.349
917.984	1000.13
920.877	1022.61
923.77	1055.55
926.663	1116.37
929.555	1123.18
932.448	1156.69
935.341	1210.76
938.233	1246.95
941.126	1281.21
944.019	1316.98
946.911	1343.86
949.804	1407.37
952.697	1446.95
955.59	1523.37
958.482	1573.54
961.375	1658.58
964.268	1738.04
967.16	1854.99
970.053	2057.6
972.946	2248
975.838	2123.95
978.731	2069.35
981.624	2154.52
984.516	2268.34
987.409	2333.43
990.302	2459.41
993.195	2581.18
996.087	2659.09
998.98	2801.23
1001.87	2960.68
1004.76	3058.22
1007.66	3211.36
1010.55	3374.72
1013.44	3497.95
1016.34	3668.12
1019.23	3834.66
1022.12	4040.54
1025.01	4162.07
1027.91	4325.39
1030.8	4468.83
1033.69	4641.23
1036.59	4739.69
1039.48	4884.26
1042.37	5102.82
1045.26	5186.59
1048.16	5316.71
1051.05	5540.47
1053.94	5728.18
1056.83	5934.43
1059.73	6027.88
1062.62	6356.71
1065.51	6461.66
1068.4	6694.81
1071.3	7010.36
1074.19	7300.73
1077.08	7555.18
1079.98	7930.8
1082.87	8290.48
1085.76	8734.01
1088.65	9266.17
1091.55	9882.24
1094.44	10598
1097.33	11419.7
1100.22	12336.4
1103.12	13527.7
1106.01	14801.5
1108.9	16388.3
1111.8	18171.6
1114.69	20352.7
1117.58	23023.9
1120.47	26058.8
1123.37	29521.5
1126.26	33662.2
1129.15	38283.9
1132.04	43264.8
1134.94	48507.6
1137.83	53793.2
1140.72	59142.2
1143.62	63468.7
1146.51	66661.6
1149.4	68329.9
1152.29	68530.5
1155.19	66662.7
1158.08	63565.4
1160.97	59187.2
1163.86	54220.5
1166.76	49474.3
1169.65	44967.1
1172.54	41214.1
1175.43	38011.7
1178.33	35706.2
1181.22	34231.4
1184.11	33578.7
1187.01	33972.9
1189.9	35146.7
1192.79	37367.9
1195.68	40603
1198.58	44699.8
1201.47	49594.3
1204.36	54963.9
1207.25	60213.3
1210.15	64811.8
1213.04	68872.8
1215.93	71588.1
1218.83	72820.6
1221.72	72828.1
1224.61	72316.9
1227.5	71480
1230.4	71097.9
1233.29	71674
1236.18	73870.3
1239.07	77896.2
1241.97	84564.1
1244.86	93944.1
1247.75	105553
1250.64	119204
1253.54	133501
1256.43	146966
1259.32	157573
1262.22	163188
1265.11	161248
1268	152978
1270.89	139069
