Measurement: Raman, 780 nm, unoriented, Raman Data Processed
Mineral: Monteregianite-(Y)
Rruff sample: R130052
Ideal chemistry: KNa_2_YSi_8_O_19_5H_2_O
Locality: Mont Saint-Hilaire, Rouville RCM, Monteregie, Quebec, Canada
Source: Don Doell
Description: Single bladed pale pink crystal, cell parameters are significantly different than those reported
Raman shift (cm-1)	intensity
133.626	0
136.518	1.47836
139.411	2.23767
142.304	3.13812
145.197	4.89545
148.089	3.4089
150.982	4.17337
153.875	4.23795
156.767	5.71481
159.66	9.8252
162.553	12.3267
165.446	9.41098
168.338	8.46295
171.231	4.89111
174.124	3.58401
177.016	3.92371
179.909	0.415894
182.802	0.980072
185.694	0.776886
188.587	1.08038
191.48	1.66443
194.373	2.48431
197.265	3.07025
200.158	6.79019
203.051	9.61986
205.943	12.2187
208.836	14.7414
211.729	16.6894
214.621	17.4796
217.514	16.4741
220.407	15.7287
223.299	15.9269
226.192	13.6968
229.085	14.8028
231.978	16.4495
234.87	15.3042
237.763	15.3697
240.656	16.4168
243.548	10.8711
246.441	10.9665
249.334	6.87398
252.226	5.19687
255.119	1.53076
258.012	3.19142
260.904	1.51096
263.797	0.781662
266.69	0.765625
269.583	0.369614
272.475	0.661926
275.368	1.03801
278.261	1.07465
281.153	2.21414
284.046	0.117325
286.939	1.44022
289.832	2.84663
292.724	1.96605
295.617	0.657669
298.51	4.43176
301.402	7.06755
304.295	8.65689
307.188	12.02
310.08	12.4548
312.973	16.4222
315.866	18.1411
318.759	20.3309
321.651	14.5344
324.544	12.2675
327.437	11.1805
330.329	9.84598
333.222	14.0717
336.115	21.1414
339.007	23.3989
341.9	22.4504
344.793	16.6481
347.685	14.132
350.578	12.1898
353.471	11.9528
356.364	12.9049
359.256	11.642
362.149	13.6679
365.042	11.2583
367.934	13.3706
370.827	14.6711
373.72	14.8901
376.613	14.4198
379.505	15.0927
382.398	13.6776
385.291	13.2286
388.183	7.00668
391.076	3.38669
393.969	2.60007
396.861	0.603699
399.754	0.964508
402.647	0.288086
405.539	1.37399
408.432	2.63585
411.325	1.84097
414.217	2.26236
417.11	5.02768
420.003	8.1095
422.896	8.95099
425.788	9.40381
428.681	9.42679
431.574	6.20245
434.466	4.58745
437.359	3.83163
440.252	3.21008
443.144	2.33206
446.037	5.468
448.93	3.15854
451.823	7.73102
454.715	8.2682
457.608	11.4331
460.501	11.215
463.393	14.655
466.286	16.112
469.179	18.9468
472.072	20.6789
474.964	25.6932
477.857	27.4884
480.75	31.6254
483.642	34.6764
486.535	37.484
489.428	38.0255
492.32	35.439
495.213	32.2309
498.106	30.8354
500.998	28.6539
503.891	25.4036
506.784	21.6513
509.677	16.3451
512.569	10.3175
515.462	7.61146
518.355	6.06424
521.247	4.45625
524.14	1.96716
527.033	1.08052
529.926	0.81459
532.818	0.485138
535.711	0.770706
538.604	1.24484
541.496	1.81732
544.389	0.869812
547.282	2.44908
550.174	1.37134
553.067	0.250793
555.96	1.71666
558.852	0.514572
561.745	1.76205
564.638	1.7469
567.53	2.15077
570.423	3.22076
573.316	4.77032
576.209	8.36282
579.101	7.95612
581.994	9.71281
584.887	12.743
587.779	16.5766
590.672	21.2147
593.565	28.6957
596.457	38.7257
599.35	53.219
602.243	69.3303
605.136	87.7452
608.028	103.388
610.921	123.452
613.814	131.739
616.706	125.612
619.599	107.375
622.492	86.2417
625.385	73.3624
628.277	57.4867
631.17	50.4415
634.063	41.9037
636.955	33.1977
639.848	25.6128
642.741	18.369
645.633	13.8043
648.526	9.62098
651.419	6.66892
654.312	5.86203
657.204	3.27113
660.097	3.97721
662.99	4.90614
665.882	1.69021
668.775	2.31328
671.668	2.894
674.56	3.79622
677.453	3.14857
680.346	3.58946
683.239	3.63906
686.131	4.32467
689.024	3.73383
691.917	4.06228
694.809	3.58052
697.702	3.81585
700.595	0.894867
703.487	0.253571
706.38	1.31268
709.273	0.303825
712.165	0.459351
715.058	0.515366
717.951	0.815613
720.843	0.818909
723.736	0.770676
726.629	0.430328
729.522	1.14006
732.414	0.665131
735.307	1.83961
738.2	2.28605
741.092	1.28475
743.985	1.37445
746.878	3.41215
749.77	4.2138
752.663	3.96681
755.556	3.2081
758.449	6.30405
761.341	6.4337
764.234	6.04633
767.127	7.43832
770.019	9.46241
772.912	9.64702
775.805	12.1691
778.697	11.4497
781.59	13.2611
784.483	11.8456
787.376	11.0563
790.268	11.5996
793.161	7.22173
796.054	9.76439
798.946	8.31801
801.839	7.83942
804.732	9.44927
807.625	8.10369
810.517	10.0988
813.41	7.89748
816.303	10.7326
819.195	11.0482
822.088	11.1551
824.981	8.75517
827.873	8.26849
830.766	8.61301
833.659	7.44666
836.552	7.58843
839.444	9.08997
842.337	8.16987
845.23	8.29388
848.122	6.81226
851.015	5.91634
853.908	4.13839
856.8	5.34631
859.693	5.53626
862.586	5.38991
865.479	6.22156
868.371	4.70187
871.264	2.6386
874.157	3.17328
877.049	3.44076
879.942	1.40463
882.835	1.55593
885.727	2.75233
888.62	1.08221
891.513	0.680954
894.405	0.990646
897.298	0.383087
900.191	1.48713
903.083	0.140701
905.976	0.57991
908.869	0.563072
911.762	0.059669
914.654	0.91127
917.547	0.636322
920.44	0.072197
923.332	0.2201
926.225	0.084137
929.118	0.266747
932.01	0.541245
934.903	0.685242
937.796	0.281158
940.689	2.22748
943.581	0.146568
946.474	0.347038
949.367	2.26434
952.259	1.71698
955.152	0.813492
958.045	2.15682
960.937	3.44238
963.83	3.73882
966.723	7.41826
969.615	10.9513
972.508	12.2678
975.401	18.0254
978.294	21.1686
981.186	24.3397
984.079	22.395
986.972	21.8174
989.864	18.6595
992.757	16.4634
995.65	14.9001
998.543	14.1894
1001.43	13.8809
1004.33	15.8589
1007.22	16.489
1010.11	17.9302
1013.01	18.7934
1015.9	19.8797
1018.79	20.0853
1021.68	19.9961
1024.58	21.6495
1027.47	20.0794
1030.36	17.5262
1033.26	13.4928
1036.15	10.5213
1039.04	9.63021
1041.93	6.89116
1044.83	4.80072
1047.72	4.15201
1050.61	4.17342
1053.5	6.09558
1056.4	7.30262
1059.29	8.57877
1062.18	6.773
1065.08	3.47954
1067.97	1.24127
1070.86	0.345238
1073.75	1.73737
1076.64	0.260284
1079.54	0.926323
1082.43	2.27635
1085.32	3.84171
1088.22	4.60952
1091.11	4.92816
1094	7.91487
1096.89	9.73955
1099.79	14.1802
1102.68	21.5899
1105.57	25.7078
1108.46	29.0713
1111.36	29.39
1114.25	24.7121
1117.14	19.6052
1120.04	12.8761
1122.93	11.8714
1125.82	7.68259
1128.71	6.84012
1131.61	4.09283
1134.5	3.67895
1137.39	1.46746
1140.29	3.92664
1143.18	0.414856
1146.07	0.700134
1148.96	0.376389
1151.86	0.225449
1154.75	0.86087
1157.64	0.938873
1160.53	1.01629
1163.43	0.146484
1166.32	1.46303
1169.21	2.44743
1172.1	2.77402
1175	2.65132
1177.89	4.83709
1180.78	4.69096
1183.67	6.59515
1186.57	5.48475
1189.46	5.2952
1192.35	3.43107
1195.25	1.82701
1198.14	1.61771
1201.03	0.359261
1203.92	0.548592
1206.82	0.361336
1209.71	1.28325
1212.6	0.357391
1215.49	2.13026
1218.39	3.3372
1221.28	4.63834
1224.17	4.9118
1227.07	6.56602
1229.96	4.51464
1232.85	5.27704
1235.74	7.07769
1238.64	8.3865
1241.53	6.06991
1244.42	6.69547
1247.32	5.70042
1250.21	6.40377
1253.1	5.64068
1255.99	3.9316
1258.88	3.85688
1261.78	1.87537
1264.67	3.27908
1267.56	2.42854
1270.46	1.67327
1273.35	0.003479
1276.24	0.318924
1279.13	0.630524
1282.03	1.55479
