Measurement: Raman, 532 nm, unoriented, Raman Data Processed
Mineral: Monteregianite-(Y)
Rruff sample: R130052
Ideal chemistry: KNa_2_YSi_8_O_19_5H_2_O
Locality: Mont Saint-Hilaire, Rouville RCM, Monteregie, Quebec, Canada
Source: Don Doell
Description: Single bladed pale pink crystal, cell parameters are significantly different than those reported
Raman shift (cm-1)	intensity
224.354	0
227.247	8.47729
230.14	8.6842
233.032	7.21228
235.925	19.2623
238.818	31.134
241.71	35.7023
244.603	42.7065
247.496	40.5084
250.389	36.2179
253.281	28.2634
256.174	29.6725
259.067	25.273
261.959	29.1608
264.852	31.1338
267.745	25.9502
270.637	19.2855
273.53	22.0631
276.423	15.9667
279.316	14.4662
282.208	9.4154
285.101	13.9609
287.994	12.714
290.886	6.96509
293.779	1.25049
296.672	0.635498
299.565	1.198
302.457	0.929077
305.35	2.39441
308.243	1.35889
311.135	1.44983
314.028	1.6521
316.921	1.29932
319.813	3.71875
322.706	3.25928
325.599	7.02576
328.491	3.57519
331.384	4.65161
334.277	8.38342
337.17	6.13232
340.062	12.6647
342.955	17.0493
345.848	17.5984
348.74	14.1343
351.633	11.8809
354.526	13.8521
357.418	10.2003
360.311	9.29175
363.204	13.1453
366.097	19.0209
368.989	10.5487
371.882	14.6266
374.775	11.703
377.667	13.0457
380.56	12.3196
383.453	7.51904
386.346	7.50476
389.238	10.264
392.131	5.52625
395.024	7.32947
397.916	1.25342
400.809	0.305298
403.702	1.06885
406.594	0.01001
409.487	0.89978
412.38	0.982178
415.272	0.984497
418.165	3.60669
421.058	2.20093
423.951	0.672974
426.843	3.64453
429.736	1.85938
432.629	2.12793
435.521	2.1427
438.414	4.77649
441.307	7.94458
444.2	9.328
447.092	12.3361
449.985	12.1046
452.878	10.8905
455.77	7.96545
458.663	11.1998
461.556	11.631
464.448	17.8491
467.341	19.4391
470.234	24.668
473.127	32.2471
476.019	41.0978
478.912	48.0045
481.805	49.5901
484.697	58.8975
487.59	60.4308
490.483	64.6352
493.375	67.4308
496.268	66.51
499.161	68.2185
502.053	67.8742
504.946	63.4011
507.839	59.1532
510.732	61.4106
513.624	57.8345
516.517	52.6731
519.41	51.9564
522.302	50.7263
525.195	50.8047
528.088	50.0723
530.981	46.4051
533.873	47.6606
536.766	46.8633
539.659	45.2877
542.551	39.0183
545.444	33.7329
548.337	33.9293
551.229	30.9878
554.122	30.535
557.015	26.7517
559.908	23.1909
562.8	13.8673
565.693	10.9492
568.586	8.89624
571.478	2.76709
574.371	7.2489
577.264	1.82092
580.156	1.5907
583.049	0.229248
585.942	0.419189
588.835	1.44177
591.727	5.27429
594.62	8.24402
597.513	12.2418
600.405	20.7438
603.298	28.0623
606.191	43.3698
609.083	60.1429
611.976	65.2511
614.869	76.5026
617.761	79.4858
620.654	74.0842
623.547	57.9575
626.44	39.4203
629.332	28.5643
632.225	23.8799
635.118	16.6257
638.01	9.51782
640.903	3.48938
643.796	0.730835
646.688	0.565796
649.581	2.0321
652.474	0.199585
655.367	0.41394
658.259	1.36487
661.152	0.131714
664.045	0.587036
666.937	0.863892
669.83	0.718506
672.723	1.26526
675.615	3.22144
678.508	5.63013
681.401	7.63647
684.294	5.37707
687.186	7.7489
690.079	13.1985
692.972	16.0171
695.864	14.4364
698.757	13.2522
701.65	12.6396
704.543	11.5415
707.435	18.6779
710.328	16.4761
713.221	14.0998
716.113	13.3705
719.006	11.4338
721.899	14.1043
724.791	13.0505
727.684	16.3534
730.577	14.3599
733.47	14.6305
736.362	11.1493
739.255	11.3428
742.148	15.5411
745.04	18.9849
747.933	19.7064
750.826	13.8979
753.718	15.4818
756.611	12.3218
759.504	16.3583
762.396	18.6991
765.289	22.0269
768.182	18.7801
771.075	20.6095
773.967	21.5493
776.86	26.0016
779.753	26.3507
782.645	20.9205
785.538	22.15
788.431	17.6551
791.323	19.0674
794.216	21.5386
797.109	17.7616
800.002	11.7014
802.894	11.4915
805.787	9.67248
808.68	13.5309
811.572	8.83142
814.465	8.58667
817.358	7.73779
820.25	8.48254
823.143	12.0627
826.036	9.60095
828.929	1.677
831.821	0.472778
834.714	2.56714
837.607	0.882568
840.5	2.03308
843.392	0.525391
846.285	2.48303
849.178	1.74011
852.07	2.5918
854.963	2.85168
857.856	2.93652
860.748	3.56055
863.641	1.44177
866.534	1.03345
869.427	0.972168
872.319	2.92334
875.212	1.14087
878.105	4.21875
880.997	2.4342
883.89	5.94019
886.783	7.01648
889.675	9.99292
892.568	12.0347
895.461	14.3136
898.354	15.9883
901.246	16.785
904.139	21.8315
907.032	24.7312
909.924	27.715
912.817	28.6731
915.71	32.4596
918.602	39.7737
921.495	35.027
924.388	40.5857
927.28	42.5112
930.173	42.7817
933.066	51.1498
935.959	48.6425
938.851	49.4584
941.744	51.8424
944.637	49.4287
947.529	49.7078
950.422	48.4408
953.315	42.0563
956.207	36.7082
959.1	41.6883
961.993	43.1051
964.886	49.1093
967.778	47.7418
970.671	48.6074
973.564	50.4636
976.456	51.8613
979.349	52.7259
982.242	50.9218
985.135	43.2095
988.027	45.7264
990.92	40.3268
993.813	38.0486
996.705	40.8418
999.598	32.4349
1002.49	30.7304
1005.38	27.8768
1008.28	29.5729
1011.17	33.5984
1014.06	30.5914
1016.95	29.1882
1019.85	31.0341
1022.74	29.8645
1025.63	29.3601
1028.53	31.0897
1031.42	27.3845
1034.31	26.7925
1037.2	24.9481
1040.1	16.0342
1042.99	15.3923
1045.88	13.3456
1048.77	11.2728
1051.67	6.37769
1054.56	6.98779
1057.45	7.00342
1060.35	3.34888
1063.24	4.76099
1066.13	2.80652
1069.02	0.264038
1071.92	4.50024
1074.81	2.94678
1077.7	3.09583
1080.59	2.4281
1083.49	2.83276
1086.38	2.72852
1089.27	2.33874
1092.16	3.20447
1095.06	3.32593
1097.95	9.7146
1100.84	13.3208
1103.73	20.2185
1106.63	22.826
1109.52	28.7078
1112.41	28.6785
1115.31	30.0381
1118.2	27.9644
1121.09	21.1855
1123.98	15.2363
1126.88	16.2696
1129.77	13.843
1132.66	10.8795
1135.56	10.6416
1138.45	6.13232
1141.34	3.51312
1144.23	2.74365
1147.13	3.50378
1150.02	5.03705
1152.91	3.04456
1155.8	3.6029
1158.7	2.07263
1161.59	2.7843
1164.48	4.3537
1167.38	2.40643
1170.27	10.624
1173.16	9.0332
1176.05	16.0966
1178.94	12.2986
1181.84	18.2975
1184.73	16.1964
1187.62	11.3036
1190.52	7.99353
1193.41	6.84161
1196.3	9.8158
1199.19	8.83447
1202.09	8.54657
1204.98	7.71875
1207.87	6.28857
1210.77	6.73254
1213.66	8.52252
1216.55	2.961
1219.44	2.72034
1222.34	2.53333
1225.23	4.36249
1228.12	0.643799
1231.01	2.19635
1233.91	3.01947
1236.8	2.14179
1239.69	1.31403
1242.59	0.402222
1245.48	6.28339
1248.37	4.43189
1251.26	6.12946
1254.16	5.8053
1257.05	3.09051
1259.94	6.72839
1262.83	8.41632
1265.73	4.9884
1268.62	8.30182
1271.51	3.23981
1274.4	10.3742
1277.3	5.18048
1280.19	4.263
1283.08	4.44611
1285.97	4.95795
1288.87	2.6001
1291.76	1.94391
1294.65	4.7973
1297.55	1.53033
1300.44	1.26856
