Measurement: Raman, 780 nm, unoriented, Raman Data RAW
Mineral: Mooreite
Rruff sample: R060089
Ideal chemistry: Mg_15_(S^6+^O_4_)_2_(OH)_26_8H_2_O
Locality: Sterling Hill, New Jersey, USA
Source: University of Arizona Mineral Museum
Description: Tan fragment showing well-developed cleavage
Measured chemistry: Mg_9.00_Zn_4.00_(Mn^2+^_1.85_Mg_0.15_)_Σ=2_(S_1.00_O_4_)_2_(OH)_26_·8H_2_O
Raman shift (cm-1)	intensity
93.4668	46.6321
96.8416	36.2713
100.216	27.1505
103.591	22.2904
106.966	21.7361
110.341	17.4445
113.716	15.9629
117.091	15.8869
120.465	14.5021
123.84	16.1573
127.215	15.8803
130.59	19.3677
133.965	19.936
137.339	12.3351
140.714	9.8669
144.089	8.96794
147.464	8.25237
150.839	7.9216
154.214	8.08291
157.588	8.08121
160.963	8.26498
164.338	7.858
167.713	8.21772
171.088	8.18649
174.462	7.80117
177.837	7.31958
181.212	7.30145
184.587	7.20279
187.962	7.17569
191.337	7.29268
194.711	7.39315
198.086	7.66685
201.461	7.61908
204.836	7.86454
208.211	7.70541
211.585	8.0303
214.96	8.08863
218.335	8.44864
221.71	8.43838
225.085	8.23553
228.459	7.64627
231.834	7.49165
235.209	6.99174
238.584	6.79157
241.959	6.60065
245.333	6.52842
248.708	6.48954
252.083	6.59786
255.458	6.59889
258.833	6.85898
262.208	6.81613
265.582	6.49569
268.957	6.19757
272.332	6.00328
275.707	5.94357
279.082	5.87746
282.457	5.95688
285.831	6.25935
289.206	6.11967
292.581	5.84296
295.956	5.70689
299.331	5.289
302.705	5.25662
306.08	5.24953
309.455	5.27341
312.83	5.56382
316.205	5.79116
319.579	6.07207
322.954	6.3272
326.329	6.35448
329.704	6.53633
333.079	6.70645
336.454	6.76295
339.828	6.9774
343.203	6.89749
346.578	6.88261
349.953	7.46699
353.328	8.2276
356.702	9.06327
360.077	8.73532
363.452	7.89037
366.827	7.30668
370.202	7.28544
373.577	7.5981
376.951	8.68688
380.326	9.26801
383.701	8.24724
387.076	7.61071
390.451	7.24777
393.825	7.17062
397.2	6.76006
400.575	6.73299
403.95	6.94682
407.325	7.4463
410.7	8.61475
414.074	10.442
417.449	11.7042
420.824	12.5089
424.199	12.8766
427.574	14.2196
430.948	16.6834
434.323	19.6169
437.698	19.6164
441.073	17.0348
444.448	14.5032
447.822	12.4419
451.197	11.7101
454.572	12.0853
457.947	12.2922
461.322	11.0219
464.697	9.56348
468.071	8.54109
471.446	7.81958
474.821	7.43149
478.196	7.03813
481.571	6.9308
484.945	7.03529
488.32	7.06916
491.695	6.91126
495.07	6.9038
498.445	7.21124
501.82	8.13057
505.194	9.36081
508.569	10.0511
511.944	9.22134
515.319	7.80993
518.694	6.88136
522.068	6.45354
525.443	6.65404
528.818	7.34343
532.193	8.4114
535.568	9.143
538.943	8.8494
542.317	7.56468
545.692	6.41039
549.067	5.45345
552.442	4.80826
555.817	4.66051
559.192	4.23074
562.566	4.12444
565.941	3.96541
569.316	4.08049
572.691	3.79797
576.066	3.81992
579.44	3.80225
582.815	3.89686
586.19	3.89302
589.565	4.07207
592.94	4.24291
596.314	4.53351
599.689	5.01159
603.064	5.76513
606.439	6.41529
609.814	7.10847
613.188	6.83942
616.563	5.95447
619.938	5.35417
623.313	4.92305
626.688	4.53869
630.063	4.12035
633.437	4.15415
636.812	3.89682
640.187	3.74775
643.562	3.59351
646.937	3.52281
650.312	3.58246
653.686	3.44575
657.061	3.30201
660.436	3.40592
663.811	3.44374
667.186	3.17089
670.56	3.3352
673.935	3.22584
677.31	3.17076
680.685	3.12235
684.06	3.15034
687.434	3.29852
690.809	3.22791
694.184	3.14569
697.559	3.18187
700.934	3.23274
704.308	3.31239
707.683	3.37658
711.058	3.4287
714.433	3.32864
717.808	3.45762
721.183	3.36044
724.557	3.45128
727.932	3.3367
731.307	3.43867
734.682	3.37613
738.057	3.31183
741.432	3.36502
744.806	3.4129
748.181	3.48475
751.556	3.25137
754.931	3.44351
758.306	3.5541
761.68	3.67731
765.055	3.57723
768.43	3.58894
771.805	3.58451
775.18	3.63281
778.554	3.61901
781.929	3.73449
785.304	3.57837
788.679	3.76432
792.054	3.54397
795.429	3.66977
798.803	3.64474
802.178	3.64582
805.553	3.72179
808.928	3.51423
812.303	3.53752
815.678	3.5755
819.052	3.64226
822.427	3.50332
825.802	3.5716
829.177	3.59032
832.552	3.41919
835.926	3.43543
839.301	3.42193
842.676	3.46912
846.051	3.50723
849.426	3.46039
852.801	3.38617
856.175	3.28934
859.55	3.31432
862.925	3.31796
866.3	3.32463
869.675	3.23526
873.049	3.30079
876.424	3.07905
879.799	3.15318
883.174	3.04587
886.549	3.02889
889.923	2.98034
893.298	3.00695
896.673	3.01183
900.048	2.98708
903.423	2.993
906.798	2.87772
910.172	2.91464
913.547	2.8998
916.922	2.87398
920.297	2.84466
923.672	2.86706
927.046	2.84684
930.421	2.94096
933.796	2.84543
937.171	2.90982
940.546	2.91381
943.92	3.04378
947.295	3.01941
950.67	3.13178
954.045	3.4235
957.42	3.7016
960.795	4.43712
964.169	5.72942
967.544	7.75776
970.919	11.3794
974.294	22.7982
977.669	58.8036
981.043	115.501
984.418	51.9198
987.793	15.1442
991.168	7.47385
994.543	4.9546
997.918	3.79865
1001.29	3.20388
1004.67	2.90746
1008.04	2.64706
1011.42	2.51072
1014.79	2.50341
1018.17	2.42474
1021.54	2.32317
1024.92	2.37478
1028.29	2.29533
1031.67	2.3911
1035.04	2.29834
1038.41	2.26626
1041.79	2.35142
1045.16	2.34986
1048.54	2.30119
1051.91	2.51891
1055.29	2.40834
1058.66	2.5908
1062.04	2.55781
1065.41	2.76892
1068.79	2.96811
1072.16	3.26834
1075.54	3.65742
1078.91	4.13358
1082.29	4.17406
1085.66	4.22788
1089.04	4.05426
1092.41	4.05317
1095.79	4.04679
1099.16	3.99923
1102.54	3.9227
1105.91	3.49632
1109.29	3.34465
1112.66	3.09245
1116.04	2.92778
1119.41	2.88741
1122.79	2.79092
1126.16	2.57536
1129.54	2.49149
1132.91	2.41872
1136.29	2.28053
1139.66	2.1263
1143.04	2.1478
1146.41	2.17262
1149.78	2.0635
1153.16	2.06267
1156.53	1.97197
1159.91	1.97518
1163.28	1.94922
1166.66	1.92505
1170.03	1.9558
1173.41	1.91204
1176.78	1.95188
1180.16	1.90268
1183.53	1.85812
1186.91	1.88305
1190.28	1.86896
1193.66	1.86635
1197.03	1.9466
1200.41	1.8697
1203.78	1.90878
1207.16	1.87472
1210.53	1.92481
1213.91	1.87675
1217.28	1.91217
1220.65	1.88396
1224.03	1.93702
1227.4	1.81049
1230.78	1.83232
1234.15	1.93036
1237.53	1.84707
1240.9	1.8399
1244.28	1.84488
1247.65	1.88848
1251.03	1.80251
1254.4	1.77747
1257.78	1.8623
1261.15	1.72211
1264.53	1.78764
1267.9	1.80851
1271.28	1.82575
1274.65	1.80431
1278.03	1.92784
1281.4	1.87033
1284.78	1.93535
