Measurement: Raman, 532 nm, unoriented, Raman Data RAW
Mineral: Mosandrite-(Ce)
Rruff sample: R100097
Ideal chemistry: (Ca_3_Ce^3+^)[(H_2_O)_2_Ca_0.5_[box]_0.5_]Ti^4+^(Si_2_O_7_)_2_(OH)_2_(H_2_O)_2_
Locality: Granite Mountain #2 Quarry, Arkansas, USA
Source: Henry Barwood
Description: Isolated yellowish-brown prismatic crystals in feldspar, associated with dark-green epidote, dark-brown astrophyllite, colorless fluorapatite, pinkish fluorite, and pale yellow monazite.
Raman shift (cm-1)	intensity
121.348	70.0359
124.722	72.3815
128.097	73.6031
131.472	87.4726
134.847	114.387
138.222	175.214
141.597	278.099
144.971	369.198
148.346	446.338
151.721	579.546
155.096	698.105
158.471	759.767
161.845	806.654
165.22	856.771
168.595	886.726
171.97	898.729
175.345	891.934
178.72	882.802
182.094	876.126
185.469	859.608
188.844	848.816
192.219	835.01
195.594	819.108
198.968	813.298
202.343	809.267
205.718	799.639
209.093	796.761
212.468	789.415
215.843	779.696
219.217	782.485
222.592	778.097
225.967	776.421
229.342	782.057
232.717	784.909
236.091	788.602
239.466	790.363
242.841	800.151
246.216	810.215
249.591	819.197
252.965	837.755
256.34	853.97
259.715	866.742
263.09	878.865
266.465	895.831
269.84	896.112
273.214	892.613
276.589	895.294
279.964	896.353
283.339	897.925
286.714	906.279
290.089	903.712
293.463	900.455
296.838	896.073
300.213	906.863
303.588	919.164
306.963	931.129
310.337	958.662
313.712	977.486
317.087	1006.86
320.462	1028.91
323.837	1044.91
327.212	1050.81
330.586	1064.21
333.961	1069.28
337.336	1071.81
340.711	1072.26
344.086	1078.36
347.46	1093.89
350.835	1137
354.21	1185.33
357.585	1255.25
360.96	1339.35
364.334	1439.75
367.709	1551.93
371.084	1661.56
374.459	1770.26
377.834	1857.29
381.209	1922.77
384.583	1930.48
387.958	1909.89
391.333	1869.96
394.708	1825.46
398.083	1805.1
401.457	1796.72
404.832	1798.54
408.207	1804.72
411.582	1821.56
414.957	1869.45
418.332	1928.95
421.706	2015.63
425.081	2104.37
428.456	2165.31
431.831	2167.63
435.206	2137.08
438.58	2087.6
441.955	2031.26
445.33	2002.6
448.705	1991.14
452.08	2014.81
455.454	2057.32
458.829	2112.52
462.204	2148.41
465.579	2168.84
468.954	2145.39
472.329	2099.46
475.703	2035.1
479.078	1981.58
482.453	1940
485.828	1898.44
489.203	1862.48
492.577	1817.36
495.952	1769.51
499.327	1733.88
502.702	1702.9
506.077	1695.48
509.452	1708.52
512.826	1724.47
516.201	1731.48
519.576	1733.61
522.951	1756.75
526.326	1760
529.701	1761.62
533.075	1739.62
536.45	1696.5
539.825	1651.09
543.2	1592.18
546.575	1541.59
549.949	1495.72
553.324	1461.87
556.699	1424.36
560.074	1393.57
563.449	1365.47
566.823	1346.38
570.198	1332.53
573.573	1319.93
576.948	1319.03
580.323	1319.43
583.697	1331.03
587.072	1344.51
590.447	1333.11
593.822	1305.02
597.197	1272.21
600.572	1234.77
603.946	1202.49
607.321	1181.24
610.696	1162.98
614.071	1152.56
617.446	1156.55
620.821	1151.14
624.195	1160.27
627.57	1161.23
630.945	1162.45
634.32	1177.46
637.695	1184.04
641.069	1185.09
644.444	1192.57
647.819	1212.18
651.194	1241.37
654.569	1276.5
657.943	1318.83
661.318	1370.38
664.693	1406.23
668.068	1391.95
671.443	1320.88
674.818	1217.92
678.192	1138.7
681.567	1096.13
684.942	1058.42
688.317	1054.66
691.692	1054.56
695.067	1055.44
698.441	1052.8
701.816	1049.59
705.191	1043.26
708.566	1046.94
711.941	1044.91
715.315	1036.08
718.69	1032.37
722.065	1031.44
725.44	1038.58
728.815	1046.24
732.189	1047.78
735.564	1056.93
738.939	1066.29
742.314	1080.85
745.689	1099.28
749.063	1119.18
752.438	1146.05
755.813	1166.54
759.188	1193.44
762.563	1230.37
765.938	1256.59
769.312	1278.21
772.687	1302.03
776.062	1319.81
779.437	1331.18
782.812	1340.8
786.187	1350.09
789.561	1368.12
792.936	1389.57
796.311	1413.69
799.686	1443.93
803.061	1482.27
806.435	1528.35
809.81	1581.73
813.185	1624.53
816.56	1662.54
819.935	1683.72
823.309	1692.16
826.684	1692.58
830.059	1686.41
833.434	1686.94
836.809	1673.28
840.184	1672.1
843.558	1684.81
846.933	1701.78
850.308	1724.19
853.683	1726.09
857.058	1707.9
860.433	1676.91
863.807	1640.03
867.182	1613.97
870.557	1597.67
873.932	1584.95
877.307	1581.87
880.681	1579.2
884.056	1581.37
887.431	1590.9
890.806	1615.1
894.181	1635.76
897.556	1663.48
900.93	1694.52
904.305	1724.94
907.68	1761.82
911.055	1801.32
914.43	1832.34
917.804	1851.62
921.179	1860.85
924.554	1850.27
927.929	1827.39
931.304	1794.06
934.678	1748.88
938.053	1705.23
941.428	1657.28
944.803	1609.25
948.178	1563.5
951.553	1517.74
954.927	1467.92
958.302	1407.06
961.677	1332.34
965.052	1247.9
968.427	1163.29
971.802	1102.36
975.176	1047.67
978.551	1005.61
981.926	969.029
985.301	936.99
988.676	908.908
992.05	880.602
995.425	856.108
998.8	833.46
1002.17	814.537
1005.55	801.678
1008.92	783.254
1012.3	772.049
1015.67	764.328
1019.05	756.655
1022.42	753.283
1025.8	744.365
1029.17	746.173
1032.55	746.421
1035.92	751.13
1039.3	751.26
1042.67	755.989
1046.05	762.795
1049.42	773.267
1052.8	784.387
1056.17	805.307
1059.55	820.953
1062.92	837.531
1066.3	863.147
1069.67	885.591
1073.05	898.69
1076.42	897.8
1079.8	887.899
1083.17	873.613
1086.55	854.286
1089.92	846.724
1093.3	852.968
1096.67	856.53
1100.04	863.542
1103.42	877.153
1106.79	897.141
1110.17	907.381
1113.54	916.846
1116.92	925.822
1120.29	925.578
1123.67	919.415
1127.04	903.01
1130.42	882.485
1133.79	861.64
1137.17	836.628
1140.54	808.684
1143.92	785.419
1147.29	753.674
1150.67	734.027
1154.04	723.516
1157.42	705.12
1160.79	695.636
1164.17	685.181
1167.54	680.411
1170.92	675.269
1174.29	675.619
1177.66	673.485
1181.04	672.484
1184.41	672.613
1187.79	677.054
1191.16	681.771
1194.54	694.262
1197.91	702.154
1201.29	711.841
1204.66	720.985
1208.04	732.196
1211.41	744.196
1214.79	756.265
1218.16	760.58
1221.54	775.513
1224.91	784.372
1228.29	794.057
1231.66	807.49
1235.04	816.84
1238.41	821.416
1241.79	833.126
1245.16	842.693
1248.54	846.62
1251.91	854.751
1255.29	859.729
1258.66	861.39
1262.04	862.932
1265.41	857.822
1268.79	857.864
1272.16	852.57
1275.54	838.708
1278.91	825.967
1282.29	811.736
1285.66	791.322
1289.03	775.68
1292.41	754.87
1295.78	738.766
1299.16	720.912
1302.53	695.97
