Measurement: Raman, 532 nm, unoriented, Raman Data Processed
Mineral: Mullite
Rruff sample: R141103
Ideal chemistry: Al_4+2x_Si_2-2x_O_10-x_ (x  0.4)
Locality: Weinberg, Nickenich, Eifel, Germany
Source: Ch. and H. Sch√§fer
Description: White acicular crystals
Raman shift (cm-1)	intensity
221.683	0
224.576	0.258575
227.469	2.24933
230.361	0.280182
233.254	0.980835
236.147	1.87222
239.039	2.77548
241.932	0.933075
244.825	1.07303
247.717	1.39008
250.61	3.57504
253.503	4.46957
256.396	7.23126
259.288	6.6264
262.181	7.439
265.074	8.95792
267.966	11.2615
270.859	13.7578
273.752	13.117
276.644	14.984
279.537	14.4346
282.43	17.5023
285.322	20.9966
288.215	18.7391
291.108	21.0364
294.001	21.8822
296.893	27.3339
299.786	28.4488
302.679	31.0547
305.571	29.7881
308.464	27.075
311.357	26.2784
314.25	24.2427
317.142	20.3099
320.035	18.2226
322.928	16.995
325.82	13.0112
328.713	13.3489
331.606	12.9957
334.498	9.73291
337.391	10.073
340.284	8.39542
343.176	5.18979
346.069	2.55768
348.962	3.75739
351.855	1.98428
354.747	0.551361
357.64	0.008179
360.533	1.14117
363.425	1.33884
366.318	1.49298
369.211	1.13861
372.103	0.436768
374.996	0.482269
377.889	2.5618
380.782	2.2825
383.674	4.78983
386.567	3.43085
389.46	8.97504
392.352	9.9443
395.245	14.2911
398.138	15.9003
401.031	19.3137
403.923	23.2393
406.816	20.6248
409.709	22.9477
412.601	21.4416
415.494	21.8787
418.387	20.4087
421.279	16.9201
424.172	13.7837
427.065	11.3816
429.957	8.69614
432.85	6.23282
435.743	5.69559
438.636	2.15286
441.528	2.70871
444.421	3.28805
447.314	2.83493
450.206	0.166565
453.099	0.35611
455.992	0.193787
458.885	0.805298
461.777	0.976868
464.67	0.205902
467.563	1.33246
470.455	1.43454
473.348	2.80801
476.241	3.89566
479.133	2.47647
482.026	4.92639
484.919	5.54257
487.812	4.69583
490.704	5.67987
493.597	5.90103
496.49	5.89291
499.382	7.8642
502.275	6.96375
505.168	6.62775
508.06	7.34814
510.953	5.86374
513.846	5.47681
516.739	4.00439
519.631	1.85947
522.524	0.854523
525.417	0.589325
528.309	0.81076
531.202	1.45413
534.095	2.54156
536.987	0.071198
539.88	0.896362
542.773	2.173
545.665	1.33444
548.558	1.34729
551.451	1.1933
554.344	2.47788
557.236	0.911896
560.129	2.25238
563.022	3.7048
565.914	2.14908
568.807	3.832
571.7	3.85333
574.592	4.42764
577.485	5.36249
580.378	5.75827
583.271	5.74503
586.163	8.16956
589.056	7.49048
591.949	9.24799
594.841	10.2367
597.734	11.3413
600.627	11.1802
603.519	12.1554
606.412	11.226
609.305	9.92398
612.198	10.4516
615.09	8.98865
617.983	9.32898
620.876	6.21243
623.768	5.78122
626.661	5.29773
629.554	4.46057
632.447	3.90292
635.339	3.86465
638.232	3.17136
641.125	1.71027
644.017	2.36853
646.91	0.515198
649.803	1.62027
652.695	2.53699
655.588	2.24783
658.481	0.969757
661.374	1.12295
664.266	1.34894
667.159	1.39798
670.052	2.1561
672.944	1.18491
675.837	0.581696
678.73	1.35171
681.622	0.435822
684.515	1.40799
687.408	2.8125
690.301	0.626984
693.193	1.20715
696.086	0.427124
698.979	1.43002
701.871	0.158783
704.764	0.248505
707.657	0.032562
710.549	0.881226
713.442	0.33844
716.335	0.519714
719.227	1.34125
722.12	1.25677
725.013	3.06915
727.906	2.51269
730.798	3.31525
733.691	2.32758
736.584	3.45544
739.476	1.29849
742.369	3.78143
745.262	2.29611
748.154	2.27435
751.047	2.8743
753.94	2.07846
756.833	0.000946
759.725	0.564941
762.618	0.827209
765.511	1.78781
768.403	1.42969
771.296	1.10855
774.189	1.7283
777.082	2.34143
779.974	2.5361
782.867	4.33108
785.76	4.31192
788.652	4.84866
791.545	4.18521
794.438	5.98514
797.33	5.42279
800.223	6.31799
803.116	6.46893
806.009	7.72034
808.901	7.9057
811.794	9.11664
814.687	9.51437
817.579	13.1355
820.472	14.0682
823.365	12.5471
826.257	13.626
829.15	14.3542
832.043	16.3922
834.936	19.3343
837.828	19.3685
840.721	17.6034
843.614	21.2195
846.506	20.696
849.399	24.6594
852.292	22.6751
855.184	23.4557
858.077	24.3934
860.97	23.1768
863.863	24.4596
866.755	25.8084
869.648	23.7585
872.541	23.0785
875.433	18.5234
878.326	17.3854
881.219	15.1974
884.111	13.8078
887.004	10.3231
889.897	8.31247
892.79	7.33758
895.682	6.90735
898.575	4.88425
901.468	3.28626
904.36	2.20554
907.253	1.06195
910.146	0.898041
913.038	1.58014
915.931	1.09824
918.824	1.29227
921.717	0.849426
924.609	0.943634
927.502	3.47263
930.395	4.10464
933.287	3.32278
936.18	6.42068
939.073	6.68881
941.966	11.8551
944.858	13.9689
947.751	16.6119
950.644	17.0652
953.536	20.5948
956.429	22.0483
959.322	24.3534
962.214	22.0353
965.107	24.4792
968	21.2123
970.893	19.2366
973.785	16.7237
976.678	15.9501
979.571	14.5018
982.463	12.7141
985.356	10.482
988.249	8.64197
991.141	5.57745
994.034	8.74731
996.927	5.98526
999.819	5.2915
1002.71	6.41623
1005.61	5.92706
1008.5	5.74261
1011.39	6.21841
1014.28	8.70425
1017.18	8.37396
1020.07	8.86096
1022.96	8.98035
1025.85	9.3096
1028.75	11.8185
1031.64	12.5991
1034.53	12.7946
1037.42	11.6959
1040.32	8.86844
1043.21	8.91632
1046.1	8.94855
1048.99	6.59955
1051.89	6.06867
1054.78	4.92905
1057.67	4.02716
1060.57	1.62439
1063.46	0.722443
1066.35	2.37241
1069.24	1.31479
1072.14	0.371002
1075.03	0.942505
1077.92	1.63129
1080.82	1.22595
1083.71	0.091949
1086.6	1.93887
1089.49	3.03973
1092.39	1.90936
1095.28	1.82465
1098.17	1.23514
1101.06	1.47543
1103.96	3.58493
1106.85	5.55008
1109.74	8.76498
1112.63	6.9772
1115.53	7.96411
1118.42	8.04382
1121.31	10.6381
1124.21	12.318
1127.1	12.0915
1129.99	11.4763
1132.88	12.1254
1135.78	9.10764
1138.67	7.46936
1141.56	6.77316
1144.45	4.46738
1147.35	6.42038
1150.24	5.43796
1153.13	2.68036
1156.03	3.17258
1158.92	3.05511
1161.81	2.19513
1164.7	1.3342
1167.6	0.944214
1170.49	1.23566
1173.38	0.971191
1176.27	0.21106
1179.17	0.51944
1182.06	0.46817
1184.95	1.01743
1187.85	0.003113
1190.74	0.596344
1193.63	2.06805
1196.52	1.95209
1199.42	0.861328
1202.31	0.031525
1205.2	0.802155
1208.09	1.37705
1210.99	0.064453
1213.88	2.00149
1216.77	1.20371
1219.66	1.60117
1222.56	2.37146
1225.45	1.42862
1228.34	1.49933
1231.24	0.485046
1234.13	2.02097
1237.02	1.56442
1239.91	1.21256
1242.81	0.835754
1245.7	0.738647
1248.59	0.100098
1251.48	0.563721
1254.38	1.39123
1257.27	3.3591
1260.16	1.20673
1263.06	0.876007
1265.95	1.15927
1268.84	1.05908
1271.73	0.268768
1274.63	0.170013
1277.52	0.791138
1280.41	2.30441
1283.3	0.288849
1286.2	2.13123
1289.09	2.55585
1291.98	1.61942
1294.88	1.90759
1297.77	0.500854
1300.66	0
