Measurement: Raman, 632 nm, unoriented, Raman Data RAW
Mineral: Mullite
Rruff sample: R150147
Ideal chemistry: Al_4+2x_Si_2-2x_O_10-x_ (x  0.4)
Locality: Northwest of Ormsaig, Ross of Mull, Scotland
Source: Nicolas Bost, Portion of a sample from the Musée de Minéralogie MINES Paristech, Paris, France, #
Description: Pink grains. Sample used in Bost et al (2016)
Raman shift (cm-1)	intensity
168.754	0.00507
172.264	0.0217
175.774	0.03531
179.281	0.04987
182.787	0.06346
186.292	0.06542
189.796	0.06398
193.298	0.06137
196.799	0.05072
200.298	0.04871
203.796	0.04804
207.293	0.04198
210.788	0.04485
214.282	0.03727
217.775	0.0376
221.266	0.02851
224.756	0.01575
228.245	0.0119
231.732	0.0034
235.218	-0.00891
238.702	-0.0092
242.185	-0.01728
245.667	-0.01532
249.148	-0.0115
252.627	-0.00914
256.104	-0.00914
259.581	-0.000594896
263.056	0.0108
266.529	0.02003
270.002	0.02961
273.473	0.03748
276.942	0.0515
280.411	0.06345
283.877	0.08077
287.343	0.10362
290.807	0.12024
294.27	0.15531
297.732	0.18658
301.192	0.20065
304.651	0.21822
308.108	0.2055
311.564	0.18649
315.019	0.18169
318.473	0.16508
321.925	0.15349
325.376	0.16057
328.825	0.14183
332.273	0.13864
335.72	0.13368
339.166	0.12219
342.61	0.12059
346.053	0.08788
349.494	0.08307
352.934	0.07706
356.373	0.06169
359.811	0.05022
363.247	0.03996
366.682	0.0468
370.115	0.04323
373.547	0.05233
376.978	0.05067
380.408	0.04845
383.836	0.04762
387.263	0.04486
390.688	0.04453
394.113	0.0508
397.535	0.06991
400.957	0.0828
404.377	0.11257
407.796	0.14353
411.214	0.16465
414.63	0.1956
418.045	0.20274
421.459	0.20489
424.871	0.19742
428.282	0.1943
431.692	0.19409
435.1	0.18389
438.508	0.1808
441.913	0.18291
445.318	0.17472
448.721	0.18823
452.123	0.19221
455.523	0.1798
458.923	0.18168
462.321	0.18952
465.717	0.18885
469.112	0.19757
472.506	0.20324
475.899	0.21351
479.291	0.21477
482.681	0.2158
486.069	0.22117
489.457	0.22207
492.843	0.23428
496.228	0.22515
499.612	0.24202
502.994	0.25095
506.375	0.25848
509.754	0.27466
513.133	0.28087
516.51	0.29815
519.886	0.30552
523.26	0.31148
526.633	0.31925
530.005	0.32839
533.376	0.31462
536.745	0.31533
540.113	0.32479
543.48	0.31138
546.845	0.32056
550.21	0.29565
553.573	0.29848
556.934	0.29085
560.294	0.2905
563.653	0.30522
567.011	0.32945
570.368	0.34278
573.723	0.37039
577.077	0.41863
580.429	0.4519
583.78	0.50928
587.13	0.5604
590.479	0.61622
593.827	0.64084
597.173	0.6482
600.518	0.63661
603.861	0.59931
607.204	0.56569
610.545	0.50181
613.884	0.44531
617.223	0.38668
620.56	0.32937
623.896	0.27402
627.231	0.22643
630.564	0.18361
633.896	0.14458
637.227	0.11232
640.557	0.08028
643.885	0.05296
647.212	0.04546
650.538	0.02503
653.862	0.02719
657.186	0.01738
660.508	0.0258
663.828	0.03329
667.148	0.02551
670.466	0.02743
673.783	0.02286
677.099	0.02215
680.413	0.01765
683.726	0.00949
687.038	0.00222
690.349	0.00829
693.658	0.01086
696.966	0.01055
700.273	0.02544
703.578	0.03813
706.883	0.05208
710.186	0.04978
713.488	0.06365
716.788	0.06392
720.087	0.06816
723.385	0.07498
726.682	0.07017
729.978	0.06644
733.272	0.07469
736.565	0.06684
739.857	0.06165
743.147	0.05115
746.437	0.0517
749.725	0.03499
753.011	0.01557
756.297	-0.00555
759.581	-0.02252
762.864	-0.03587
766.146	-0.04927
769.426	-0.0535
772.706	-0.05806
775.984	-0.04783
779.261	-0.04755
782.536	-0.03851
785.811	-0.01829
789.084	-0.01065
792.355	0.00852
795.626	0.02543
798.895	0.03984
802.164	0.05438
805.43	0.07836
808.696	0.09343
811.961	0.10563
815.224	0.11653
818.486	0.13155
821.746	0.14858
825.006	0.1602
828.264	0.17303
831.521	0.17872
834.777	0.19969
838.032	0.22058
841.285	0.23087
844.537	0.24498
847.788	0.25533
851.037	0.27908
854.286	0.28737
857.533	0.30453
860.779	0.3108
864.024	0.31546
867.267	0.31631
870.509	0.30239
873.751	0.28237
876.99	0.28103
880.229	0.2553
883.466	0.2462
886.703	0.232
889.938	0.23122
893.171	0.22827
896.404	0.20902
899.635	0.21832
902.865	0.22428
906.094	0.23656
909.322	0.24324
912.548	0.25488
915.773	0.27064
918.997	0.29098
922.22	0.31223
925.442	0.35341
928.662	0.39566
931.881	0.43433
935.099	0.48971
938.316	0.54576
941.531	0.6118
944.746	0.70822
947.959	0.80418
951.171	0.90248
954.381	0.97849
957.591	0.99908
960.799	0.98672
964.006	0.93899
967.212	0.86884
970.417	0.80374
973.62	0.74167
976.822	0.68494
980.023	0.65545
983.223	0.58804
986.422	0.55157
989.619	0.51712
992.815	0.47188
996.01	0.43057
999.204	0.40253
1002.4	0.37379
1005.59	0.34373
1008.78	0.31228
1011.97	0.29332
1015.16	0.27505
1018.34	0.23989
1021.53	0.22487
1024.71	0.20943
1027.9	0.1997
1031.08	0.18877
1034.26	0.16756
1037.44	0.15872
1040.62	0.13509
1043.79	0.10937
1046.97	0.09599
1050.14	0.07342
1053.32	0.06081
1056.49	0.04435
1059.66	0.0421
1062.83	0.0295
1066	0.02233
1069.17	0.01646
1072.33	0.01267
1075.5	0.01973
1078.66	0.02244
1081.83	0.0163
1084.99	0.03033
1088.15	0.02658
1091.31	0.04124
1094.47	0.04303
1097.62	0.04581
1100.78	0.05823
1103.93	0.06126
1107.09	0.08217
1110.24	0.09355
1113.39	0.11847
1116.54	0.16527
1119.69	0.21243
1122.84	0.24631
1125.98	0.26424
1129.13	0.26136
1132.27	0.24025
1135.41	0.21177
1138.56	0.17796
1141.7	0.15609
1144.84	0.12539
1147.97	0.11972
1151.11	0.11585
1154.25	0.10824
1157.38	0.1058
1160.52	0.10003
1163.65	0.09349
1166.78	0.0858
1169.91	0.08308
1173.04	0.07615
1176.17	0.06345
1179.29	0.06333
1182.42	0.05797
1185.54	0.05456
1188.67	0.05387
1191.79	0.03771
1194.91	0.03277
1198.03	0.02399
1201.15	0.01671
1204.26	0.00709
1207.38	0.01176
