Measurement: Raman, 780 nm, unoriented, Raman Data Processed
Mineral: Mullite
Rruff sample: R141103
Ideal chemistry: Al_4+2x_Si_2-2x_O_10-x_ (x  0.4)
Locality: Weinberg, Nickenich, Eifel, Germany
Source: Ch. and H. Sch√§fer
Description: White acicular crystals
Raman shift (cm-1)	intensity
130.973	0
133.865	1.91443
136.758	6.88245
139.651	6.00867
142.544	1.37573
145.436	1.4773
148.329	6.93079
151.222	6.18616
154.114	9.05273
157.007	8.65088
159.9	6.70373
162.792	7.87842
165.685	5.26843
168.578	1.24048
171.471	5.49622
174.363	0.886841
177.256	0.940063
180.149	0.990479
183.041	0.069092
185.934	0.574341
188.827	0.102661
191.72	1.41894
194.612	1.64868
197.505	2.58447
200.398	1.90881
203.29	7.02942
206.183	4.53101
209.076	1.02795
211.969	4.26379
214.861	3.73779
217.754	3.45044
220.647	6.16626
223.539	4.66333
226.432	7.5625
229.325	7.88525
232.217	6.31567
235.11	5.6167
238.003	1.65076
240.895	1.36841
243.788	4.77856
246.681	5.59143
249.574	1.64783
252.466	1.78589
255.359	3.47839
258.252	2.22595
261.144	3.59705
264.037	1.26941
266.93	4.86877
269.822	3.00562
272.715	1.6886
275.608	1.55481
278.5	4.4978
281.393	6.75647
284.286	6.90857
287.179	6.63354
290.071	5.93066
292.964	9.92835
295.857	10.9869
298.75	11.2257
301.642	14.0114
304.535	14.7235
307.428	15.2563
310.32	11.1804
313.213	12.2318
316.106	13.4477
318.998	14.5727
321.891	14.9016
324.784	14.5835
327.676	19.2875
330.569	13.7432
333.462	19.5326
336.355	10.1694
339.247	8.23767
342.14	8.37415
345.033	8.89099
347.925	8.87158
350.818	7.51843
353.711	8.76538
356.603	3.51013
359.496	3.97058
362.389	1.95496
365.282	3.50635
368.174	2.99512
371.067	1.32141
373.96	0.484131
376.852	0.851929
379.745	1.74646
382.638	2.27942
385.531	4.49146
388.423	1.29712
391.316	3.73779
394.209	2.79102
397.101	4.04968
399.994	1.94043
402.887	5.05444
405.779	2.03076
408.672	5.55237
411.565	4.54028
414.457	3.04407
417.35	3.52795
420.243	5.85693
423.136	4.11414
426.028	3.08801
428.921	6.74976
431.814	4.14978
434.706	3.77844
437.599	3.93286
440.492	7.65576
443.385	3.23035
446.277	3.01746
449.17	2.00647
452.063	2.57581
454.955	5.2345
457.848	9.3446
460.741	5.29748
463.633	5.72229
466.526	9.64819
469.419	6.78772
472.312	8.98608
475.204	5.60486
478.097	10.1344
480.99	6.95032
483.882	8.14844
486.775	8.04663
489.668	11.4503
492.56	9.28638
495.453	8.73267
498.346	7.74707
501.238	9.677
504.131	7.88184
507.024	7.55615
509.917	7.44006
512.809	7.72925
515.702	8.32471
518.595	4.77063
521.487	2.30627
524.38	6.25793
527.273	3.7113
530.165	1.26269
533.058	2.07434
535.951	1.38184
538.844	1.13306
541.736	3.75708
544.629	5.64917
547.522	4.10571
550.414	4.59448
553.307	3.77429
556.2	1.99866
559.092	2.30371
561.985	3.61914
564.878	0.799805
567.771	2.23438
570.663	3.05225
573.556	4.0011
576.449	4.09106
579.341	4.95117
582.234	7.48096
585.127	6.28381
588.019	3.87512
590.912	4.08826
593.805	5.21814
596.698	4.07703
599.59	7.11914
602.483	9.13611
605.376	7.36523
608.268	5.95325
611.161	3.15381
614.054	2.99792
616.947	2.25708
619.839	4.93359
622.732	3.57654
625.625	0.932007
628.517	3.86572
631.41	4.93689
634.303	6.46668
637.195	5.84424
640.088	1.74976
642.981	3.42151
645.874	2.76856
648.766	3.46851
651.659	1.56848
654.552	7.5221
657.444	4.35938
660.337	4.38782
663.23	6.82007
666.122	6.35877
669.015	2.71851
671.908	1.56995
674.801	0.479126
677.693	4.04675
680.586	2.62769
683.479	1.49414
686.371	0.779175
689.264	3.19238
692.157	4.39441
695.049	1.29578
697.942	0.474243
700.835	0.708862
703.727	2.82092
706.62	1.922
709.513	0.664673
712.406	3.39722
715.298	0.814575
718.191	2.49231
721.084	1.5354
723.976	2.13733
726.869	3.18518
729.762	6.10474
732.654	1.30334
735.547	3.52002
738.44	1.88257
741.333	5.04688
744.225	4.01355
747.118	5.03076
750.011	4.68689
752.903	1.28149
755.796	3.76502
758.689	3.56763
761.582	6.401
764.474	3.22009
767.367	3.67542
770.26	1.30029
773.152	3.32251
776.045	2.02563
778.938	0.309448
781.83	1.44763
784.723	5.07422
787.616	0.987061
790.509	3.89233
793.401	3.45081
796.294	6.8822
799.187	1.32153
802.079	3.40686
804.972	7.94238
807.865	6.18652
810.757	7.72546
813.65	7.6167
816.543	7.0404
819.436	8.86121
822.328	8.11975
825.221	7.46375
828.114	6.24622
831.006	8.09399
833.899	6.76599
836.792	11.3782
839.684	12.514
842.577	9.88452
845.47	8.77612
848.362	10.1346
851.255	11.1586
854.148	10.7622
857.041	10.1135
859.933	12.0102
862.826	7.53369
865.719	6.43274
868.611	7.52991
871.504	8.08325
874.397	5.1554
877.29	4.80359
880.182	5.11316
883.075	7.61475
885.968	4.87537
888.86	2.83911
891.753	3.15247
894.646	0.07251
897.538	3.24304
900.431	3.16223
903.324	1.03894
906.217	0.106934
909.109	2.32361
912.002	0.287354
914.895	2.58874
917.787	1.35278
920.68	0.579834
923.573	1.78711
926.466	0.378052
929.358	1.58423
932.251	0.200073
935.144	1.22461
938.036	2.1145
940.929	1.87378
943.822	1.68225
946.714	0.880859
949.607	0.303589
952.5	1.23962
955.393	0.575317
958.285	0.927979
961.178	3.56274
964.071	0.69812
966.963	5.03198
969.856	1.97314
972.749	1.84631
975.641	1.45776
978.534	2.45728
981.427	0.037109
984.319	1.87292
987.212	2.41113
990.105	0.411987
992.998	4.13733
995.89	1.97485
998.783	1.1449
1001.68	0.639038
1004.57	2.89123
1007.46	0.046875
1010.35	2.54102
1013.25	4.79016
1016.14	1.36975
1019.03	1.9187
1021.92	0.914795
1024.82	0.894165
1027.71	0.082764
1030.6	2.26489
1033.49	4.69727
1036.39	0.238403
1039.28	2.19324
1042.17	6.63013
1045.07	5.13489
1047.96	4.95837
1050.85	5.61401
1053.74	3.66943
1056.64	3.96558
1059.53	6.10376
1062.42	5.29382
1065.32	3.80933
1068.21	3.302
1071.1	5.15283
1073.99	9.09399
1076.89	3.71106
1079.78	3.87647
1082.67	4.02588
1085.56	6.21521
1088.46	1.83081
1091.35	3.97546
1094.24	1.59216
1097.13	4.21326
1100.03	2.09522
1102.92	1.90515
1105.81	4.59924
1108.71	2.31494
1111.6	1.29895
1114.49	0.687378
1117.38	1.93164
1120.28	3.20569
1123.17	1.82202
1126.06	3.46411
1128.95	4.84204
1131.85	3.17676
1134.74	5.19678
1137.63	7.11658
1140.53	8.54285
1143.42	7.78857
1146.31	8.78967
1149.2	10.5304
1152.1	9.14099
1154.99	9.81702
1157.88	10.8011
1160.77	15.2607
1163.67	15.5922
1166.56	14.9174
1169.45	14.6057
1172.35	20.3318
1175.24	18.5413
1178.13	21.2677
1181.02	16.8401
1183.92	16.3079
1186.81	17.0643
1189.7	16.8628
1192.59	15.34
1195.49	14.8522
1198.38	13.0885
1201.27	14.8765
1204.16	11.9819
1207.06	12.8381
1209.95	12.6934
1212.84	7.91357
1215.73	7.95935
1218.63	2.52026
1221.52	5.7218
1224.41	0.711182
1227.31	0.213867
1230.2	0.293335
1233.09	6.02686
1235.98	4.07532
1238.88	5.08496
1241.77	4.81189
1244.66	4.47559
1247.56	4.5321
1250.45	4.54346
1253.34	9.97388
1256.23	4.91309
1259.13	1.63818
1262.02	6.09351
1264.91	3.49927
1267.8	4.26233
1270.7	4.79443
1273.59	2.6919
1276.48	5.8136
1279.38	1.93713
1282.27	0
