Measurement: Raman, 532 nm, unoriented, Raman Data Processed
Mineral: Murdochite
Rruff sample: R180001
Ideal chemistry: Cu^2+^_12_Pb^4+^_2_O_15_Cl_2_
Locality: Mammoth mine, Tiger, Pinal County, Arizona, USA
Source: UA Mineral Museum
Description: Black octahedral or cubo-octahedral crystals, associated with green prismatic dioptase
Measured chemistry: Cu_11.98_Pb_2.01_O_15_(Cl_1.92_Br_0.06_)_Σ=1.98_; = Light portion. Cu_12.12_Pb_1.92_O_15_(Cl_1.97_Br_0.12_)_Σ=2.09_ = Dark portion
Raman shift (cm-1)	intensity
113.689	0
117.064	4.18799
120.439	0.912556
123.813	7.33451
127.188	2.54797
130.563	4.66042
133.938	4.64827
137.313	5.00008
140.687	12.4521
144.062	5.87244
147.437	6.29711
150.812	4.794
154.187	4.77178
157.561	4.12987
160.936	1.51506
164.311	2.84374
167.686	1.55709
171.061	2.18884
174.436	1.3108
177.81	1.46067
181.185	0.77528
184.56	0.334412
187.935	1.59818
191.31	0.060322
194.685	0.42247
198.059	0.22757
201.434	0.14024
204.809	0.413574
208.184	0.242134
211.559	0.285248
214.933	0.044617
218.308	0.186123
221.683	0.620457
225.058	0.183464
228.433	0.394341
231.808	0.150867
235.182	0.762989
238.557	1.36973
241.932	0.84671
245.307	1.10651
248.682	1.57653
252.056	2.50207
255.431	2.21837
258.806	1.80931
262.181	1.53596
265.556	1.38478
268.93	1.49827
272.305	2.77957
275.68	3.26205
279.055	3.87583
282.43	4.2486
285.805	5.0999
289.179	5.69463
292.554	6.6181
295.929	7.81146
299.304	8.74815
302.679	9.34232
306.053	10.0969
309.428	10.6363
312.803	12.2477
316.178	12.4891
319.553	12.9573
322.928	12.9172
326.302	12.2735
329.677	11.8803
333.052	10.5248
336.427	8.96717
339.802	7.19359
343.176	5.44156
346.551	4.86589
349.926	3.8546
353.301	3.0931
356.676	1.76064
360.051	1.946
363.425	1.19913
366.8	0.671352
370.175	0.757721
373.55	0.37994
376.925	0.572979
380.3	0.601757
383.674	0.319981
387.049	0.135963
390.424	0.386086
393.799	0.449528
397.174	0.329224
400.548	0.295517
403.923	0.01878
407.298	0.34304
410.673	0.393204
414.048	0.806175
417.423	0.100117
420.797	0.800491
424.172	0.230324
427.547	0.647209
430.922	0.50359
434.296	1.07101
437.671	1.23317
441.046	1.37807
444.421	2.19302
447.796	3.43969
451.171	4.46878
454.545	5.60724
457.92	7.88207
461.295	8.80284
464.67	9.91071
468.045	8.17018
471.42	5.72514
474.794	3.4541
478.169	1.98637
481.544	1.33982
484.919	0.463898
488.294	1.12654
491.668	0.977318
495.043	1.81364
498.418	1.23097
501.793	3.07988
505.168	2.79744
508.543	4.09684
511.917	3.97617
515.292	5.21334
518.667	4.31243
522.042	5.27352
525.417	5.8163
528.791	7.47849
532.166	8.77968
535.541	12.5179
538.916	11.9273
542.291	6.2055
545.665	2.24282
549.04	1.67904
552.415	1.05288
555.79	0.409966
559.165	0.021442
562.54	0.071663
565.914	0.101974
569.289	0.607903
572.664	0.619686
576.039	0.073204
579.414	0.173721
582.788	0.266636
586.163	0.370285
589.538	0.667469
592.913	0.107197
596.288	0.165672
599.663	0.68977
603.037	0.33297
606.412	0.545982
609.787	0.018948
613.162	0.865967
616.537	0.508667
619.912	0.632133
623.286	0.653889
626.661	1.12009
630.036	0.443367
633.411	1.40031
636.786	0.951199
640.16	0.917072
643.535	0.632183
646.91	0.864761
650.285	1.68941
653.66	1.19579
657.034	1.38994
660.409	0.674889
663.784	1.41256
667.159	1.35739
670.534	0.961384
673.909	0.790218
677.283	1.30362
680.658	0.932659
684.033	0.698059
687.408	0.657516
690.783	0.999817
694.158	0.543839
697.532	0.242691
700.907	0.148079
704.282	0.291031
707.657	0.159927
711.032	0.197479
714.406	0.52314
717.781	0.13784
721.156	0.213219
724.531	0.659679
727.906	0.743149
731.28	0.242462
734.655	0.232243
738.03	0.742741
741.405	1.46703
744.78	0.2729
748.154	0.167778
751.529	0.640953
754.904	1.0843
758.279	0.584335
761.654	0.548717
765.029	0.463158
768.403	0.088444
771.778	0.485695
775.153	0.257488
778.528	0.745003
781.903	0.440243
785.278	0.941257
788.652	0.774307
792.027	0.908615
795.402	0.697182
798.777	1.11684
802.152	1.15438
805.526	1.12464
808.901	1.30566
812.276	1.60348
815.651	1.98191
819.026	2.04411
822.4	1.95269
825.775	1.8257
829.15	2.52336
832.525	2.5628
835.9	2.71886
839.275	3.23355
842.649	3.01258
846.024	3.18825
849.399	2.92345
852.774	3.44465
856.149	2.79698
859.524	2.82599
862.898	2.94902
866.273	2.96107
869.648	2.25736
873.023	1.91345
876.398	2.282
879.773	2.07264
883.147	1.98756
886.522	1.89822
889.897	1.17112
893.272	1.90424
896.646	0.670094
900.021	0.902069
903.396	0.554245
906.771	0.169575
910.146	0.089977
913.521	0.356518
916.895	0.142086
920.27	0.236893
923.645	0.034367
927.02	0.153847
930.395	0.32209
933.769	0.281929
937.144	0.476654
940.519	0.04232
943.894	0.083775
947.269	0.201565
950.644	0.225811
954.018	0.443844
957.393	0.499157
960.768	0.029064
964.143	0.187519
967.518	0.687241
970.893	0.619476
974.267	0.742386
977.642	0.076668
981.017	0.551029
984.392	0.422127
987.767	0.638512
991.141	0.693615
994.516	0.391529
997.891	0.277439
1001.27	0.855125
1004.64	0.289268
1008.02	1.04473
1011.39	0.453045
1014.76	0.571869
1018.14	0.952599
1021.51	0.981232
1024.89	1.52457
1028.26	1.09123
1031.64	1.36288
1035.01	1.37376
1038.39	1.2886
1041.76	1.43194
1045.14	1.15943
1048.51	1.19422
1051.89	1.36885
1055.26	0.946499
1058.64	1.31076
1062.01	1.1105
1065.39	1.49158
1068.76	1.26323
1072.14	1.09345
1075.51	0.607964
1078.89	0.146828
1082.26	0.669975
1085.64	0.785564
1089.01	0.457317
1092.39	0.905766
1095.76	0.381035
1099.14	0.838181
1102.51	0.446198
1105.88	0.109821
1109.26	0.306904
1112.63	0.14185
1116.01	0.079796
1119.38	0.444004
1122.76	0.607155
1126.13	0.524578
1129.51	0.161942
1132.88	0.233391
1136.26	0.071346
1139.63	0.955982
1143.01	0.139343
1146.38	0.182308
1149.76	0.162945
1153.13	0.07373
1156.51	0.285606
1159.88	0.009331
1163.26	0.53067
1166.63	1.02703
1170.01	0.207523
1173.38	0.236736
1176.76	0.714966
1180.13	0.209488
1183.51	0.663437
1186.88	0.645359
1190.26	1.01412
1193.63	0.907021
1197.01	0.756191
1200.38	0.662117
1203.76	0.517757
1207.13	0.605762
1210.51	0.63118
1213.88	0.9389
1217.25	0.201786
1220.63	1.04401
1224	0.374229
1227.38	0.380314
1230.75	0.65062
1234.13	0.38726
1237.5	0.612732
1240.88	0.991352
1244.25	1.20817
1247.63	0.763317
1251	1.06302
1254.38	0.807877
1257.75	0.542294
1261.13	0.99651
1264.5	1.03166
1267.88	1.00955
1271.25	0.937294
1274.63	0.035877
1278	0.303173
1281.38	0.798138
1284.75	0.731693
1288.12	0.726135
1291.5	0.556744
1294.88	0.372875
1298.25	0.295277
