Measurement: Raman, 780 nm, unoriented, Raman Data Processed
Mineral: Murdochite
Rruff sample: R180001
Ideal chemistry: Cu^2+^_12_Pb^4+^_2_O_15_Cl_2_
Locality: Mammoth mine, Tiger, Pinal County, Arizona, USA
Source: UA Mineral Museum
Description: Black octahedral or cubo-octahedral crystals, associated with green prismatic dioptase
Measured chemistry: Cu_11.98_Pb_2.01_O_15_(Cl_1.92_Br_0.06_)_Σ=1.98_; = Light portion. Cu_12.12_Pb_1.92_O_15_(Cl_1.97_Br_0.12_)_Σ=2.09_ = Dark portion
Raman shift (cm-1)	intensity
161.346	0
164.239	0.820145
167.131	0.990616
170.024	1.97706
172.917	0.283318
175.809	1.50718
178.702	1.0352
181.595	1.32739
184.488	1.49587
187.38	1.49059
190.273	2.05044
193.166	0.376564
196.058	0.839035
198.951	0.618637
201.844	0.404663
204.736	0.742416
207.629	0.357216
210.522	0.034744
213.415	0.281715
216.307	0.122238
219.2	1.88783
222.093	1.57276
224.985	1.50259
227.878	1.72247
230.771	2.95466
233.663	4.45246
236.556	6.457
239.449	5.90568
242.341	7.04398
245.234	6.71692
248.127	5.23475
251.02	3.1647
253.912	3.49718
256.805	2.44946
259.698	2.03933
262.591	2.99463
265.483	1.91233
268.376	1.85163
271.269	0.496643
274.161	0.348389
277.054	0.231735
279.947	0.166115
282.839	0.871361
285.732	1.1971
288.625	1.61672
291.517	2.68984
294.41	2.53647
297.303	3.46127
300.196	3.75251
303.088	3.98783
305.981	5.49229
308.874	5.91467
311.766	5.48337
314.659	5.24123
317.552	6.86296
320.445	6.87605
323.337	5.75729
326.23	6.48858
329.123	5.94582
332.015	6.13543
334.908	4.90941
337.801	3.92474
340.693	3.26133
343.586	1.71922
346.479	2.58534
349.372	1.69681
352.264	1.28111
355.157	0.750263
358.05	1.6264
360.942	0.383648
363.835	0.78561
366.728	0.515339
369.62	0.622524
372.513	0.09853
375.406	0.028202
378.298	0.501354
381.191	0.469543
384.084	0.110664
386.977	0.768101
389.869	0.984818
392.762	0.168339
395.655	0.469254
398.547	0.524055
401.44	0.282482
404.333	1.08721
407.226	0.786709
410.118	1.14039
413.011	0.708778
415.904	1.10506
418.796	0.988964
421.689	0.838234
424.582	1.16911
427.474	1.86526
430.367	1.30357
433.26	1.47288
436.152	1.81875
439.045	1.62936
441.938	1.68923
444.831	1.21518
447.723	1.10827
450.616	1.25177
453.509	0.908653
456.401	1.25773
459.294	0.857918
462.187	1.45705
465.079	0.789383
467.972	0.900768
470.865	0.851891
473.758	0.128769
476.65	0.194786
479.543	0.385906
482.436	0.500713
485.328	0.075237
488.221	0.628593
491.114	0.878571
494.007	0.823666
496.899	0.77039
499.792	0.703724
502.685	0.790188
505.577	0.668926
508.47	0.807655
511.363	0.785751
514.255	0.991539
517.148	1.35194
520.041	1.7521
522.933	2.51685
525.826	4.01638
528.719	5.29102
531.612	6.43973
534.504	8.15405
537.397	6.19198
540.29	4.10788
543.182	1.78683
546.075	1.07818
548.968	2.50422
551.861	0.763733
554.753	1.35728
557.646	0.750996
560.539	0.678078
563.431	0.485443
566.324	0.354298
569.217	0.448174
572.109	0.488438
575.002	0.700306
577.895	0.108574
580.788	0.067444
583.68	0.232529
586.573	0.232895
589.466	0.218098
592.358	0.437378
595.251	0.520275
598.144	0.41766
601.037	0.591518
603.929	0.087528
606.822	0.210075
609.715	0.187393
612.607	0.17054
615.5	0.053558
618.393	1.34597
621.285	0.571777
624.178	0.310127
627.071	0.770123
629.963	1.14467
632.856	1.09095
635.749	0.536476
638.642	0.983299
641.534	0.676941
644.427	0.630692
647.32	0.65263
650.212	1.44553
653.105	0.803799
655.998	0.976643
658.89	1.54066
661.783	0.697266
664.676	1.37871
667.569	0.798592
670.461	1.49485
673.354	0.876881
676.247	0.361488
679.139	0.37196
682.032	1.01337
684.925	1.36768
687.817	0.046906
690.71	0.557373
693.603	0.97263
696.496	0.088322
699.388	0.110123
702.281	0.441345
705.174	0.305882
708.066	0.642719
710.959	0.534657
713.852	0.09267
716.745	1.13054
719.637	0.040051
722.53	0.167866
725.423	0.034893
728.315	0.151672
731.208	0.525322
734.101	0.061073
736.993	0.720661
739.886	0.323895
742.779	0.193199
745.672	0.840038
748.564	0.289238
751.457	0.266251
754.35	0.399178
757.242	0.410007
760.135	0.022442
763.028	0.35537
765.92	1.19459
768.813	0.338531
771.706	0.640415
774.598	0.60014
777.491	0.774174
780.384	0.973343
783.277	1.34293
786.169	1.35564
789.062	1.21057
791.955	1.32793
794.847	1.59076
797.74	1.77555
800.633	2.16187
803.526	2.20302
806.418	2.54501
809.311	2.83812
812.204	3.36009
815.096	2.53011
817.989	3.05789
820.882	2.88501
823.774	4.11078
826.667	3.27619
829.56	3.11349
832.453	3.72604
835.345	4.67416
838.238	4.37658
841.131	4.05124
844.023	4.82519
846.916	4.64436
849.809	4.42962
852.702	5.02763
855.594	4.16894
858.487	4.30869
861.38	4.20158
864.272	4.46113
867.165	4.30378
870.058	4.08378
872.95	3.12664
875.843	3.04694
878.736	3.20089
881.629	2.82403
884.521	2.8292
887.414	1.77937
890.307	2.28563
893.199	1.59869
896.092	1.1686
898.985	0.606014
901.877	0.342972
904.77	0.846199
907.663	0.448105
910.556	0.40472
913.448	0.072769
916.341	0.517803
919.234	0.085144
922.126	0.015507
925.019	0.301659
927.912	0.260647
930.804	0.688099
933.697	0.170914
936.59	0.18531
939.482	0.216232
942.375	0.018089
945.268	0.192558
948.161	0.103283
951.053	0.708168
953.946	0.541374
956.839	0.790161
959.731	1.17831
962.624	1.00114
965.517	0.293854
968.409	0.071411
971.302	0.00177
974.195	0.612309
977.088	0.151203
979.98	1.09888
982.873	1.497
985.766	0.612968
988.658	0.497227
991.551	0.640533
994.444	0.678341
997.337	0.660591
1000.23	0.629578
1003.12	0.474461
1006.01	1.06043
1008.91	1.24852
1011.8	1.13851
1014.69	1.17032
1017.59	0.72728
1020.48	1.56319
1023.37	0.665096
1026.26	1.39635
1029.16	1.39482
1032.05	1.4928
1034.94	1.87936
1037.83	1.70223
1040.73	1.92878
1043.62	1.30737
1046.51	1.46194
1049.4	0.760845
1052.3	1.99404
1055.19	1.61679
1058.08	1.37358
1060.98	1.3817
1063.87	1.21212
1066.76	0.876148
1069.65	1.19079
1072.55	0.598049
1075.44	0.987907
1078.33	1.10704
1081.22	1.28566
1084.12	0.227558
1087.01	0.89484
1089.9	1.02873
1092.8	0.014297
1095.69	0.326389
1098.58	0.839752
1101.47	0.978676
1104.37	0.462872
1107.26	0.319695
1110.15	0.383617
1113.05	0.867962
1115.94	0.463081
1118.83	0.541286
1121.72	0.511707
1124.62	0.165165
1127.51	0.197598
1130.4	0.30468
1133.29	0.497051
1136.19	0.381683
1139.08	0.091648
1141.97	0.525551
1144.86	0.343887
1147.76	0.414776
1150.65	0.284439
1153.54	1.4136
1156.43	0.358044
1159.33	1.03472
1162.22	0.050053
1165.11	0.556248
1168.01	0.184662
1170.9	0.856422
1173.79	0.351799
1176.68	0.942791
1179.58	0.632839
1182.47	1.01363
1185.36	0.484978
1188.26	0.661575
1191.15	0.534061
1194.04	0.562714
1196.93	0.673683
1199.83	0.833004
1202.72	0.318142
1205.61	0.709541
1208.5	0.284554
1211.4	0.556137
1214.29	1.54627
1217.18	1.36039
1220.07	0.548656
1222.97	0.112507
1225.86	0.777527
1228.75	1.19941
1231.64	0.465435
1234.54	0.624767
1237.43	0.781612
1240.32	0.982502
1243.22	1.16564
1246.11	1.60534
1249	0.782887
1251.89	0.034748
1254.79	0.46244
1257.68	0.108582
1260.57	0.514721
1263.46	0.156143
1266.36	1.02088
1269.25	0.078876
1272.14	0.776451
1275.04	0.306835
1277.93	0.800961
1280.82	0.035286
