Measurement: Raman, 532 nm, unoriented, Raman Data Processed
Mineral: Mushistonite
Rruff sample: R060153
Ideal chemistry: Cu^2+^Sn^4+^(OH)_6_
Locality: Ping Wu, Xuebaoding, Sichuan, China
Source: Marcus Origlieri
Description: Yellow fine-grained earthy aggregate with green acicular malachite
Raman shift (cm-1)	intensity
93.158	0
96.5328	21.8189
99.9077	5.72217
103.282	87.8198
106.657	350.42
110.032	812.771
113.407	1389.96
116.782	2074.92
120.157	2775.71
123.531	3336.02
126.906	3579.49
130.281	3308.43
133.656	2597.48
137.031	1764.17
140.405	1063.38
143.78	536.653
147.155	219.907
150.53	56.6938
153.905	10.8782
157.28	9.5044
160.654	20.2493
164.029	1.70776
167.404	16.9014
170.779	36.6819
174.154	63.4983
177.528	77.5923
180.903	102.617
184.278	124.359
187.653	139.882
191.028	150.299
194.403	156.606
197.777	171.532
201.152	174.876
204.527	177.643
207.902	171.002
211.277	151.638
214.651	131.2
218.026	96.8259
221.401	67.146
224.776	34.8201
228.151	16.4956
231.525	6.21338
234.9	5.09546
238.275	9.67847
241.65	0.805664
245.025	4.28003
248.4	4.20142
251.774	7.81006
255.149	10.4712
258.524	19.4702
261.899	40.8621
265.274	73.2134
268.649	118.537
272.023	176.891
275.398	249.123
278.773	319.772
282.148	405.096
285.523	487.643
288.897	575.777
292.272	658.697
295.647	709.965
299.022	719.266
302.397	686.73
305.772	637.982
309.146	557.867
312.521	484.361
315.896	422.387
319.271	374.554
322.646	357.782
326.02	330.367
329.395	323.05
332.77	325.257
336.145	318.269
339.52	326.79
342.894	324.19
346.269	314.762
349.644	298.83
353.019	283.865
356.394	268.582
359.769	263.132
363.143	252.023
366.518	230.39
369.893	195.896
373.268	176.83
376.643	147.59
380.017	124.137
383.392	101.537
386.767	90.6768
390.142	74.7219
393.517	54.8496
396.892	52.6548
400.266	52.5459
403.641	45.3621
407.016	30.3237
410.391	4.91235
413.766	7.57837
417.14	12.7043
420.515	14.9299
423.89	21.396
427.265	21.271
430.64	13.041
434.014	10.8303
437.389	44.1167
440.764	95.0523
444.139	125.268
447.514	148.421
450.889	180.75
454.263	221.195
457.638	268.513
461.013	316.992
464.388	359.783
467.763	402.847
471.137	456.839
474.512	506.314
477.887	570.157
481.262	658.676
484.637	810.027
488.012	989.84
491.386	1233.83
494.761	1550.54
498.136	1887.84
501.511	2267.99
504.886	2636.71
508.26	2959.27
511.635	3169.45
515.01	3186.78
518.385	2891.78
521.76	2341.1
525.135	1657.03
528.509	1030.45
531.884	592.712
535.259	307.499
538.634	128.262
542.009	39.948
545.384	11.7815
548.758	18.6521
552.133	9.23023
555.508	11.2488
558.883	33.9016
562.258	50.0081
565.632	44.2756
569.007	33.4221
572.382	35.9465
575.757	45.3232
579.132	58.9429
582.506	87.9585
585.881	116.166
589.256	147.296
592.631	187.687
596.006	221.528
599.381	253.732
602.755	289.691
606.13	315.409
609.505	340.705
612.88	343.514
616.255	350.17
619.63	326.438
623.004	296.723
626.379	265.505
629.754	222.765
633.129	178.156
636.504	144.381
639.878	107.244
643.253	77.9951
646.628	54.5544
650.003	37.2539
653.378	17.2485
656.752	1.57275
660.127	3.89502
663.502	5.79639
666.877	12.2935
670.252	8.11084
673.626	7.4541
677.001	0.945801
680.376	3.30347
683.751	10.4473
687.126	18.4954
690.501	34.7886
693.875	45.5859
697.25	61.7607
700.625	77.7751
704	100.115
707.375	122.58
710.75	135.072
714.124	155.802
717.499	169.145
720.874	178.009
724.249	175.447
727.624	172.11
730.998	155.285
734.373	142.997
737.748	132.508
741.123	114.076
744.498	107.829
747.872	93.7522
751.247	82.9277
754.622	70.5342
757.997	55.1309
761.372	45.1653
764.747	36.2234
768.121	31.9763
771.496	36.1043
774.871	38.2605
778.246	38.1113
781.621	49.7493
784.995	73.6509
788.37	87.3003
791.745	115.397
795.12	138.371
798.495	171.378
801.87	214.301
805.244	256.566
808.619	286.119
811.994	298.398
815.369	301.197
818.744	277.853
822.119	243.055
825.493	203.622
828.868	169.049
832.243	146.139
835.618	116.553
838.993	92.2339
842.367	79.4561
845.742	62.7144
849.117	51.2761
852.492	37.0497
855.867	28.0272
859.241	23.9669
862.616	12.7867
865.991	9.35974
869.366	2.40527
872.741	7.43921
876.115	2.47986
879.49	6.1947
882.865	9.96814
886.24	6.42542
889.615	6.67957
892.99	4.40918
896.364	5.03625
899.739	1.58435
903.114	4.75207
906.489	3.2854
909.864	8.83411
913.239	8.94788
916.613	8.19458
919.988	14.8613
923.363	24.7554
926.738	26.3367
930.113	27.854
933.487	36.1035
936.862	36.7812
940.237	37.3906
943.612	36.5081
946.987	43.5275
950.361	47.6698
953.736	56.0861
957.111	66.5338
960.486	89.1837
963.861	143.63
967.236	194.426
970.61	227.406
973.985	240.788
977.36	192.176
980.735	131.346
984.11	92.4988
987.485	71.7113
990.859	59.9605
994.234	45.2379
997.609	39.9332
1000.98	33.3751
1004.36	32.3601
1007.73	25.0404
1011.11	19.6431
1014.48	22.4175
1017.86	18.8634
1021.23	14.1707
1024.61	13.3817
1027.98	14.0134
1031.36	10.3193
1034.73	11.7782
1038.11	6.13403
1041.48	12.464
1044.86	15.6901
1048.23	15.8023
1051.61	28.6794
1054.98	48.4915
1058.36	13.3641
1061.73	0.260254
1065.11	0.026123
1068.48	1.26807
1071.86	1.40955
1075.23	1.87317
1078.6	0.575317
1081.98	1.67871
1085.35	8.37146
1088.73	1.49036
1092.1	2.8313
1095.48	0.359619
1098.85	0.970703
1102.23	2.91357
1105.6	1.49988
1108.98	2.10217
1112.35	5.1416
1115.73	4.02417
1119.1	5.68042
1122.48	8.50769
1125.85	7.41235
1129.23	3.30273
1132.6	5.04211
1135.98	3.06836
1139.35	9.73486
1142.73	12.9597
1146.1	8.95886
1149.48	7.17566
1152.85	16.2941
1156.22	20.4862
1159.6	14.6252
1162.97	10.6249
1166.35	7.68286
1169.72	3.31201
1173.1	9.69397
1176.47	8.04004
1179.85	2.06409
1183.22	12.5526
1186.6	11.4123
1189.97	11.4258
1193.35	10.9702
1196.72	8.32239
1200.1	11.25
1203.47	6.8363
1206.85	12.6065
1210.22	4.87781
1213.6	5.48792
1216.97	9.18237
1220.35	23.9714
1223.72	4.4707
1227.1	0.775513
1230.47	1.8988
1233.85	1.20837
1237.22	4.08667
1240.6	4.74927
1243.97	3.87622
1247.35	3.01221
1250.72	12.3303
1254.1	10.1835
1257.47	11.4846
1260.85	10.4092
1264.22	3.5166
1267.59	2.34094
1270.97	2.93665
1274.34	4.93372
1277.72	0.033081
1281.09	14.9006
1284.47	7.33875
1287.84	6.02515
1291.22	19.2048
1294.59	7.47168
1297.97	4.41382
1301.34	1.00464
