Measurement: Raman, 514 nm, unoriented, Raman Data RAW
Mineral: Natrolite
Rruff sample: R040022
Ideal chemistry: Na_2_(Si_3_Al_2_)O_10_2H_2_O
Locality: Patterson, Passaic County, New Jersey, USA
Source: University of Arizona Mineral Museum
Description: White fine fibrous mass
Measured chemistry: (Na_1.87_Ca_0.08_[box]_0.05_)_Σ=2_(Si_2.97_Al_2.03_)O_10_·1.95H_2_O; H_2_O estimated by difference
Raman shift (cm-1)	intensity
128.541	0
132.727	103.456
136.91	1555.48
141.091	4825.7
145.27	5746.06
149.447	2759.84
153.621	2470.78
157.794	6414.84
161.964	10286.6
166.132	7374.12
170.297	3461.24
174.461	1608.51
178.622	529.521
182.781	803.551
186.938	730.787
191.092	0
195.245	34.0137
199.395	1002.31
203.543	3315.11
207.689	4418.58
211.833	2269.68
215.974	872.414
220.113	416.41
224.251	0
228.385	0
232.518	148.97
236.649	1439.51
240.777	2895.79
244.903	1164.56
249.027	212.649
253.149	29.5029
257.269	0
261.386	219.456
265.502	812.987
269.615	1239.22
273.726	759.132
277.835	306.568
281.941	100.098
286.046	174.406
290.148	67.7617
294.248	231.146
298.346	855.009
302.442	2523.11
306.536	3722.34
310.628	1262.98
314.717	224.882
318.804	0
322.889	132.12
326.972	405.736
331.053	640.366
335.132	346.066
339.208	0
343.283	171.981
347.355	310.85
351.425	561.223
355.493	1123.06
359.559	1443.87
363.623	1017.67
367.684	322.899
371.744	232.428
375.801	127.557
379.857	178.153
383.91	3.70215
387.961	24.9453
392.01	0
396.056	65.1426
400.101	65.3584
404.143	4.86133
408.184	439.001
412.222	560.995
416.258	541.678
420.292	682.476
424.324	1493.77
428.354	2937.14
432.382	6054.14
436.408	9029.01
440.431	10346.1
444.453	10951.2
448.472	9222.55
452.489	4554.29
456.505	1456.98
460.518	488.092
464.529	230.604
468.538	0
472.544	0
476.549	0
480.552	74.957
484.552	241.104
488.551	554.682
492.547	775.883
496.542	727.613
500.534	351.23
504.524	173.486
508.512	167.609
512.498	747.803
516.482	1229.03
520.464	2352.87
524.444	4426.71
528.422	10910.8
532.397	19333.5
536.371	14394.5
540.343	6200.18
544.312	2532.44
548.28	1244.19
552.245	590.109
556.208	0
560.17	0
564.129	0
568.086	0
572.041	39.6621
575.994	14.7754
579.945	7.50195
583.894	326.035
587.841	289.484
591.786	165.717
595.729	193.02
599.67	516.678
603.609	586.463
607.546	432.883
611.48	113.891
615.413	179.264
619.344	114.096
623.272	213.119
627.199	170.48
631.124	84.0371
635.046	0
638.967	144.982
642.885	91.3535
646.802	41.2363
650.716	77.0742
654.629	160.088
658.539	134.055
662.448	200.973
666.354	0
670.258	195.623
674.161	25.2734
678.061	0
681.96	383.957
685.856	93.5117
689.75	363.219
693.643	447.906
697.533	926.41
701.422	1475.01
705.308	1672.34
709.192	1327.48
713.075	689.693
716.955	688.412
720.834	1114.62
724.71	1341.32
728.584	970.699
732.457	381.9
736.327	241.395
740.196	199.244
744.062	0
747.927	91.041
751.789	76.6387
755.65	42.4082
759.509	299.215
763.365	200.789
767.22	350.342
771.072	249.912
774.923	0
778.772	0
782.619	67.5527
786.463	211.871
790.306	229.652
794.147	319.924
797.986	185.5
801.823	182.631
805.658	301.24
809.491	229.01
813.322	6.83398
817.151	236.154
820.978	93.5039
824.803	190.879
828.627	341.344
832.448	232.564
836.267	0
840.085	183.4
843.9	415.816
847.714	543.395
851.525	242.67
855.335	370.611
859.143	375.666
862.948	190.711
866.752	542.475
870.554	350.615
874.354	176.258
878.152	164.424
881.948	264.496
885.742	68.2227
889.535	168.027
893.325	317.066
897.113	218.186
900.9	199.428
904.684	23.3652
908.467	97.875
912.247	559.381
916.026	52.7793
919.803	96.8965
923.578	0
927.351	190.996
931.122	43.5098
934.891	923.895
938.659	881.939
942.424	141.213
946.188	4.07812
949.949	185.061
953.709	106.537
957.467	358.943
961.222	1362.21
964.976	2205.42
968.729	2472.83
972.479	1179.75
976.227	496.939
979.973	333.355
983.718	528.812
987.46	292.119
991.201	399.055
994.94	554.182
998.677	265.934
1002.41	0
1006.15	282.312
1009.88	335.994
1013.61	0
1017.33	230.941
1021.06	1455.36
1024.78	2779.27
1028.51	1653.36
1032.22	1355.94
1035.94	1360.62
1039.66	1295.83
1043.37	880.117
1047.09	615.477
1050.8	151.285
1054.51	0
1058.21	256.188
1061.92	354.828
1065.62	774.578
1069.32	514.875
1073.02	434.859
1076.72	392.594
1080.42	274.09
1084.11	855.965
1087.8	1145.98
1091.49	953.816
1095.18	691.727
1098.87	0
1102.55	0
1106.23	255.344
1109.91	185.68
1113.59	240.254
1117.27	588.078
1120.95	215.316
1124.62	0
1128.29	140.434
1131.96	23.0938
1135.63	429.543
1139.3	399.094
1142.96	484.75
1146.62	194.375
1150.28	431.117
1153.94	0
1157.6	208.812
1161.25	216.66
1164.91	528.438
1168.56	479.949
1172.21	382.367
1175.86	175.594
1179.5	173.535
1183.15	220.16
1186.79	290.617
1190.43	185.91
1194.07	425.473
1197.71	641.047
1201.34	555.465
1204.97	350.398
1208.61	125.012
1212.24	276.027
1215.86	352.551
1219.49	219.727
1223.11	52.4336
1226.74	354.578
1230.36	513.84
1233.98	363.25
1237.59	363.617
1241.21	295.391
1244.82	0
1248.43	107.836
1252.04	222.836
1255.65	219.371
1259.26	533.324
1262.86	532.391
1266.47	258.203
1270.07	508.035
1273.67	315.148
1277.26	0
1280.86	139.422
1284.45	384.043
1288.05	629.445
1291.64	269.941
1295.22	327.148
1298.81	203.723
1302.4	332.305
1305.98	17.0938
1309.56	324.355
1313.14	178.199
1316.72	198.797
1320.29	269.59
1323.87	403.191
1327.44	476.598
1331.01	348.246
1334.58	399.539
1338.15	152.324
1341.71	220.91
1345.28	252.336
1348.84	135.066
1352.4	0
1355.96	167.734
1359.51	531.293
1363.07	515.402
1366.62	509.215
1370.17	414.844
1373.72	206.75
1377.27	364.484
1380.82	483.793
1384.36	143.43
1387.9	644.914
1391.44	362.297
1394.98	658.223
1398.52	492.055
1402.06	385.816
1405.59	438.445
1409.12	418.598
1412.65	0
1416.18	65.4727
1419.71	219.645
1423.23	241.297
1426.76	327.008
1430.28	335.922
1433.8	320.203
1437.32	855.152
1440.83	669.297
1444.35	984.414
1447.86	471.379
1451.37	408.418
1454.88	371.047
1458.39	248.473
1461.9	411.82
1465.4	546.285
1468.91	298.34
1472.41	317.094
1475.91	441.387
1479.4	341.215
1482.9	376.855
1486.39	495.246
1489.89	730.027
1493.38	463.836
1496.86	569.961
1500.35	151.371
1503.84	270.059
1507.32	112.59
1510.81	211.934
1514.29	364.648
1517.76	528.68
1521.24	728.672
1524.72	0
