Measurement: Raman, 514 nm, unoriented, Raman Data RAW
Mineral: Natrolite
Rruff sample: R040022
Ideal chemistry: Na_2_(Si_3_Al_2_)O_10_2H_2_O
Locality: Patterson, Passaic County, New Jersey, USA
Source: University of Arizona Mineral Museum
Description: White fine fibrous mass
Measured chemistry: (Na_1.87_Ca_0.08_[box]_0.05_)_Σ=2_(Si_2.97_Al_2.03_)O_10_·1.95H_2_O; H_2_O estimated by difference
Raman shift (cm-1)	intensity
78.14	0
82.352	70.7495
86.563	0
90.77	266.924
94.976	83.3115
99.18	99.7905
103.381	279.621
107.58	1411.58
111.776	4108.43
115.971	3483.36
120.163	2150.75
124.353	1357.61
128.541	197.801
132.727	93.1855
136.91	698.82
141.091	1747.22
145.27	1710.02
149.447	371.771
153.621	851.488
157.794	2805.15
161.964	4580.41
166.132	3108.59
170.297	1437.92
174.461	855.317
178.622	190.674
182.781	262.932
186.938	456.827
191.092	4.85254
195.245	0
199.395	301.232
203.543	1022.02
207.689	1707.43
211.833	930.145
215.974	395.021
220.113	120.08
224.251	0
228.385	0
232.518	34.5947
236.649	423.989
240.777	1105.53
244.903	577.581
249.027	183.369
253.149	13.9043
257.269	0
261.386	135.843
265.502	282.054
269.615	482.914
273.726	400.589
277.835	259.432
281.941	29.7295
286.046	25.6743
290.148	45.5625
294.248	175.128
298.346	267.3
302.442	692.389
306.536	1428.79
310.628	695.221
314.717	196.523
318.804	6.32568
322.889	11.3745
326.972	199.646
331.053	307.543
335.132	197.021
339.208	59.0791
343.283	55.3042
347.355	67.2319
351.425	122.431
355.493	419.349
359.559	543.125
363.623	499.686
367.684	189.317
371.744	92.1143
375.801	55.2646
379.857	45.5327
383.91	0
387.961	19.3853
392.01	0
396.056	39.1895
400.101	0
404.143	78.6934
408.184	178.714
412.222	369.202
416.258	227.853
420.292	227.378
424.324	399.451
428.354	765.107
432.382	1326.71
436.408	2732.79
440.431	5642.16
444.453	6300.34
448.472	3300.34
452.489	1366.27
456.505	457.104
460.518	137.823
464.529	0
468.538	0
472.544	0
476.549	86.5566
480.552	244.325
484.552	441.66
488.551	463.151
492.547	448.395
496.542	286.435
500.534	43.6904
504.524	5.44629
508.512	93.4688
512.498	369.071
516.482	613.1
520.464	925.162
524.444	1825.24
528.422	4233.41
532.397	8119.15
536.371	7402.98
540.343	3387.82
544.312	1341.58
548.28	614.729
552.245	298.552
556.208	0
560.17	0
564.129	21.3779
568.086	44.3486
572.041	63.1719
575.994	76.4062
579.945	0
583.894	221.643
587.841	174.67
591.786	137.224
595.729	178.139
599.67	226.827
603.609	99.6943
607.546	53.5088
611.48	12.8115
615.413	57.1367
619.344	60.71
623.272	93.0176
627.199	104.197
631.124	50.4014
635.046	83.4443
638.967	125.739
642.885	138.028
646.802	38.8486
650.716	0
654.629	131.628
658.539	146.712
662.448	186.192
666.354	53.3359
670.258	73.1191
674.161	0
678.061	94.2578
681.96	126.343
685.856	68.7588
689.75	122.179
693.643	227.758
697.533	518.4
701.422	628.337
705.308	611.524
709.192	458.169
713.075	378.15
716.955	351.785
720.834	449.537
724.71	540.641
728.584	517.286
732.457	336.626
736.327	125.402
740.196	68.5693
744.062	0.917969
747.927	62.9092
751.789	91.3906
755.65	0
759.509	129.623
763.365	75.2188
767.22	225.562
771.072	125.095
774.923	0
778.772	30.1426
782.619	149.536
786.463	126.813
790.306	75.2988
794.147	79.417
797.986	62.9072
801.823	165.39
805.658	247.881
809.491	121.476
813.322	54.8604
817.151	9.18555
820.978	94.4141
824.803	110.535
828.627	47.4043
832.448	64.8789
836.267	22.6914
840.085	190.705
843.9	128.901
847.714	325.748
851.525	132.822
855.335	279.15
859.143	185.511
862.948	109.65
866.752	322.39
870.554	142.813
874.354	192.216
878.152	230.308
881.948	157.829
885.742	64.5898
889.535	200.615
893.325	66.0986
897.113	107.882
900.9	192.057
904.684	6.65332
908.467	4.75977
912.247	360.838
916.026	144.807
919.803	0
923.578	0
927.351	104.082
931.122	86.5557
934.891	210.238
938.659	312.59
942.424	62.3311
946.188	0
949.949	11.2393
953.709	24.0986
957.467	257.209
961.222	610.854
964.976	925.318
968.729	688.187
972.479	513.276
976.227	268.743
979.973	314.431
983.718	350.05
987.46	184.66
991.201	128.133
994.94	145.635
998.677	19.7637
1002.41	113.1
1006.15	276.289
1009.88	80.5605
1013.61	0
1017.33	221.078
1021.06	378.221
1024.78	377.562
1028.51	570.166
1032.22	842.672
1035.94	1507.96
1039.66	2009.04
1043.37	1074.34
1047.09	482.244
1050.8	122.096
1054.51	5.33594
1058.21	61.7207
1061.92	100.953
1065.62	182.768
1069.32	87.4219
1073.02	134.979
1076.72	234.854
1080.42	356.391
1084.11	580.84
1087.8	628.896
1091.49	590.049
1095.18	382.756
1098.87	0
1102.55	84.1934
1106.23	114.258
1109.91	161.229
1113.59	95.4238
1117.27	141.658
1120.95	125.014
1124.62	0
1128.29	27.2227
1131.96	82.7539
1135.63	166.275
1139.3	324
1142.96	186.234
1146.62	41.0371
1150.28	217.705
1153.94	0
1157.6	0
1161.25	80.1895
1164.91	292.271
1168.56	176.84
1172.21	217.578
1175.86	173.184
1179.5	109.525
1183.15	157.377
1186.79	298.055
1190.43	93.8418
1194.07	219.236
1197.71	454.361
1201.34	310.916
1204.97	280.344
1208.61	223.846
1212.24	227.273
1215.86	140.729
1219.49	0
1223.11	93.9629
1226.74	159.637
1230.36	234.662
1233.98	190.41
1237.59	176.967
1241.21	202.479
1244.82	161.791
1248.43	101.949
1252.04	123.018
1255.65	184.93
1259.26	294.854
1262.86	287.168
1266.47	131.295
1270.07	115.592
1273.67	139.861
1277.26	0
1280.86	109.279
1284.45	133.143
1288.05	284.588
1291.64	144.908
1295.22	88.0156
1298.81	55.5879
1302.4	209.758
1305.98	213.455
1309.56	196.928
1313.14	0
1316.72	63.1309
1320.29	60.1406
1323.87	115.812
1327.44	318.188
1331.01	167.447
1334.58	102.543
1338.15	177.984
1341.71	212.043
1345.28	42.082
1348.84	91.4121
1352.4	25.0742
1355.96	117.994
1359.51	260.635
1363.07	283.693
1366.62	368.824
1370.17	203.008
1373.72	87.127
1377.27	241.447
1380.82	285.91
1384.36	0
1387.9	157.373
1391.44	169.967
1394.98	176.961
1398.52	267.801
1402.06	287.486
1405.59	423.756
1409.12	210.209
1412.65	0
1416.18	149.637
1419.71	241.568
1423.23	278.828
1426.76	160.037
1430.28	97.9902
1433.8	205.135
1437.32	455.684
1440.83	276.779
1444.35	359.246
1447.86	91.8555
1451.37	148.168
1454.88	286.777
1458.39	264.344
1461.9	308.242
1465.4	175.873
1468.91	185.182
1472.41	278.32
1475.91	264.932
1479.4	55.0801
1482.9	427.828
1486.39	83.0293
1489.89	272.811
1493.38	289.219
1496.86	347.648
1500.35	78.3574
1503.84	260.283
1507.32	0
1510.81	0
1514.29	156.68
1517.76	153.789
1521.24	401.365
1524.72	0
