Measurement: Raman, 514 nm, unoriented, Raman Data RAW
Mineral: Natrolite
Rruff sample: R040022
Ideal chemistry: Na_2_(Si_3_Al_2_)O_10_2H_2_O
Locality: Patterson, Passaic County, New Jersey, USA
Source: University of Arizona Mineral Museum
Description: White fine fibrous mass
Measured chemistry: (Na_1.87_Ca_0.08_[box]_0.05_)_Σ=2_(Si_2.97_Al_2.03_)O_10_·1.95H_2_O; H_2_O estimated by difference
Raman shift (cm-1)	intensity
89.368	6876
93.574	7078
97.779	7233
101.981	7538
106.18	8067
110.378	9352
114.573	11610
118.766	10730
122.957	9565
127.145	7944
131.332	7745
135.516	8441
139.698	9570
143.877	9495
148.055	8053
152.23	7619
156.403	8923
160.574	10430
164.743	9399
168.909	7758
173.073	6902
177.235	6356
181.395	6239
185.552	6195
189.708	5846
193.861	5774
198.012	5894
202.161	6092
206.307	6284
210.452	5827
214.594	5618
218.734	5606
222.872	5386
227.007	5211
231.141	5133
235.272	5390
239.401	5631
243.528	5455
247.653	5083
251.775	5042
255.896	5000
260.014	5015
264.13	5170
268.244	5253
272.356	5303
276.465	5254
280.573	5272
284.678	5258.44
288.781	5376
292.882	5499
296.981	5571
301.077	6063
305.172	6549
309.264	6142
313.354	5586
317.442	5366
321.528	5357.19
325.612	5517
329.693	5720
333.773	5779
337.85	5674
341.925	5663
345.998	5784
350.069	5886
354.137	6128.93
358.204	6368
362.268	6256
366.331	5940
370.391	5676
374.449	5477
378.505	5474
382.559	5445
386.611	5521
390.66	5468
394.708	5604
398.753	5674
402.796	5806
406.837	6137
410.876	6474
414.913	6804
418.948	6629
422.981	6692.88
427.011	6909.16
431.04	7347.31
435.066	8171
439.09	10360
443.113	10920
447.133	8946
451.151	7562
455.166	6822
459.18	6565
463.192	6392
467.202	6427
471.209	6482
475.214	6408
479.218	6647
483.219	6777
487.218	6940
491.215	7063
495.21	7134
499.203	7387
503.194	7612
507.183	7942
511.17	8388
515.154	9052
519.137	9715
523.118	10920
527.096	14580
531.072	22400
535.047	21510
539.019	14450
542.989	10200
546.957	8411
550.923	7757
554.887	7493
558.849	7372
562.809	7152
566.767	7071
570.723	6985
574.677	6976
578.629	6977
582.578	6926
586.526	7045
590.471	7036
594.415	6986
598.357	7050
602.296	7035
606.234	7026
610.169	7097
614.102	7012
618.034	7046
621.963	7076
625.89	7070
629.816	7082
633.739	7113
637.66	7058
641.579	7153
645.496	7212
649.412	7209
653.325	7221
657.236	7208.11
661.145	7229
665.052	7350
668.957	7388
672.86	7376
676.761	7427.06
680.66	7526
684.557	7672
688.453	7815
692.346	7890
696.237	8061
700.126	8214
704.013	8311
707.898	8264
711.781	8288
715.662	8273
719.541	8193
723.418	8240
727.293	8313
731.166	8079
735.037	7989
738.907	7872
742.774	7904
746.639	7948
750.502	8020
754.363	7990
758.223	7980
762.08	8075
765.935	8031
769.788	8061
773.64	8046
777.489	8019
781.337	8035
785.182	8129
789.025	8158
792.867	8233
796.707	8143
800.544	8156
804.38	8247
808.213	8347.07
812.045	8441
815.875	8385
819.703	8357
823.529	8392
827.352	8477
831.174	8473
834.994	8582
838.812	8579
842.629	8654
846.443	8675
850.255	8731
854.065	8817
857.874	8789
861.68	8736
865.484	8710
869.287	8857
873.088	8953
876.886	8937
880.683	8968
884.478	8982.66
888.271	9002
892.062	8991.18
895.851	9097
899.638	9157
903.423	9209
907.206	9206
910.987	9162
914.767	9307
918.544	9365
922.32	9498
926.094	9446
929.865	9486
933.635	9505
937.403	9600
941.169	9736
944.933	9809
948.696	9782
952.456	9716
956.214	9895
959.971	10030
963.725	10260
967.478	10270
971.229	10300
974.978	10360
978.725	10280
982.47	10240
986.213	10230
989.954	10440
993.694	10500
997.431	10610
1001.17	10590
1004.9	10670
1008.63	10740
1012.36	10820
1016.09	10940
1019.82	11030
1023.54	11320
1027.26	11310
1030.98	11410
1034.7	12180
1038.42	13070
1042.13	12520
1045.85	11750
1049.56	11320
1053.27	11240
1056.98	11240
1060.68	11130
1064.39	11130
1068.09	11440
1071.79	11360
1075.49	11550
1079.18	11530
1082.88	11500
1086.57	11580
1090.26	11630
1093.95	11630
1097.64	11510
1101.32	11480
1105.01	11360
1108.69	11300
1112.37	11550
1116.05	11400
1119.72	11590
1123.39	11470
1127.07	11530
1130.74	11420
1134.41	11490
1138.07	11590
1141.74	11570
1145.4	11660
1149.06	11780
1152.72	11710
1156.38	11700
1160.04	11720
1163.69	11780
1167.34	11770
1170.99	11920
1174.64	11910
1178.29	12020
1181.93	12140
1185.58	11970
1189.22	12110
1192.86	12130
1196.49	12210
1200.13	12230
1203.76	12460
1207.4	12270
1211.03	12440
1214.65	12457.8
1218.28	12460
1221.91	12460
1225.53	12590
1229.15	12470
1232.77	12650
1236.39	12630
1240	12730
1243.62	12840
1247.23	12780
1250.84	12800
1254.45	12800
1258.06	12930
1261.66	12840
1265.27	13000
1268.87	12980
1272.47	13200
1276.07	13150
1279.66	13070
1283.26	13170
1286.85	13170
1290.44	13270
1294.03	13200
1297.62	13173.7
1301.2	13480
1304.78	13440
1308.37	13560
1311.95	13560
1315.53	13620
1319.1	13680
1322.68	13660
1326.25	13810
1329.82	13850
1333.39	13860
1336.96	13960
1340.52	14130
1344.09	14100
1347.65	14070
1351.21	14230
1354.77	14200
1358.33	14310
1361.88	14370
1365.44	14410
1368.99	14650
1372.54	14770
1376.09	14730
1379.63	14650
1383.18	14840
1386.72	14710
1390.27	15000
1393.8	15017.8
1397.34	15080
1400.88	15000
1404.41	15240
1407.95	15260
1411.48	15290
1415.01	15490
1418.53	15500
1422.06	15450
1425.58	15510
1429.11	15620
1432.63	15620
1436.14	15650
1439.66	15880
1443.18	15960
1446.69	16050
1450.2	16100
1453.71	16200
1457.22	16222.1
1460.73	16420
1464.23	16360
1467.74	16390
1471.24	16560
1474.74	16690
1478.24	16690
1481.73	16660
1485.23	16710
1488.72	16840
1492.21	16970
1495.7	16770
1499.19	17050
1502.68	16970
1506.16	17030
1509.64	17120
1513.12	16950
1516.61	17020
1520.08	17130
1523.56	17250
