Measurement: Raman, 532 nm, unoriented, Raman Data RAW
Mineral: Natropalermoite
Rruff sample: R130092
Ideal chemistry: Na_2_SrAl_4_(PO_4_)_4_(OH)_4_
Locality: Palermo No. 1 mine, Groton, New Hampshire, USA
Source: Benjamin N. Schumer
Description: Colorless, prismatic, striated, elongated along [100], visually indistinguishable from palermoite (R120141). Associated with grey to colorless bladed eosphorite, groups of acicular childrenite, quartz, goethite and lefontite R140539. Type sample
Measured chemistry: (Na_1.70_Li_0.30_)_2.00_(Sr_0.96_Ca_0.02_Ba_0.01_)(Al_3.83_Mg_0.04_Mn_0.03_Fe_0.03_)(PO_4_)_4.06_(OH)_4.00_
Raman shift (cm-1)	intensity
89.8438	306.279
93.2186	295.882
96.5934	269.042
99.9682	251.713
103.343	229.695
106.718	217.24
110.093	204.461
113.468	191.872
116.842	179.436
120.217	165.63
123.592	158.54
126.967	145.39
130.342	138.317
133.716	129.717
137.091	123.532
140.466	115.55
143.841	110.755
147.216	105.52
150.59	99.9139
153.965	96.1668
157.34	91.0744
160.715	89.4227
164.09	87.5759
167.464	83.3938
170.839	81.7407
174.214	82.6027
177.589	87.5875
180.964	100.949
184.339	116.519
187.713	131.217
191.088	146.676
194.463	159.655
197.838	170.248
201.213	181.047
204.588	189.733
207.962	192.623
211.337	194.729
214.712	195.547
218.087	202.089
221.462	205.686
224.836	209.286
228.211	213.773
231.586	216.118
234.961	219.709
238.336	225.808
241.71	223.576
245.085	221.786
248.46	223.438
251.835	221.45
255.21	216.671
258.585	213.883
261.959	210.314
265.334	210.038
268.709	214.201
272.084	213.835
275.459	216.625
278.834	216.038
282.208	214.082
285.583	212.197
288.958	210.866
292.333	212.057
295.708	213.416
299.082	218.541
302.457	225.492
305.832	235.21
309.207	245.564
312.582	261.158
315.957	284.469
319.331	293.601
322.706	280.064
326.081	259.132
329.456	249.069
332.831	245.254
336.205	241.039
339.58	234.353
342.955	228.134
346.33	223.644
349.705	220.133
353.079	219.268
356.454	218.19
359.829	214.665
363.204	217.547
366.579	217.819
369.954	218.378
373.328	219.029
376.703	217.969
380.078	219.161
383.453	218.777
386.828	221.436
390.202	225.295
393.577	229.813
396.952	236.42
400.327	247.032
403.702	252.306
407.077	261.859
410.451	268.047
413.826	267.298
417.201	267.79
420.576	270.711
423.951	277.385
427.325	289.791
430.7	298.036
434.075	279.943
437.45	256.203
440.825	245.197
444.2	234.495
447.574	230.304
450.949	226.476
454.324	224.952
457.699	224.151
461.074	224.267
464.448	222.934
467.823	222.501
471.198	224.189
474.573	224.348
477.948	225.98
481.322	226.661
484.697	226.026
488.072	226.557
491.447	228.081
494.822	229.058
498.197	232.053
501.571	233.801
504.946	237.239
508.321	243.983
511.696	248.295
515.071	254.921
518.446	262.874
521.82	268.188
525.195	269.053
528.57	262.225
531.945	254.815
535.32	246.544
538.694	242.84
542.069	240.168
545.444	237.874
548.819	237.393
552.194	237.511
555.568	237.582
558.943	237.926
562.318	238.25
565.693	239.971
569.068	240.392
572.443	240.866
575.817	243.289
579.192	247.078
582.567	251.407
585.942	258.399
589.317	263.311
592.691	265.054
596.066	264.95
599.441	259.459
602.816	254.796
606.191	253.017
609.566	257.384
612.94	261.099
616.315	264.635
619.69	269.669
623.065	271.535
626.44	268.788
629.814	268.715
633.189	268.918
636.564	271.678
639.939	274.796
643.314	272.595
646.688	268.983
650.063	264.515
653.438	261.98
656.813	261.417
660.188	260.795
663.563	260.534
666.937	259.793
670.312	260.941
673.687	264.798
677.062	261.711
680.437	264.369
683.812	264.912
687.186	267.396
690.561	268.642
693.936	269.006
697.311	270.079
700.686	269.497
704.06	271.092
707.435	272.728
710.81	276.131
714.185	274.677
717.56	275.342
720.934	277.674
724.309	278.8
727.684	279.315
731.059	279.2
734.434	281.563
737.808	280.785
741.183	282.842
744.558	284.664
747.933	285.825
751.308	287.368
754.683	291.681
758.057	296.754
761.432	291.326
764.807	291.116
768.182	293.572
771.557	294.737
774.932	295.387
778.306	297.185
781.681	296.821
785.056	297.749
788.431	298.497
791.806	301.335
795.18	302.634
798.555	302.668
801.93	303.423
805.305	305.201
808.68	306.026
812.054	308.493
815.429	308.066
818.804	311.61
822.179	314.122
825.554	315.515
828.929	315.256
832.303	316.865
835.678	317.787
839.053	320.091
842.428	324.276
845.803	325.842
849.178	326.863
852.552	327.564
855.927	329.391
859.302	332.876
862.677	332.089
866.052	331.139
869.426	333.041
872.801	332.357
876.176	333.266
879.551	333.712
882.926	334.157
886.301	336.503
889.675	337.781
893.05	338.017
896.425	342.708
899.8	344.745
903.175	346.117
906.549	347.037
909.924	350.892
913.299	354.628
916.674	357.132
920.049	363.806
923.423	369.436
926.798	380.048
930.173	385.471
933.548	395.388
936.923	396.03
940.298	393.604
943.672	387.555
947.047	384.821
950.422	381.942
953.797	381.431
957.172	383.278
960.546	386.234
963.921	393.529
967.296	398.617
970.671	404.473
974.046	411.902
977.42	418.384
980.795	417.417
984.17	421.804
987.545	428.486
990.92	435.498
994.295	446.288
997.669	455.388
1001.04	466.869
1004.42	478.689
1007.79	483.327
1011.17	473.362
1014.54	452.786
1017.92	436.509
1021.29	424.661
1024.67	416.656
1028.04	413.357
1031.42	408.956
1034.79	406.583
1038.17	407.522
1041.54	408.248
1044.92	409.235
1048.29	411.251
1051.67	411.301
1055.04	412.077
1058.42	416.752
1061.79	418.522
1065.17	424.99
1068.54	434.022
1071.91	443.084
1075.29	455.963
1078.66	463.17
1082.04	458.531
1085.41	446.046
1088.79	437.081
1092.16	431.909
1095.54	430.169
1098.91	428.177
1102.29	427.987
1105.66	431.23
1109.04	429.804
1112.41	433.806
1115.79	435.683
1119.16	439.01
1122.54	445.236
1125.91	452.575
1129.29	463.224
1132.66	481.224
1136.04	493.238
1139.41	508.128
1142.79	516.109
1146.16	491.575
1149.54	470.097
1152.91	460.4
1156.29	454.949
1159.66	451.271
1163.04	451.915
1166.41	451.646
1169.79	451.551
1173.16	455.792
1176.54	459.116
1179.91	460.397
1183.28	457.284
1186.66	460.764
1190.03	459.722
1193.41	464.223
1196.78	465.632
1200.16	467.868
1203.53	468.914
1206.91	471.133
1210.28	473.493
1213.66	476.164
1217.03	475.484
1220.41	483.411
1223.78	479.94
1227.16	479.214
1230.53	481.781
1233.91	479.714
1237.28	485.322
1240.66	483.979
1244.03	493.811
1247.41	489.516
1250.78	492.176
1254.16	490.661
1257.53	493.571
1260.9	496.898
1264.28	497.786
1267.65	499.082
1271.03	501.279
1274.4	504.421
1277.78	501.802
1281.15	505.886
1284.53	508.464
1287.9	506.576
1291.28	509.718
1294.65	511.189
1298.03	511.594
1301.4	514.276
