Measurement: Raman, 532 nm, unoriented, Raman Data Processed
Mineral: Nifontovite
Rruff sample: R060685
Ideal chemistry: Ca_3_[BO(OH)_2_]_6_2H_2_O
Locality: Fuka mine, Okayama Prefecture, Japan
Source: Michael Scott
Description: Colorless prismatic crystal
Measured chemistry: Ca_3.00_[BO(OH)_2_]_6_Â·2H_2_O ; = darker phase. H_2_O assumed ideal from stoichiometry; B_2_O_3_ estimated by difference
Raman shift (cm-1)	intensity
89.7832	0
93.158	173.386
96.5328	113.37
99.9077	15.7637
103.282	46.0939
106.657	189.175
110.032	443.063
113.407	732.924
116.782	1793.81
120.157	3610.91
123.531	4172.77
126.906	2008.21
130.281	800.545
133.656	491.268
137.031	460.515
140.405	645.726
143.78	270.893
147.155	154.548
150.53	350.776
153.905	43.28
157.28	87.3554
160.654	300.855
164.029	446.442
167.404	469.69
170.779	1179.95
174.154	831.259
177.528	138.807
180.903	36.3376
184.278	166
187.653	512.726
191.028	696.614
194.403	308.682
197.777	97.934
201.152	67.1656
204.527	26.0734
207.902	45.5082
211.277	163.281
214.651	275.561
218.026	354.533
221.401	567.529
224.776	539.501
228.151	347.37
231.525	285.2
234.9	113.075
238.275	5.10962
241.65	38.9576
245.025	33.0008
248.4	1.28394
251.774	72.6636
255.149	217.799
258.524	502.82
261.899	849.664
265.274	869.096
268.649	898.689
272.023	957.947
275.398	1039.78
278.773	576.832
282.148	166.846
285.523	43.3785
288.897	1.26282
292.272	12.6154
295.647	122.947
299.022	319.482
302.397	480.842
305.772	570.707
309.146	466.284
312.521	180.031
315.896	130.967
319.271	305.206
322.646	445.329
326.02	227.922
329.395	18.4115
332.77	29.891
336.145	21.0657
339.52	63.0004
342.894	29.4775
346.269	155.968
349.644	116.888
353.019	42.3256
356.394	59.6182
359.769	190.458
363.143	515.837
366.518	1072.65
369.893	1511.38
373.268	1242.29
376.643	768.491
380.017	552.799
383.392	572.209
386.767	729.455
390.142	763.81
393.517	544.4
396.892	404.021
400.266	412.963
403.641	510.408
407.016	627.676
410.391	848.977
413.766	1273.15
417.14	1948.72
420.515	2644.72
423.89	3291.73
427.265	3184.67
430.64	2425.67
434.014	1944.34
437.389	1489.23
440.764	1418.79
444.139	1241.92
447.514	683.564
450.889	346.468
454.263	175.885
457.638	90.6788
461.013	38.0848
464.388	7.68518
467.763	11.1327
471.137	15.6508
474.512	19.7943
477.887	18.2568
481.262	4.84582
484.637	10.8679
488.012	12.4037
491.386	22.2773
494.761	33.6299
498.136	51.3217
501.511	67.7329
504.886	80.7561
508.26	105.021
511.635	147.178
515.01	193.68
518.385	264.873
521.76	379.535
525.135	543.567
528.509	798.558
531.884	1199.4
535.259	1798.55
538.634	2478.64
542.009	2675.33
545.384	2223.92
548.758	1607.04
552.133	1325.8
555.508	1349.16
558.883	1322.3
562.258	1073.77
565.632	983.141
569.007	1142.89
572.382	1459.98
575.757	1289.37
579.132	703.985
582.506	299.874
585.881	81.2449
589.256	0.575439
592.631	13.3877
596.006	2.88245
599.381	23.101
602.755	29.4748
606.13	5.95361
609.505	14.676
612.88	7.63953
616.255	42.8467
619.63	162.439
623.004	362.6
626.379	676.635
629.754	1038.63
633.129	1266
636.504	1416.76
639.878	1907.6
643.253	2986.78
646.628	5363.59
650.003	10281
653.378	14122
656.752	7099.98
660.127	2664.99
663.502	1152.79
666.877	546.349
670.252	254.19
673.626	106.073
677.001	22.1731
680.376	4.84021
683.751	8.66638
687.126	17.0134
690.501	66.1355
693.875	138.457
697.25	264.189
700.625	463.584
704	788.042
707.375	1307.53
710.75	2072.8
714.124	3086.39
717.499	3992.53
720.874	4097.79
724.249	3205.69
727.624	2077.72
730.998	1291.29
734.373	849.938
737.748	624.221
741.123	512.093
744.498	467.472
747.872	435.022
751.247	379.982
754.622	288.069
757.997	197.605
761.372	110.608
764.747	48.6743
768.121	3.36316
771.496	13.1057
774.871	19.0769
778.246	5.79968
781.621	26.1086
784.995	78.9353
788.37	141.846
791.745	240.442
795.12	368.592
798.495	545.327
801.87	773.338
805.244	990.627
808.619	937.133
811.994	738.486
815.369	621.297
818.744	543.186
822.119	494.422
825.493	436.725
828.868	367.356
832.243	291.757
835.618	212.21
838.993	137.308
842.367	84.0267
845.742	48.3668
849.117	29.5433
852.492	13.3876
855.867	2.22388
859.241	1.04065
862.616	4.23523
865.991	8.67883
869.366	8.2041
872.741	3.6405
876.115	24.6668
879.49	67.079
882.865	150.096
886.24	270.839
889.615	415.16
892.99	482.695
896.364	466.569
899.739	433.135
903.114	399.679
906.489	364.832
909.864	366.469
913.239	383.354
916.613	369.895
919.988	344.926
923.363	341.219
926.738	346.762
930.113	348.647
933.487	330.422
936.862	281.643
940.237	198.24
943.612	115.128
946.987	46.0894
950.361	12.6562
953.736	3.87549
957.111	6.32898
960.486	25.1398
963.861	48.0536
967.236	71.266
970.61	78.4934
973.985	79.4647
977.36	63.469
980.735	55.1031
984.11	52.7835
987.485	54.5531
990.859	51.119
994.234	36.6752
997.609	17.7075
1000.98	27.2612
1004.36	59.4531
1007.73	105.137
1011.11	169.147
1014.48	229.752
1017.86	281.024
1021.23	317.461
1024.61	330.271
1027.98	327.871
1031.36	313.24
1034.73	301.288
1038.11	283.714
1041.48	241.967
1044.86	178.944
1048.23	114.92
1051.61	59.2393
1054.98	15.2989
1058.36	10.1796
1061.73	21.083
1065.11	25.0494
1068.48	21.479
1071.86	8.55701
1075.23	2.2356
1078.6	9.50867
1081.98	15.177
1085.35	27.662
1088.73	37.4048
1092.1	56.3507
1095.48	84.8772
1098.85	129.093
1102.23	174.687
1105.6	223.066
1108.98	251.344
1112.35	266.516
1115.73	254.123
1119.1	211.041
1122.48	164.203
1125.85	123.363
1129.23	103.124
1132.6	108.463
1135.98	148.263
1139.35	192.752
1142.73	233.743
1146.1	259.921
1149.48	260.252
1152.85	254.465
1156.22	241.573
1159.6	209.244
1162.97	181.964
1166.35	158.199
1169.72	158.225
1173.1	186.338
1176.47	236.248
1179.85	298.667
1183.22	330.837
1186.6	316.936
1189.97	262.056
1193.35	221.308
1196.72	207.327
1200.1	205.045
1203.47	210.188
1206.85	214.045
1210.22	189.498
1213.6	153.334
1216.97	130.101
1220.35	119.613
1223.72	131.676
1227.1	159.686
1230.47	206.547
1233.85	230.888
1237.22	225.094
1240.6	180.515
1243.97	120.509
1247.35	69.2047
1250.72	39.052
1254.1	11.291
1257.47	0.008667
1260.85	9.98071
1264.22	12.5691
1267.59	12.821
1270.97	1.53577
1274.34	12.7575
1277.72	26.6827
1281.09	47.5139
1284.47	45.7188
1287.84	33.2947
1291.22	25.4209
1294.59	20.2266
1297.97	9.06067
1301.34	1.04053
