Measurement: Raman, 780 nm, unoriented, Raman Data Processed
Mineral: Nifontovite
Rruff sample: R060685
Ideal chemistry: Ca_3_[BO(OH)_2_]_6_2H_2_O
Locality: Fuka mine, Okayama Prefecture, Japan
Source: Michael Scott
Description: Colorless prismatic crystal
Measured chemistry: Ca_3.00_[BO(OH)_2_]_6_Â·2H_2_O ; = darker phase. H_2_O assumed ideal from stoichiometry; B_2_O_3_ estimated by difference
Raman shift (cm-1)	intensity
90.5957	0
93.9705	172.977
97.3453	78.9934
100.72	66.0182
104.095	13.1009
107.47	5.32165
110.845	4.43176
114.219	84.6624
117.594	360.249
120.969	827.95
124.344	780.854
127.719	374.587
131.094	145.824
134.468	93.7186
137.843	85.263
141.218	98.233
144.593	7.38098
147.968	12.6578
151.342	32.289
154.717	1.80325
158.092	34.1823
161.467	108.908
164.842	117.937
168.216	145.173
171.591	281.12
174.966	155.364
178.341	50.358
181.716	46.8502
185.09	76.2122
188.465	140.925
191.84	157.903
195.215	82.9998
198.59	46.6885
201.965	42.1004
205.339	29.9982
208.714	40.6576
212.089	73.9197
215.464	88.8247
218.839	97.2355
222.214	131.372
225.588	107.263
228.963	69.4865
232.338	60.5386
235.713	23.404
239.088	0.306732
242.462	3.54025
245.837	0.274536
249.212	10.3618
252.587	24.1785
255.962	57.7523
259.336	121.325
262.711	174.622
266.086	172.026
269.461	185.673
272.836	190.787
276.211	186.155
279.585	84.2763
282.96	15.2182
286.335	0.419861
289.71	4.20679
293.085	4.16373
296.459	39.1187
299.834	93.501
303.209	128.517
306.584	142.636
309.959	111.88
313.334	66.2448
316.708	74.4107
320.083	122.79
323.458	142.178
326.833	79.7705
330.207	36.8344
333.582	38.0644
336.957	20.9082
340.332	5.93765
343.707	0.894379
347.082	6.88565
350.456	0.557953
353.831	6.73785
357.206	0.564178
360.581	18.6146
363.956	66.9794
367.33	138.02
370.705	185.874
374.08	152.33
377.455	110.801
380.83	108.339
384.205	143.249
387.579	194.387
390.954	202.3
394.329	158.495
397.704	130.816
401.079	135.711
404.453	164.796
407.828	209.079
411.203	280.007
414.578	395.253
417.953	559.14
421.327	734.846
424.702	873.638
428.077	773.328
431.452	556.609
434.827	412.092
438.202	314.062
441.576	300.086
444.951	238.733
448.326	135.145
451.701	72.9485
455.076	42.5026
458.45	22.1304
461.825	11.7999
465.2	4.86653
468.575	1.07765
471.95	2.41037
475.325	1.18747
478.699	2.32793
482.074	2.39775
485.449	0.486069
488.824	4.58107
492.199	4.31264
495.573	5.48419
498.948	7.74506
502.323	11.768
505.698	14.0478
509.073	20.4271
512.447	27.8786
515.822	40.0356
519.197	56.8187
522.572	82.6622
525.947	121.75
529.322	178.917
532.696	266.683
536.071	401.198
539.446	534.061
542.821	552.333
546.196	448.6
549.57	335.062
552.945	302.502
556.32	317.453
559.695	300.25
563.07	237.48
566.444	212.202
569.819	246.053
573.194	298.208
576.569	236.105
579.944	123.264
583.319	46.9237
586.693	9.4678
590.068	4.86594
593.443	7.68393
596.818	5.07994
600.193	0.587784
603.567	2.44871
606.942	1.42406
610.317	0.776321
613.692	3.69978
617.067	12.4827
620.442	32.8682
623.816	66.2061
627.191	118.832
630.566	182.371
633.941	243.953
637.316	333.983
640.69	489.242
644.065	764.27
647.44	1360.38
650.815	2546.52
654.19	2922.88
657.564	1393.87
660.939	534.645
664.314	238.769
667.689	117.437
671.064	60.5828
674.439	31.8014
677.813	14.6747
681.188	10.1847
684.563	8.45392
687.938	13.6846
691.313	25.6985
694.688	44.4875
698.062	75.0315
701.437	127.74
704.812	207.852
708.187	329.889
711.562	504.667
714.936	721.712
718.311	887.995
721.686	854.529
725.061	627.536
728.436	386.596
731.81	228.695
735.185	137.256
738.56	90.376
741.935	64.6676
745.31	50.3136
748.684	43.5155
752.059	34.2557
755.434	23.6765
758.809	13.3328
762.184	4.0804
765.559	1.62965
768.933	2.86113
772.308	6.18556
775.683	3.32277
779.058	0.911163
782.433	6.00565
785.808	14.4922
789.182	28.5144
792.557	45.7129
795.932	67.5252
799.307	94.9238
802.682	128.015
806.056	147.033
809.431	123.743
812.806	90.9989
816.181	77.8755
819.556	72.6992
822.93	68.3333
826.305	60.2007
829.68	49.0786
833.055	35.5949
836.43	25.3958
839.804	14.274
843.179	9.0851
846.554	3.34186
849.929	4.16055
853.304	2.78081
856.679	0.656311
860.053	1.1627
863.428	0.564972
866.803	0.032257
870.178	0.493439
873.553	1.62962
876.927	4.60841
880.302	12.1967
883.677	25.1753
887.052	41.1863
890.427	56.9117
893.802	58.5841
897.176	50.4342
900.551	46.9489
903.926	42.4592
907.301	41.8835
910.676	44.8583
914.05	47.0911
917.425	42.348
920.8	35.3189
924.175	30.3109
927.55	28.8416
930.924	25.9757
934.299	25.2659
937.674	19.8678
941.049	12.6956
944.424	5.28612
947.799	1.77486
951.173	0.987427
954.548	0.019608
957.923	3.03375
961.298	4.5994
964.673	5.9904
968.047	7.56609
971.422	8.26089
974.797	7.59349
978.172	7.3667
981.547	7.12016
984.922	9.73218
988.296	11.2098
991.671	9.95381
995.046	6.99674
998.421	6.20503
1001.8	5.8902
1005.17	8.98302
1008.54	15.5105
1011.92	18.4065
1015.29	24.4249
1018.67	26.9817
1022.04	28.5197
1025.42	29.3013
1028.79	29.5389
1032.17	28.003
1035.54	28.8266
1038.92	26.9573
1042.29	23.3063
1045.67	15.5174
1049.04	8.78883
1052.42	2.52377
1055.79	1.77712
1059.17	3.65423
1062.54	2.29736
1065.92	1.36115
1069.29	1.44426
1072.67	1.83757
1076.04	5.41072
1079.42	7.396
1082.79	8.68816
1086.17	9.20453
1089.54	11.9104
1092.92	15.5252
1096.29	19.8828
1099.66	24.8503
1103.04	32.4982
1106.41	36.9326
1109.79	41.5865
1113.16	39.6018
1116.54	33.8233
1119.91	26.2783
1123.29	16.1366
1126.66	11.4532
1130.04	6.95248
1133.41	5.85901
1136.79	6.8428
1140.16	11.4534
1143.54	13.4161
1146.91	16.0955
1150.29	15.6462
1153.66	15.2565
1157.04	13.2926
1160.41	9.61323
1163.79	6.87076
1167.16	4.21945
1170.54	4.47926
1173.91	6.91669
1177.29	12.6529
1180.66	17.1608
1184.04	21.4637
1187.41	18.9564
1190.79	16.0811
1194.16	12.7983
1197.54	12.1238
1200.91	13.6133
1204.28	14.1933
1207.66	13.8229
1211.03	13.0272
1214.41	13.1348
1217.78	13.2954
1221.16	16.5841
1224.53	22.6987
1227.91	30.4146
1231.28	38.3336
1234.66	42.1086
1238.03	38.173
1241.41	30.743
1244.78	19.3386
1248.16	11.9788
1251.53	5.56554
1254.91	2.01522
1258.28	0.830528
1261.66	0.459869
1265.03	0.786766
1268.41	0.40033
1271.78	2.40666
1275.16	2.62976
1278.53	1.89713
1281.9	1.80824
