Measurement: Raman, 780 nm, unoriented, Raman Data Processed
Mineral: Nitrocalcite
Rruff sample: R120047
Ideal chemistry: Ca(N^5+^O_3_)_2_4H_2_O
Locality: Christmas mine, Gila County, Arizona, USA
Source: Bob Jenkins
Description: White to colorless needles
Raman shift (cm-1)	intensity
91.1996	0
94.5744	79.0403
97.9492	40.5706
101.324	43.3513
104.699	110.595
108.074	173.115
111.448	236.419
114.823	296.065
118.198	327.416
121.573	315.694
124.948	263.207
128.322	198.142
131.697	120.381
135.072	60.7341
138.447	18.9539
141.822	5.58789
145.197	6.64307
148.571	7.12134
151.946	26.0852
155.321	57.9731
158.696	101.127
162.071	149.733
165.446	196.468
168.82	233.677
172.195	271.13
175.57	294.654
178.945	316.533
182.32	352.186
185.694	402.526
189.069	447.127
192.444	465.932
195.819	434.2
199.194	357.397
202.569	265.797
205.943	183.016
209.318	110.401
212.693	61.3823
216.068	31.949
219.442	5.7926
222.817	1.1593
226.192	6.43872
229.567	9.33948
232.942	6.21875
236.317	1.34253
239.691	1.32483
243.066	5.17517
246.441	11.5029
249.816	13.4399
253.191	16.8997
256.565	21.5126
259.94	34.8237
263.315	34.6636
266.69	38.4266
270.065	46.6664
273.44	50.7163
276.814	54.9088
280.189	61.3289
283.564	62.6414
286.939	54.3062
290.314	55.9502
293.688	47.48
297.063	42.2726
300.438	39.4355
303.813	40.7918
307.188	39.2651
310.562	37.0027
313.937	32.9582
317.312	32.1741
320.687	33.083
324.062	29.8634
327.437	29.4199
330.811	24.8927
334.186	19.958
337.561	29.5839
340.936	20.8815
344.311	15.8102
347.685	11.0072
351.06	15.7141
354.435	17.0395
357.81	16.3363
361.185	16.5609
364.56	14.4271
367.934	17.787
371.309	11.8972
374.684	3.07239
378.059	2.02917
381.434	2.67529
384.808	4.6897
388.183	7.41968
391.558	3.52148
394.933	3.04663
398.308	0.29248
401.683	1.65686
405.057	2.7135
408.432	2.73291
411.807	0.861938
415.182	0.418823
418.557	1.3977
421.931	0.78186
425.306	0.206055
428.681	2.87683
432.056	4.86511
435.431	5.84119
438.805	7.76038
442.18	8.6217
445.555	6.21289
448.93	5.62207
452.305	10.8357
455.68	7.50806
459.054	12.0754
462.429	11.6967
465.804	10.2198
469.179	6.59253
472.554	10.9802
475.928	7.70764
479.303	10.6659
482.678	10.0714
486.053	6.81091
489.428	8.98779
492.803	7.55457
496.177	8.90247
499.552	0.503174
502.927	11.137
506.302	3.59973
509.677	4.20239
513.051	7.71155
516.426	5.28918
519.801	2.70288
523.176	0.022217
526.551	4.03027
529.926	0.819824
533.3	0.363281
536.675	3.09912
540.05	2.97803
543.425	0.697388
546.799	6.01502
550.174	3.65698
553.549	3.2572
556.924	6.1626
560.299	7.27295
563.674	4.93433
567.048	2.15259
570.423	0.203857
573.798	8.83582
577.173	5.76269
580.548	5.06555
583.923	6.29773
587.297	6.18628
590.672	6.28503
594.047	4.04785
597.422	4.99963
600.797	7.72607
604.171	7.1886
607.546	3.18738
610.921	8.49133
614.296	2.9364
617.671	5.63977
621.045	4.96411
624.42	8.4021
627.795	7.11231
631.17	10.3701
634.545	13.6676
637.919	12.3697
641.294	13.5593
644.669	8.12903
648.044	6.07849
651.419	3.92383
654.794	2.29553
658.168	4.08545
661.543	1.26794
664.918	1.74072
668.293	1.51306
671.668	3.10327
675.043	2.78101
678.417	1.37781
681.792	3.30078
685.167	0.593506
688.542	0.692017
691.917	0.025879
695.291	0.49707
698.666	2.57788
702.041	2.38379
705.416	5.81262
708.791	9.92322
712.165	9.177
715.54	11.0996
718.915	16.6782
722.29	25.1791
725.665	57.6121
729.039	93.4587
732.414	131.851
735.789	228.664
739.164	432.894
742.539	263.33
745.914	88.2657
749.288	32.4066
752.663	16.4928
756.038	7.39002
759.413	3.12952
762.788	4.61682
766.163	10.275
769.537	4.20642
772.912	0.65625
776.287	2.20654
779.662	0.948975
783.037	1.53638
786.411	1.02344
789.786	5.94263
793.161	7.32629
796.536	2.80676
799.911	4.72034
803.285	4.73254
806.66	13.4518
810.035	11.8722
813.41	8.85828
816.785	15.8854
820.159	17.809
823.534	11.6769
826.909	14.6343
830.284	10.0185
833.659	8.58142
837.034	20.3713
840.408	12.4752
843.783	21.0693
847.158	13.8329
850.533	17.0868
853.908	12.8677
857.283	20.3209
860.657	18.2535
864.032	17.9696
867.407	18.2626
870.782	17.3604
874.157	11.221
877.531	7.41846
880.906	5.78455
884.281	12.4259
887.656	12.9386
891.031	4.7052
894.405	10.2565
897.78	1.13232
901.155	2.66492
904.53	6.87341
907.905	1.07349
911.279	1.09692
914.654	1.93591
918.029	7.57214
921.404	1.07044
924.779	2.40137
928.154	1.927
931.528	8.07629
934.903	8.3186
938.278	5.03516
941.653	7.05396
945.028	1.9259
948.403	3.58643
951.777	4.38928
955.152	3.5238
958.527	6.4054
961.902	3.03503
965.277	1.32898
968.651	0.514282
972.026	3.13379
975.401	1.75586
978.776	1.87537
982.151	7.29871
985.525	0.763184
988.9	0.770264
992.275	2.98377
995.65	0.792847
999.025	7.00488
1002.4	0.314941
1005.77	5.50085
1009.15	7.66553
1012.52	4.01172
1015.9	10.8597
1019.27	10.7581
1022.65	11.0532
1026.02	21.9087
1029.4	39.6768
1032.77	59.0609
1036.15	97.451
1039.52	143.585
1042.9	200.533
1046.27	250.411
1049.65	292.077
1053.02	411.903
1056.4	685.274
1059.77	919.551
1063.15	1613.39
1066.52	2574.44
1069.9	819.417
1073.27	181.387
1076.64	80.3724
1080.02	44.5845
1083.39	33.8969
1086.77	27.1993
1090.14	24.4476
1093.52	22.1818
1096.89	8.98377
1100.27	6.57031
1103.64	6.40198
1107.02	10.7031
1110.39	7.45288
1113.77	3.11816
1117.14	2.40002
1120.52	0.798218
1123.89	3.19592
1127.27	2.36633
1130.64	1.34253
1134.02	0.543701
1137.39	0.226807
1140.77	7.79688
1144.14	0.739136
1147.52	3.06189
1150.89	4.3053
1154.27	1.83136
1157.64	2.02801
1161.02	4.29102
1164.39	1.40094
1167.77	7.52173
1171.14	8.30743
1174.52	8.71735
1177.89	10.996
1181.27	11.4769
1184.64	7.26129
1188.01	6.27924
1191.39	8.06659
1194.76	6.8161
1198.14	4.49023
1201.51	8.98236
1204.89	7.12042
1208.26	0.499084
1211.64	2.72424
1215.01	4.09119
1218.39	3.14056
1221.76	4.69971
1225.14	7.57782
1228.51	1.18323
1231.89	4.07031
1235.26	3.7735
1238.64	3.55749
1242.01	2.2691
1245.39	1.00861
1248.76	1.46332
1252.14	1.45264
1255.51	4.33618
1258.88	3.36481
1262.26	0.043457
1265.63	4.82483
1269.01	3.24085
1272.38	3.32117
1275.76	3.59009
1279.13	1.13336
1282.51	4.78253
