Measurement: Raman, 532 nm, unoriented, Raman Data Processed
Mineral: Nitrocalcite
Rruff sample: R120047
Ideal chemistry: Ca(N^5+^O_3_)_2_4H_2_O
Locality: Christmas mine, Gila County, Arizona, USA
Source: Bob Jenkins
Description: White to colorless needles
Raman shift (cm-1)	intensity
245.567	0
248.46	1.31006
251.353	2.94421
254.245	5.84619
257.138	4.34729
260.031	9.47376
262.924	1.92834
265.816	5.95606
268.709	7.50586
271.602	1.32593
274.494	3.08398
277.387	7.16052
280.28	2.33887
283.173	1.54541
286.065	2.90515
288.958	6.36597
291.851	4.18164
294.743	3.84424
297.636	0.764648
300.529	3.86719
303.421	1.88257
306.314	0.512939
309.207	3.77368
312.099	4.25403
314.992	5.4967
317.885	3.37647
320.778	2.69629
323.67	1.8075
326.563	3.98523
329.456	11.7856
332.348	7.91211
335.241	9.54578
338.134	4.43762
341.027	14.6246
343.919	13.8132
346.812	14.9627
349.705	17.1811
352.597	15.4281
355.49	26.6621
358.383	11.5428
361.276	8.38098
364.168	7.28528
367.061	12.8888
369.954	10.9404
372.846	11.5044
375.739	6.25732
378.632	16.8289
381.524	8.44543
384.417	5.80652
387.31	5.72412
390.202	15.1849
393.095	14.911
395.988	13.8777
398.881	6.88843
401.773	5.96704
404.666	4.80884
407.559	4.97803
410.451	7.6311
413.344	12.7463
416.237	5.85767
419.13	3.67041
422.022	2.10889
424.915	6.23755
427.808	2.32251
430.7	7.13745
433.593	3.39111
436.486	5.30689
439.378	4.90894
442.271	12.7949
445.164	11.2288
448.057	6.36548
450.949	3.60767
453.842	1.4668
456.735	0.434326
459.627	1.24561
462.52	1.50879
465.413	1.37793
468.305	6.1355
471.198	4.62939
474.091	9.20459
476.983	17.3149
479.876	11.5708
482.769	6.92163
485.662	4.05518
488.554	2.63062
491.447	5.67847
494.34	5.31592
497.232	5.55981
500.125	8.25122
503.018	9.55322
505.911	3.55103
508.803	5.57739
511.696	5.32861
514.589	2.15649
517.481	2.77344
520.374	18.5996
523.267	7.66138
526.159	7.39356
529.052	2.61108
531.945	2.28638
534.837	10.9338
537.73	10.6284
540.623	9.2915
543.516	6.92456
546.408	3.57715
549.301	7.23022
552.194	11.3008
555.086	4.68311
557.979	6.47681
560.872	3.14941
563.764	4.38477
566.657	0.371582
569.55	0.627686
572.443	1.59546
575.335	0.013428
578.228	3.32178
581.121	2.59302
584.013	4.84424
586.906	11.6352
589.799	9.20923
592.692	11.75
595.584	7.69653
598.477	10.7234
601.37	9.08252
604.262	9.52002
607.155	18.0574
610.048	13.3933
612.94	7.61206
615.833	4.72339
618.726	16.2873
621.619	17.6873
624.511	11.6812
627.404	8.00244
630.297	11.8584
633.189	9.63257
636.082	12.084
638.975	8.9978
641.867	2.3418
644.76	1.56982
647.653	0.116455
650.545	1.52515
653.438	11.9341
656.331	13.9773
659.224	6.42822
662.116	3.60107
665.009	3.20337
667.902	3.32642
670.794	1.63306
673.687	2.24194
676.58	3.63306
679.472	2.69971
682.365	1.98193
685.258	3.82031
688.151	2.12305
691.043	13.3442
693.936	12.5884
696.829	11.8145
699.721	10.5708
702.614	12.4404
705.507	16.8501
708.399	31.3147
711.292	28.8267
714.185	37.8975
717.078	46.8872
719.97	52.0347
722.863	56.4722
725.756	50.9939
728.648	45.5525
731.541	48.9697
734.434	54.0693
737.327	65.3181
740.219	80.2109
743.112	92.0398
746.005	100.704
748.897	86.8855
751.79	66.6697
754.683	34.634
757.575	20.9299
760.468	14.3547
763.361	12.3052
766.254	5.49976
769.146	17.2183
772.039	8.27222
774.932	9.03394
777.824	5.76685
780.717	7.88379
783.61	3.80737
786.502	1.41748
789.395	0.808838
792.288	7.90356
795.181	11.0137
798.073	6.77246
800.966	5.97632
803.859	3.57642
806.751	10.9844
809.644	18.3457
812.537	15.9458
815.429	20.033
818.322	23.2148
821.215	34.4504
824.107	34.5046
827	28.6362
829.893	19.8696
832.786	23.1179
835.678	19.9324
838.571	18.394
841.464	24.1853
844.356	24.3682
847.249	23.3547
850.142	15.1296
853.034	19.417
855.927	30.1245
858.82	29.5112
861.713	23.75
864.605	21.8357
867.498	20.9475
870.391	26.217
873.283	19.9561
876.176	15.5491
879.069	10.6401
881.962	3.44482
884.854	0.723633
887.747	0.111572
890.64	4.948
893.532	6.14697
896.425	8.06641
899.318	15.4724
902.21	13.062
905.103	10.3135
907.996	10.7002
910.889	13.3845
913.781	20.7993
916.674	12.418
919.567	16.4534
922.459	16.166
925.352	18.9624
928.245	11.0886
931.137	11.594
934.03	17.8921
936.923	19.7473
939.816	19.0254
942.708	10.9492
945.601	17.8044
948.494	10.1982
951.386	8.37451
954.279	1.25684
957.172	1.33301
960.064	2.52563
962.957	6.4729
965.85	7.80933
968.742	14.7412
971.635	9.1123
974.528	10.3347
977.421	4.48657
980.313	5.62427
983.206	1.5249
986.099	1.40576
988.991	6.27686
991.884	12.2688
994.777	0.5625
997.669	3.74194
1000.56	5.17847
1003.46	6.77319
1006.35	0.813477
1009.24	7.1062
1012.13	12.0945
1015.03	10.7053
1017.92	13.8965
1020.81	15.937
1023.7	18.6279
1026.6	39.044
1029.49	68.2302
1032.38	115.114
1035.28	183.928
1038.17	286.836
1041.06	441.901
1043.95	643.279
1046.85	839.962
1049.74	995.315
1052.63	1054.19
1055.52	1001.34
1058.42	863.417
1061.31	657.875
1064.2	457.596
1067.09	287.466
1069.99	179.617
1072.88	106.513
1075.77	70.0603
1078.66	41.6887
1081.56	28.4311
1084.45	30.5557
1087.34	25.1018
1090.24	14.6191
1093.13	15.9905
1096.02	1.54736
1098.91	7.60327
1101.81	3.20483
1104.7	4.23022
1107.59	2.3081
1110.48	13.7378
1113.38	17.4358
1116.27	16.4521
1119.16	16.9627
1122.06	9.40405
1124.95	4.99683
1127.84	0.005127
1130.73	2.94238
1133.63	0.33252
1136.52	7.02026
1139.41	6.3335
1142.3	0.037842
1145.2	1.79077
1148.09	4.86841
1150.98	4.61621
1153.88	1.11865
1156.77	7.98657
1159.66	0.564941
1162.55	2.96948
1165.45	0.04126
1168.34	1.84668
1171.23	2.9043
1174.12	11.3918
1177.02	11.2019
1179.91	9.84473
1182.8	17.2864
1185.69	16.1038
1188.59	2.87353
1191.48	2.53613
1194.37	1.77051
1197.27	14.166
1200.16	8.83032
1203.05	8.18262
1205.94	11.7532
1208.84	2.95459
1211.73	14.1553
1214.62	12.1338
1217.52	9.18604
1220.41	3.9585
1223.3	9.44214
1226.19	14.8081
1229.09	4.17188
1231.98	8.88062
1234.87	4.22729
1237.76	6.27271
1240.66	1.26001
1243.55	12.0413
1246.44	15.0225
1249.33	11.8565
1252.23	7.96484
1255.12	5.76269
1258.01	13.7842
1260.9	14.3896
1263.8	17.0664
1266.69	7.42944
1269.58	10.1504
1272.48	13.5557
1275.37	5.53101
1278.26	15.5444
1281.15	14.3962
1284.05	11.6345
1286.94	4.427
1289.83	1.93408
1292.72	7.61255
1295.62	7.12378
1298.51	5.29517
1301.4	4.46314
