Measurement: Raman, 785 nm, unoriented, Raman Data Processed
Mineral: Nontronite
Rruff sample: X050120
Ideal chemistry: Na_0.3_Fe^3+^_2_(Si,Al)_4_O_10_(OH)_2_nH_2_O
Locality: Garfield, near Spokane, Washington
Source: CIT H-33a
Raman shift (cm-1)	intensity
228	0
232	4.734
236	20.572
240	36.332
244	33.105
248	20.307
252	6.722
256	1.955
260	0.075
264	0.067
268	3.017
272	8.701
276	9.701
280	9.472
284	20.252
288	23.99
292	15.504
296	8.284
300	5.514
304	2.139
308	0.032
312	0.175
316	2.787
320	2.916
324	5.128
328	3.37
332	1.867
336	0.772
340	0.02
344	0.369
348	0.245
352	0.557
356	2.312
360	4.587
364	5.69
368	3.396
372	2.75
376	0.274
380	0.778
384	1.228
388	0.716
392	3.422
396	1.73
400	1.004
404	0.733
408	0.942
412	1.654
416	4.48
420	5.221
424	6.302
428	5.814
432	6.191
436	2.125
440	1.063
444	1.11
448	0.462
452	1.327
456	0.952
460	0.826
464	1.127
468	0.775
472	0.097
476	0.6
480	1.408
484	1.25
488	0.11
492	2.304
496	2.025
500	1.099
504	2.476
508	1.945
512	3.291
516	0.58
520	1.075
524	0.012
528	0.222
532	1.075
536	1.761
540	2.378
544	1.061
548	0.245
552	1.192
556	1.503
560	0.856
564	0.705
568	0.6
572	0.562
576	0.04
580	1.326
584	1.159
588	1.834
592	0.465
596	1.117
600	1.524
604	1.284
608	1.472
612	0.979
616	2.575
620	1.198
624	0.184
628	1.663
632	0.783
636	0.123
640	0.76
644	0.368
648	0.666
652	0.743
656	0.417
660	1.069
664	1.061
668	0.234
672	2.091
676	2.693
680	4.695
684	5.538
688	4.183
692	2.32
696	0.496
700	0.539
704	0.811
708	0.307
712	0.541
716	0.269
720	0.21
724	0.311
728	0.317
732	0.228
736	0.292
740	0.759
744	1.563
748	1.701
752	0.638
756	1.517
760	0.393
764	0.336
768	0.289
772	0.063
776	0.001
780	1.335
784	0.122
788	0.439
792	0.412
796	0.568
800	0.768
804	0.424
808	0.507
812	1.697
816	0.845
820	1.566
824	0.881
828	1.714
832	0.241
836	0.647
840	1.38
844	0.384
848	2.537
852	0.871
856	0.367
860	0.626
864	0.335
868	0.945
872	0.032
876	1.539
880	3.672
884	4.376
888	4.234
892	3.924
896	1.991
900	1.676
904	0.084
908	0.171
912	0.352
916	0.908
920	0.263
924	1.689
928	1.047
932	0.325
936	0.843
940	0.724
944	1.137
948	0.896
952	0.207
956	0.123
960	1.474
964	1.546
968	0.893
972	0.813
976	0.726
980	0.816
984	1.117
988	1.027
992	1.882
996	0.188
1000	0.582
1004	1.412
1008	0.486
1012	1.695
1016	0.911
1020	0.073
1024	0.041
1028	0.241
1032	0.498
1036	0.776
1040	1.12
1044	0.525
1048	0.508
1052	0.49
1056	1.087
1060	0.573
1064	0.031
1068	0.744
1072	0.899
1076	1.365
1080	1.59
1084	1.737
1088	0.839
1092	0.445
1096	1.472
1100	0.55
1104	0.457
1108	0.74
1112	0.339
1116	0.138
1120	0.978
1124	1.801
1128	0.06
1132	0.77
1136	1.105
1140	1.349
1144	0.811
1148	1.321
1152	0.145
1156	0.969
1160	0.27
1164	1.552
1168	1.49
1172	1.763
1176	0.421
1180	0.708
1184	0.436
1188	0.349
1192	0.327
1196	1.031
1200	1.3
1204	0.615
1208	0.699
1212	0.141
1216	1.111
1220	0.689
1224	0.168
1228	0.711
1232	1.152
1236	0.636
1240	0.376
1244	0.515
1248	0.908
1252	0.918
1256	0.099
1260	0.57
1264	0.705
1268	0.844
1272	0.983
1276	0.059
1280	0.379
1284	0.627
1288	0.879
1292	0.915
1296	0.42
1300	0.069
1304	0.181
1308	2.003
1312	2.397
1316	2.221
1320	2.113
1324	1.231
1328	2.422
1332	1.968
1336	1.038
1340	1.318
1344	0.39
1348	1.819
1352	1.673
1356	1.253
1360	2.349
1364	1.287
1368	0.091
1372	1.137
1376	1.778
1380	0.585
1384	0.173
1388	1.957
1392	0.868
1396	1.658
1400	1.929
1404	1.814
1408	0.406
1412	1.862
1416	0.862
1420	1.954
1424	0.106
1428	1.282
1432	1.493
1436	1.391
1440	0.795
1444	1.623
1448	1.109
1452	1.762
1456	0.678
1460	0.152
1464	0.956
1468	0.741
1472	1.245
1476	1.993
1480	2.639
1484	1.72
1488	3.182
1492	1.081
1496	1.858
1500	0
