Measurement: Raman, 532 nm, unoriented, Raman Data Processed
Mineral: Nordite-(Ce)
Rruff sample: R130530
Ideal chemistry: Na_3_Sr^2+^Ce^3+^Zn^2+^Si_6_O_17_
Locality: Karnasurt Mt., Lovosero Massif, Kola Peninsula, Russia
Source: Rock Currier
Description: Pale brownish tabular crystals in rosette-like aggregates, associated with ussingite
Measured chemistry: Na_2.96_(Sr_1.10_Ba_0.02_)_Σ=1.12_(Ce_0.52_La_0.35_Nd_0.06_Pr_0.04_Ca_0.04_)_Σ=1.01_(Zn_0.335_Mn_0.329_Fe_0.19_Mg_0.12_)_Σ=0.97_Si_5.96_O_17_ ;   Dark phase is ussingite.
Raman shift (cm-1)	intensity
133.456	0
136.831	24.929
140.205	47.813
143.58	26.8081
146.955	34.9856
150.33	6.08984
153.705	30.9395
157.079	100.478
160.454	55.7197
163.829	43.3779
167.204	38.425
170.579	57.3899
173.953	19.3928
177.328	12.9531
180.703	11.3474
184.078	10.0466
187.453	50.8877
190.828	68.8806
194.202	51.1975
197.577	70.3196
200.952	66.2422
204.327	68.2913
207.702	91.8689
211.077	92.0002
214.451	84.5933
217.826	69.2632
221.201	52.1477
224.576	31.9524
227.951	28.8425
231.325	15.1653
234.7	7.7644
238.075	2.77173
241.45	7.26929
244.825	8.07764
248.2	27.2627
251.574	10.6853
254.949	3.95312
258.324	5.33496
261.699	37.199
265.074	76.0071
268.448	101.793
271.823	168.974
275.198	254.853
278.573	360.662
281.948	497.365
285.322	612.457
288.697	628.996
292.072	620.478
295.447	661.596
298.822	709.549
302.197	712.811
305.571	731.25
308.946	723.52
312.321	681.198
315.696	631.251
319.071	569.734
322.445	460.715
325.82	365.231
329.195	285.472
332.57	222.229
335.945	173.19
339.32	138.638
342.694	83.7532
346.069	74.5835
349.444	65.675
352.819	50.1792
356.194	45.167
359.568	22.7959
362.943	25.991
366.318	47.0725
369.693	38.1802
373.068	10.5676
376.442	10.3396
379.817	11.0041
383.192	11.4521
386.567	3.00317
389.942	28.0959
393.317	58.1043
396.691	48.2966
400.066	57.6494
403.441	80.4883
406.816	73.7112
410.191	89.6536
413.565	92.6482
416.94	104.303
420.315	141.572
423.69	156.467
427.065	108.102
430.44	57.1245
433.814	47.0276
437.189	42.2747
440.564	16.7722
443.939	16.6519
447.314	27.5476
450.688	67.5942
454.063	148.384
457.438	231.075
460.813	289.769
464.188	284.008
467.563	286.595
470.937	278.959
474.312	238.232
477.687	183.162
481.062	120.031
484.437	73.8096
487.812	32.2576
491.186	9.19458
494.561	13.073
497.936	14.0007
501.311	45.3613
504.686	79.5684
508.06	88.6558
511.435	106.409
514.81	99.782
518.185	99.2883
521.56	85.771
524.934	55.7432
528.309	39.5559
531.684	33.6668
535.059	24.0566
538.434	40.3198
541.809	52.9312
545.183	71.9463
548.558	83.999
551.933	91.3272
555.308	114.077
558.683	97.4026
562.058	77.6394
565.432	83.4775
568.807	88.5891
572.182	87.2461
575.557	62.7461
578.932	37.9124
582.306	32.3047
585.681	19.6877
589.056	16.2639
592.431	9.49414
595.806	8.32324
599.181	12.0886
602.555	5.46094
605.93	5.95288
609.305	22.6235
612.68	84.3667
616.055	151.119
619.429	273.716
622.804	498.144
626.179	922.558
629.554	1540.74
632.929	2375.92
636.303	3492.57
639.678	4461.01
643.053	3932.44
646.428	2628.64
649.803	2253.63
653.178	2207.03
656.552	1726.24
659.927	1047.55
663.302	601.284
666.677	358.322
670.052	221.302
673.427	134.082
676.801	88.9875
680.176	58.6782
683.551	24.3496
686.926	24.7305
690.301	11.52
693.675	3.06079
697.05	0.263184
700.425	1.229
703.8	3.89551
707.175	5.66455
710.549	6.10938
713.924	2.95288
717.299	4.6167
720.674	5.86597
724.049	11.4412
727.423	12.5713
730.798	36.0344
734.173	26.5571
737.548	44.8789
740.923	50.5903
744.298	52.9033
747.672	78.1335
751.047	93.6042
754.422	119.805
757.797	151.655
761.172	222.483
764.547	304.559
767.921	404.096
771.296	481.442
774.671	445.689
778.046	273.866
781.421	152.205
784.795	64.0513
788.17	33.6123
791.545	23.3533
794.92	8.85791
798.295	5.94751
801.669	6.91919
805.044	12.6926
808.419	12.762
811.794	12.5603
815.169	13.897
818.544	28.0107
821.918	41.8396
825.293	47.1462
828.668	39.1626
832.043	24.2034
835.418	5.24439
838.793	18.3394
842.167	6.83276
845.542	6.68823
848.917	9.01831
852.292	0.872314
855.667	14.6201
859.041	7.21094
862.416	20.458
865.791	12.0024
869.166	33.2219
872.541	25.5095
875.915	15.9146
879.29	20.7444
882.665	18.7139
886.04	15.0666
889.415	36.9507
892.79	37.2224
896.164	47.4211
899.539	36.1528
902.914	8.45044
906.289	5.37061
909.664	5.82471
913.038	9.47827
916.413	4.12573
919.788	24.7151
923.163	88.2581
926.538	181.003
929.913	323.691
933.287	512.314
936.662	725.114
940.037	768.698
943.412	558.487
946.787	318.546
950.162	166.959
953.536	53.6863
956.911	12.7505
960.286	4.85718
963.661	8.6936
967.036	7.16382
970.41	3.51025
973.785	40.7395
977.16	100.718
980.535	160.81
983.91	214.516
987.284	315.764
990.659	512.466
994.034	799.468
997.409	1153.5
1000.78	1553.62
1004.16	1739.33
1007.53	1351.32
1010.91	868.109
1014.28	644.51
1017.66	544.543
1021.03	487.957
1024.41	526.662
1027.78	661.789
1031.16	883.015
1034.53	1219.41
1037.91	1377.55
1041.28	980.279
1044.66	586.202
1048.03	393.512
1051.41	321.785
1054.78	248.392
1058.16	172.13
1061.53	107.888
1064.9	68.5149
1068.28	43.1328
1071.65	33.9221
1075.03	20.6934
1078.4	17.8831
1081.78	3.38599
1085.15	7.07764
1088.53	4.60571
1091.9	0.488525
1095.28	2.83423
1098.65	0.747803
1102.03	9.3081
1105.4	5.00098
1108.78	10.7031
1112.15	8.19946
1115.53	14.1855
1118.9	7.93921
1122.28	11.572
1125.65	20.8909
1129.03	13.1072
1132.4	17.4578
1135.78	29.7166
1139.15	41.334
1142.53	44.3674
1145.9	50.3625
1149.28	52.7009
1152.65	66.0774
1156.03	76.178
1159.4	81.8252
1162.78	97.6523
1166.15	108.663
1169.53	106.205
1172.9	105.614
1176.27	113.134
1179.65	141.28
1183.02	164.368
1186.4	188.943
1189.77	198.35
1193.15	208.455
1196.52	214.346
1199.9	195.803
1203.27	210.148
1206.65	193.867
1210.02	192.148
1213.4	176.182
1216.77	163.151
1220.15	133.4
1223.52	116.841
1226.9	78.0625
1230.27	46.1526
1233.65	16.3406
1237.02	6.89917
1240.4	13.3879
1243.77	5.54614
1247.14	33.8643
1250.52	52.499
1253.89	83.9717
1257.27	115.429
1260.64	134.964
1264.02	154.734
1267.39	174.537
1270.77	146.273
1274.14	116.337
1277.52	97.0957
1280.89	95.2261
1284.27	71.7754
1287.64	58.7778
1291.02	37.3816
1294.39	27.4793
1297.77	10.6697
