Measurement: Raman, 532 nm, unoriented, Raman Data Processed
Mineral: Nordite-(La)
Rruff sample: R140310
Ideal chemistry: Na_3_Sr^2+^La^3+^Zn^2+^Si_6_O_17_
Locality: Kukisvumchorr Mt, Khibiny Massif, Kola Peninsula, Murmanskaja Oblast', Northern Region, Russia
Source: Rock Currier
Description: Colorless when thin, grey when thick, with good cleavage
Measured chemistry: Na_3.11_(Sr_0.97_Ca_0.06_Ba_0.01_)_Σ1.04_(La_0.52_Ce_0.49_Nd_0.05_Pr_0.02_)_Σ1.08_(Zn_0.55_Fe_0.17_Mn_0.14_Mg_0.14_)_Σ1.00_Si_5.89_O_17_
Raman shift (cm-1)	intensity
88.1367	0
91.5115	149.997
94.8863	112.63
98.2612	43.4653
101.636	266.719
105.011	831.263
108.386	859.533
111.76	915.826
115.135	1309.16
118.51	1912.79
121.885	2748.27
125.26	3089.17
128.635	3274.81
132.009	4796.44
135.384	5195.29
138.759	4541.71
142.134	3823.03
145.509	3297.62
148.883	2749.36
152.258	2335.98
155.633	2027.98
159.008	1772.04
162.383	1561.78
165.757	1459.91
169.132	1393.49
172.507	1293.02
175.882	940.519
179.257	700.706
182.632	632.196
186.006	606.646
189.381	631.989
192.756	533.898
196.131	393.673
199.506	352.251
202.881	339.5
206.255	391.41
209.63	468.906
213.005	525.917
216.38	489.032
219.755	418.411
223.129	384.882
226.504	326.583
229.879	240.663
233.254	103.034
236.629	7.01074
240.004	34.4346
243.378	67.2803
246.753	158.028
250.128	151.198
253.503	30.9629
256.878	124.482
260.252	79.542
263.627	14.4473
267.002	139.467
270.377	248.773
273.752	376.769
277.127	366.869
280.501	349.085
283.876	434.858
287.251	480.597
290.626	484.917
294.001	599.224
297.375	828.798
300.75	993.692
304.125	1202.73
307.5	1575.15
310.875	2055.95
314.25	2675.29
317.624	3310.52
320.999	3320.8
324.374	2645.28
327.749	1815.86
331.124	984.657
334.498	552.581
337.873	367.716
341.248	356.902
344.623	407.47
347.998	446.841
351.373	374.225
354.747	297.503
358.122	215.818
361.497	153.169
364.872	190.534
368.247	307.119
371.621	284.068
374.996	66.8516
378.371	43.9023
381.746	31.6807
385.121	0.428711
388.495	86.9609
391.87	233.307
395.245	248.488
398.62	132.015
401.995	232.989
405.37	457.647
408.744	429.293
412.119	414.264
415.494	418.144
418.869	421.695
422.244	419.467
425.618	321.269
428.993	165.583
432.368	99.6211
435.743	45.5234
439.118	22.1611
442.493	10.0605
445.867	11.3799
449.242	16.2598
452.617	18.7266
455.992	103.135
459.367	229.274
462.741	350.05
466.116	464.09
469.491	637.329
472.866	469.201
476.241	283.237
479.615	178.151
482.99	58.8721
486.365	2.59668
489.74	8.78906
493.115	8.03711
496.49	53.2207
499.864	122.996
503.239	153
506.614	187.935
509.989	249.778
513.364	281.589
516.739	189.685
520.113	168.974
523.488	166.633
526.863	150.006
530.238	97.6367
533.613	26.9521
536.987	13.0234
540.362	38.3105
543.737	17.0869
547.112	4.64356
550.487	18.3066
553.861	64.1904
557.236	125.509
560.611	78.9111
563.986	47.6943
567.361	84.5176
570.736	108.675
574.11	104.921
577.485	104.671
580.86	77.7285
584.235	40.0605
587.61	26.4443
590.985	0.255859
594.359	29.2725
597.734	10.7432
601.109	34.5127
604.484	30.7129
607.859	92.7471
611.233	121.814
614.608	252.891
617.983	377.072
621.358	597.949
624.733	969.848
628.107	1751.58
631.482	3229.73
634.857	6081.98
638.232	10757.8
641.607	15218.6
644.982	10776.4
648.356	6784.75
651.731	7018.8
655.106	8398.22
658.481	5911.8
661.856	2976.26
665.231	1555.21
668.605	976.585
671.98	635.926
675.355	354.549
678.73	216.878
682.105	153.302
685.479	139.69
688.854	112.028
692.229	47.4316
695.604	28.5361
698.979	2.92188
702.354	32.0977
705.728	8.93066
709.103	15.4414
712.478	6.79883
715.853	1.10644
719.227	12.3613
722.602	45.0244
725.977	48.9404
729.352	45.208
732.727	80.1445
736.102	119.256
739.476	154.176
742.851	116.465
746.226	129.546
749.601	153.283
752.976	186.671
756.351	247.614
759.725	294.403
763.1	362.087
766.475	458.326
769.85	557.423
773.225	623.502
776.599	506.644
779.974	289.591
783.349	193.483
786.724	126.312
790.099	44.0059
793.473	46.4815
796.848	60.3818
800.223	54.581
803.598	8.39746
806.973	3.98633
810.348	3.97852
813.722	10.6377
817.097	2.37598
820.472	33.46
823.847	30.2236
827.222	6.87402
830.597	36.1309
833.971	92.9346
837.346	79.1523
840.721	71.2647
844.096	64.5693
847.471	54.7568
850.846	22.8076
854.22	50.6943
857.595	54.2246
860.97	22.5283
864.345	45.1152
867.72	41.3008
871.094	26.4053
874.469	2.06152
877.844	13.9707
881.219	0.947266
884.594	38.2891
887.968	83.5566
891.343	113.31
894.718	101.073
898.093	91.9404
901.468	57.2812
904.842	40.0215
908.217	0.818359
911.592	1.72461
914.967	19.4668
918.342	68.5547
921.717	128.405
925.091	229.267
928.466	477.022
931.841	859.532
935.216	1478.83
938.591	2032.54
941.966	1986.48
945.34	1187.88
948.715	549.377
952.09	243.239
955.465	80.6455
958.84	11.4404
962.214	9.13379
965.589	16.1465
968.964	24.4316
972.339	14.1182
975.714	94.7959
979.088	191.169
982.463	313.056
985.838	468.731
989.213	841.703
992.588	1456.48
995.963	2434.41
999.337	3827.32
1002.71	5716.84
1006.09	5899.22
1009.46	3903.54
1012.84	2954.69
1016.21	2702.26
1019.59	2305.22
1022.96	1795.12
1026.34	1602.67
1029.71	1862.33
1033.09	2747.64
1036.46	4283.86
1039.84	4576
1043.21	2457.95
1046.59	1150.02
1049.96	613.034
1053.33	378.362
1056.71	255.921
1060.08	141.853
1063.46	57.4062
1066.83	19.6934
1070.21	13.627
1073.58	1.99316
1076.96	11.1162
1080.33	2.20703
1083.71	14.9678
1087.08	7.62109
1090.46	2.69141
1093.83	15.3135
1097.21	5.30371
1100.58	35.165
1103.96	23.626
1107.33	10.2715
1110.71	9.4375
1114.08	4.22168
1117.46	50.9404
1120.83	107.38
1124.21	65.293
1127.58	60.2031
1130.95	28.4121
1134.33	81.0352
1137.7	115.189
1141.08	142.676
1144.45	165.319
1147.83	184.107
1151.2	174.402
1154.58	194.53
1157.95	207.088
1161.33	239.984
1164.7	223.981
1168.08	211.196
1171.45	250.331
1174.83	327.667
1178.2	355.028
1181.58	344.87
1184.95	423.104
1188.33	464.712
1191.7	479.244
1195.08	504.858
1198.45	478.652
1201.83	464.978
1205.2	440.659
1208.58	421.271
1211.95	433.269
1215.33	433.079
1218.7	368.017
1222.08	298.414
1225.45	226.441
1228.83	134.352
1232.2	26.8525
1235.58	2.79688
1238.95	31.1787
1242.32	23.2002
1245.7	81.6816
1249.07	196.127
1252.45	206.342
1255.82	271.45
1259.2	322.715
1262.57	316.727
1265.95	341.463
1269.32	277.152
1272.7	188.065
1276.07	152.074
1279.45	170.931
1282.82	137.811
1286.2	102.147
1289.57	44.7353
1292.95	21.1807
1296.32	36.1904
1299.7	4.63574
