Measurement: Raman, 780 nm, unoriented, Raman Data Processed
Mineral: Nordite-(La)
Rruff sample: R140310
Ideal chemistry: Na_3_Sr^2+^La^3+^Zn^2+^Si_6_O_17_
Locality: Kukisvumchorr Mt, Khibiny Massif, Kola Peninsula, Murmanskaja Oblast', Northern Region, Russia
Source: Rock Currier
Description: Colorless when thin, grey when thick, with good cleavage
Measured chemistry: Na_3.11_(Sr_0.97_Ca_0.06_Ba_0.01_)_Σ1.04_(La_0.52_Ce_0.49_Nd_0.05_Pr_0.02_)_Σ1.08_(Zn_0.55_Fe_0.17_Mn_0.14_Mg_0.14_)_Σ1.00_Si_5.89_O_17_
Raman shift (cm-1)	intensity
87.582	0
90.9569	222.688
94.3317	304.056
97.7065	198.428
101.081	156.351
104.456	346.21
107.831	190.645
111.206	210.882
114.581	206.952
117.955	229.863
121.33	302.797
124.705	237.639
128.08	159.983
131.455	273.423
134.829	310.712
138.204	224.432
141.579	128.433
144.954	29.9883
148.329	23.7124
151.704	50.3981
155.078	17.6855
158.453	5.33276
161.828	31.7941
165.203	1.06085
168.578	44.0611
171.952	9.3266
175.327	42.8721
178.702	11.7038
182.077	3.58624
185.452	38.6032
188.827	20.3905
192.201	46.2357
195.576	15.4208
198.951	22.3212
202.326	55.8025
205.701	94.9044
209.076	109.136
212.45	193.248
215.825	345.952
219.2	394.144
222.575	598.062
225.95	766.296
229.324	972.539
232.699	1230.48
236.074	1592.84
239.449	1966.26
242.824	2101.51
246.198	2152.87
249.573	1976.21
252.948	1715.63
256.323	1408.96
259.698	1126.34
263.073	918.868
266.447	779.39
269.822	579.681
273.197	676.129
276.572	637.298
279.947	796.611
283.322	927.013
286.696	1093.81
290.071	1219.84
293.446	1277.23
296.821	1147.42
300.196	1015.8
303.57	826.527
306.945	669.397
310.32	477.107
313.695	380.08
317.07	237.754
320.445	216.401
323.819	117.086
327.194	4.59497
330.569	7.78931
333.944	70.0519
337.319	73.563
340.693	7.03357
344.068	83.2793
347.443	215.6
350.818	344.985
354.193	507.107
357.567	683.239
360.942	1022.04
364.317	1401.53
367.692	1818.16
371.067	2417.89
374.442	2994.76
377.816	3420.16
381.191	3651.48
384.566	3626.95
387.941	3341.24
391.316	2997.31
394.69	2487.86
398.065	2098.18
401.44	1822.46
404.815	1597.39
408.19	1468.45
411.565	1333.56
414.939	1268.45
418.314	1227.93
421.689	1102.2
425.064	1001.16
428.439	828.209
431.813	719.035
435.188	572.413
438.563	447.509
441.938	298.206
445.313	179.859
448.688	175.659
452.062	95.6686
455.437	35.3611
458.812	34.1138
462.187	42.4889
465.562	28.9202
468.937	11.7544
472.311	15.5912
475.686	17.4111
479.061	31.7566
482.436	12.611
485.81	16.5981
489.185	23.4591
492.56	2.98071
495.935	69.4458
499.31	154.965
502.685	229.845
506.059	297.71
509.434	389.945
512.809	427.943
516.184	490.488
519.559	458.595
522.933	464.949
526.308	496.798
529.683	446.171
533.058	421.786
536.433	410.933
539.808	417.135
543.182	319.524
546.557	232.472
549.932	166.36
553.307	100.601
556.682	108.183
560.057	113.582
563.431	14.1187
566.806	4.73144
570.181	48.773
573.556	27.7763
576.931	15.2928
580.305	98.0381
583.68	57.7631
587.055	90.6991
590.43	142.187
593.805	281.433
597.18	246.869
600.554	316.709
603.929	368.058
607.304	464.138
610.679	542.226
614.054	610.506
617.428	717.769
620.803	819.27
624.178	947.909
627.553	1057.94
630.928	1124.41
634.303	1215.84
637.677	1486.06
641.052	1731.95
644.427	1320.57
647.802	861.581
651.177	726.254
654.552	739.408
657.926	538.916
661.301	308.888
664.676	166.733
668.051	55.2543
671.426	3.23108
674.8	52.4343
678.175	42.141
681.55	14.4371
684.925	8.22668
688.3	5.84436
691.674	35.6144
695.049	84.4211
698.424	150.581
701.799	157.383
705.174	251.42
708.548	269.396
711.923	295.699
715.298	243.169
718.673	261.418
722.048	240.984
725.423	112.586
728.797	55.8871
732.172	35.4291
735.547	46.6658
738.922	12.36
742.297	26.0592
745.672	57.5289
749.046	78.8889
752.421	70.4273
755.796	162.828
759.171	157.71
762.546	260.91
765.92	239.174
769.295	189.446
772.67	177.412
776.045	151.997
779.42	81.6615
782.795	81.9296
786.169	61.7985
789.544	32.1625
792.919	10.8157
796.294	1.78894
799.669	6.00909
803.043	27.0549
806.418	37.5562
809.793	50.6194
813.168	85.6281
816.543	60.9138
819.918	53.6133
823.292	56.7377
826.667	73.8876
830.042	106.26
833.417	165.725
836.792	148.851
840.166	157.799
843.541	186.308
846.916	176.996
850.291	215.102
853.666	234.036
857.04	200.886
860.415	159.598
863.79	142.941
867.165	151.063
870.54	91.7123
873.915	17.1893
877.289	100.928
880.664	52.0834
884.039	51.4096
887.414	76.522
890.789	2.21884
894.163	14.0798
897.538	18.4829
900.913	35.1689
904.288	20.877
907.663	13.6341
911.038	34.6935
914.412	1.83258
917.787	19.7198
921.162	51.4357
924.537	40.9792
927.912	81.6119
931.287	116.274
934.661	127.2
938.036	144.637
941.411	109.259
944.786	76.4448
948.161	82.4077
951.535	110.907
954.91	14.6616
958.285	80.9909
961.66	106.019
965.035	88.8005
968.409	55.1456
971.784	50.1088
975.159	86.5186
978.534	71.6706
981.909	106.223
985.284	120.944
988.658	138.918
992.033	128.486
995.408	136.862
998.783	303.906
1002.16	394.281
1005.53	444.086
1008.91	343.69
1012.28	298.476
1015.66	303.571
1019.03	292.756
1022.41	309.158
1025.78	306.69
1029.16	326.093
1032.53	359.671
1035.91	455.096
1039.28	526.607
1042.66	407.647
1046.03	380.336
1049.4	323.358
1052.78	371.526
1056.15	322.825
1059.53	235.032
1062.9	154.031
1066.28	214.277
1069.65	122.241
1073.03	173.948
1076.4	95.1049
1079.78	117.61
1083.15	130.476
1086.53	8.65759
1089.9	10.1713
1093.28	62.4469
1096.65	55.1571
1100.03	38.4753
1103.4	84.1221
1106.78	65.8267
1110.15	62.4587
1113.53	19.2939
1116.9	33.0183
1120.28	19.3611
1123.65	68.4036
1127.03	124.825
1130.4	349.613
1133.78	530.095
1137.15	865.742
1140.53	1223.26
1143.9	1739.25
1147.28	2427.41
1150.65	3364.44
1154.03	4753.7
1157.4	6589.58
1160.77	8829.97
1164.15	11908.6
1167.52	15613.4
1170.9	20219.3
1174.27	24519.8
1177.65	28135.9
1181.02	29849.7
1184.4	29494.8
1187.77	27223.9
1191.15	23930.2
1194.52	20643.8
1197.9	17384.5
1201.27	14581.5
1204.65	12175.1
1208.02	10283.5
1211.4	8674.14
1214.77	7171.72
1218.15	6028.79
1221.52	5010.53
1224.9	4183.9
1228.27	3337.63
1231.64	2567.09
1235.02	2034.99
1238.39	1590.7
1241.77	1089.12
1245.14	807.462
1248.52	510.911
1251.89	308.637
1255.27	79.0474
1258.64	34.8716
1262.02	5.81592
1265.39	3.7583
1268.77	43.6997
1272.14	99.7588
1275.52	131.145
1278.89	185.375
1282.27	0
