Measurement: Raman, 780 nm, unoriented, Raman Data Processed
Mineral: Nordite-(Ce)
Rruff sample: R130530
Ideal chemistry: Na_3_Sr^2+^Ce^3+^Zn^2+^Si_6_O_17_
Locality: Karnasurt Mt., Lovosero Massif, Kola Peninsula, Russia
Source: Rock Currier
Description: Pale brownish tabular crystals in rosette-like aggregates, associated with ussingite
Measured chemistry: Na_2.96_(Sr_1.10_Ba_0.02_)_Σ=1.12_(Ce_0.52_La_0.35_Nd_0.06_Pr_0.04_Ca_0.04_)_Σ=1.01_(Zn_0.335_Mn_0.329_Fe_0.19_Mg_0.12_)_Σ=0.97_Si_5.96_O_17_ ;   Dark phase is ussingite.
Raman shift (cm-1)	intensity
88.0644	0
91.4393	118.149
94.8141	153.477
98.1889	71.476
101.564	64.5738
104.939	67.7147
108.313	40.1768
111.688	18.5268
115.063	36.2332
118.438	53.4344
121.813	62.7233
125.187	50.9822
128.562	68.1539
131.937	67.8982
135.312	46.8601
138.687	31.2306
142.061	3.55554
145.436	3.94263
148.811	9.17969
152.186	3.17865
155.561	19.8632
158.936	19.6774
162.31	19.2317
165.685	21.8461
169.06	31.8104
172.435	18.838
175.81	3.2392
179.185	3.95917
182.559	10.5196
185.934	6.45557
189.309	0.138184
192.684	6.91766
196.059	7.76117
199.433	19.3895
202.808	12.9526
206.183	16.2482
209.558	41.4878
212.933	60.0008
216.308	107.623
219.682	157.269
223.057	231.242
226.432	298.867
229.807	406.274
233.182	497.372
236.556	587.151
239.931	658.131
243.306	694.437
246.681	700.37
250.056	622.154
253.43	547.168
256.805	460.684
260.18	380.775
263.555	326.776
266.93	297.012
270.305	272.307
273.679	288.969
277.054	344.018
280.429	422.297
283.804	538.395
287.179	613.272
290.553	645.367
293.928	649.453
297.303	635.465
300.678	570.918
304.053	488.921
307.428	396.386
310.802	322.024
314.177	255.014
317.552	184.81
320.927	119.447
324.302	65.6312
327.676	11.4197
331.051	11.4343
334.426	14.9667
337.801	26.5097
341.176	19.8358
344.551	24.2218
347.925	72.4543
351.3	121.939
354.675	207.48
358.05	319.479
361.425	458.813
364.8	602.614
368.174	801.57
371.549	987.562
374.924	1197.15
378.299	1356.43
381.674	1440.81
385.048	1461.22
388.423	1391.95
391.798	1248.67
395.173	1114.81
398.548	968.729
401.923	849.987
405.297	749.153
408.672	689.484
412.047	606.919
415.422	540.649
418.796	481.955
422.171	430.809
425.546	351.203
428.921	260.714
432.296	174.391
435.671	105.888
439.045	52.7684
442.42	18.6464
445.795	14.1926
449.17	14.9713
452.545	2.01001
455.92	21.4459
459.294	34.2992
462.669	48.6296
466.044	58.7548
469.419	64.5663
472.794	79.6569
476.168	94.0763
479.543	105.027
482.918	151.9
486.293	197.222
489.668	250.315
493.043	324.426
496.417	410.776
499.792	473.218
503.167	575.788
506.542	657.28
509.917	712.876
513.291	753.153
516.666	756.431
520.041	712.339
523.416	659.524
526.791	597.793
530.165	517.345
533.54	465.206
536.915	383.229
540.29	307.372
543.665	243.934
547.04	173.897
550.414	120.571
553.789	77.3998
557.164	33.6254
560.539	13.9956
563.914	21.2028
567.288	14.385
570.663	5.22632
574.038	1.03711
577.413	12.2443
580.788	27.4321
584.163	56.2146
587.537	93.511
590.912	123.74
594.287	187.617
597.662	232.889
601.037	297.025
604.412	359.41
607.786	423.075
611.161	483.076
614.536	551.131
617.911	615.49
621.286	671.295
624.66	727.001
628.035	762.122
631.41	825.678
634.785	911.621
638.16	1093.87
641.534	1143.49
644.909	858.2
648.284	642.852
651.659	569.526
655.034	499.813
658.409	335.126
661.783	186.578
665.158	122.114
668.533	48.9454
671.908	11.0678
675.283	2.64673
678.658	13.5025
682.032	10.9891
685.407	10.8069
688.782	25.1179
692.157	43.2618
695.532	75.9317
698.906	107.658
702.281	136.59
705.656	170.042
709.031	206
712.406	213.15
715.78	208.668
719.155	197.809
722.53	171.387
725.905	136.761
729.28	96.7769
732.654	54.691
736.029	27.0964
739.404	0.393433
742.779	6.71027
746.154	5.93176
749.529	22.2609
752.903	37.816
756.278	48.4271
759.653	65.0718
763.028	84.8147
766.403	108.154
769.778	117.033
773.152	117.198
776.527	98.1741
779.902	74.1525
783.277	44.6328
786.652	23.2046
790.026	11.1837
793.401	6.20032
796.776	0.370667
800.151	2.38513
803.526	1.34891
806.9	6.68518
810.275	0.284515
813.65	7.1857
817.025	8.09616
820.4	19.0596
823.775	25.2348
827.149	41.467
830.524	50.5915
833.899	64.45
837.274	70.7116
840.649	93.3957
844.024	105.521
847.398	125.576
850.773	121.618
854.148	126.672
857.523	115.69
860.898	117.531
864.272	94.5018
867.647	82.0459
871.022	72.4391
874.397	53.8684
877.772	41.727
881.146	39.1795
884.521	27.5386
887.896	21.5393
891.271	19.6257
894.646	9.9538
898.021	9.18704
901.395	3.9458
904.77	2.33624
908.145	5.0123
911.52	0.600281
914.895	1.64642
918.269	2.05298
921.644	3.08191
925.019	12.4644
928.394	36.7831
931.769	55.9281
935.144	94.9393
938.518	127.632
941.893	126.22
945.268	83.688
948.643	54.879
952.018	27.7394
955.393	22.5892
958.767	19.1485
962.142	19.5765
965.517	22.3189
968.892	27.891
972.266	23.3857
975.641	28.6601
979.016	34.9458
982.391	39.3993
985.766	58.2595
989.141	78.3534
992.515	102.308
995.89	137.513
999.265	198.867
1002.64	274.88
1006.01	281.422
1009.39	228.283
1012.76	187.609
1016.14	168.801
1019.51	164.077
1022.89	168
1026.26	181.103
1029.64	200.37
1033.01	240.636
1036.39	311.894
1039.76	316.683
1043.14	232.209
1046.51	221.779
1049.89	196.648
1053.26	174.356
1056.64	162.487
1060.01	138.352
1063.39	117.595
1066.76	100.294
1070.14	81.5489
1073.51	74.4294
1076.89	44.1654
1080.26	37.0378
1083.63	19.9904
1087.01	15.1447
1090.38	7.85229
1093.76	17.3697
1097.13	30.0312
1100.51	40.6151
1103.88	28.9242
1107.26	41.1285
1110.63	41.418
1114.01	9.54407
1117.38	11.5774
1120.76	27.793
1124.13	79.8584
1127.51	138.179
1130.88	221.389
1134.26	322.419
1137.63	475.568
1141.01	667.995
1144.38	958.609
1147.76	1308.54
1151.13	1775.88
1154.51	2405.26
1157.88	3291.27
1161.26	4360.88
1164.63	5671.14
1168.01	7250.12
1171.38	9014.23
1174.76	10744.8
1178.13	12249.3
1181.51	13112.8
1184.88	13399.4
1188.26	12942.9
1191.63	11912.1
1195.01	10607.3
1198.38	9264.61
1201.75	7963.98
1205.13	6737.43
1208.5	5701.18
1211.88	4767.78
1215.25	3979.82
1218.63	3292.04
1222	2733.36
1225.38	2235.31
1228.75	1785.82
1232.13	1421.97
1235.5	1068.14
1238.88	806.615
1242.25	588.264
1245.63	389.434
1249	252.974
1252.38	138.409
1255.75	53.6123
1259.13	23.9443
1262.5	31.6562
1265.88	11.6108
1269.25	69.437
1272.62	134.637
1276	74.2549
1279.38	33.2231
