Measurement: Raman, 532 nm, unoriented, Raman Data Processed
Mineral: Olshanskyite
Rruff sample: R150028
Ideal chemistry: Ca_2_[B_3_O_3_(OH)_6_]OH3H_2_O
Locality: Shijangshan mine, Jipeng, Chifeng, Inner Mongolia, China
Source: Renato and Adriana Pagano
Description: Aggregates of colorless prismatic crystals.
Raman shift (cm-1)	intensity
96.8148	0
100.19	47.5888
103.564	161.435
106.939	84.4664
110.314	5.05693
113.689	4.37611
117.064	23.9049
120.439	84.3775
123.813	152.187
127.188	144.321
130.563	177.53
133.938	137.19
137.313	121.472
140.687	169.31
144.062	196.998
147.437	250.647
150.812	511.615
154.187	324.684
157.561	203.369
160.936	342.258
164.311	357.831
167.686	103.253
171.061	26.9044
174.436	49.8554
177.81	37.9172
181.185	23.2528
184.56	68.5478
187.935	194.411
191.31	398.128
194.685	367.695
198.059	289.54
201.434	244.004
204.809	262.143
208.184	367.366
211.559	364.831
214.933	340.609
218.308	478.802
221.683	486.041
225.058	261.01
228.433	136.136
231.808	75.2288
235.182	56.4619
238.557	66.9495
241.932	71.7334
245.307	32.7296
248.682	4.30383
252.056	17.1318
255.431	10.4301
258.806	11.4027
262.181	43.0241
265.556	70.7833
268.93	118.977
272.305	215.198
275.68	301.24
279.055	244.324
282.43	163.684
285.805	158.19
289.179	194.311
292.554	219.242
295.929	222.689
299.304	150.164
302.679	60.534
306.053	12.8933
309.428	3.2214
312.803	3.60098
316.178	15.8789
319.553	49.5363
322.928	97.4084
326.302	155.472
329.677	190.49
333.052	194.083
336.427	188.876
339.802	188.589
343.176	164.791
346.551	142.458
349.926	152.452
353.301	183.911
356.676	199.561
360.051	189.075
363.425	180.238
366.8	188.779
370.175	185.128
373.55	166.243
376.925	147.574
380.3	128.609
383.674	89.113
387.049	42.9094
390.424	19.98
393.799	9.47066
397.174	7.33598
400.548	6.07519
403.923	1.45557
407.298	3.81102
410.673	6.74559
414.048	3.50259
417.423	10.9279
420.797	27.1827
424.172	55.5981
427.547	101.795
430.922	144.58
434.296	153.411
437.671	148.328
441.046	181.166
444.421	200.282
447.796	140.474
451.171	67.8314
454.545	29.677
457.92	14.2197
461.295	5.76894
464.67	2.23273
468.045	1.7043
471.42	1.86732
474.794	0.262741
478.169	8.22981
481.544	20.7834
484.919	43.6132
488.294	57.1576
491.668	92.2804
495.043	144.337
498.418	196.309
501.793	181.231
505.168	112.376
508.543	76.3364
511.917	65.4367
515.292	70.3173
518.667	79.9162
522.042	82.0658
525.417	70.0614
528.791	50.4057
532.166	27.0696
535.541	13.9499
538.916	7.19951
542.291	5.62795
545.665	11.18
549.04	21.9761
552.415	42.896
555.79	68.1472
559.165	73.4175
562.54	68.3459
565.914	39.2946
569.289	8.54187
572.664	5.92322
576.039	5.96234
579.414	0.502411
582.788	13.7209
586.163	26.1441
589.538	38.7601
592.913	44.7896
596.288	43.5433
599.663	37.3437
603.037	46.1804
606.412	58.5948
609.787	71.0331
613.162	103.352
616.537	164.954
619.912	291.805
623.286	521.469
626.661	862.095
630.036	1416.91
633.411	2253.59
636.786	2782.25
640.16	1593.86
643.535	637.125
646.91	287.084
650.285	142.228
653.66	70.7633
657.034	41.648
660.409	21.7518
663.784	9.08377
667.159	4.77908
670.534	1.94629
673.909	0.895355
677.283	1.31638
680.658	0.786285
684.033	10.9943
687.408	18.2492
690.783	33.2405
694.158	51.9813
697.532	83.4338
700.907	120.502
704.282	175.487
707.657	260.493
711.032	357.755
714.406	455.134
717.781	477.796
721.156	375.571
724.531	240.492
727.906	145.035
731.28	86.501
734.655	53.1303
738.03	32.0017
741.405	17.258
744.78	7.19644
748.154	2.47678
751.529	0.299927
754.904	2.64056
758.279	0.948425
761.654	1.82898
765.029	4.52728
768.403	7.42972
771.778	12.153
775.153	18.2674
778.528	27.8264
781.903	35.0301
785.278	41.4211
788.652	46.1073
792.027	41.718
795.402	36.5964
798.777	31.2127
802.152	26.3582
805.526	22.0254
808.901	21.2604
812.276	21.5725
815.651	14.3877
819.026	11.5879
822.4	6.55279
825.775	2.07088
829.15	0.847794
832.525	0.160477
835.9	0.341064
839.275	1.22363
842.649	1.02017
846.024	1.00243
849.399	1.67925
852.774	2.49966
856.149	5.0361
859.524	7.38101
862.898	10.2684
866.273	15.97
869.648	17.6479
873.023	17.6786
876.398	17.2721
879.773	18.7859
883.147	18.5402
886.522	19.2629
889.897	21.4158
893.272	23.0861
896.646	25.947
900.021	29.2352
903.396	30.2174
906.771	34.1854
910.146	35.9942
913.521	43.9286
916.895	49.4378
920.27	51.8553
923.645	54.2539
927.02	53.1157
930.395	50.9637
933.769	40.4612
937.144	30.4199
940.519	21.5767
943.894	12.9007
947.269	7.55139
950.644	3.81937
954.018	1.11468
957.393	1.29138
960.768	0.433502
964.143	0.769714
967.518	4.45578
970.893	9.10483
974.267	11.5897
977.642	16.6993
981.017	13.4812
984.392	13.8781
987.767	7.78473
991.141	8.62778
994.516	2.27151
997.891	0.251587
1001.27	1.13937
1004.64	0.054321
1008.02	1.62064
1011.39	0.523254
1014.76	3.97949
1018.14	9.01566
1021.51	11.8664
1024.89	16.9047
1028.26	19.4346
1031.64	22.815
1035.01	19.9675
1038.39	20.4623
1041.76	21.1442
1045.14	21.2394
1048.51	21.7922
1051.89	23.7976
1055.26	28.1253
1058.64	32.7134
1062.01	39.9475
1065.39	43.6533
1068.76	56.2898
1072.14	55.4219
1075.51	53.9471
1078.89	45.5401
1082.26	34.5797
1085.64	26.3041
1089.01	18.0942
1092.39	9.02301
1095.76	8.17218
1099.14	4.34976
1102.51	1.49619
1105.88	1.14908
1109.26	2.12643
1112.63	1.03726
1116.01	0.799988
1119.38	5.35596
1122.76	9.92474
1126.13	10.8435
1129.51	15.8321
1132.88	23.4108
1136.26	29.3921
1139.63	36.6618
1143.01	44.2337
1146.38	51.7706
1149.76	59.5273
1153.13	70.2091
1156.51	81.6678
1159.88	96.5808
1163.26	103.102
1166.63	106.824
1170.01	107.203
1173.38	96.4291
1176.76	89.6447
1180.13	70.8355
1183.51	57.1553
1186.88	46.2701
1190.26	32.1772
1193.63	24.2689
1197.01	15.9548
1200.38	11.8187
1203.76	7.24368
1207.13	2.68988
1210.51	2.24417
1213.88	1.35843
1217.25	0.840942
1220.63	0.41449
1224	0.796143
1227.38	1.32812
1230.75	4.44693
1234.13	9.94604
1237.5	18.3409
1240.88	34.3168
1244.25	46.3565
1247.63	53.6501
1251	52.7082
1254.38	42.352
1257.75	30.7156
1261.13	21.3902
1264.5	12.9214
1267.88	7.10593
1271.25	4.3559
1274.63	1.60315
1278	1.8942
1281.38	1.70477
1284.75	3.57941
1288.12	2.34128
1291.5	3.68591
1294.88	2.46304
1298.25	0.851837
