Measurement: Raman, 780 nm, unoriented, Raman Data Processed
Mineral: Olshanskyite
Rruff sample: R150028
Ideal chemistry: Ca_2_[B_3_O_3_(OH)_6_]OH3H_2_O
Locality: Shijangshan mine, Jipeng, Chifeng, Inner Mongolia, China
Source: Renato and Adriana Pagano
Description: Aggregates of colorless prismatic crystals.
Raman shift (cm-1)	intensity
93.3674	0
96.7422	7.69226
100.117	99.4773
103.492	117.492
106.867	36.6653
110.242	0.45993
113.616	0.954987
116.991	23.9444
120.366	67.3931
123.741	53.1462
127.116	62.5183
130.49	43.1531
133.865	22.3305
137.24	24.8687
140.615	42.0778
143.99	34.7855
147.364	81.0418
150.739	112.241
154.114	49.5131
157.489	84.7466
160.864	136.473
164.239	55.6312
167.613	0.724106
170.988	2.45869
174.363	11.1738
177.738	6.53409
181.113	22.5241
184.488	78.8371
187.862	180.601
191.237	214.449
194.612	148.28
197.987	107.819
201.362	84.805
204.736	94.4981
208.111	103.782
211.486	78.4317
214.861	99.1001
218.236	132.881
221.611	90.994
224.985	49.3322
228.36	32.605
231.735	26.5548
235.11	39.0626
238.485	49.8983
241.859	37.5705
245.234	11.4905
248.609	3.3093
251.984	4.5137
255.359	2.69385
258.733	11.9238
262.108	22.3233
265.483	34.0974
268.858	55.8167
272.233	91.2672
275.608	90.2194
278.982	56.3021
282.357	47.0226
285.732	56.7284
289.107	71.9077
292.482	81.0293
295.856	65.9337
299.231	29.4522
302.606	7.38116
305.981	2.45076
309.356	2.82365
312.731	1.61262
316.105	10.6047
319.48	24.3687
322.855	41.4664
326.23	55.1166
329.605	60.9545
332.979	58.8758
336.354	60.6822
339.729	59.5196
343.104	55.0191
346.479	54.8926
349.854	68.5867
353.228	84.1335
356.603	89.0066
359.978	93.8025
363.353	102.788
366.728	112.816
370.103	109.343
373.477	97.8851
376.852	87.8257
380.227	67.0418
383.602	39.4179
386.977	16.9534
390.351	6.62376
393.726	3.78178
397.101	1.06863
400.476	0.657433
403.851	2.01766
407.226	1.26161
410.6	0.107269
413.975	5.53585
417.35	13.9268
420.725	24.7181
424.1	44.7589
427.474	68.8143
430.849	75.9312
434.224	65.3345
437.599	64.6664
440.974	74.5326
444.349	65.4666
447.723	36.0431
451.098	15.3306
454.473	7.17135
457.848	3.5613
461.223	1.77168
464.597	0.779175
467.972	1.42288
471.347	0.737633
474.722	1.46043
478.097	4.41625
481.471	7.83343
484.846	14.3334
488.221	24.0059
491.596	38.4783
494.971	55.6667
498.346	64.5831
501.72	52.7026
505.095	42.2864
508.47	40.2524
511.845	45.2369
515.22	50.8167
518.595	53.8857
521.969	51.437
525.344	42.5718
528.719	30.3622
532.094	19.9536
535.469	14.1003
538.843	11.6832
542.218	11.1702
545.593	14.6367
548.968	23.9713
552.343	32.0142
555.717	35.6473
559.092	27.5026
562.467	18.3007
565.842	5.51717
569.217	0.57856
572.592	1.70509
575.966	1.57678
579.341	2.31908
582.716	5.59804
586.091	7.38885
589.466	8.29826
592.841	8.57858
596.215	8.40492
599.59	10.6519
602.965	13.9411
606.34	17.1695
609.715	24.0772
613.089	36.9243
616.464	64.0766
619.839	112.848
623.214	178.883
626.589	284.564
629.963	483.691
633.338	755.761
636.713	638.877
640.088	278.298
643.463	113.367
646.838	53.9123
650.212	27.7461
653.587	15.826
656.962	8.74572
660.337	5.64356
663.712	4.25748
667.087	2.98375
670.461	1.82968
673.836	0.375275
677.211	0.899521
680.586	0.304749
683.961	1.99217
687.335	4.82712
690.71	9.33081
694.085	14.7526
697.46	23.4695
700.835	34.9588
704.21	49.6898
707.584	74.0752
710.959	100.825
714.334	123.08
717.709	113.491
721.084	78.5494
724.458	48.2057
727.833	28.1385
731.208	15.9785
734.583	8.0853
737.958	5.19455
741.332	1.43752
744.707	0.410599
748.082	1.17506
751.457	0.457268
754.832	0.891983
758.207	0.741829
761.581	1.57606
764.956	3.87123
768.331	4.3621
771.706	8.03128
775.081	10.5801
778.455	12.4815
781.83	15.037
785.205	17.7625
788.58	18.8936
791.955	16.2771
795.33	14.687
798.704	13.7922
802.079	11.6354
805.454	10.1281
808.829	8.77843
812.204	6.44158
815.578	6.0115
818.953	3.92957
822.328	2.91887
825.703	1.66518
829.078	0.585823
832.453	0.06498
835.827	0.248215
839.202	0.506859
842.577	0.522316
845.952	0.480698
849.327	1.1019
852.702	2.49725
856.076	3.10577
859.451	3.25999
862.826	5.62886
866.201	7.26606
869.576	7.21931
872.95	7.94797
876.325	7.95248
879.7	6.86365
883.075	7.70901
886.45	7.85182
889.824	8.66887
893.199	9.40157
896.574	8.08629
899.949	8.90303
903.324	9.76502
906.698	9.70351
910.073	12.1795
913.448	14.0423
916.823	15.7827
920.198	16.6518
923.573	17.0869
926.947	16.9398
930.322	13.1778
933.697	11.7599
937.072	8.62955
940.447	6.08099
943.822	3.92571
947.196	2.13065
950.571	1.09634
953.946	0.175972
957.321	0.17231
960.696	0.599731
964.07	0.687248
967.445	1.09409
970.82	2.48454
974.195	4.03005
977.57	4.57242
980.945	5.65702
984.319	3.78606
987.694	2.74036
991.069	1.65593
994.444	0.066185
997.819	0.344223
1001.19	0.231354
1004.57	0.670082
1007.94	0.605949
1011.32	1.10411
1014.69	1.2807
1018.07	2.87043
1021.44	3.47315
1024.82	4.80305
1028.19	7.35381
1031.57	6.18225
1034.94	6.28812
1038.32	6.83417
1041.69	7.67989
1045.07	7.08878
1048.44	7.27535
1051.82	8.03896
1055.19	9.86935
1058.57	11.0519
1061.94	11.7651
1065.32	12.8103
1068.69	14.2701
1072.07	13.6733
1075.44	13.2744
1078.81	12.6736
1082.19	9.60598
1085.56	6.19197
1088.94	4.08594
1092.31	1.88725
1095.69	1.77882
1099.06	1.5158
1102.44	0.268608
1105.81	0.243179
1109.19	0.865829
1112.56	0.394722
1115.94	0.460732
1119.31	0.684929
1122.69	1.52537
1126.06	2.02342
1129.44	3.84903
1132.81	5.26832
1136.19	6.65263
1139.56	7.60213
1142.94	8.27918
1146.31	10.9461
1149.68	13.231
1153.06	15.702
1156.43	18.6318
1159.81	20.0696
1163.18	21.156
1166.56	21.4908
1169.93	20.0709
1173.31	18.6594
1176.68	15.7274
1180.06	12.3635
1183.43	9.95049
1186.81	7.63779
1190.18	5.51512
1193.56	4.03298
1196.93	1.77573
1200.31	1.16991
1203.68	1.21912
1207.06	0.883911
1210.43	0.260712
1213.81	0.646767
1217.18	0.149475
1220.56	0.862099
1223.93	0.497513
1227.31	0.827621
1230.68	1.28257
1234.06	2.26279
1237.43	4.20057
1240.81	5.18481
1244.18	8.85453
1247.56	8.52145
1250.93	8.01779
1254.31	6.05813
1257.68	4.42715
1261.05	3.61637
1264.43	2.28997
1267.8	1.14662
1271.18	1.54884
1274.55	1.22532
1277.93	2.27415
1281.3	0.016792
