Measurement: Raman, 780 nm, unoriented, Raman Data RAW
Mineral: Orthoclase
Rruff sample: R050367
Ideal chemistry: KAlSi_3_O_8_
Locality: Pazunseik, Mandalay Division, Burma
Source: Marcus Origlieri
Description: Green crystal associated with topaz. Single-crystal structure refinement was conducted to demonstrate that it is orthoclase.
Measured chemistry: (K_0.90_Na_0.10_)_Î£=1_Al_1.00_Si_3.00_O_8_; trace amounts of Fe
Raman shift (cm-1)	intensity
92.5234	5633.89
95.8983	6276.4
99.2731	6108.46
102.648	5802.78
106.023	5718.11
109.397	5685.05
112.772	5701.66
116.147	5647.36
119.522	5671.18
122.897	5574.46
126.272	5663.4
129.646	5706.33
133.021	5709.97
136.396	5821.66
139.771	5848.77
143.146	5932.57
146.52	6026.2
149.895	6039.11
153.27	6170.75
156.645	6142.21
160.02	6208.26
163.395	6310.83
166.769	6355.29
170.144	6418.43
173.519	6520.43
176.894	6610.34
180.269	6625.56
183.643	6662.75
187.018	6723.95
190.393	6800.88
193.768	6876.26
197.143	6946.69
200.518	7057
203.892	7071.6
207.267	7191.27
210.642	7343.61
214.017	7383.23
217.392	7506.92
220.766	7544.35
224.141	7620.97
227.516	7679.76
230.891	7758.04
234.266	7906.02
237.641	7921.33
241.015	8049.62
244.39	8110.78
247.765	8219.22
251.14	8361.4
254.515	8437.61
257.889	8576.5
261.264	8611.54
264.639	8733.2
268.014	8848.15
271.389	9030.07
274.764	9037.04
278.138	9145.53
281.513	9311.05
284.888	9351.65
288.263	9452.97
291.638	9634.33
295.012	9599.99
298.387	9808.75
301.762	9861.86
305.137	9966.1
308.512	10100.4
311.887	10182.5
315.261	10421.8
318.636	10454
322.011	10625.3
325.386	10719
328.761	10855.8
332.135	10959.5
335.51	11199.1
338.885	11225.8
342.26	11311.2
345.635	11514.7
349.01	11652.5
352.384	11729
355.759	11923.6
359.134	12092.1
362.509	12153.7
365.884	12242.6
369.258	12404
372.633	12574.3
376.008	12719.5
379.383	12929.4
382.758	13016.4
386.132	13195.4
389.507	13249.2
392.882	13515.2
396.257	13564.2
399.632	13798.4
403.007	13894.8
406.381	14014.1
409.756	14226.7
413.131	14370.1
416.506	14497.3
419.881	14738.1
423.255	14909.5
426.63	14995.8
430.005	15128.2
433.38	15280.3
436.755	15579.5
440.13	15708.4
443.504	15898.5
446.879	15985.6
450.254	16154.1
453.629	16358.3
457.004	16512
460.378	16815.2
463.753	16977
467.128	17136.9
470.503	17342.3
473.878	17537.6
477.252	17624.7
480.627	17745.6
484.002	18014.9
487.377	18256.6
490.752	18318.2
494.127	18560.2
497.501	18753.4
500.876	18900.7
504.251	19075.5
507.626	19290.1
511.001	19612.4
514.375	19779
517.75	19878
521.125	20008.7
524.5	20293
527.875	20540.7
531.25	20593
534.624	20787.4
537.999	20929.4
541.374	21159.8
544.749	21430.4
548.124	21538.7
551.499	21809.6
554.873	22011
558.248	22274.9
561.623	22321.4
564.998	22685.1
568.373	22949.8
571.747	23098.6
575.122	23266.7
578.497	23572.5
581.872	23820.5
585.247	23955.9
588.621	24241.6
591.996	24565.4
595.371	24791.8
598.746	24919.3
602.121	25174.3
605.495	25422.8
608.87	25566
612.245	25977.5
615.62	26135.3
618.995	26375.2
622.37	26604.4
625.744	26930.1
629.119	27140.1
632.494	27401.4
635.869	27779.2
639.244	27888.7
642.619	28132.6
645.993	28324.5
649.368	28650.8
652.743	28849.5
656.118	29126.7
659.493	29309.6
662.867	29591.5
666.242	29874.2
669.617	30066.2
672.992	30297.7
676.367	30594.5
679.741	30706.5
683.116	31157.3
686.491	31349.9
689.866	31614.6
693.241	31829.5
696.615	32117.2
699.99	32287.6
703.365	32450.7
706.74	32777.9
710.115	33012
713.49	33378.9
716.864	33576.4
720.239	33911.2
723.614	34006.7
726.989	34394.9
730.364	34582.9
733.739	34876.9
737.113	35068.9
740.488	35361.2
743.863	35504
747.238	35725.8
750.613	36170.5
753.987	36245.2
757.362	36392.2
760.737	36655.1
764.112	36914.4
767.487	37143.2
770.861	37403.3
774.236	37640.6
777.611	37925.6
780.986	38161.3
784.361	38327
787.736	38539.6
791.11	38631.2
794.485	38968.5
797.86	39438.7
801.235	39521.6
804.61	39745.2
807.985	40146.9
811.359	40130.3
814.734	40380.4
818.109	40695.6
821.484	40966.7
824.859	41100.8
828.233	41313.8
831.608	41605.2
834.983	41757.6
838.358	42019
841.733	42143.5
845.107	42375
848.482	42526.5
851.857	42706.4
855.232	42760.3
858.607	43076.9
861.982	43297.8
865.356	43605
868.731	43720.4
872.106	43794.1
875.481	44050.9
878.856	44077.6
882.231	44308.5
885.605	44550.2
888.98	44691.2
892.355	44801.1
895.73	45028.5
899.105	45118.9
902.479	45321.9
905.854	45607.8
909.229	45697.4
912.604	45918.5
915.979	46137.7
919.353	46076.7
922.728	46289.1
926.103	46450.5
929.478	46661.7
932.853	46786.1
936.227	46829.8
939.602	46951.3
942.977	47044.3
946.352	47228.3
949.727	47553.2
953.102	47563.9
956.476	47701.2
959.851	47795.4
963.226	48047.2
966.601	48077.3
969.976	48201.5
973.351	48309.7
976.725	48157.9
980.1	48297.9
983.475	48362.4
986.85	48647.9
990.225	48758
993.599	48784.8
996.974	49151.8
1000.35	49191.1
1003.72	49210
1007.1	49353.2
1010.47	49280.5
1013.85	49528.4
1017.22	49499
1020.6	49744.1
1023.97	49767.5
1027.35	49907.3
1030.72	49846.4
1034.1	49997
1037.47	50114
1040.85	50073
1044.22	50058.2
1047.6	50361.6
1050.97	50347.1
1054.35	50237.7
1057.72	50571.6
1061.1	50296.7
1064.47	50599.6
1067.85	50405.3
1071.22	50505.2
1074.6	50599
1077.97	50565.8
1081.35	50747.8
1084.72	50640.2
1088.09	50645.3
1091.47	50648.5
1094.84	50840.5
1098.22	50687.8
1101.59	50729
1104.97	50788.3
1108.34	50963
1111.72	50750.4
1115.09	50632
1118.47	50671.9
1121.84	50753.5
1125.22	50901
1128.59	50789.3
1131.97	50699.7
1135.34	50870.2
1138.72	50808.8
1142.09	50912.6
1145.47	50809.7
1148.84	50975.9
1152.22	51071.2
1155.59	51012.8
1158.96	51085.8
1162.34	51045.9
1165.71	50885.1
1169.09	50912.5
1172.46	51195.1
1175.84	51029.8
1179.21	51170.4
1182.59	50955.8
1185.96	51135.5
1189.34	51146.9
1192.71	51099.7
1196.09	51089.2
1199.46	50892.5
1202.84	51006.6
1206.21	50961.4
1209.59	50874.7
1212.96	50870.5
1216.34	50795.2
1219.71	50658.4
1223.09	50879.4
1226.46	50564
1229.84	50644.2
1233.21	50714.2
1236.59	50583.8
1239.96	50642.6
1243.34	50551.2
1246.71	50488.9
1250.09	50426.4
1253.46	50264.4
1256.84	50350.5
1260.21	50004.4
1263.59	50204.4
1266.96	50293
1270.33	50143.3
1273.71	50186.3
1277.08	50141.2
1280.46	50073.7
1283.83	49966.8
