Measurement: Raman, 785 nm, unoriented, Raman Data RAW
Mineral: Osmium
Rruff sample: R060823
Ideal chemistry: Os
Locality: Nevjansk, Ural Mountains, USSR
Source: Michael Scott
Description: Grey metallic massive, variety iridosmine
Raman shift (cm-1)	intensity
160.579	1947.23
163.472	2029.59
166.365	2018.72
169.257	1965.4
172.15	1920.62
175.043	1928.36
177.935	1857.85
180.828	1817.31
183.721	1818.96
186.613	1838.66
189.506	1801.05
192.399	1828.71
195.292	1808
198.184	1845.55
201.077	1844.4
203.97	1842.96
206.862	1859.33
209.755	1825.52
212.648	1835.32
215.54	1810.4
218.433	1874.07
221.326	1861.65
224.219	1858.07
227.111	1855.83
230.004	1853.7
232.897	1854.68
235.789	1864.9
238.682	1880.11
241.575	1856.04
244.467	1862.42
247.36	1873.81
250.253	1893.57
253.146	1877.61
256.038	1926.14
258.931	1925.36
261.824	1919.63
264.716	1893.2
267.609	1926.39
270.502	1923.07
273.395	1899.77
276.287	1913.13
279.18	1915.43
282.073	1943.25
284.965	1941.18
287.858	1940.4
290.751	1933.57
293.643	1920.83
296.536	1910.22
299.429	1961.71
302.322	1919.06
305.214	1956.52
308.107	1986.17
311	1980.44
313.892	1958.99
316.785	1954.65
319.678	1973.53
322.57	1932.47
325.463	1944.32
328.356	1967.66
331.249	1960.57
334.141	1955.9
337.034	1901.76
339.927	1918.44
342.819	1891.47
345.712	1896.37
348.605	1900.75
351.497	1874.32
354.39	1866.93
357.283	1855.52
360.176	1859.89
363.068	1840.91
365.961	1845.64
368.854	1875.89
371.746	1866.98
374.639	1862.06
377.532	1860.77
380.424	1863.44
383.317	1852.07
386.21	1829.85
389.103	1838.85
391.995	1811.86
394.888	1829.21
397.781	1832.41
400.673	1825.7
403.566	1823.06
406.459	1814.63
409.351	1809.7
412.244	1798.54
415.137	1823.98
418.03	1832.16
420.922	1823.13
423.815	1840.69
426.708	1790.31
429.6	1809.77
432.493	1797.52
435.386	1821.82
438.278	1821.45
441.171	1828.76
444.064	1819.35
446.957	1845.68
449.849	1816.1
452.742	1822.41
455.635	1804.38
458.527	1830.38
461.42	1825.93
464.313	1799.44
467.205	1821.96
470.098	1804.18
472.991	1835.26
475.884	1806.58
478.776	1829.79
481.669	1796.24
484.562	1790.39
487.454	1806.15
490.347	1842.1
493.24	1837.52
496.132	1825.33
499.025	1815.16
501.918	1809.98
504.811	1816.58
507.703	1798.73
510.596	1812.6
513.489	1792.9
516.381	1830.57
519.274	1823.48
522.167	1822.78
525.059	1828.9
527.952	1810.99
530.845	1812.88
533.737	1801.78
536.63	1807.93
539.523	1832.67
542.416	1826.04
545.308	1849.31
548.201	1804.06
551.094	1811.6
553.987	1813.77
556.879	1813.36
559.772	1817.69
562.665	1822.71
565.557	1804.69
568.45	1797.98
571.343	1801.54
574.235	1790.19
577.128	1783.79
580.021	1800.57
582.914	1803.54
585.806	1783.95
588.699	1772.13
591.592	1803.95
594.484	1802.87
597.377	1798.36
600.27	1776.77
603.162	1809.71
606.055	1790.76
608.948	1792.49
611.841	1790.56
614.733	1770.09
617.626	1808.78
620.519	1796.66
623.411	1802.31
626.304	1796.29
629.197	1784.43
632.089	1774.93
634.982	1743.19
637.875	1797.85
640.768	1760.86
643.66	1796.96
646.553	1777.82
649.446	1770.45
652.338	1743.23
655.231	1782.88
658.124	1763.49
661.016	1778.29
663.909	1775.11
666.802	1759.84
669.695	1783.58
672.587	1774.38
675.48	1775.27
678.373	1760.78
681.265	1787.4
684.158	1761.56
687.051	1803.7
689.943	1747.72
692.836	1749.01
695.729	1750.45
698.622	1748.75
701.514	1758.46
704.407	1717.81
707.3	1754.73
710.192	1755.38
713.085	1759.1
715.978	1732.89
718.87	1756.8
721.763	1734.8
724.656	1738.49
727.549	1733.87
730.441	1711.61
733.334	1748.18
736.227	1730.45
739.119	1739.34
742.012	1733.28
744.905	1736.52
747.797	1707.49
750.69	1719.98
753.583	1719.33
756.476	1723
759.368	1723.16
762.261	1708.17
765.154	1695.16
768.046	1701.27
770.939	1715.23
773.832	1696.63
776.724	1705.52
779.617	1687.19
782.51	1687.61
785.403	1718.54
788.295	1690.85
791.188	1697.63
794.081	1696.88
796.973	1667.03
799.866	1655.94
802.759	1658.37
805.651	1658.19
808.544	1695.8
811.437	1645.57
814.33	1655.76
817.222	1673.71
820.115	1664.38
823.008	1628.36
825.9	1657.25
828.793	1656.1
831.686	1648.91
834.578	1650.57
837.471	1669.04
840.364	1636.38
843.256	1669.03
846.149	1630.86
849.042	1625.09
851.935	1645.3
854.827	1651.06
857.72	1659.11
860.613	1646.04
863.505	1616.93
866.398	1633.09
869.291	1638.53
872.183	1605.45
875.076	1623.17
877.969	1624.15
880.862	1627.37
883.754	1622.35
886.647	1630.55
889.54	1592.35
892.432	1613.63
895.325	1636.39
898.218	1627.43
901.11	1641.43
904.003	1632.22
906.896	1616.38
909.789	1636.04
912.681	1628.17
915.574	1579.48
918.467	1585.82
921.359	1606.77
924.252	1599.83
927.145	1594.3
930.038	1594.78
932.93	1615.83
935.823	1600.43
938.716	1594.51
941.608	1599.95
944.501	1573.5
947.394	1602.85
950.286	1582.89
953.179	1577.26
956.072	1584.15
958.965	1572.45
961.857	1575.12
964.75	1589.52
967.643	1607.39
970.535	1587.38
973.428	1560.57
976.321	1589.32
979.214	1585.65
982.106	1586.16
984.999	1570.13
987.892	1549.32
990.784	1555.56
993.677	1556.72
996.57	1557.87
999.462	1543.76
1002.36	1579.87
1005.25	1549.44
1008.14	1552.89
1011.03	1552.62
1013.93	1551.98
1016.82	1559.08
1019.71	1559.9
1022.6	1528.55
1025.5	1524.88
1028.39	1536.48
1031.28	1562.98
1034.17	1545.65
1037.07	1537.04
1039.96	1539.69
1042.85	1538.36
1045.75	1525.15
1048.64	1511.66
1051.53	1530.65
1054.42	1507.56
1057.32	1516.67
1060.21	1520.8
1063.1	1515.63
1065.99	1512.49
1068.89	1532.59
1071.78	1512.72
1074.67	1520.31
1077.57	1485.09
1080.46	1520.1
1083.35	1504.41
1086.24	1530.33
1089.14	1493.76
1092.03	1487.38
1094.92	1499.45
1097.81	1494.68
1100.71	1500.04
1103.6	1490.51
1106.49	1483.52
1109.38	1483.07
1112.28	1479.91
1115.17	1470.53
1118.06	1494.45
1120.96	1490.12
1123.85	1506.4
1126.74	1492.74
1129.63	1496.32
1132.53	1497.7
1135.42	1479.25
1138.31	1454.62
1141.2	1480.38
1144.1	1466.24
1146.99	1456.59
1149.88	1458.14
1152.78	1458.77
1155.67	1467.68
1158.56	1457.42
1161.45	1477.08
1164.35	1461.38
1167.24	1461.14
1170.13	1470.55
1173.02	1474.15
1175.92	1418.35
1178.81	1452.63
1181.7	1452.17
1184.6	1440.63
1187.49	1450.64
1190.38	1462.07
1193.27	1456.83
1196.17	1478.85
1199.06	1430.08
1201.95	1461.16
1204.84	1446.84
1207.74	1401.59
1210.63	1419.18
1213.52	1427.2
1216.41	1418.87
1219.31	1444.99
1222.2	1474.01
1225.09	1448.64
1227.99	1430.91
1230.88	1414.88
1233.77	1408.01
1236.66	1417.87
1239.56	1451.17
1242.45	1426.5
1245.34	1417.34
1248.23	1437.34
1251.13	1428.84
1254.02	1431.39
1256.91	1413.34
1259.81	1423.03
