Measurement: Raman, 780 nm, unoriented, Raman Data RAW
Mineral: Osmium
Rruff sample: R080088
Ideal chemistry: Os
Locality: Goodnews Bay, Bethel Borough, Alaska, USA
Source: Michael Scott
Description: Navy blue, fine powder
Raman shift (cm-1)	intensity
92.5234	16.2113
95.8983	16.1652
99.2731	14.6424
102.648	14.6424
106.023	14.8628
109.397	13.7409
112.772	14.686
116.147	13.1216
119.522	13.9123
122.897	13.3916
126.272	12.5033
129.646	12.8612
133.021	12.716
136.396	11.9684
139.771	13.2823
143.146	11.8239
146.52	12.5928
149.895	12.9091
153.27	12.209
156.645	12.4514
160.02	12.0152
163.395	12.0102
166.769	11.7598
170.144	11.2361
173.519	11.6873
176.894	11.1139
180.269	11.3858
183.643	10.5427
187.018	10.8801
190.393	10.8821
193.768	10.7449
197.143	10.8985
200.518	11.0475
203.892	10.5086
207.267	10.4772
210.642	10.1958
214.017	10.4442
217.392	10.227
220.766	10.6927
224.141	10.3076
227.516	10.0333
230.891	10.8086
234.266	10.4961
237.641	10.6239
241.015	10.3444
244.39	10.5225
247.765	10.9367
251.14	11.0771
254.515	10.1278
257.889	10.3514
261.264	10.6227
264.639	10.305
268.014	10.141
271.389	10.639
274.764	10.0108
278.138	10.664
281.513	10.4402
284.888	10.3431
288.263	10.3644
291.638	10.3445
295.012	10.8415
298.387	9.82791
301.762	9.87136
305.137	9.9194
308.512	10.4057
311.887	9.40453
315.261	9.9589
318.636	10.2467
322.011	10.0019
325.386	9.87567
328.761	9.61721
332.135	9.81554
335.51	9.96523
338.885	9.55427
342.26	10.0482
345.635	10.1631
349.01	9.57965
352.384	9.9024
355.759	9.60906
359.134	9.08831
362.509	9.42022
365.884	9.69492
369.258	8.89657
372.633	8.68966
376.008	8.57948
379.383	8.77212
382.758	8.80672
386.132	8.42259
389.507	8.53595
392.882	8.21668
396.257	8.70414
399.632	8.0395
403.007	8.45244
406.381	8.78538
409.756	8.17865
413.131	8.29104
416.506	8.31233
419.881	8.60483
423.255	8.00062
426.63	8.55752
430.005	7.8475
433.38	7.93356
436.755	7.32527
440.13	7.86189
443.504	7.23993
446.879	7.46803
450.254	7.1667
453.629	7.3782
457.004	7.0794
460.378	7.76453
463.753	6.67438
467.128	7.03395
470.503	7.54892
473.878	7.11011
477.252	7.4466
480.627	6.42912
484.002	7.2562
487.377	6.50173
490.752	6.66272
494.127	7.3704
497.501	6.80975
500.876	6.97738
504.251	7.26329
507.626	7.08628
511.001	6.97972
514.375	6.56192
517.75	6.18043
521.125	6.49427
524.5	6.82278
527.875	7.2891
531.25	6.44814
534.624	6.87247
537.999	7.19489
541.374	6.6989
544.749	6.99328
548.124	6.48285
551.499	6.56321
554.873	6.44205
558.248	6.67323
561.623	6.18748
564.998	6.17259
568.373	7.09804
571.747	6.23209
575.122	6.46254
578.497	6.58342
581.872	6.67108
585.247	6.43916
588.621	6.32643
591.996	6.44252
595.371	6.95426
598.746	6.95683
602.121	6.44679
605.495	6.45632
608.87	6.42851
612.245	6.70105
615.62	6.39639
618.995	6.71961
622.37	6.27773
625.744	6.13194
629.119	6.39726
632.494	6.123
635.869	6.13718
639.244	6.5918
642.619	6.95394
645.993	6.20164
649.368	6.3385
652.743	6.98666
656.118	5.73384
659.493	6.72734
662.867	6.42716
666.242	6.1086
669.617	6.75397
672.992	6.20889
676.367	5.97694
679.741	7.16207
683.116	6.17841
686.491	5.93091
689.866	6.56991
693.241	5.76371
696.615	6.33576
699.99	6.00212
703.365	5.67514
706.74	6.48925
710.115	5.75015
713.49	6.46407
716.864	7.03955
720.239	5.99749
723.614	6.55872
726.989	6.6922
730.364	6.12346
733.739	6.39594
737.113	6.41803
740.488	5.9288
743.863	6.21004
747.238	6.04291
750.613	7.07067
753.987	6.39866
757.362	6.55732
760.737	6.39545
764.112	6.34379
767.487	5.79293
770.861	6.18453
774.236	6.347
777.611	6.11737
780.986	6.84782
784.361	6.41081
787.736	6.05186
791.11	6.20644
794.485	6.34115
797.86	6.69863
801.235	6.31526
804.61	6.29853
807.985	6.50558
811.359	6.75402
814.734	6.19745
818.109	6.5311
821.484	6.18741
824.859	6.61728
828.233	6.57296
831.608	6.54854
834.983	6.38766
838.358	5.97694
841.733	6.59076
845.107	6.58265
848.482	6.62308
851.857	6.63453
855.232	6.43401
858.607	6.62161
861.982	5.72383
865.356	6.27799
868.731	5.94991
872.106	6.31658
875.481	6.11577
878.856	5.29464
882.231	6.26844
885.605	5.81195
888.98	5.98873
892.355	5.92297
895.73	5.46971
899.105	5.80771
902.479	5.12487
905.854	5.23313
909.229	6.04748
912.604	4.99945
915.979	5.50844
919.353	4.98069
922.728	5.93883
926.103	5.73657
929.478	5.12521
932.853	4.78041
936.227	5.39274
939.602	5.00652
942.977	5.09847
946.352	5.6047
949.727	5.28219
953.102	5.01347
956.476	5.17429
959.851	4.81221
963.226	5.43098
966.601	4.50544
969.976	4.99587
973.351	5.52559
976.725	5.3431
980.1	4.56963
983.475	5.45418
986.85	4.60955
990.225	5.60719
993.599	5.21728
996.974	5.02194
1000.35	4.98246
1003.72	5.23485
1007.1	5.31213
1010.47	5.71286
1013.85	4.45684
1017.22	4.77707
1020.6	5.59009
1023.97	4.35111
1027.35	4.94871
1030.72	4.79509
1034.1	4.87479
1037.47	4.71846
1040.85	4.87039
1044.22	4.76619
1047.6	5.63617
1050.97	4.54437
1054.35	4.87894
1057.72	4.97781
1061.1	4.97018
1064.47	4.47607
1067.85	4.62883
1071.22	4.52171
1074.6	4.50243
1077.97	4.63107
1081.35	4.95851
1084.72	4.31263
1088.09	4.73111
1091.47	4.71693
1094.84	4.33254
1098.22	4.45532
1101.59	4.43117
1104.97	4.02258
1108.34	4.09438
1111.72	4.62598
1115.09	3.94138
1118.47	4.22394
1121.84	4.37926
1125.22	4.74319
1128.59	4.63554
1131.97	4.01528
1135.34	4.62987
1138.72	4.5397
1142.09	4.59349
1145.47	4.58159
1148.84	4.40717
1152.22	4.47174
1155.59	4.56347
1158.96	4.30238
1162.34	5.09345
1165.71	4.40658
1169.09	4.76006
1172.46	4.21138
1175.84	4.65456
1179.21	4.72746
1182.59	4.90787
1185.96	3.9575
1189.34	3.93197
1192.71	4.85002
1196.09	4.45969
1199.46	4.40726
1202.84	4.11639
1206.21	4.40436
1209.59	4.52764
1212.96	4.85177
1216.34	4.78055
1219.71	4.0027
1223.09	4.47965
1226.46	4.48509
1229.84	5.04526
1233.21	4.21781
1236.59	3.95827
1239.96	4.61335
1243.34	4.19811
1246.71	4.64555
1250.09	4.50228
1253.46	4.57782
1256.84	4.48538
1260.21	4.77963
1263.59	4.46936
1266.96	4.12762
1270.33	4.6638
1273.71	4.34627
1277.08	3.99543
1280.46	3.65821
1283.83	4.53302
