Measurement: Raman, 532 nm, unoriented, Raman Data RAW
Mineral: Osmium
Rruff sample: R060823
Ideal chemistry: Os
Locality: Nevjansk, Ural Mountains, USSR
Source: Michael Scott
Description: Grey metallic massive, variety iridosmine
Raman shift (cm-1)	intensity
143.7	1490.91
146.593	1500.94
149.486	1501.94
152.378	1497.82
155.271	1543.99
158.164	1519.8
161.056	1547.46
163.949	1597.6
166.842	1576.74
169.734	1567.83
172.627	1606.15
175.52	1597.98
178.413	1610.53
181.305	1607.11
184.198	1660.91
187.091	1637.51
189.983	1661.56
192.876	1682.41
195.769	1691.47
198.661	1651.87
201.554	1684.77
204.447	1713.81
207.339	1696.75
210.232	1687.86
213.125	1720.93
216.018	1693.69
218.91	1697.67
221.803	1682.08
224.696	1681.38
227.588	1681.09
230.481	1708.92
233.374	1726.19
236.266	1699.86
239.159	1700.64
242.052	1704.78
244.945	1736.16
247.837	1735.14
250.73	1749.26
253.623	1707.79
256.515	1741.94
259.408	1723.61
262.301	1765.38
265.193	1768.74
268.086	1769.98
270.979	1782.86
273.871	1799.87
276.764	1785.64
279.657	1809.93
282.55	1805.63
285.442	1807.85
288.335	1784.16
291.228	1836.15
294.12	1812.88
297.013	1804.09
299.906	1821.79
302.798	1852.53
305.691	1863.03
308.584	1867.41
311.477	1864.87
314.369	1873.11
317.262	1890.45
320.155	1910.46
323.047	1892.05
325.94	1870.49
328.833	1900.32
331.725	1869.03
334.618	1893.52
337.511	1914.15
340.404	1941.13
343.296	1891.15
346.189	1903.24
349.082	1889.02
351.974	1910.96
354.867	1917.34
357.76	1922.1
360.652	1899.64
363.545	1940.02
366.438	1929.08
369.331	1908.02
372.223	1933.26
375.116	1951.28
378.009	1928.34
380.901	1967.65
383.794	1974.6
386.687	1989.12
389.579	1950.73
392.472	1977.25
395.365	1991.7
398.258	1963.94
401.15	1994.54
404.043	1990.19
406.936	2026.13
409.828	2019.66
412.721	2010.89
415.614	1999.72
418.506	2062.26
421.399	2040.94
424.292	2051.21
427.185	2002.54
430.077	2026.9
432.97	2040.97
435.863	2056.93
438.755	2055.41
441.648	2092.9
444.541	2083.62
447.433	2071.58
450.326	2052.6
453.219	2080.51
456.112	2082.76
459.004	2117.09
461.897	2073.18
464.79	2074.09
467.682	2104.22
470.575	2127.3
473.468	2115.96
476.36	2127.8
479.253	2136.31
482.146	2120.18
485.039	2120.48
487.931	2127.58
490.824	2137.04
493.717	2149.95
496.609	2106.98
499.502	2135.49
502.395	2143.09
505.287	2155.69
508.18	2153.52
511.073	2174.92
513.966	2178.26
516.858	2213.86
519.751	2201.08
522.644	2220.68
525.536	2207.27
528.429	2239.55
531.322	2223.65
534.214	2208.95
537.107	2222.89
540	2215.37
542.892	2250.8
545.785	2240.68
548.678	2261.71
551.57	2290.18
554.463	2260.42
557.356	2248.3
560.249	2244.99
563.141	2263.55
566.034	2264.93
568.927	2240.18
571.819	2288.26
574.712	2307.39
577.605	2281.47
580.497	2274.96
583.39	2271.5
586.283	2310.98
589.176	2276.3
592.068	2308.01
594.961	2299.44
597.854	2320.44
600.746	2361.21
603.639	2316.36
606.532	2321.7
609.424	2343.19
612.317	2372.59
615.21	2366.61
618.103	2360.35
620.995	2374.74
623.888	2400.87
626.781	2366.72
629.673	2377.01
632.566	2381.59
635.459	2385.47
638.351	2388.89
641.244	2394.75
644.137	2399.23
647.029	2403.24
649.922	2409.19
652.815	2417.96
655.708	2407.57
658.6	2374.24
661.493	2412.82
664.386	2421.43
667.278	2436.08
670.171	2438.31
673.064	2448.74
675.956	2435.99
678.849	2431.5
681.742	2434.28
684.635	2450.77
687.527	2473.35
690.42	2442.54
693.313	2472.96
696.205	2480.16
699.098	2461.15
701.991	2495.67
704.883	2444.38
707.776	2455.43
710.669	2444.71
713.562	2468.56
716.454	2487.34
719.347	2456.24
722.24	2449.31
725.132	2449.78
728.025	2489.07
730.918	2483.11
733.81	2454.41
736.703	2492.77
739.596	2484.32
742.489	2491.51
745.381	2494.99
748.274	2538.96
751.167	2542.24
754.059	2476.12
756.952	2548.81
759.845	2488.59
762.737	2487.39
765.63	2459.49
768.523	2517.17
771.416	2515.44
774.308	2491.67
777.201	2520.17
780.094	2523.55
782.986	2505.79
785.879	2559.52
788.772	2530.72
791.664	2551.48
794.557	2550
797.45	2539.01
800.343	2529.49
803.235	2530.25
806.128	2533.41
809.021	2522.03
811.913	2543.94
814.806	2526.16
817.699	2520.2
820.591	2545.06
823.484	2561.36
826.377	2579.62
829.269	2600.66
832.162	2583.83
835.055	2589.21
837.948	2602.54
840.84	2596.19
843.733	2558.3
846.626	2616.45
849.518	2580.52
852.411	2587.09
855.304	2606.44
858.196	2614.65
861.089	2627.81
863.982	2614.75
866.875	2650.26
869.767	2636.21
872.66	2647.2
875.553	2634.39
878.445	2639.27
881.338	2651.2
884.231	2627.78
887.123	2606.28
890.016	2686.59
892.909	2717.18
895.802	2660.18
898.694	2683.47
901.587	2647.48
904.48	2672.07
907.372	2660.63
910.265	2717.32
913.158	2725.89
916.05	2713.18
918.943	2677.71
921.836	2712.43
924.729	2699.93
927.621	2705.43
930.514	2735.74
933.407	2742.84
936.299	2733.07
939.192	2741.64
942.085	2740.73
944.977	2736.07
947.87	2775.81
950.763	2736.92
953.656	2737.45
956.548	2749.43
959.441	2723.96
962.334	2757.23
965.226	2733.86
968.119	2729.22
971.012	2734.72
973.904	2737.39
976.797	2784.83
979.69	2803.53
982.583	2790.2
985.475	2801.31
988.368	2797.9
991.261	2804.99
994.153	2826.85
997.046	2789.9
999.939	2802.18
1002.83	2781.45
1005.72	2819.03
1008.62	2812.24
1011.51	2832.64
1014.4	2824.51
1017.29	2872.54
1020.19	2846.82
1023.08	2843.48
1025.97	2857.83
1028.87	2872.3
1031.76	2861.36
1034.65	2875.85
1037.54	2861.55
1040.44	2870.81
1043.33	2893.65
1046.22	2867.43
1049.12	2885.26
1052.01	2886.05
1054.9	2883.44
1057.79	2924.96
1060.68	2892.07
1063.58	2921.55
1066.47	2953.08
1069.36	2904.39
1072.26	2925.78
1075.15	2926.52
1078.04	2942.61
1080.93	2950.68
1083.83	2954.03
1086.72	2939.91
1089.61	2941.36
1092.51	2946.71
1095.4	2923.5
1098.29	2967.64
1101.18	2971.66
1104.08	2962.14
1106.97	2987.18
1109.86	2974.12
1112.75	2963.75
1115.65	2968.7
1118.54	2975.99
1121.43	2966.36
1124.33	2956.5
1127.22	3003.73
1130.11	2984.66
1133	3005.63
1135.9	3023.6
1138.79	2978.17
1141.68	3007.49
1144.57	3002.59
1147.47	2989.35
1150.36	3002.82
1153.25	2986.22
1156.14	3035.68
1159.04	3010.09
1161.93	3016.57
1164.82	2983.5
1167.71	3002.45
1170.61	3003.41
1173.5	3054.37
1176.39	3059.97
1179.29	3052.53
1182.18	3053.98
1185.07	3065.61
1187.96	3073.21
1190.86	3088.05
1193.75	3067.12
1196.64	3044.36
1199.54	3075.6
1202.43	3070.01
1205.32	3060.71
1208.21	3130.41
1211.11	3084.84
1214	3117.82
1216.89	3127.62
1219.78	3086.83
1222.68	3132.29
1225.57	3191.99
1228.46	3118.74
1231.36	3129.16
1234.25	3159.28
1237.14	3122.7
1240.03	3180.77
1242.92	3167.96
1245.82	3155.91
1248.71	3192.43
1251.6	3195.02
1254.5	3216.79
1257.39	3198.28
1260.28	3216.99
1263.17	3191.52
1266.07	3198.3
1268.96	3249.87
1271.85	3246.26
1274.74	3246.41
1277.64	3225.43
1280.53	3254.66
1283.42	3279.21
1286.32	3253.21
