Measurement: Raman, 532 nm, unoriented, Raman Data Processed
Mineral: Osumilite-(Mg)
Rruff sample: R141102
Ideal chemistry: KMg_2_(Al_5_Si_10_)O_30_
Locality: Caspar quarry, Bellerberg volcano, Mayen, Eifel, Germany
Source: Ch. and H. Sch√§fer
Description: Pale blue short prismatic or tabular hexagonal crystals, associated with acicular mullite, colorless sanidine, reddish rutile.
Raman shift (cm-1)	intensity
102.118	0
105.493	29.7409
108.868	120.355
112.243	250.238
115.617	429.6
118.992	570.855
122.367	596.603
125.742	455.972
129.117	300.396
132.492	184.238
135.866	113.684
139.241	105.316
142.616	104.565
145.991	133.85
149.365	161.166
152.74	211.738
156.115	343.941
159.49	482.316
162.865	271.653
166.24	73.9501
169.614	18.7338
172.989	0.979065
176.364	2.41406
179.739	10.4829
183.114	9.47626
186.488	7.64752
189.863	9.42358
193.238	0.144897
196.613	8.72144
199.988	17.2098
203.363	26.7708
206.737	38.188
210.112	47.3851
213.487	51.0398
216.862	45.5767
220.237	38.9979
223.612	34.9629
226.986	37.6598
230.361	43.1384
233.736	56.3156
237.111	70.0087
240.486	79.9191
243.86	90.8148
247.235	105.441
250.61	121.779
253.985	149.97
257.36	186.96
260.735	247.027
264.109	324.583
267.484	419.342
270.859	529.891
274.234	646.786
277.609	713.42
280.983	664.708
284.358	525.11
287.733	364.417
291.108	247.666
294.483	167.505
297.858	119.977
301.232	91.5339
304.607	72.7522
307.982	55.9808
311.357	41.8533
314.732	34.3528
318.106	16.1496
321.481	9.9635
324.856	4.0766
328.231	1.60712
331.606	3.75977
334.981	5.30719
338.355	3.99115
341.73	2.66553
345.105	5.9978
348.48	11.2715
351.855	18.7685
355.229	32.0411
358.604	49.9117
361.979	79.8119
365.354	121.316
368.729	170.529
372.103	222.367
375.478	261.167
378.853	276.384
382.228	258.109
385.603	216.028
388.978	159.552
392.352	108.775
395.727	66.2621
399.102	34.0474
402.477	16.3876
405.852	7.74976
409.226	1.27435
412.601	1.69727
415.976	0.291809
419.351	1.99805
422.726	2.2132
426.101	9.44074
429.475	20.4702
432.85	31.5186
436.225	43.4964
439.6	64.0851
442.975	90.4877
446.349	126.955
449.724	179.872
453.099	255.489
456.474	366.28
459.849	514.524
463.224	693.745
466.598	897.824
469.973	1110.55
473.348	1264.65
476.723	1221.94
480.098	945.149
483.473	607.953
486.847	358.743
490.222	199.49
493.597	106.157
496.972	49.2604
500.347	17.1715
503.721	4.05646
507.096	7.68152
510.471	5.54651
513.846	3.52893
517.221	16.5328
520.596	30.9748
523.97	46.4642
527.345	65.3906
530.72	93.5984
534.095	133.507
537.47	179.458
540.844	235.312
544.219	284.574
547.594	296.522
550.969	244.608
554.344	164.997
557.718	110.82
561.093	77.6843
564.468	50.0684
567.843	29.4189
571.218	18.6818
574.592	14.8262
577.967	10.6342
581.342	5.54199
584.717	4.81128
588.092	0.579895
591.467	0.800964
594.841	1.56305
598.216	2.47839
601.591	5.0622
604.966	6.35223
608.341	14.1914
611.716	28.3939
615.09	47.2863
618.465	73.3225
621.84	106.495
625.215	145.373
628.59	183.168
631.964	207.752
635.339	205.85
638.714	163.078
642.089	113.286
645.464	78.5587
648.838	56.6422
652.213	41.1516
655.588	30.0319
658.963	20.4245
662.338	15.6768
665.713	8.95874
669.087	5.56604
672.462	3.22229
675.837	2.31055
679.212	0.743286
682.587	3.71301
685.962	2.93573
689.336	3.76758
692.711	2.27692
696.086	4.83093
699.461	4.05743
702.836	2.4386
706.21	0.926453
709.585	1.66901
712.96	0.838928
716.335	3.38287
719.71	1.46954
723.085	0.301575
726.459	3.46021
729.834	8.60803
733.209	7.49414
736.584	11.0933
739.959	13.4203
743.333	12.3347
746.708	15.6192
750.083	22.7644
753.458	21.7504
756.833	23.8596
760.207	26.001
763.582	29.7808
766.957	31.795
770.332	31.1965
773.707	31.6268
777.082	30.7449
780.456	28.8817
783.831	26.4114
787.206	23.7571
790.581	20.9236
793.956	19.7995
797.33	20.1937
800.705	15.8808
804.08	14.6849
807.455	14.6529
810.83	10.0698
814.205	10.5264
817.579	12.1886
820.954	13.1349
824.329	14.7074
827.704	10.8271
831.079	6.61548
834.453	3.34882
837.828	1.86176
841.203	4.57953
844.578	1.89417
847.953	0.538025
851.328	2.45679
854.702	2.47967
858.077	0.402588
861.452	3.53436
864.827	5.84607
868.202	8.46991
871.577	4.68579
874.951	0.969177
878.326	2.75244
881.701	1.20966
885.076	2.47864
888.451	0.194336
891.825	0.00885
895.2	0.167236
898.575	3.02508
901.95	0.149109
905.325	1.9162
908.699	3.81958
912.074	4.55975
915.449	5.75177
918.824	6.3833
922.199	8.53516
925.573	10.285
928.948	10.6417
932.323	8.67712
935.698	8.4162
939.073	5.98859
942.448	3.3299
945.822	0.965759
949.197	4.66119
952.572	2.47687
955.947	0.965454
959.322	1.52216
962.697	1.27222
966.071	1.66974
969.446	0.318237
972.821	2.74646
976.196	4.99469
979.571	3.30756
982.945	0.890015
986.32	4.50635
989.695	2.4884
993.07	2.8122
996.445	5.1474
999.819	3.87903
1003.19	8.47729
1006.57	7.6911
1009.94	11.4431
1013.32	15.6845
1016.69	18.2061
1020.07	16.3788
1023.44	14.4644
1026.82	13.8087
1030.19	14.72
1033.57	13.8816
1036.94	14.9489
1040.32	16.7328
1043.69	28.2308
1047.07	35.6698
1050.44	44.7451
1053.82	57.282
1057.19	67.6614
1060.57	83.8768
1063.94	86.0527
1067.32	83.7458
1070.69	67.7751
1074.07	50.9282
1077.44	32.6447
1080.82	21.6657
1084.19	12.7961
1087.57	3.17609
1090.94	2.80902
1094.31	1.39532
1097.69	2.67804
1101.06	5.61597
1104.44	0.079407
1107.81	0.582581
1111.19	5.39612
1114.56	12.2055
1117.94	16.5811
1121.31	14.1574
1124.69	15.407
1128.06	22.7279
1131.44	22.2522
1134.81	23.8501
1138.19	28.7531
1141.56	31.727
1144.94	33.4116
1148.31	33.5944
1151.69	37.7811
1155.06	38.2435
1158.44	38.1152
1161.81	38.595
1165.19	41.3993
1168.56	33.3486
1171.93	33.8749
1175.31	28.5633
1178.68	28.8517
1182.06	23.9581
1185.43	30.0214
1188.81	24.006
1192.18	21.7439
1195.56	21.7228
1198.93	16.9221
1202.31	14.4303
1205.68	14.163
1209.06	12.9872
1212.43	8.71435
1215.81	7.51416
1219.18	5.83264
1222.56	6.02808
1225.93	1.55847
1229.31	2.0885
1232.68	2.58435
1236.06	1.15613
1239.43	2.24731
1242.81	1.07715
1246.18	1.8595
1249.56	5.58984
1252.93	5.05249
1256.31	12.544
1259.68	8.83813
1263.06	7.00928
1266.43	9.48608
1269.81	9.48328
1273.18	4.33569
1276.56	3.39136
1279.93	5.71802
1283.3	4.97424
1286.68	6.60425
1290.05	8.57471
1293.43	7.66736
1296.8	2.7572
1300.18	0.000488
