Measurement: Raman, 780 nm, unoriented, Raman Data Processed
Mineral: Osumilite-(Mg)
Rruff sample: R141102
Ideal chemistry: KMg_2_(Al_5_Si_10_)O_30_
Locality: Caspar quarry, Bellerberg volcano, Mayen, Eifel, Germany
Source: Ch. and H. Sch√§fer
Description: Pale blue short prismatic or tabular hexagonal crystals, associated with acicular mullite, colorless sanidine, reddish rutile.
Raman shift (cm-1)	intensity
105.903	0
109.278	0.025635
112.652	56.3257
116.027	226.099
119.402	363.221
122.777	428.05
126.152	385.49
129.526	271.058
132.901	127.832
136.276	42.5027
139.651	29.7107
143.026	2.05688
146.401	5.06152
149.775	5.70825
153.15	36.9309
156.525	114.008
159.9	184.012
163.275	70.3203
166.649	5.38672
170.024	8.73389
173.399	0.098145
176.774	6.34888
180.149	17.0691
183.524	29.2522
186.898	43.7385
190.273	40.429
193.648	53.7185
197.023	51.4646
200.398	59.6423
203.773	61.1816
207.147	58.7778
210.522	71.8545
213.897	66.364
217.272	63.2163
220.647	66.5537
224.021	64.863
227.396	58.9026
230.771	60.2293
234.146	63.5129
237.521	67.856
240.895	72.1243
244.27	78.8298
247.645	83.8386
251.02	82.1577
254.395	86.1309
257.769	93.9961
261.144	115.013
264.519	147.757
267.894	191.845
271.269	250.894
274.644	314.668
278.018	364.654
281.393	345.382
284.768	269.944
288.143	190.391
291.518	125.676
294.892	87.4783
298.267	60.3057
301.642	43.1924
305.017	37.0613
308.392	29.8416
311.767	30.3696
315.141	14.7617
318.516	10.9934
321.891	5.7251
325.266	3.00049
328.641	1.13306
332.015	5.96484
335.39	2.00732
338.765	7.28979
342.14	3.58813
345.515	1.78174
348.89	0.253906
352.264	3.74731
355.639	16.021
359.014	24.3325
362.389	41.896
365.764	60.9932
369.139	86.532
372.513	109.51
375.888	134.139
379.263	147.48
382.638	140.254
386.013	122.212
389.387	87.5129
392.762	63.8999
396.137	33.7305
399.512	24.9307
402.887	12.2295
406.262	9.08081
409.636	0.459717
413.011	1.89673
416.386	1.92285
419.761	10.7754
423.136	10.3003
426.51	10.8543
429.885	10.1885
433.26	16.5957
436.635	20.5859
440.01	40.9482
443.385	52.0276
446.759	73.1936
450.134	90.7424
453.509	135.349
456.884	185.993
460.259	255.457
463.633	325.916
467.008	426.495
470.383	545.32
473.758	656.763
477.133	657.032
480.507	519.831
483.882	336.7
487.257	194.73
490.632	114.284
494.007	61.6125
497.382	28.4712
500.756	11.9067
504.131	1.10547
507.506	0.07666
510.881	5.1189
514.256	3.52881
517.63	13.3843
521.005	20.5579
524.38	30.6182
527.755	32.3323
531.13	48.4402
534.505	58.8176
537.879	83.6794
541.254	113.279
544.629	146.371
548.004	160.404
551.379	138.809
554.753	87.1951
558.128	49.1472
561.503	27.2517
564.878	22.8474
568.253	20.6653
571.628	10.1126
575.002	6.95142
578.377	1.3855
581.752	5.33398
585.127	2.10376
588.502	7.30957
591.876	2.00635
595.251	2.86646
598.626	0.81665
602.001	15.1209
605.376	20.416
608.75	14.2864
612.125	23.8904
615.5	31.8054
618.875	35.197
622.25	59.7869
625.625	73.7402
629	100.438
632.374	127.456
635.749	130.516
639.124	97.4429
642.499	65.1265
645.874	45.2031
649.248	36.7388
652.623	32.0176
655.998	28.4082
659.373	11.7881
662.748	7.89453
666.122	17.2598
669.497	10.5308
672.872	9.396
676.247	10.2295
679.622	0.753418
682.996	1.75195
686.371	3.88867
689.746	13.6807
693.121	16.5801
696.496	2.6665
699.871	2.81006
703.245	4.91943
706.62	0.154297
709.995	3.76269
713.37	16.6196
716.745	13.8042
720.12	5.12354
723.494	0.60791
726.869	6.40088
730.244	1.09814
733.619	12.5068
736.994	7.46436
740.368	11.0332
743.743	3.10889
747.118	2.39209
750.493	0.961914
753.868	5.66699
757.242	7.10498
760.617	14.4815
763.992	16.7891
767.367	7.77637
770.742	2.95166
774.117	6.56641
777.491	11.5591
780.866	8.3877
784.241	9.48291
787.616	8.60791
790.991	6.23584
794.365	9.29688
797.74	2.396
801.115	8.61621
804.49	20.5498
807.865	9.2207
811.24	8.47363
814.614	21.582
817.989	13.3574
821.364	15.4912
824.739	13.2602
828.114	12.7461
831.489	3.646
834.863	21.9165
838.238	23.0298
841.613	21.0088
844.988	24.4229
848.362	17.6348
851.737	13.2041
855.112	24.9517
858.487	14.6763
861.862	14.7568
865.237	13.9619
868.611	16.4219
871.986	10.3872
875.361	5.19922
878.736	7.11865
882.111	14.8872
885.486	15.0718
888.86	9.45459
892.235	7.68994
895.61	2.56543
898.985	12.5479
902.36	12.5757
905.734	10.8169
909.109	20.6758
912.484	6.30518
915.859	11.5923
919.234	3.32861
922.609	5.08691
925.983	18.2524
929.358	25.2725
932.733	8.4165
936.108	1.89795
939.483	4.19971
942.857	0.68457
946.232	10.3052
949.607	7.36475
952.982	8.78857
956.357	1.36231
959.731	2.60596
963.106	6.42383
966.481	8.25146
969.856	12.5278
973.231	6.26318
976.606	1.66406
979.98	6.43164
983.355	12.2764
986.73	20.1191
990.105	14.8486
993.48	23.0806
996.855	18.5913
1000.23	18.4961
1003.6	8.96826
1006.98	11.9521
1010.35	14.7549
1013.73	16.144
1017.1	6.97852
1020.48	6.66113
1023.85	11.624
1027.23	11.4126
1030.6	32.4785
1033.98	26.4253
1037.35	10.8608
1040.73	20.166
1044.1	13.686
1047.48	36.1572
1050.85	24.9585
1054.23	43.2861
1057.6	46.811
1060.98	58.4551
1064.35	53.7319
1067.73	42.0933
1071.1	39.9565
1074.47	39.9702
1077.85	39.9878
1081.22	14.9233
1084.6	16.6802
1087.97	13.1606
1091.35	1.10693
1094.72	9.56836
1098.1	5.02393
1101.47	3.93555
1104.85	4.521
1108.22	9.38818
1111.6	1.98975
1114.97	0.994629
1118.35	0.679688
1121.72	3.15381
1125.1	9.91602
1128.47	6.29443
1131.85	19.7075
1135.22	19.7642
1138.6	21.3691
1141.97	20.1777
1145.35	22.9414
1148.72	28.9717
1152.1	26.5308
1155.47	29.1314
1158.85	45.3335
1162.22	47.5679
1165.6	43.0366
1168.97	39.4785
1172.35	52.0518
1175.72	44.5469
1179.1	41.9937
1182.47	39.8721
1185.84	27.9038
1189.22	36.7227
1192.59	32.3413
1195.97	26.7764
1199.34	36.206
1202.72	32.9717
1206.09	34.9712
1209.47	30.6572
1212.84	22.8149
1216.22	7.854
1219.59	11.9482
1222.97	9.92529
1226.34	12.9141
1229.72	23.2734
1233.09	15.8667
1236.47	0.323242
1239.84	5.05811
1243.22	15.209
1246.59	14.1914
1249.97	3.49853
1253.34	6.47949
1256.71	13.3052
1260.09	4.41748
1263.46	12.7554
1266.84	17.7398
1270.21	28.2895
1273.59	10.127
1276.96	8.76465
1280.34	1.57715
