Measurement: Raman, 532 nm, unoriented, Raman Data RAW
Mineral: Otwayite
Rruff sample: R060384
Ideal chemistry: Ni^2+^_2_C^4+^O_3_(OH)_2_H_2_O
Locality: Otway Prospect, Nullagine Region, Western Australia, Australia
Source: Michael Scott
Description: Green transparent coating
Raman shift (cm-1)	intensity
88.1367	1084.33
91.5115	1224.8
94.8863	1327.57
98.2612	1465.49
101.636	1630.49
105.011	1828.24
108.386	2049.15
111.76	2258.46
115.135	2439.3
118.51	2620.79
121.885	2733.79
125.26	2887.63
128.635	3028.24
132.009	3180.22
135.384	3330.54
138.759	3441.68
142.134	3506.95
145.509	3521.68
148.883	3533.36
152.258	3542.02
155.633	3528.3
159.008	3524.72
162.383	3550.92
165.757	3547.07
169.132	3548.2
172.507	3560.14
175.882	3593.17
179.257	3584.34
182.632	3621.81
186.006	3613.35
189.381	3627.73
192.756	3643.81
196.131	3677.81
199.506	3671.96
202.881	3678.7
206.255	3696.34
209.63	3724.65
213.005	3751.22
216.38	3727.33
219.755	3698.94
223.129	3705.15
226.504	3713.34
229.879	3704.85
233.254	3726
236.629	3722.08
240.004	3717.09
243.378	3737.35
246.753	3750.45
250.128	3769.55
253.503	3767.57
256.878	3792.35
260.252	3797.78
263.627	3797.44
267.002	3798.09
270.377	3797.47
273.752	3818.75
277.127	3829.37
280.501	3825.59
283.876	3825.98
287.251	3831.68
290.626	3837.71
294.001	3843.04
297.375	3862.94
300.75	3875.58
304.125	3862.79
307.5	3870.16
310.875	3870.93
314.25	3889.63
317.624	3876.24
320.999	3886.53
324.374	3901.45
327.749	3902.99
331.124	3896.31
334.498	3908.03
337.873	3928.76
341.248	3923.41
344.623	3956.56
347.998	3940.87
351.373	3966.6
354.747	3965.18
358.122	3969.71
361.497	3957.47
364.872	3982.73
368.247	3991.69
371.621	3968.41
374.996	3958.54
378.371	3963.03
381.746	3973.05
385.121	3999.03
388.495	4010.33
391.87	3988.41
395.245	3999.96
398.62	4012.76
401.995	4019.82
405.37	4015.06
408.744	4006.44
412.119	4025.64
415.494	4034.32
418.869	4015.18
422.244	4028.89
425.618	4030.91
428.993	4032.93
432.368	4023.41
435.743	4052.89
439.118	4040.19
442.493	4046.58
445.867	4058.71
449.242	4058.51
452.617	4058.08
455.992	4052.11
459.367	4068.61
462.741	4085.25
466.116	4072.55
469.491	4075.23
472.866	4076.59
476.241	4094.59
479.615	4079.65
482.99	4070.1
486.365	4078.69
489.74	4069.79
493.115	4102.85
496.49	4114.18
499.864	4134.47
503.239	4123.42
506.614	4128.74
509.989	4128.06
513.364	4130.24
516.739	4125.45
520.113	4155.14
523.488	4171.58
526.863	4194.37
530.238	4170.59
533.613	4167.58
536.987	4186.18
540.362	4191.96
543.737	4166.83
547.112	4168.79
550.487	4169.95
553.861	4177.79
557.236	4188.85
560.611	4174.47
563.986	4177.86
567.361	4183.04
570.736	4206.18
574.11	4199.07
577.485	4194.71
580.86	4202.88
584.235	4215.18
587.61	4216.09
590.985	4194.7
594.359	4208.19
597.734	4204.89
601.109	4208.84
604.484	4212.51
607.859	4211.7
611.233	4241.51
614.608	4251.98
617.983	4244.43
621.358	4235.24
624.733	4228.32
628.107	4219.78
631.482	4225.61
634.857	4237.6
638.232	4231.91
641.607	4245.38
644.982	4234.6
648.356	4230.9
651.731	4257.02
655.106	4242.66
658.481	4260.4
661.856	4267.95
665.231	4268.65
668.605	4295.77
671.98	4315.99
675.355	4293.39
678.73	4298.98
682.105	4299.22
685.479	4298.46
688.854	4285.14
692.229	4267.63
695.604	4232.8
698.979	4231.94
702.354	4233.59
705.728	4232.96
709.103	4246.57
712.478	4239.03
715.853	4229.77
719.227	4226.13
722.602	4221.19
725.977	4235.74
729.352	4235.24
732.727	4235.04
736.102	4245.14
739.476	4248.5
742.851	4243.26
746.226	4226.38
749.601	4248.05
752.976	4245.65
756.351	4251.81
759.725	4235.63
763.1	4231.8
766.475	4233.39
769.85	4243.58
773.225	4238.31
776.599	4237.89
779.974	4234.92
783.349	4247.26
786.724	4233.37
790.099	4242.2
793.473	4227.83
796.848	4239.96
800.223	4236.42
803.598	4223.26
806.973	4220.44
810.348	4219.96
813.722	4228.4
817.097	4226.27
820.472	4228.34
823.847	4218.35
827.222	4220.6
830.597	4221.56
833.971	4241.86
837.346	4234.24
840.721	4239.68
844.096	4237.16
847.471	4227.78
850.846	4239.15
854.22	4243.39
857.595	4220.65
860.97	4223.18
864.345	4228.83
867.72	4213.48
871.094	4216.08
874.469	4201.36
877.844	4194.79
881.219	4202.46
884.594	4211.12
887.968	4229.34
891.343	4210.35
894.718	4192.38
898.093	4199.86
901.468	4205.97
904.842	4197.33
908.217	4201.1
911.592	4203.8
914.967	4206.02
918.342	4198.64
921.717	4205.81
925.091	4188.46
928.466	4185.51
931.841	4205.64
935.216	4191.12
938.591	4192.21
941.966	4202.11
945.34	4188.53
948.715	4179.65
952.09	4182.93
955.465	4179.77
958.84	4181.02
962.214	4193.05
965.589	4205.89
968.964	4201.81
972.339	4185.73
975.714	4188.6
979.088	4197.51
982.463	4180.96
985.838	4191.4
989.213	4192.03
992.588	4189.4
995.963	4190.03
999.337	4189.9
1002.71	4193.89
1006.09	4195.67
1009.46	4191.65
1012.84	4187.02
1016.21	4161.67
1019.59	4171.29
1022.96	4162.17
1026.34	4177.33
1029.71	4168.69
1033.09	4189.4
1036.46	4192.4
1039.84	4184.07
1043.21	4174.3
1046.59	4153.94
1049.96	4168.01
1053.33	4172.7
1056.71	4179.58
1060.08	4174.28
1063.46	4164.05
1066.83	4174.56
1070.21	4177.58
1073.58	4182.78
1076.96	4179.07
1080.33	4167.69
1083.71	4189.52
1087.08	4173.11
1090.46	4167.93
1093.83	4147.46
1097.21	4158.01
1100.58	4177.66
1103.96	4166.75
1107.33	4134.7
1110.71	4121.11
1114.08	4126.04
1117.46	4153.21
1120.83	4171.75
1124.21	4203.69
1127.58	4135.41
1130.95	4134.58
1134.33	4150.36
1137.7	4162.57
1141.08	4159.67
1144.45	4152.19
1147.83	4153.33
1151.2	4159.23
1154.58	4166.28
1157.95	4157.67
1161.33	4162.06
1164.7	4172.5
1168.08	4130.15
1171.45	4159.13
1174.83	4187.16
1178.2	4168.01
1181.58	4162.06
1184.95	4176.19
1188.33	4173.69
1191.7	4186.97
1195.08	4178.94
1198.45	4175.22
1201.83	4175.27
1205.2	4158.8
1208.58	4156.27
1211.95	4180.01
1215.33	4186.28
1218.7	4172.97
1222.08	4163.57
1225.45	4166.02
1228.83	4148.91
1232.2	4150.69
1235.58	4147.62
1238.95	4139
1242.32	4181.42
1245.7	4178.73
1249.07	4181.67
1252.45	4164.04
1255.82	4180.45
1259.2	4178.37
1262.57	4156.04
1265.95	4147.41
1269.32	4146.2
1272.7	4151.16
1276.07	4122.81
1279.45	4144.99
1282.82	4128.67
1286.2	4147.15
1289.57	4114.68
1292.95	4133.15
1296.32	4124.24
1299.7	4131.27
