Measurement: Raman, 780 nm, unoriented, Raman Data Processed
Mineral: Otwayite
Rruff sample: R060384
Ideal chemistry: Ni^2+^_2_C^4+^O_3_(OH)_2_H_2_O
Locality: Otway Prospect, Nullagine Region, Western Australia, Australia
Source: Michael Scott
Description: Green transparent coating
Raman shift (cm-1)	intensity
175.327	0
178.22	0.638428
181.113	8.73688
184.005	10.1085
186.898	18.2573
189.791	19.307
192.684	22.1601
195.576	24.6694
198.469	34.5218
201.362	60.4039
204.254	83.5104
207.147	93.5935
210.04	88.9344
212.932	58.3915
215.825	28.4969
218.718	16.24
221.611	4.98114
224.503	1.76306
227.396	0.135742
230.289	0.100891
233.181	0.265015
236.074	1.03174
238.967	1.06274
241.859	0.78363
244.752	5.34241
247.645	4.41089
250.537	7.5354
253.43	13.0115
256.323	14.8223
259.216	12.9057
262.108	8.81189
265.001	6.87695
267.894	3.34558
270.786	0.053955
273.679	0.163757
276.572	0.284851
279.464	1.14166
282.357	0.323792
285.25	2.73029
288.143	4.4704
291.035	1.5852
293.928	1.83936
296.821	1.07153
299.713	0.114136
302.606	1.258
305.499	3.63629
308.392	3.6831
311.284	10.3526
314.177	12.5369
317.07	11.2625
319.962	11.2301
322.855	9.19373
325.748	8.63977
328.64	4.38568
331.533	8.76556
334.426	12.6362
337.319	10.2191
340.211	13.9652
343.104	19.6202
345.997	28.6574
348.889	35.6641
351.782	43.8792
354.675	54.3268
357.567	61.1761
360.46	61.0163
363.353	57.3821
366.246	54.665
369.138	42.7675
372.031	32.1283
374.924	24.7565
377.816	22.6309
380.709	19.4276
383.602	15.1559
386.495	10.9477
389.387	9.36719
392.28	8.67664
395.173	0.346375
398.065	1.69757
400.958	0.897705
403.851	0.203491
406.743	0.807251
409.636	2.43036
412.529	0.563477
415.421	3.77948
418.314	5.59051
421.207	5.95673
424.1	7.44721
426.992	11.3282
429.885	9.79639
432.778	13.3212
435.67	11.9587
438.563	13.1702
441.456	13.1449
444.349	14.4764
447.241	16.0862
450.134	16.3802
453.027	18.3858
455.919	21.9642
458.812	20.2571
461.705	24.1543
464.597	19.9098
467.49	16.9019
470.383	18.3341
473.276	12.128
476.168	11.5557
479.061	11.4824
481.954	9.09576
484.846	11.5313
487.739	11.9506
490.632	13.8378
493.524	17.873
496.417	17.2612
499.31	16.4806
502.202	16.1668
505.095	15.6977
507.988	17.7124
510.881	18.4377
513.773	21.8115
516.666	28.2379
519.559	44.587
522.451	51.142
525.344	54.7429
528.237	58.9054
531.13	60.2529
534.022	61.76
536.915	56.0936
539.808	43.9337
542.7	32.538
545.593	24.3132
548.486	19.5582
551.378	17.3786
554.271	12.3732
557.164	11.476
560.057	6.51856
562.949	3.82568
565.842	1.58557
568.735	0.723755
571.627	1.19849
574.52	0.93811
577.413	0.547913
580.305	1.3952
583.198	0.222656
586.091	0.523315
588.984	1.23438
591.876	2.3529
594.769	1.27203
597.662	1.43127
600.554	3.76581
603.447	0.71283
606.34	1.70349
609.232	2.73108
612.125	4.98126
615.018	4.34296
617.911	7.34601
620.803	10.7065
623.696	10.6215
626.589	13.1417
629.481	13.2842
632.374	17.0854
635.267	15.2432
638.159	21.0411
641.052	20.1197
643.945	22.2943
646.838	27.7731
649.73	29.4217
652.623	33.3931
655.516	40.0623
658.408	49.3792
661.301	60.1115
664.194	67.0819
667.087	75.9942
669.979	88.1799
672.872	97.4637
675.765	105.29
678.657	107.713
681.55	100.684
684.443	78.6453
687.335	63.4475
690.228	39.6246
693.121	28.6801
696.014	20.5644
698.906	15.574
701.799	10.5727
704.692	8.14209
707.584	10.9188
710.477	5.84711
713.37	2.27106
716.262	1.44049
719.155	1.78863
722.048	7.11285
724.941	1.61127
727.833	2.97205
730.726	2.45496
733.619	1.69098
736.511	1.95581
739.404	1.82269
742.297	0.165894
745.189	0.728027
748.082	0.840759
750.975	1.02203
753.867	1.13397
756.76	1.63818
759.653	2.25189
762.546	2.98715
765.438	3.36475
768.331	3.51956
771.224	2.18591
774.116	2.71887
777.009	3.84592
779.902	0.542786
782.795	1.03088
785.687	0.038483
788.58	3.32159
791.473	1.08926
794.365	1.51746
797.258	1.87695
800.151	1.84622
803.043	5.07965
805.936	2.20822
808.829	2.40131
811.722	1.41193
814.614	3.21243
817.507	5.51605
820.4	4.3486
823.292	3.67566
826.185	5.87872
829.078	3.83872
831.971	3.42957
834.863	7.46762
837.756	8.55518
840.649	10.074
843.541	10.7872
846.434	11.955
849.327	10.7201
852.219	9.73383
855.112	9.75403
858.005	12.8246
860.898	13.6556
863.79	12.7829
866.683	11.495
869.576	9.82333
872.468	9.37915
875.361	7.68424
878.254	6.1181
881.146	5.87695
884.039	6.32535
886.932	1.86584
889.824	2.77466
892.717	0.952728
895.61	2.37207
898.503	2.3385
901.395	1.23441
904.288	2.72079
907.181	0.78006
910.073	1.44473
912.966	0.119781
915.859	1.00403
918.751	0.35376
921.644	0.456909
924.537	1.80402
927.43	1.59595
930.322	3.76001
933.215	1.64581
936.108	1.2532
939	1.87592
941.893	1.2439
944.786	1.81558
947.678	0.009796
950.571	1.24271
953.464	2.26706
956.357	1.77081
959.249	0.965149
962.142	2.58429
965.035	4.63007
967.927	3.13309
970.82	3.90625
973.713	2.80963
976.606	5.89838
979.498	6.92703
982.391	5.32617
985.284	4.72363
988.176	2.79016
991.069	0.589111
993.962	1.71951
996.854	1.70795
999.747	0.950134
1002.64	1.7178
1005.53	1.78244
1008.42	0.595032
1011.32	2.03815
1014.21	4.43133
1017.1	2.44052
1020	3.32736
1022.89	3.86343
1025.78	1.87518
1028.67	6.1402
1031.57	3.91482
1034.46	5.82388
1037.35	9.14679
1040.24	9.36453
1043.14	7.99042
1046.03	10.469
1048.92	10.8016
1051.82	13.8565
1054.71	23.3025
1057.6	20.1769
1060.49	17.4558
1063.39	16.8931
1066.28	13.2224
1069.17	12.7923
1072.07	14.7936
1074.96	16.1269
1077.85	15.704
1080.74	17.8612
1083.63	18.6844
1086.53	19.5372
1089.42	17.5118
1092.31	12.8723
1095.21	7.55868
1098.1	5.6524
1100.99	4.28885
1103.88	3.39859
1106.78	4.36072
1109.67	1.63827
1112.56	0.030579
1115.45	0.886475
1118.35	1.27463
1121.24	3.33377
1124.13	0.683411
1127.03	0.204773
1129.92	0.352173
1132.81	0.948792
1135.7	0.988892
1138.6	1.75794
1141.49	1.34174
1144.38	5.32419
1147.28	2.02881
1150.17	3.67017
1153.06	4.32785
1155.95	2.48291
1158.85	3.62237
1161.74	3.37335
1164.63	2.17554
1167.52	3.36081
1170.42	4.90121
1173.31	4.41031
1176.2	5.80847
1179.1	3.30985
1181.99	4.19189
1184.88	4.12787
1187.77	4.86432
1190.66	5.42566
1193.56	3.57809
1196.45	3.4584
1199.34	2.85349
1202.24	3.16772
1205.13	1.70312
1208.02	2.67004
1210.91	2.12772
1213.81	2.60748
1216.7	3.82135
1219.59	2.36716
1222.48	4.76315
1225.38	2.59888
1228.27	0.851349
1231.16	0.0961
1234.06	0.941284
1236.95	0.827271
1239.84	2.17111
1242.73	2.24234
1245.63	3.22882
1248.52	1.4902
1251.41	0.092682
1254.31	1.65106
1257.2	2.18961
1260.09	1.84012
1262.98	4.05795
1265.88	2.97864
1268.77	3.72797
1271.66	2.81958
1274.55	4.0621
1277.45	1.2363
1280.34	2.91321
