Measurement: Raman, 532 nm, unoriented, Raman Data Processed
Mineral: Oxy-dravite
Rruff sample: R141094
Ideal chemistry: Na(Al_2_Mg)(Al_5_Mg)(Si_6_O_18_)(BO_3_)_3_(OH)_3_O
Locality: Strada Vilante, San Martino al Cimino, Vico volcano, Viterbo, Latium, Italy
Source: Ch. and H. Sch√§fer
Description: Blue-grey prismatic crystals
Raman shift (cm-1)	intensity
141.652	0
145.026	6.38281
148.401	60.3223
151.776	110.932
155.151	142.975
158.526	67.8008
161.901	38.2461
165.275	7.99023
168.65	10.2891
172.025	1.54492
175.4	48.1523
178.775	37.5469
182.149	65.4219
185.524	42.3223
188.899	35.8711
192.274	67.0254
195.649	154.596
199.024	217.305
202.398	335.926
205.773	491.795
209.148	798.049
212.523	1157.65
215.898	1412.8
219.273	1368.74
222.647	1227.07
226.022	1063.85
229.397	987.885
232.772	1114.56
236.147	1225.06
239.521	1318.89
242.896	1298.32
246.271	1182.94
249.646	967.791
253.021	798.203
256.396	643.664
259.77	553.576
263.145	524.65
266.52	463.703
269.895	387.805
273.27	323.975
276.644	198.82
280.019	147.352
283.394	138.166
286.769	129.699
290.144	50.7949
293.519	46.1914
296.893	18.5625
300.268	33.6992
303.643	68.6641
307.018	57.8047
310.392	120.004
313.767	156.606
317.142	80.3926
320.517	13.2207
323.892	19.7949
327.267	0.871094
330.641	10.7227
334.016	54.9922
337.391	84.9922
340.766	119.338
344.141	120.59
347.515	218.742
350.89	295.941
354.265	383.818
357.64	458.967
361.015	661.861
364.39	1012.3
367.764	1572.05
371.139	2122.61
374.514	2209.74
377.889	1628.07
381.264	970.301
384.639	579.166
388.013	371.103
391.388	267.533
394.763	229.975
398.138	212.857
401.513	177.728
404.887	84.5527
408.262	66.4981
411.637	123.508
415.012	119.918
418.387	45.8809
421.762	20.7129
425.136	11.8574
428.511	72.7891
431.886	85.0234
435.261	70.2852
438.636	66.1387
442.01	81.2891
445.385	144.18
448.76	114.689
452.135	125.805
455.51	121.562
458.885	98.7715
462.259	45.9336
465.634	4.90039
469.009	31.8281
472.384	31.0293
475.759	50.9531
479.133	42.1953
482.508	13.6406
485.883	59.9648
489.258	162.324
492.633	198.742
496.007	183.096
499.382	215.205
502.757	265.197
506.132	271.293
509.507	283.627
512.882	237.82
516.256	220.193
519.631	182.07
523.006	109.953
526.381	126.311
529.756	204.586
533.13	242.213
536.505	194.957
539.88	213.703
543.255	204.133
546.63	210.523
550.005	181.303
553.379	200.707
556.754	248.834
560.129	227.703
563.504	181.133
566.879	192.738
570.254	172.014
573.628	164.904
577.003	150.258
580.378	85.9981
583.753	94.5176
587.128	82.1133
590.502	41.873
593.877	9.93164
597.252	0.826172
600.627	7.90039
604.002	6.60547
607.376	9.53906
610.751	14.7422
614.126	2.80859
617.501	11.8398
620.876	30.8223
624.25	61.9727
627.625	59.2617
631	97.5078
634.375	138.33
637.75	133.795
641.125	81.1621
644.5	32.9668
647.874	50.5137
651.249	85.8887
654.624	117.51
657.999	82.0527
661.374	65.4707
664.748	49.2207
668.123	131.562
671.498	133.744
674.873	170.865
678.248	218.527
681.622	190.734
684.997	233.5
688.372	201.828
691.747	186.775
695.122	240.404
698.496	353.248
701.871	417.484
705.246	469.269
708.621	448.291
711.996	395.82
715.371	286.076
718.745	182.293
722.12	123.272
725.495	85.4746
728.87	60.832
732.245	37.582
735.62	44.207
738.994	47.9629
742.369	41.9102
745.744	49.627
749.119	36.5059
752.494	27.7461
755.868	7.82227
759.243	22.9961
762.618	1.26367
765.993	5.11328
769.368	13.8398
772.742	61.3633
776.117	61.7422
779.492	98.7519
782.867	98.8438
786.242	43.8945
789.617	84.3984
792.991	112.121
796.366	90.0918
799.741	114.441
803.116	117.963
806.491	137.498
809.865	149.684
813.24	157.103
816.615	157.647
819.99	250.268
823.365	232.33
826.74	185.926
830.114	183.553
833.489	186.463
836.864	199.107
840.239	188.07
843.614	120.647
846.989	80.293
850.363	127.891
853.738	89.1543
857.113	42.2266
860.488	73.3848
863.863	129.147
867.237	150.859
870.612	151.801
873.987	16.4453
877.362	31.2695
880.737	19.5625
884.111	4.65234
887.486	30.2188
890.861	22.4141
894.236	87.4805
897.611	151.539
900.986	108.973
904.36	111.734
907.735	146.137
911.11	117.914
914.485	113.106
917.86	147.551
921.235	158.223
924.609	194.168
927.984	206.727
931.359	174.926
934.734	76.7891
938.109	88.6953
941.483	98.0977
944.858	97.0703
948.233	34.8984
951.608	33.2383
954.983	13.8594
958.357	124.293
961.732	150.969
965.107	67.2773
968.482	38.8281
971.857	90.7227
975.232	98.0977
978.606	92.2812
981.981	44.25
985.356	20.6406
988.731	29.5625
992.106	42.2188
995.481	10.9688
998.855	17.957
1002.23	23.7812
1005.61	151.625
1008.98	193.644
1012.36	234.59
1015.73	219.816
1019.1	122.059
1022.48	80.3594
1025.85	138.594
1029.23	152.844
1032.6	155.398
1035.98	107.668
1039.35	78.3438
1042.73	159.727
1046.1	147.856
1049.48	189.926
1052.85	169.844
1056.23	178.527
1059.6	218.125
1062.98	225.441
1066.35	169.535
1069.73	143.402
1073.1	152.777
1076.48	190.199
1079.85	116.559
1083.23	90.418
1086.6	140.168
1089.97	115.391
1093.35	130.176
1096.72	96.0469
1100.1	151.59
1103.47	162.59
1106.85	183.09
1110.22	264.113
1113.6	245.574
1116.97	182.684
1120.35	76.0938
1123.72	3.90625
1127.1	20.3984
1130.47	34.2383
1133.85	16.2148
1137.22	16.2578
1140.6	111.672
1143.97	63.6172
1147.35	38.7773
1150.72	52.7656
1154.1	143.812
1157.47	91.3359
1160.85	175.32
1164.22	177.492
1167.6	139.551
1170.97	157.262
1174.35	129.906
1177.72	110.816
1181.1	167.801
1184.47	196.074
1187.85	198.359
1191.22	270.844
1194.6	265.223
1197.97	174.723
1201.34	151.344
1204.72	189.769
1208.09	169.719
1211.47	168.383
1214.84	139.812
1218.22	145.644
1221.59	188.305
1224.97	174.859
1228.34	139.926
1231.72	125.519
1235.09	111.852
1238.47	94.082
1241.84	73.4258
1245.22	91.2812
1248.59	126.184
1251.97	124.016
1255.34	153.527
1258.72	160.106
1262.09	88.2617
1265.47	66.7812
1268.84	91.5156
1272.21	20.9961
1275.59	32.9883
1278.96	38.2539
1282.34	62.7305
1285.71	100.644
1289.09	144.43
1292.46	124.996
1295.84	15.7109
1299.21	4.125
