Measurement: Raman, 780 nm, unoriented, Raman Data Processed
Mineral: Oxy-dravite
Rruff sample: R141094
Ideal chemistry: Na(Al_2_Mg)(Al_5_Mg)(Si_6_O_18_)(BO_3_)_3_(OH)_3_O
Locality: Strada Vilante, San Martino al Cimino, Vico volcano, Viterbo, Latium, Italy
Source: Ch. and H. Sch√§fer
Description: Blue-grey prismatic crystals
Raman shift (cm-1)	intensity
176.774	0
179.667	7.13281
182.559	18.0869
185.452	7.92773
188.345	12.1025
191.237	7.87305
194.13	0.06543
197.023	17.0713
199.916	20.917
202.808	32.8975
205.701	48.3242
208.594	35.3867
211.486	77.4912
214.379	94.3711
217.272	108.468
220.164	112.901
223.057	116.786
225.95	127.427
228.843	99.8721
231.735	120.259
234.628	139.897
237.521	123.863
240.413	112.784
243.306	116.398
246.199	120.099
249.091	104.308
251.984	88.1719
254.877	76.7441
257.769	61.7842
260.662	63.3818
263.555	78.8506
266.448	70.2803
269.34	39.1865
272.233	50.4629
275.126	37.1113
278.018	34.9834
280.911	48.5488
283.804	35.9258
286.697	21.7979
289.589	26.832
292.482	27.4385
295.375	32.207
298.267	26.8496
301.16	34.0469
304.053	22.127
306.945	30.4434
309.838	31.8193
312.731	22.7871
315.623	20.5381
318.516	36.3779
321.409	2.82715
324.302	11.2188
327.194	10.3418
330.087	15.4551
332.98	0.352539
335.873	8.07422
338.765	10.5459
341.658	8.27246
344.551	12.7812
347.443	35.6397
350.336	25.7061
353.229	42.5791
356.121	51.4424
359.014	48.1855
361.907	61.6885
364.8	87.2978
367.692	117.074
370.585	137.443
373.478	142.359
376.37	133.665
379.263	111.226
382.156	77.7715
385.048	48.3535
387.941	26.2734
390.834	16.9453
393.726	23.041
396.619	9.45605
399.512	24.1104
402.405	5.96582
405.297	7.18359
408.19	16.2861
411.083	6.31543
413.975	16.6006
416.868	2.6416
419.761	10.9971
422.654	18.3936
425.546	1.37988
428.439	8.78906
431.332	22.584
434.224	16.999
437.117	39.6611
440.01	53.8926
442.902	41.5947
445.795	37.0156
448.688	56.4258
451.58	36.3379
454.473	66.3613
457.366	66.2402
460.259	46.0098
463.151	48.915
466.044	46.7178
468.937	52.5938
471.829	50.4775
474.722	55.4658
477.615	59.0547
480.507	40.5166
483.4	42.8174
486.293	48.6016
489.186	48.8633
492.078	68.9902
494.971	52.8994
497.864	50.8613
500.756	41.9712
503.649	33.7446
506.542	26.9619
509.435	28.3491
512.327	36.9546
515.22	16.8115
518.112	43.314
521.005	15.3047
523.898	38.5239
526.791	19.5972
529.683	17.9311
532.576	11.2271
535.469	16.1909
538.361	31.8584
541.254	28.8296
544.147	35.5884
547.04	25.1323
549.932	21.1016
552.825	3.97363
555.718	4.29443
558.61	6.63086
561.503	7.83203
564.396	19.9297
567.288	6.93604
570.181	14.9829
573.074	8.41943
575.967	19.9375
578.859	30.8291
581.752	33.8804
584.645	23.9609
587.537	6.5957
590.43	7.87451
593.323	14.4731
596.216	18.2817
599.108	18.2002
602.001	27.3081
604.894	25.6611
607.786	19.689
610.679	18.8545
613.572	6.63232
616.464	27.4927
619.357	9.02637
622.25	15.3237
625.143	20.1533
628.035	15.4849
630.928	41.7036
633.821	32.8667
636.713	33.4683
639.606	35.2549
642.499	27.9692
645.391	9.3125
648.284	4.92041
651.177	14.1528
654.069	22.6113
656.962	16.6855
659.855	14.0703
662.748	9.03174
665.64	15.4429
668.533	5.07324
671.426	0.909668
674.318	11.4204
677.211	21.2163
680.104	10.3677
682.996	10.0415
685.889	6.85742
688.782	3.06006
691.675	5.61865
694.567	2.14014
697.46	7.01318
700.353	7.18604
703.245	18.5073
706.138	12.7422
709.031	30.0098
711.923	23.3906
714.816	13.519
717.709	18.6606
720.602	8.34717
723.494	25.5991
726.387	12.5215
729.28	44.0903
732.172	27.0767
735.065	15.5488
737.958	12.9028
740.851	18.832
743.743	9.05322
746.636	12.8018
749.529	10.9521
752.421	11.5337
755.314	15.5381
758.207	2.75391
761.099	23.1191
763.992	9.51025
766.885	4.30078
769.778	15.0898
772.67	2.41992
775.563	9.46143
778.456	3.33496
781.348	5.34912
784.241	14.8057
787.134	12.2739
790.026	7.92627
792.919	16.6904
795.812	15.8887
798.705	2.49463
801.597	0.973633
804.49	22.8994
807.383	23.2822
810.275	22.2808
813.168	35.3545
816.061	18.148
818.953	6.5874
821.846	13.1504
824.739	11.728
827.631	12.8501
830.524	16.4434
833.417	16.3984
836.31	35.5298
839.202	24.3604
842.095	21.0513
844.988	26.3364
847.88	14.6284
850.773	20.5391
853.666	16.7837
856.558	15.623
859.451	18.7847
862.344	11.2539
865.237	11.3779
868.129	4.78662
871.022	13.5679
873.915	9.02246
876.807	3.89404
879.7	9.4165
882.593	21.1777
885.486	10.2896
888.378	11.6548
891.271	19.647
894.164	2.09228
897.056	9.18066
899.949	10.6245
902.842	22.2617
905.734	15.2729
908.627	14.6157
911.52	8.96143
914.413	2.33252
917.305	0.496094
920.198	3.28223
923.091	7.21777
925.983	14.6851
928.876	16.7881
931.769	14.3213
934.661	11.5024
937.554	4.62549
940.447	7.65137
943.34	13.8379
946.232	1.05859
949.125	11.6133
952.018	25.7334
954.91	5.06885
957.803	20.5894
960.696	14.0991
963.588	18.9512
966.481	8.36426
969.374	14.271
972.266	9.17725
975.159	23.7266
978.052	14.6924
980.945	19.7773
983.837	18.5347
986.73	10.083
989.623	6.55371
992.515	18.7471
995.408	12.1074
998.301	12.957
1001.19	9.82715
1004.09	6.01514
1006.98	9.64551
1009.87	21.8325
1012.76	17.4419
1015.66	9.93018
1018.55	7.85938
1021.44	0.445313
1024.34	11.2988
1027.23	5.17676
1030.12	21.0815
1033.01	18.9634
1035.91	24.3403
1038.8	8.01953
1041.69	9.7085
1044.58	3.08252
1047.48	14.7554
1050.37	5.32202
1053.26	7.03979
1056.15	5.90771
1059.05	17.2961
1061.94	14.2822
1064.83	21.3691
1067.73	2.74316
1070.62	6.35474
1073.51	19.6482
1076.4	5.36572
1079.3	14.4158
1082.19	8.70898
1085.08	10.2734
1087.97	8.26489
1090.87	8.3877
1093.76	8.79395
1096.65	11.9429
1099.55	8.75854
1102.44	16.5652
1105.33	14.9976
1108.22	17.3552
1111.12	17.0864
1114.01	6.17993
1116.9	0.810303
1119.79	0.253174
1122.69	1.89136
1125.58	12.1177
1128.47	2.83325
1131.37	2.69312
1134.26	1.77954
1137.15	11.5422
1140.04	5.21265
1142.94	2.46948
1145.83	5.20972
1148.72	2.91992
1151.61	2.37427
1154.51	8.41211
1157.4	4.4707
1160.29	18.5869
1163.18	13.9617
1166.08	13.3997
1168.97	8.24927
1171.86	13.6511
1174.76	19.1504
1177.65	14.4746
1180.54	23.5789
1183.43	19.6936
1186.33	20.9165
1189.22	17.2654
1192.11	16.8625
1195.01	22.8877
1197.9	14.7322
1200.79	28.0906
1203.68	33.6773
1206.58	27.9475
1209.47	32.1184
1212.36	38.1065
1215.25	41.6812
1218.15	50.521
1221.04	43.1047
1223.93	46.9246
1226.82	41.9675
1229.72	42.1108
1232.61	38.6665
1235.5	27.0054
1238.39	17.9793
1241.29	20.8909
1244.18	21.0256
1247.07	12.2202
1249.97	1.61572
1252.86	6.45044
1255.75	6.25586
1258.64	15.5305
1261.54	8.104
1264.43	6.0459
1267.32	7.02515
1270.21	12.9058
1273.11	2.80371
1276	7.49341
1278.89	7.38647
1281.79	1.24853
