Measurement: Raman, 780 nm, unoriented, Raman Data Processed
Mineral: Oxyphlogopite
Rruff sample: R141079
Ideal chemistry: K(Mg,Ti^4+^,Fe^3+^,Fe^2+^)_3_[(Si,Al)_4_O_10_](O,F)_2_
Locality: Nickenicher Sattel, Nickenich, Eifel, Germany
Source: Ch. and H. Sch√§fer
Description: Dark brown to almost black platy crystals, associated with sodalite.
Raman shift (cm-1)	intensity
97.7068	0
101.082	5.022
104.456	4.34695
107.831	12.4349
111.206	0.273956
114.581	3.46484
117.956	1.87497
121.331	1.73401
124.705	3.56174
128.08	3.27292
131.455	3.53494
134.83	5.18405
138.205	9.69269
141.579	8.55362
144.954	6.6727
148.329	9.35309
151.704	7.55466
155.079	10.4162
158.453	13.1783
161.828	14.9456
165.203	17.5033
168.578	17.0103
171.953	18.7946
175.328	19.5
178.702	20.8731
182.077	19.5732
185.452	19.2954
188.827	19.5091
192.202	20.2414
195.577	18.7994
198.951	14.7728
202.326	12.3368
205.701	7.60996
209.076	4.66394
212.451	4.96414
215.825	3.59518
219.2	4.36603
222.575	1.98904
225.95	6.61175
229.325	5.8905
232.7	5.31784
236.074	5.21161
239.449	5.56012
242.824	7.23999
246.199	5.94818
249.574	4.08414
252.948	2.73227
256.323	2.40765
259.698	1.38281
263.073	2.45184
266.448	1.69946
269.822	2.6041
273.197	3.63885
276.572	1.26337
279.947	1.99966
283.322	0.639435
286.697	5.46173
290.071	7.84894
293.446	12.7146
296.821	19.5622
300.196	27.5763
303.571	38.5783
306.945	47.5651
310.32	55.4038
313.695	67.7841
317.07	77.4092
320.445	85.8223
323.82	96.6059
327.194	102.155
330.569	105.71
333.944	109.615
337.319	110.128
340.694	108.984
344.068	110.578
347.443	105.836
350.818	103.148
354.193	96.5847
357.568	89.2184
360.942	79.9289
364.317	71.0286
367.692	60.4053
371.067	51.6587
374.442	42.736
377.817	36.8686
381.191	29.3978
384.566	22.9661
387.941	19.7363
391.316	16.1826
394.691	15.5905
398.065	14.7434
401.44	16.2196
404.815	16.2205
408.19	17.7178
411.565	16.2299
414.94	18.0082
418.314	20.6871
421.689	21.2881
425.064	22.667
428.439	20.0894
431.814	16.2373
435.188	15
438.563	13.1549
441.938	10.2739
445.313	6.68024
448.688	5.80481
452.063	2.53815
455.437	1.60138
458.812	1.0293
462.187	2.95795
465.562	3.26694
468.937	1.466
472.312	1.81732
475.686	2.21841
479.061	0.664825
482.436	0.019592
485.811	1.93958
489.186	2.0477
492.56	4.53531
495.935	2.95364
499.31	5.63333
502.685	7.77856
506.06	8.19733
509.435	10.1158
512.809	12.4437
516.184	14.3654
519.559	16.7422
522.934	14.5269
526.308	16.6029
529.683	16.7441
533.058	15.2824
536.433	14.935
539.808	16.9344
543.183	18.7771
546.557	17.9597
549.932	18.6813
553.307	18.2747
556.682	15.9002
560.057	14.5664
563.432	13.7638
566.806	11.0956
570.181	9.80222
573.556	7.68271
576.931	4.73981
580.306	3.9501
583.681	1.95544
587.055	1.71903
590.43	0.403351
593.805	1.04804
597.18	0.015503
600.555	0.649536
603.929	2.69745
607.304	2.20117
610.679	0.010254
614.054	1.2449
617.429	0.962219
620.803	2.22723
624.178	1.60504
627.553	3.76675
630.928	4.21814
634.303	5.17911
637.678	5.13684
641.052	5.45587
644.427	5.03613
647.802	6.37772
651.177	5.14297
654.552	4.98273
657.927	5.19086
661.301	4.78922
664.676	5.22818
668.051	3.44173
671.426	3.2094
674.801	1.50772
678.175	1.51868
681.55	1.43834
684.925	0.513275
688.3	0.33609
691.675	0.595856
695.049	1.274
698.424	0.071747
701.799	0.809814
705.174	3.38194
708.549	4.6877
711.923	4.82361
715.298	8.32991
718.673	9.52713
722.048	12.2035
725.423	13.2814
728.798	15.4803
732.172	14.1716
735.547	14.4768
738.922	15.4718
742.297	15.5317
745.672	14.5396
749.047	14.958
752.421	13.0771
755.796	14.3591
759.171	15.0951
762.546	15.9257
765.921	16.2541
769.295	18.9554
772.67	17.6518
776.045	17.7014
779.42	18.2106
782.795	15.5668
786.169	15.0382
789.544	11.9246
792.919	8.50612
796.294	6.45351
799.669	4.01042
803.044	4.37296
806.418	1.48755
809.793	1.18512
813.168	1.83124
816.543	0.593521
819.918	0.136856
823.293	0.240524
826.667	1.41904
830.042	2.75101
833.417	3.63591
836.792	3.71764
840.167	3.27567
843.541	3.72229
846.916	3.52951
850.291	2.48759
853.666	2.88684
857.041	1.09833
860.415	0.193604
863.79	0.742691
867.165	0.549133
870.54	0.678604
873.915	0.071442
877.29	0.569443
880.664	0.267014
884.039	0.112068
887.414	0.008537
890.789	0.413452
894.164	0.02459
897.538	0.393288
900.913	1.46687
904.288	0.501839
907.663	1.5607
911.038	2.10384
914.413	2.3391
917.787	2.44549
921.162	2.80078
924.537	2.9109
927.912	2.75367
931.287	2.97244
934.661	3.1191
938.036	2.78395
941.411	3.62192
944.786	2.88082
948.161	2.71143
951.535	3.00356
954.91	3.45081
958.285	3.47917
961.66	4.36063
965.035	3.52835
968.41	2.61244
971.784	2.0193
975.159	2.15131
978.534	0.517715
981.909	1.16007
985.284	1.62476
988.659	0.711044
992.033	0.4869
995.408	0.402466
998.783	0.192673
1002.16	1.61414
1005.53	1.10225
1008.91	0.066727
1012.28	0.84568
1015.66	0.63855
1019.03	0.205338
1022.41	0.882767
1025.78	0.030556
1029.16	0.34613
1032.53	0.092796
1035.91	0.26281
1039.28	0.465263
1042.66	0.446815
1046.03	0.598557
1049.4	0.906059
1052.78	0.107948
1056.15	0.793556
1059.53	0.189293
1062.9	0.596413
1066.28	0.389656
1069.65	0.734871
1073.03	0.560127
1076.4	1.31232
1079.78	0.65313
1083.15	0.928726
1086.53	0.9021
1089.9	0.555344
1093.28	2.08378
1096.65	3.65348
1100.03	2.28875
1103.4	3.0225
1106.78	4.12356
1110.15	5.14751
1113.53	5.97084
1116.9	6.33598
1120.28	6.48541
1123.65	6.93446
1127.03	9.21475
1130.4	8.64261
1133.78	8.60307
1137.15	12.1464
1140.53	11.519
1143.9	11.5552
1147.28	13.1224
1150.65	12.3605
1154.03	11.5075
1157.4	13.3689
1160.77	13.0763
1164.15	14.5493
1167.52	16.494
1170.9	19.3091
1174.27	22.3929
1177.65	24.4892
1181.02	25.0992
1184.4	25.0384
1187.77	26.6318
1191.15	27.7371
1194.52	26.6709
1197.9	26.6523
1201.27	24.691
1204.65	25.0525
1208.02	25.4173
1211.4	18.1542
1214.77	13.2849
1218.15	8.61432
1221.52	0.761627
1224.9	2.66885
1228.27	4.65488
1231.64	0.356781
1235.02	2.53842
1238.39	10.5008
1241.77	12.5417
1245.14	19.581
1248.52	29.935
1251.89	40.8544
1255.27	42.4085
1258.64	41.0336
1262.02	40.3865
1265.39	38.5207
1268.77	34.2086
1272.14	28.3257
1275.52	21.0367
1278.89	7.00964
1282.27	0
