Measurement: Raman, 532 nm, unoriented, Raman Data Processed
Mineral: Oxyphlogopite
Rruff sample: R141079
Ideal chemistry: K(Mg,Ti^4+^,Fe^3+^,Fe^2+^)_3_[(Si,Al)_4_O_10_](O,F)_2_
Locality: Nickenicher Sattel, Nickenich, Eifel, Germany
Source: Ch. and H. Sch√§fer
Description: Dark brown to almost black platy crystals, associated with sodalite.
Raman shift (cm-1)	intensity
127.188	0
130.563	5.90196
133.938	2.27318
137.313	7.85545
140.688	18.3399
144.062	9.59435
147.437	11.4722
150.812	8.49841
154.187	14.1782
157.561	8.48009
160.936	5.72053
164.311	9.26537
167.686	7.06683
171.061	12.6926
174.436	11.2046
177.81	13.3212
181.185	16.0294
184.56	18.8189
187.935	18.9669
191.31	21.2586
194.685	23.723
198.059	20.8632
201.434	17.0761
204.809	11.5604
208.184	6.65625
211.559	5.62358
214.933	3.57127
218.308	3.14394
221.683	1.42648
225.058	1.46803
228.433	0.248459
231.808	0.197433
235.182	0.211823
238.557	0.839874
241.932	2.04616
245.307	1.17351
248.682	0.510803
252.056	0.002457
255.431	2.22353
258.806	2.26527
262.181	1.71442
265.556	3.50613
268.93	3.30963
272.305	2.91133
275.68	2.67311
279.055	3.14117
282.43	3.57895
285.805	3.7029
289.179	3.02844
292.554	1.64203
295.929	1.56418
299.304	1.33575
302.679	2.98823
306.053	0.617645
309.428	1.1629
312.803	2.45728
316.178	2.76778
319.553	0.848007
322.928	2.36618
326.302	3.00557
329.677	3.35744
333.052	3.32192
336.427	5.50557
339.802	5.53799
343.176	3.57555
346.551	4.13277
349.926	4.58432
353.301	4.64212
356.676	2.85713
360.051	2.98578
363.425	2.25844
366.8	1.40823
370.175	0.834518
373.55	0.497742
376.925	0.336807
380.3	0.908569
383.674	0.336288
387.049	0.831924
390.424	0.383316
393.799	1.66707
397.174	0.549667
400.548	2.5396
403.923	1.60123
407.298	2.33405
410.673	3.60727
414.048	4.30203
417.423	3.15801
420.797	3.74748
424.172	4.24722
427.547	4.8101
430.922	4.01671
434.297	3.177
437.671	3.07489
441.046	2.11255
444.421	1.67729
447.796	0.163376
451.171	0.517654
454.546	1.68903
457.92	0.684692
461.295	0.66098
464.67	0.333633
468.045	0.794312
471.42	0.219528
474.794	2.38036
478.169	3.06046
481.544	4.22263
484.919	6.89221
488.294	6.59773
491.668	7.85219
495.043	8.45279
498.418	9.69292
501.793	11.5154
505.168	12.6933
508.543	12.7237
511.917	12.4035
515.292	13.4234
518.667	13.7272
522.042	13.94
525.417	13.1936
528.791	13.091
532.166	12.9529
535.541	12.831
538.916	12.2912
542.291	11.3212
545.665	12.515
549.04	12.4657
552.415	12.5356
555.79	11.8628
559.165	12.4086
562.54	11.5381
565.914	11.166
569.289	10.0996
572.664	7.04871
576.039	6.88326
579.414	5.84205
582.789	4.71256
586.163	2.23212
589.538	2.03798
592.913	1.56213
596.288	0.212677
599.663	1.54027
603.038	1.00503
606.412	0.933777
609.787	0.238998
613.162	0.32785
616.537	0.776871
619.912	0.643341
623.286	0.92334
626.661	1.07404
630.036	1.12959
633.411	0.269516
636.786	0.109314
640.16	0.365875
643.535	0.521576
646.91	0.577621
650.285	1.73003
653.66	2.45282
657.034	3.46097
660.409	3.93462
663.784	4.47472
667.159	5.08823
670.534	6.73999
673.909	6.78638
677.283	5.28848
680.658	5.57556
684.033	5.6976
687.408	4.9601
690.783	6.41734
694.158	7.97476
697.532	9.27238
700.907	11.1072
704.282	13.4439
707.657	17.8624
711.032	21.0024
714.406	25.2243
717.781	27.9329
721.156	30.7107
724.531	34.4814
727.906	35.8558
731.28	36.5168
734.655	37.8526
738.03	38.1742
741.405	35.0419
744.78	33.7722
748.155	32.1568
751.529	29.9119
754.904	30.7315
758.279	28.2829
761.654	29.7321
765.029	30.9867
768.404	31.4452
771.778	30.6368
775.153	31.0984
778.528	29.8472
781.903	26.3637
785.278	22.3336
788.652	18.2387
792.027	14.4632
795.402	9.38795
798.777	6.41843
802.152	2.56177
805.527	2.39685
808.901	0.951172
812.276	1.0274
815.651	0.267197
819.026	1.70245
822.401	1.36429
825.775	0.181747
829.15	0.966705
832.525	1.20174
835.9	1.67867
839.275	3.16084
842.649	4.22726
846.024	5.20796
849.399	5.51137
852.774	7.22217
856.149	6.94102
859.524	8.25766
862.898	8.55196
866.273	7.54318
869.648	9.10246
873.023	8.3564
876.398	7.02214
879.773	4.88306
883.147	5.61081
886.522	4.04854
889.897	4.16733
893.272	4.37918
896.646	3.67578
900.021	2.84793
903.396	1.59755
906.771	1.7713
910.146	1.17442
913.521	0.228592
916.895	0.452972
920.27	0.468933
923.645	0.516861
927.02	0.252899
930.395	0.444305
933.77	0.746811
937.144	0.415817
940.519	1.17155
943.894	0.394196
947.269	1.06311
950.644	1.8161
954.019	2.05534
957.393	3.66655
960.768	6.37012
964.143	7.34688
967.518	2.50003
970.893	1.62984
974.267	0.970261
977.642	1.64673
981.017	0.106674
984.392	0.012192
987.767	0.225586
991.141	0.834824
994.516	1.05313
997.891	0.491531
1001.27	0.374008
1004.64	1.39975
1008.02	1.37596
1011.39	1.46391
1014.76	1.72588
1018.14	1.90234
1021.51	2.63954
1024.89	3.01065
1028.26	2.31619
1031.64	4.60156
1035.01	5.07657
1038.39	5.03751
1041.76	4.73886
1045.14	4.46616
1048.51	4.15508
1051.89	5.5775
1055.26	4.28181
1058.64	3.93504
1062.01	3.94168
1065.39	3.64448
1068.76	3.56842
1072.14	2.91066
1075.51	3.75861
1078.89	2.93118
1082.26	2.74141
1085.64	2.38945
1089.01	2.14737
1092.39	1.81902
1095.76	2.61505
1099.14	2.06732
1102.51	1.61169
1105.88	1.74968
1109.26	2.77037
1112.63	1.87982
1116.01	1.34271
1119.38	1.67618
1122.76	0.191742
1126.13	0.702591
1129.51	0.57283
1132.88	0.846634
1136.26	1.04442
1139.63	0.796356
1143.01	0.402679
1146.38	0.132278
1149.76	0.050293
1153.13	1.63779
1156.51	0.113052
1159.88	0.495773
1163.26	0.765854
1166.63	1.92432
1170.01	0.078079
1173.38	1.59886
1176.76	0.868744
1180.13	0.220657
1183.51	0.578964
1186.88	0.908646
1190.26	1.51251
1193.63	1.83191
1197.01	2.24161
1200.38	0.900284
1203.76	0.240021
1207.13	2.42319
1210.51	1.509
1213.88	1.37384
1217.25	2.49707
1220.63	1.07323
1224	2.37769
1227.38	0.47258
1230.75	1.8075
1234.13	1.34975
1237.5	1.88525
1240.88	1.25577
1244.25	1.26679
1247.63	1.38022
1251	0.937469
1254.38	0.70842
1257.75	1.68277
1261.13	1.90506
1264.5	1.72732
1267.88	1.75839
1271.25	0.541351
1274.63	0.591614
1278	0.133881
1281.38	0.144272
1284.75	0.465103
1288.12	0.253601
1291.5	1.01578
1294.88	1.97597
1298.25	1.85815
