Measurement: Raman, 780 nm, unoriented, Raman Data RAW
Mineral: Painite
Rruff sample: R100164
Ideal chemistry: CaZr^4+^Al_9_O_15_(BO_3_)
Locality: Mogok, Burma
Source: William W. Pinch
Description: Brown fragment associated with red ruby corundum
Raman shift (cm-1)	intensity
133.514	44126.4
136.406	44189.4
139.299	44213.4
142.192	44233
145.085	44231.9
147.977	44237.8
150.87	44227.8
153.763	44232.5
156.655	44305.1
159.548	44404.1
162.441	44367.4
165.333	44400.8
168.226	44410.1
171.119	44364.6
174.012	44427.9
176.904	44437.5
179.797	44444.2
182.69	44517.4
185.582	44538
188.475	44551.2
191.368	44566
194.261	44624.1
197.153	44661.4
200.046	44679
202.939	44724.8
205.831	44791.2
208.724	44829.6
211.617	44873.8
214.509	44925
217.402	44953.9
220.295	45009.3
223.188	45008.9
226.08	44995.4
228.973	45071.5
231.866	45096.7
234.758	45126.3
237.651	45206.1
240.544	45247.4
243.436	45279.1
246.329	45314.7
249.222	45382.8
252.114	45422.7
255.007	45435
257.9	45500.7
260.793	45532.9
263.685	45560.2
266.578	45602.1
269.471	45727.4
272.363	45686.9
275.256	45774.3
278.149	45853.2
281.041	45925.6
283.934	45942.6
286.827	45881.6
289.719	45965.8
292.612	45992.4
295.505	46008.2
298.398	46055.4
301.29	46103.5
304.183	46127.3
307.076	46190.5
309.968	46216.5
312.861	46172
315.754	46250.5
318.647	46299.7
321.539	46367.5
324.432	46424.1
327.325	46476.4
330.217	46424.7
333.11	46389.3
336.003	46465.2
338.895	46524.2
341.788	46559.5
344.681	46571.5
347.574	46573.8
350.466	46484.7
353.359	46517
356.252	46585.8
359.144	46517.2
362.037	46470
364.93	46499.4
367.822	46517.2
370.715	46569.7
373.608	46528.7
376.5	46537.2
379.393	46543.1
382.286	46530.2
385.179	46502.1
388.071	46443.7
390.964	46436
393.857	46550.2
396.749	46609.6
399.642	46620
402.535	46559.6
405.427	46549.3
408.32	46499.3
411.213	46540.7
414.106	46577
416.998	46571.3
419.891	46625.5
422.784	46647.1
425.676	46637.9
428.569	46625.6
431.462	46708.8
434.354	46697.7
437.247	46708.2
440.14	46615.1
443.033	46661.8
445.925	46598.2
448.818	46597.4
451.711	46623.5
454.603	46619.4
457.496	46659.7
460.389	46627.5
463.281	46592.7
466.174	46575.3
469.067	46561.9
471.959	46488
474.852	46433.1
477.745	46368.1
480.638	46361.1
483.53	46361.3
486.423	46313.6
489.316	46310.4
492.208	46281.2
495.101	46207.2
497.994	46265.7
500.887	46190.1
503.779	46184.2
506.672	46173.4
509.565	46181.2
512.457	46123.4
515.35	46190.8
518.243	46131.3
521.135	46164.7
524.028	46052.9
526.921	46115.7
529.813	46088.8
532.706	46024.4
535.599	45979.1
538.492	45973
541.384	45998.4
544.277	45925.3
547.17	45958.5
550.062	45959.4
552.955	46040.2
555.848	45994.5
558.74	45992
561.633	46025.7
564.526	46068.4
567.418	46101.5
570.311	46072.7
573.204	46038.6
576.097	46142.2
578.989	46112.5
581.882	46081.4
584.775	46110.9
587.667	46067.8
590.56	46108.8
593.453	46119.3
596.346	46202.9
599.238	46129.9
602.131	46107.6
605.024	46176.4
607.916	46139.7
610.809	46282.8
613.702	46258.8
616.594	46240.7
619.487	46257.3
622.38	46240.5
625.273	46242.8
628.165	46136.7
631.058	46119.2
633.951	46165.1
636.843	46137
639.736	46144.3
642.629	46111.1
645.521	46086.1
648.414	46119.7
651.307	46117.8
654.199	46135.2
657.092	46208.8
659.985	46215.2
662.878	46135.1
665.77	46029.1
668.663	46040.1
671.556	46058.8
674.448	45988.9
677.341	45955.1
680.234	45957.3
683.126	45810.8
686.019	45791.6
688.912	45724.1
691.805	45719
694.697	45613.5
697.59	45525.7
700.483	45532.3
703.375	45521.3
706.268	45465.5
709.161	45411.8
712.053	45334.5
714.946	45290.2
717.839	45189
720.731	45084.3
723.624	45079.2
726.517	44974.4
729.41	44815
732.302	44783.1
735.195	44668.8
738.088	44549.4
740.98	44543.5
743.873	44517
746.766	44399.2
749.659	44398.9
752.551	44409.9
755.444	44268.8
758.337	44202.5
761.229	44181.2
764.122	44033.9
767.015	44016.1
769.907	43940.3
772.8	43975.5
775.693	43940.6
778.586	43827.9
781.478	43796.7
784.371	43790.7
787.264	43744.5
790.156	43696.2
793.049	43610.1
795.942	43596.4
798.834	43579.3
801.727	43511.9
804.62	43485.2
807.513	43504.6
810.405	43385.8
813.298	43276.5
816.191	43348.5
819.083	43286.2
821.976	43264.8
824.869	43260.2
827.761	43241.3
830.654	43069.3
833.547	42986.1
836.439	42927.8
839.332	42922.4
842.225	42889
845.118	42850.6
848.01	42875.6
850.903	42736
853.796	42710.2
856.688	42663.9
859.581	42692.4
862.474	42627.2
865.366	42520
868.259	42495.7
871.152	42502.6
874.044	42491.4
876.937	42449
879.83	42375.6
882.723	42364
885.615	42278.2
888.508	42222.4
891.401	42206.6
894.293	42239.9
897.186	42069.6
900.079	41916.3
902.971	41765.8
905.864	41819.8
908.757	41774.7
911.65	41859.1
914.542	41760.8
917.435	41728.2
920.328	41656.7
923.22	41590
926.113	41564.6
929.006	41575.3
931.899	41559.4
934.791	41467.9
937.684	41480.1
940.577	41410.2
943.469	41374.1
946.362	41303.7
949.255	41235.1
952.147	41216.8
955.04	41179.4
957.933	41064.1
960.825	41055.4
963.718	40947.2
966.611	40906.2
969.504	40843.8
972.396	40814.9
975.289	40761.3
978.182	40634.1
981.074	40636.4
983.967	40649.2
986.86	40571.8
989.752	40626.2
992.645	40465.5
995.538	40471.5
998.431	40435.4
1001.32	40353.6
1004.22	40286.1
1007.11	40388
1010	40269.1
1012.89	40187.8
1015.79	40176.9
1018.68	40051.2
1021.57	40102.2
1024.46	40121.7
1027.36	40091.6
1030.25	40077
1033.14	40064.6
1036.04	40041.2
1038.93	39925.5
1041.82	39980.6
1044.71	39959.1
1047.61	39892
1050.5	39842.9
1053.39	39772.3
1056.29	39621.7
1059.18	39583.1
1062.07	39577.7
1064.96	39615.1
1067.86	39560.5
1070.75	39492.9
1073.64	39460.3
1076.53	39434.3
1079.43	39355.2
1082.32	39330
1085.21	39262.1
1088.1	39283.2
1091	39281.3
1093.89	39113.8
1096.78	39086.1
1099.67	38998
1102.57	38853
1105.46	38830.3
1108.35	38763.2
1111.25	38658.2
1114.14	38576.8
1117.03	38544.6
1119.92	38466.9
1122.82	38423.5
1125.71	38383.7
1128.6	38335.2
1131.49	38330.7
1134.39	38291.6
1137.28	38188.2
1140.17	38257.3
1143.07	38193.2
1145.96	38142
1148.85	38116.9
1151.74	38098
1154.64	38064.8
1157.53	38040.7
1160.42	38001
1163.31	37970.9
1166.21	37955.6
1169.1	37956.5
1171.99	37886.8
1174.88	37892.1
1177.78	37854.6
1180.67	37846
1183.56	37809.4
1186.46	37672.8
1189.35	37723.9
1192.24	37685.8
1195.13	37689.6
1198.03	37602.2
1200.92	37540.8
1203.81	37442.5
1206.7	37431.8
1209.6	37431.1
1212.49	37347
1215.38	37278.2
1218.28	37136.9
1221.17	37050.1
1224.06	37073.1
1226.95	37059.7
1229.85	37014.6
1232.74	36999.8
1235.63	37090.8
1238.53	37008.4
1241.42	36996
1244.31	36887.7
1247.2	36887.7
1250.1	36829.5
1252.99	36742.7
1255.88	36766.6
1258.77	36690.2
1261.67	36628.3
1264.56	36610.8
1267.45	36593.7
1270.34	36524.8
1273.24	36560.5
1276.13	36554.1
1279.02	36450.7
1281.91	36505.3
1284.81	36557.2
