Measurement: Raman, 785 nm, unoriented, Raman Data RAW
Mineral: Palladium
Rruff sample: R070339
Ideal chemistry: Pd
Locality: Gongo Soco mine, Quadrilátero Ferrífero, Minas Gerais; Southeast, Brazil
Source: Michael Scott
Description: Light gray metallic grain
Raman shift (cm-1)	intensity
127.769	1223.18
130.662	1846.63
133.554	2064.28
136.447	1706.32
139.34	1578.93
142.232	1773.06
145.125	2202.71
148.018	2678.9
150.911	2740
153.803	2447.46
156.696	2210.83
159.589	2331.13
162.481	2398.01
165.374	2349.53
168.267	2428.92
171.16	2384.52
174.052	2355.78
176.945	2367.12
179.838	2294.43
182.73	2353.43
185.623	2361.16
188.516	2366.12
191.408	2373.6
194.301	2406.04
197.194	2397.52
200.087	2372.47
202.979	2420.21
205.872	2398.07
208.765	2403.97
211.657	2401.86
214.55	2428.18
217.443	2413.58
220.335	2425.16
223.228	2442.61
226.121	2456.69
229.013	2443.65
231.906	2415.56
234.799	2420.01
237.692	2422.99
240.584	2465.22
243.477	2439.71
246.37	2467.71
249.262	2462.99
252.155	2487.43
255.048	2510.12
257.941	2463.08
260.833	2460.89
263.726	2488.38
266.619	2488.31
269.511	2512.91
272.404	2493.66
275.297	2469.6
278.19	2505.06
281.082	2495.07
283.975	2545.58
286.868	2536.28
289.76	2547.4
292.653	2538.05
295.546	2514.05
298.438	2518.23
301.331	2520.07
304.224	2592.11
307.116	2519.51
310.009	2531.48
312.902	2526.22
315.795	2535.7
318.687	2508.82
321.58	2537.44
324.473	2530.44
327.365	2543.84
330.258	2513.62
333.151	2518.07
336.043	2526.69
338.936	2526.62
341.829	2528.49
344.721	2510.43
347.614	2503.94
350.507	2526.35
353.4	2505.95
356.292	2480.02
359.185	2492.24
362.078	2490.19
364.97	2478.37
367.863	2453.15
370.756	2469.36
373.649	2487.96
376.541	2475.91
379.434	2482.48
382.327	2458.22
385.219	2449.09
388.112	2429.94
391.005	2471.1
393.897	2463.63
396.79	2456.01
399.683	2451.25
402.575	2425.04
405.468	2430.57
408.361	2473.32
411.254	2430.05
414.146	2444.51
417.039	2440.77
419.932	2462.07
422.824	2454.18
425.717	2452.65
428.61	2453.19
431.502	2448.42
434.395	2428.07
437.288	2435.83
440.181	2418.41
443.073	2440.56
445.966	2384.4
448.859	2420.74
451.751	2417.29
454.644	2428.12
457.537	2410.36
460.43	2429.21
463.322	2421.88
466.215	2450.63
469.108	2410.42
472	2415.4
474.893	2404.84
477.786	2414.02
480.678	2394.19
483.571	2398.78
486.464	2361.22
489.356	2412.3
492.249	2409.74
495.142	2380.78
498.035	2368.22
500.927	2382.92
503.82	2358.41
506.713	2354.64
509.605	2403.5
512.498	2414.86
515.391	2358.45
518.284	2357.83
521.176	2374.09
524.069	2385.33
526.962	2398.12
529.854	2409.03
532.747	2348.3
535.64	2384.47
538.533	2414.4
541.425	2365.7
544.318	2392.27
547.211	2392.49
550.103	2394.7
552.996	2409.41
555.889	2404.39
558.781	2414.35
561.674	2394.39
564.567	2387.61
567.459	2401.71
570.352	2375.72
573.245	2401.76
576.138	2403.79
579.03	2374.59
581.923	2361.44
584.816	2380.58
587.708	2380.72
590.601	2355.97
593.494	2326.1
596.386	2338.89
599.279	2356.36
602.172	2338.43
605.064	2359.32
607.957	2329.25
610.85	2349.03
613.743	2335.99
616.635	2348.32
619.528	2314.86
622.421	2319.64
625.313	2302.03
628.206	2322.26
631.099	2312.07
633.991	2329.74
636.884	2318.78
639.777	2294.89
642.67	2294.69
645.562	2288.26
648.455	2299.09
651.348	2277.12
654.24	2270.63
657.133	2300.49
660.026	2287.74
662.918	2306.05
665.811	2267.49
668.704	2287.4
671.597	2282.76
674.489	2282.29
677.382	2227.77
680.275	2287.59
683.167	2266.58
686.06	2257.25
688.953	2238.64
691.846	2249.68
694.738	2244.47
697.631	2247.24
700.524	2262.75
703.416	2236.16
706.309	2230.49
709.202	2235.58
712.094	2245.6
714.987	2221.95
717.88	2238.18
720.773	2196.91
723.665	2219.73
726.558	2228.28
729.451	2185.32
732.343	2176.94
735.236	2188.29
738.129	2191.5
741.021	2194.97
743.914	2199.89
746.807	2218.66
749.699	2228.91
752.592	2207.98
755.485	2210.85
758.378	2129.06
761.27	2164.43
764.163	2149.73
767.056	2156.97
769.948	2155.59
772.841	2145.35
775.734	2140.31
778.626	2158.68
781.519	2123.55
784.412	2150.98
787.305	2121.44
790.197	2143.39
793.09	2107.85
795.983	2117.74
798.875	2125.04
801.768	2093.9
804.661	2083.91
807.553	2088.38
810.446	2061.69
813.339	2077.82
816.232	2080.56
819.124	2081.27
822.017	2083.8
824.91	2081.19
827.802	2093.09
830.695	2131.58
833.588	2059.7
836.481	2087.46
839.373	2055.03
842.266	2050.48
845.159	2072.3
848.051	2033.55
850.944	2025.85
853.837	2067.89
856.729	2044.36
859.622	2062.83
862.515	2006.85
865.408	2043.37
868.3	2039.43
871.193	2039.37
874.086	2029.28
876.978	2028.78
879.871	2009.78
882.764	2006.87
885.656	2034.86
888.549	2005.67
891.442	2021.08
894.335	2017.51
897.227	1982.96
900.12	1999.69
903.013	1997.68
905.905	2005.34
908.798	1967.74
911.691	1975.67
914.583	2006.06
917.476	2007.59
920.369	1989.14
923.261	1962.85
926.154	1935.65
929.047	1983.81
931.94	1956.4
934.832	1985.84
937.725	1940.95
940.618	1966.01
943.51	1965.44
946.403	1948.14
949.296	1974.73
952.188	1977.37
955.081	1947.4
957.974	1963.38
960.867	1933.74
963.759	1968.96
966.652	1922.49
969.545	1924.34
972.437	1960.25
975.33	1935.46
978.223	1903.1
981.115	1994.45
984.008	1951.14
986.901	1961.21
989.794	1931.25
992.686	1926
995.579	1944.56
998.472	1939.48
1001.36	1887.99
1004.26	1917.61
1007.15	1886.9
1010.04	1905.86
1012.93	1919.73
1015.83	1947.28
1018.72	1895.5
1021.61	1915.4
1024.51	1893.01
1027.4	1925.5
1030.29	1917.2
1033.18	1900.49
1036.08	1913.87
1038.97	1892.75
1041.86	1908.55
1044.76	1896.84
1047.65	1879.98
1050.54	1929.32
1053.43	1877.63
1056.33	1903.41
1059.22	1912.03
1062.11	1910.6
1065	1911.97
1067.9	1890.27
1070.79	1890.48
1073.68	1905
1076.58	1861.86
1079.47	1900.93
1082.36	1884.23
1085.25	1896.86
1088.14	1866.63
1091.04	1903.56
1093.93	1933.04
1096.82	1954.35
1099.72	1922.87
1102.61	1894.76
1105.5	1906.45
1108.39	1906.14
1111.29	1909.42
1114.18	1876.26
1117.07	1913.34
1119.96	1873.56
1122.86	1900.2
1125.75	1899.44
1128.64	1909.82
1131.54	1912.33
1134.43	1887.3
1137.32	1913.63
1140.21	1913.12
1143.11	1944.45
1146	1913.58
1148.89	1913.98
1151.79	1899.12
1154.68	1898.6
1157.57	1882.97
1160.46	1919.46
1163.36	1902.82
1166.25	1919.68
1169.14	1901.48
1172.03	1904.67
1174.93	1916.31
1177.82	1903.63
1180.71	1902.69
1183.6	1921.26
1186.5	1895.79
1189.39	1938.64
1192.28	1883.17
1195.17	1923.98
1198.07	1949.29
1200.96	1918.26
1203.85	1961.37
1206.75	1945.8
1209.64	1930.67
1212.53	1926.79
1215.42	1921.88
1218.32	1940.92
1221.21	1959.66
1224.1	1939.7
1226.99	1939.5
1229.89	1939.04
1232.78	1952.02
1235.67	1949.96
1238.57	1965.86
1241.46	1963.96
