Measurement: Raman, 532 nm, unoriented, Raman Data RAW
Mineral: Paracoquimbite
Rruff sample: R140266
Ideal chemistry: Fe^3+^_4_(S^6+^O_4_)_6_(H_2_O)_12_6H_2_O
Locality: Liaoning province, China
Source: Ken Roberts
Description: Purple pseudo cubic crystals, water soluble
Raman shift (cm-1)	intensity
180.482	19.5064
183.374	29.375
186.267	45.7007
189.16	71.8498
192.053	107.171
194.945	148.9
197.838	196.299
200.731	243.964
203.623	324.305
206.516	482.291
209.409	709.182
212.301	770.027
215.194	566.369
218.087	416.61
220.98	370.909
223.872	365.472
226.765	350.201
229.658	312.16
232.55	263.999
235.443	230.295
238.336	211.058
241.228	207.222
244.121	210.982
247.014	224.237
249.906	242.258
252.799	262.331
255.692	290.811
258.585	313.43
261.477	338.465
264.37	377.311
267.263	435.099
270.155	510.817
273.048	581.846
275.941	639.033
278.834	682.741
281.726	704.932
284.619	721.21
287.512	727.215
290.404	673.904
293.297	579.02
296.19	472.667
299.082	380.844
301.975	310.277
304.868	260.879
307.76	221.238
310.653	186.965
313.546	157.636
316.439	132.057
319.331	112.34
322.224	96.8064
325.117	83.0446
328.009	74.5042
330.902	67.2297
333.795	60.9963
336.688	56.0291
339.58	52.2834
342.473	50.1926
345.366	47.4598
348.258	45.7545
351.151	44.0746
354.044	42.0707
356.936	40.496
359.829	38.2566
362.722	37.0134
365.615	36.0658
368.507	34.3458
371.4	33.2452
374.293	32.7826
377.185	31.9849
380.078	31.7559
382.971	31.3183
385.863	31.3797
388.756	31.7109
391.649	31.4737
394.541	32.627
397.434	32.8889
400.327	33.4642
403.22	35.1943
406.112	36.1519
409.005	38.3393
411.898	41.1762
414.79	45.0714
417.683	47.707
420.576	49.1142
423.469	48.5595
426.361	47.4879
429.254	47.9556
432.147	49.5433
435.039	51.6305
437.932	50.1031
440.825	49.8833
443.717	51.8565
446.61	53.8951
449.503	57.0108
452.396	53.3595
455.288	50.2454
458.181	50.1185
461.074	51.1015
463.966	53.7426
466.859	55.7789
469.752	58.5263
472.644	61.4893
475.537	65.059
478.43	71.3901
481.322	82.8155
484.215	96.246
487.108	116.637
490.001	141.919
492.893	175.478
495.786	214.955
498.679	255.946
501.571	273.607
504.464	251.339
507.357	205.084
510.25	164.466
513.142	136.007
516.035	114.097
518.928	94.2624
521.82	78.8363
524.713	66.4907
527.606	58.5723
530.498	52.4564
533.391	47.9744
536.284	45.4125
539.177	42.9994
542.069	41.3989
544.962	39.6421
547.855	38.9705
550.747	38.1696
553.64	37.5635
556.533	37.823
559.425	37.9689
562.318	38.613
565.211	39.3102
568.104	40.9803
570.996	43.4569
573.889	46.2534
576.782	51.1135
579.674	56.5681
582.567	64.5166
585.46	74.707
588.352	87.7389
591.245	103.117
594.138	120.587
597.03	137.118
599.923	146.943
602.816	144.671
605.709	132.66
608.601	115.031
611.494	97.287
614.387	82.8127
617.279	72.7423
620.172	65.9014
623.065	60.1758
625.957	56.1335
628.85	52.3092
631.743	49.0735
634.636	45.8977
637.528	43.2682
640.421	40.9494
643.314	37.6051
646.206	35.8569
649.099	33.8274
651.992	31.9028
654.885	31.444
657.777	30.7456
660.67	31.6221
663.563	33.2328
666.455	35.0408
669.348	38.8526
672.241	40.537
675.133	41.569
678.026	39.5309
680.919	36.9867
683.812	34.4866
686.704	31.6802
689.597	29.5282
692.49	28.23
695.382	26.5787
698.275	25.3763
701.168	24.4472
704.06	24.0199
706.953	23.3377
709.846	22.2292
712.739	21.7426
715.631	21.5281
718.524	20.8491
721.417	21.0203
724.309	20.8472
727.202	20.6671
730.095	20.5381
732.987	20.5034
735.88	20.5805
738.773	21.3971
741.665	21.2507
744.558	21.3633
747.451	21.4592
750.344	21.3607
753.236	21.0295
756.129	21.4606
759.022	21.5371
761.914	21.3611
764.807	21.0071
767.7	21.0835
770.592	20.8308
773.485	20.9275
776.378	20.2622
779.271	20.6125
782.163	19.8851
785.056	20.5633
787.949	20.1212
790.841	20.2179
793.734	20.4827
796.627	20.0537
799.519	20.8309
802.412	21.2279
805.305	20.9695
808.198	21.2094
811.09	21.7519
813.983	22.2164
816.876	21.8742
819.768	22.37
822.661	22.5278
825.554	22.5455
828.447	23.2634
831.339	23.1258
834.232	23.6292
837.125	23.9909
840.017	24.0308
842.91	24.4435
845.803	24.8257
848.695	25.3008
851.588	25.8761
854.481	26.2719
857.374	26.5545
860.266	26.8234
863.159	27.1916
866.052	27.6618
868.944	27.6663
871.837	27.4618
874.73	27.9343
877.622	27.6844
880.515	27.0826
883.408	26.649
886.301	25.4531
889.193	24.7704
892.086	24.9455
894.979	23.8216
897.871	23.0838
900.764	22.5972
903.657	22.6407
906.549	22.2786
909.442	22.5025
912.335	22.044
915.227	22.7014
918.12	22.9006
921.013	23.2025
923.906	23.838
926.798	24.4636
929.691	24.8953
932.584	26.0975
935.476	26.9326
938.369	27.8788
941.262	29.6169
944.154	30.6172
947.047	32.2664
949.94	33.5799
952.833	35.1072
955.725	36.7046
958.618	38.1855
961.511	39.5761
964.403	41.7145
967.296	44.5262
970.189	47.2585
973.082	50.4906
975.974	54.0091
978.867	59.4817
981.76	65.5262
984.652	72.4644
987.545	81.1164
990.438	90.264
993.33	103.781
996.223	123.462
999.116	157.907
1002.01	216.939
1004.9	308.627
1007.79	460.448
1010.69	666.41
1013.58	774.826
1016.47	845.958
1019.37	1058.45
1022.26	1547.93
1025.15	2273.21
1028.04	2173.2
1030.94	1266.68
1033.83	844.284
1036.72	745.28
1039.61	559.882
1042.51	321.688
1045.4	193.45
1048.29	132.668
1051.18	100.786
1054.08	80.8187
1056.97	68.8661
1059.86	61.043
1062.76	54.8294
1065.65	51.0442
1068.54	48.7902
1071.43	48.0064
1074.33	48.7367
1077.22	49.6265
1080.11	54.4476
1083	59.3851
1085.9	66.1986
1088.79	71.0244
1091.68	71.0724
1094.58	69.4944
1097.47	64.4177
1100.36	59.3723
1103.25	56.2043
1106.15	55.7941
1109.04	58.1335
1111.93	59.4525
1114.82	56.7474
1117.72	50.1463
1120.61	43.5626
1123.5	38.4593
1126.39	35.5859
1129.29	33.508
1132.18	33.7146
1135.07	33.5949
1137.96	34.694
1140.86	35.601
1143.75	37.3127
1146.64	39.9237
1149.54	44.0407
1152.43	47.9403
1155.32	52.1395
1158.21	57.7121
1161.11	61.8722
1164	66.9218
1166.89	69.2331
1169.79	71.8475
1172.68	69.0082
1175.57	67.1108
1178.46	64.3465
1181.36	62.9231
1184.25	62.1708
1187.14	65.0885
1190.03	72.7118
1192.93	87.0362
1195.82	109.491
1198.71	129.881
1201.61	132.407
1204.5	109.274
1207.39	80.7834
1210.28	61.1578
1213.18	49.425
1216.07	41.3439
1218.96	36.0221
1221.85	31.7093
1224.75	29.2171
1227.64	26.8529
1230.53	24.762
1233.42	22.8305
1236.32	21.276
1239.21	19.646
1242.1	18.3824
1244.99	17.7552
1247.89	16.5859
1250.78	15.8745
1253.67	15.1643
1256.57	14.8365
1259.46	14.5515
1262.35	14.0539
1265.24	13.7243
1268.14	13.2968
1271.03	12.9329
1273.92	12.9046
1276.82	13.1379
1279.71	12.7519
1282.6	12.753
1285.49	12.6168
1288.39	12.3581
1291.28	12.7468
1294.17	12.2209
1297.06	11.9395
1299.96	12.1119
