Measurement: Raman, 780 nm, unoriented, Raman Data RAW
Mineral: Paracoquimbite
Rruff sample: R140266
Ideal chemistry: Fe^3+^_4_(S^6+^O_4_)_6_(H_2_O)_12_6H_2_O
Locality: Liaoning province, China
Source: Ken Roberts
Description: Purple pseudo cubic crystals, water soluble
Raman shift (cm-1)	intensity
90.2353	222.9
93.6102	229.66
96.985	276.432
100.36	244.684
103.735	180.899
107.109	172.898
110.484	149.699
113.859	120.381
117.234	110.454
120.609	114.55
123.984	128.561
127.358	133.967
130.733	123.215
134.108	133.558
137.483	163.478
140.858	206.703
144.232	266.138
147.607	255.792
150.982	248.456
154.357	286.196
157.732	346.357
161.107	403.447
164.481	435.438
167.856	445.597
171.231	388.598
174.606	291.947
177.981	249.528
181.355	241.587
184.73	248.846
188.105	275.108
191.48	314.412
194.855	344.877
198.229	371.957
201.604	392.615
204.979	477.396
208.354	631.386
211.729	650.442
215.103	548.89
218.478	529.907
221.853	550.631
225.228	522.755
228.603	439.297
231.978	357.14
235.352	308.076
238.727	284.259
242.102	280.338
245.477	286.57
248.852	305.091
252.226	335.342
255.601	385.847
258.976	450.784
262.351	539.943
265.726	668.701
269.101	847.11
272.475	1066.99
275.85	1308.1
279.225	1484.69
282.6	1603.97
285.975	1664.2
289.349	1526.39
292.724	1239.98
296.099	947.96
299.474	718.495
302.849	552.156
306.224	438.075
309.598	351.877
312.973	286.574
316.348	238.349
319.723	198.853
323.098	166.882
326.472	143.485
329.847	126.906
333.222	113.943
336.597	104.931
339.972	96.8207
343.346	90.3667
346.721	86.0908
350.096	81.4759
353.471	77.0135
356.846	72.6335
360.221	70.125
363.595	66.5978
366.97	64.2328
370.345	60.927
373.72	58.3286
377.095	58.5566
380.469	58.2645
383.844	57.2807
387.219	58.5223
390.594	58.5512
393.969	58.5354
397.344	59.2469
400.718	61.1448
404.093	60.4954
407.468	61.4749
410.843	64.8399
414.217	69.0669
417.592	73.4691
420.967	77.9233
424.342	81.3537
427.717	87.4879
431.092	93.9699
434.466	94.0227
437.841	87.5294
441.216	86.903
444.591	89.5524
447.966	87.6475
451.341	81.0806
454.715	73.5202
458.09	72.1352
461.465	77.0175
464.84	85.8971
468.215	96.181
471.589	108.924
474.964	125.838
478.339	153.483
481.714	194.813
485.089	250.685
488.463	322.375
491.838	407.932
495.213	514.268
498.588	600.212
501.963	587.606
505.337	475.142
508.712	362.107
512.087	285.347
515.462	226.9
518.837	176.41
522.212	139.371
525.586	114.053
528.961	96.5139
532.336	85.1849
535.711	76.1018
539.086	70.9588
542.46	66.605
545.835	62.6198
549.21	59.8152
552.585	56.9235
555.96	55.1217
559.335	54.0024
562.709	53.1249
566.084	52.8685
569.459	54.1952
572.834	54.8259
576.209	58.7572
579.583	62.4206
582.958	67.4474
586.333	76.3508
589.708	85.5247
593.083	95.9403
596.457	104.958
599.832	109.231
603.207	105.874
606.582	100.792
609.957	85.4348
613.332	75.0947
616.706	67.6531
620.081	63.0759
623.456	59.4172
626.831	56.3344
630.206	53.6222
633.58	51.7079
636.955	48.1721
640.33	45.916
643.705	43.9637
647.08	42.4942
650.455	41.4797
653.829	40.5149
657.204	40.4645
660.579	42.886
663.954	45.1543
667.329	47.9148
670.703	50.4211
674.078	50.5113
677.453	47.4143
680.828	43.6792
684.203	40.6248
687.577	37.8202
690.952	35.2592
694.327	34.219
697.702	32.9136
701.077	32.2754
704.452	31.5752
707.826	31.2317
711.201	30.1022
714.576	29.5712
717.951	29.8719
721.326	28.9881
724.7	28.9261
728.075	29.1046
731.45	28.9935
734.825	29.1576
738.2	29.5121
741.574	29.9945
744.949	30.1663
748.324	30.4666
751.699	30.1582
755.074	30.1769
758.449	29.9994
761.823	30.1575
765.198	29.3839
768.573	29.4822
771.948	28.5071
775.323	28.5919
778.697	28.6266
782.072	28.1063
785.447	28.1694
788.822	28.0385
792.197	28.221
795.572	28.4631
798.946	28.4532
802.321	27.8745
805.696	28.2909
809.071	28.5045
812.446	28.6335
815.82	28.8045
819.195	28.1021
822.57	28.9035
825.945	29.1614
829.32	28.4937
832.694	29.3933
836.069	29.3205
839.444	29.7951
842.819	30.1145
846.194	30.4282
849.569	30.6664
852.943	31.0138
856.318	31.3127
859.693	31.0663
863.068	31.6413
866.443	31.9985
869.817	31.8865
873.192	31.9572
876.567	31.9554
879.942	31.6988
883.317	30.9042
886.692	30.0281
890.066	29.4487
893.441	28.7314
896.816	27.9836
900.191	27.7053
903.566	27.4821
906.94	27.5108
910.315	26.9827
913.69	27.3232
917.065	28.2528
920.44	28.4058
923.814	28.8684
927.189	29.4853
930.564	31.145
933.939	31.6583
937.314	32.6351
940.689	34.1034
944.063	35.2637
947.438	36.363
950.813	37.4597
954.188	38.47
957.563	39.1746
960.937	41.258
964.312	42.5733
967.687	44.9109
971.062	48.1074
974.437	51.6339
977.812	54.9436
981.186	60.9599
984.561	68.4446
987.936	77.6177
991.311	88.1109
994.686	107.154
998.06	142.003
1001.43	200.605
1004.81	295.957
1008.18	462.797
1011.56	635.221
1014.93	790.328
1018.31	1047.99
1021.68	1702.23
1025.06	2612.2
1028.43	1532.97
1031.81	759.64
1035.18	593.021
1038.56	407.465
1041.93	220.71
1045.31	137.863
1048.68	100.387
1052.06	81.0176
1055.43	68.128
1058.81	60.6001
1062.18	56.2669
1065.56	53.7874
1068.93	53.3276
1072.31	54.0187
1075.68	56.3061
1079.06	62.3129
1082.43	70.3405
1085.81	76.8454
1089.18	83.2818
1092.56	84.6367
1095.93	82.488
1099.31	81.6248
1102.68	84.7483
1106.05	90.9324
1109.43	99.2568
1112.8	96.964
1116.18	83.513
1119.55	68.2664
1122.93	57.8023
1126.3	51.9424
1129.68	49.3212
1133.05	48.9153
1136.43	49.2341
1139.8	50.5281
1143.18	53.7712
1146.55	57.8127
1149.93	63.7056
1153.3	69.6613
1156.68	77.221
1160.05	82.7698
1163.43	88.2173
1166.8	90.307
1170.18	89.1589
1173.55	87.3121
1176.93	82.5251
1180.3	79.335
1183.67	79.9631
1187.05	85.7197
1190.42	99.8497
1193.8	123.225
1197.17	148.595
1200.55	151.874
1203.92	120.503
1207.3	87.315
1210.67	67.4565
1214.05	55.7618
1217.42	48.304
1220.8	43.4597
1224.17	39.5365
1227.55	36.2893
1230.92	33.6555
1234.3	31.808
1237.67	30.0686
1241.05	28.3974
1244.42	26.7822
1247.8	25.6943
1251.17	24.5505
1254.55	24.4246
1257.92	23.8996
1261.3	23.2184
1264.67	23.2543
1268.05	22.7158
1271.42	22.9219
1274.8	22.7637
1278.17	22.5085
1281.55	22.5079
