Measurement: Raman, 780 nm, unoriented, Raman Data Processed
Mineral: Parisite-(La)
Rruff sample: R130687
Ideal chemistry: CaLa^3+^_2_(C^4+^O_3_)_3_F_2_
Locality: Novo Horizonte, Bahia, Brazil
Source: Luiz Menezes
Description: Type sample, brown crystals in matrix
Measured chemistry: Ca_0.98_(La_0.83_Nd_0.51_Ce_0.37_Pr_0.16_Sm_0.04_)_Î£1.91_(CO_3_)_3.04_F_2.09_
Raman shift (cm-1)	intensity
88.0644	0
91.4393	89.2867
94.8141	122.68
98.1889	70.9062
101.564	40.2185
104.939	36.1352
108.313	56.2901
111.688	60.7922
115.063	78.215
118.438	43.8309
121.813	14.991
125.187	14.9342
128.562	16.0647
131.937	9.46399
135.312	24.5946
138.687	13.48
142.061	58.6743
145.436	83.1265
148.811	123.442
152.186	224.156
155.561	335.003
158.936	465.56
162.31	638.756
165.685	847.469
169.06	1095
172.435	1371.85
175.81	1613.95
179.185	1728.39
182.559	1702.36
185.934	1477.66
189.309	1160.86
192.684	927.8
196.059	753.325
199.433	646.325
202.808	613.027
206.183	669.887
209.558	671.921
212.933	696.687
216.308	585.756
219.682	453.037
223.057	293.338
226.432	135.131
229.807	39.529
233.182	57.1465
236.556	56.9114
239.931	51.5642
243.306	22.8511
246.681	3.38379
250.056	59.0498
253.43	157.643
256.805	255.677
260.18	393.917
263.555	491.896
266.93	688.395
270.305	821.124
273.679	1021.11
277.054	1162.63
280.429	1311.01
283.804	1325.96
287.179	1313.14
290.553	1212.59
293.928	1102.55
297.303	944.491
300.678	771.824
304.053	637.763
307.428	520.33
310.802	428.081
314.177	324.418
317.552	213.181
320.927	143.84
324.302	176.321
327.676	231.826
331.051	279.193
334.426	371.452
337.801	509.239
341.176	653.01
344.551	796.57
347.925	902.377
351.3	1069.42
354.675	1135.96
358.05	1234.41
361.425	1298.01
364.8	1244.24
368.174	1201.93
371.549	1142.58
374.924	1092.94
378.299	986.843
381.674	887.304
385.048	836.11
388.423	744.681
391.798	670.64
395.173	517.425
398.548	463.029
401.923	377.457
405.297	323.551
408.672	219.145
412.047	153.969
415.422	110.775
418.796	86.4241
422.171	73.2344
425.546	24.7339
428.921	5.47436
432.296	52.8313
435.671	23.0786
439.045	46.7156
442.42	28.0291
445.795	56.1597
449.17	7.90991
452.545	8.63867
455.92	18.9221
459.294	19.1405
462.669	18.3025
466.044	21.8302
469.419	18.8306
472.794	14.9659
476.168	37.0975
479.543	59.352
482.918	98.3398
486.293	113.279
489.668	130.894
493.043	223.656
496.417	253.452
499.792	299.78
503.167	308.49
506.542	329.105
509.917	380.643
513.291	456.386
516.666	468.604
520.041	487.569
523.416	524.626
526.791	529.942
530.165	558.367
533.54	572.474
536.915	573.719
540.29	544.017
543.665	538.003
547.04	528.087
550.414	516.351
553.789	444.742
557.164	441.647
560.539	360.633
563.914	316.39
567.288	260.157
570.663	220.679
574.038	192.27
577.413	121.289
580.788	96.3169
584.163	51.7631
587.537	39.8229
590.912	26.1555
594.287	29.6092
597.662	4.45972
601.037	3.81982
604.412	3.08972
607.786	35.7929
611.161	73.8575
614.536	141.182
617.911	157.758
621.286	231.332
624.66	286.026
628.035	355.206
631.41	404.105
634.785	426.639
638.16	425.036
641.534	468.108
644.909	494.829
648.284	549.742
651.659	585.714
655.034	616.369
658.409	622.779
661.783	638.695
665.158	615.402
668.533	567.504
671.908	560.175
675.283	481.065
678.658	424.761
682.032	375.06
685.407	315.249
688.782	255.549
692.157	215.121
695.532	180.049
698.906	138.357
702.281	101.853
705.656	73.4287
709.031	58.8667
712.406	17.2699
715.78	1.87067
719.155	8.16614
722.53	18.6339
725.905	17.1525
729.28	3.46472
732.654	1.21039
736.029	24.4522
739.404	6.38019
742.779	2.21442
746.154	6.33093
749.529	8.89758
752.903	11.7267
756.278	16.3702
759.653	11.2638
763.028	7.00543
766.403	24.1771
769.778	18.1946
773.152	33.6711
776.527	39.6475
779.902	38.3017
783.277	46.8466
786.652	54.6568
790.026	65.8503
793.401	64.075
796.776	76.9149
800.151	66.4245
803.526	72.5879
806.9	71.8831
810.275	67.616
813.65	67.5421
817.025	80.1272
820.4	90.1425
823.775	76.7275
827.149	89.4376
830.524	91.3475
833.899	69.0169
837.274	101.782
840.649	86.4495
844.024	80.1936
847.398	76.2244
850.773	86.3394
854.148	72.7507
857.523	96.2661
860.898	89.8436
864.272	113.885
867.647	104.202
871.022	117.035
874.397	138.742
877.772	128.586
881.146	164.544
884.521	165.435
887.896	150.863
891.271	146.804
894.646	144.905
898.021	127.959
901.395	129.705
904.77	150.561
908.145	102.859
911.52	102.111
914.895	85.0187
918.269	54.7018
921.644	47.6055
925.019	15.8946
928.394	4.17725
931.769	17.5485
935.144	14.7822
938.518	25.3303
941.893	36.8656
945.268	13.9312
948.643	1.33826
952.018	15.748
955.393	6.95642
958.767	41.4215
962.142	78.4406
965.517	44.9905
968.892	102.336
972.266	113.112
975.641	132.835
979.016	122.766
982.391	131.492
985.766	123.673
989.141	101.242
992.515	93.6881
995.89	56.5403
999.265	33.8752
1002.64	28.5674
1006.01	3.47852
1009.39	22.7878
1012.76	12.2266
1016.14	12.9434
1019.51	41.615
1022.89	19.8862
1026.26	2.26245
1029.64	16.8801
1033.01	73.9382
1036.39	127.815
1039.76	171.333
1043.14	175.201
1046.51	291.459
1049.89	354.476
1053.26	459.094
1056.64	622.376
1060.01	715.994
1063.39	856.572
1066.76	1008.18
1070.14	1195.5
1073.51	1285.93
1076.89	1447.87
1080.26	1556.32
1083.63	1651.6
1087.01	1765.8
1090.38	1852.43
1093.76	2011.46
1097.13	2169
1100.51	2132.19
1103.88	2186.65
1107.26	2494.3
1110.63	2726.3
1114.01	3043.78
1117.38	3337.03
1120.76	3525.89
1124.13	3505.87
1127.51	3243.01
1130.88	3044.33
1134.26	2816.05
1137.63	2420.67
1141.01	2100.71
1144.38	1809.63
1147.76	1457.72
1151.13	1087.9
1154.51	761.577
1157.88	387.033
1161.26	63.9023
1164.63	199.931
1168.01	456.68
1171.38	678.451
1174.76	690.388
1178.13	464.297
1181.51	216.127
1184.88	544.982
1188.26	1625.94
1191.63	3156.09
1195.01	5335.71
1198.38	8335.94
1201.75	12273.3
1205.13	17521
1208.5	24434.7
1211.88	33273.6
1215.25	44108.2
1218.63	56334.7
1222	68113.6
1225.38	75957.1
1228.75	74625
1232.13	63580.7
1235.5	48060.6
1238.88	37336.8
1242.25	34837.2
1245.63	39357.1
1249	47207.5
1252.38	53236.4
1255.75	53793.2
1259.13	48406.3
1262.5	37977.8
1265.88	26804.8
1269.25	16603.2
1272.62	8261.67
1276	2812.12
1279.38	95.4141
