Measurement: Raman, 532 nm, unoriented, Raman Data Processed
Mineral: Parisite-(La)
Rruff sample: R130687
Ideal chemistry: CaLa^3+^_2_(C^4+^O_3_)_3_F_2_
Locality: Novo Horizonte, Bahia, Brazil
Source: Luiz Menezes
Description: Type sample, brown crystals in matrix
Measured chemistry: Ca_0.98_(La_0.83_Nd_0.51_Ce_0.37_Pr_0.16_Sm_0.04_)_Î£1.91_(CO_3_)_3.04_F_2.09_
Raman shift (cm-1)	intensity
97.2969	0
100.672	0.381287
104.047	16.3889
107.421	139.763
110.796	188.802
114.171	300.559
117.546	346.831
120.921	364.183
124.296	417.053
127.67	355.686
131.045	360.803
134.42	339.841
137.795	346.889
141.17	357.191
144.544	337.675
147.919	365.4
151.294	394.33
154.669	427.856
158.044	460.273
161.418	505.143
164.793	499.17
168.168	418.187
171.543	364.011
174.918	307.029
178.293	225.574
181.667	160.845
185.042	126.795
188.417	97.694
191.792	61.0393
195.167	14.0724
198.542	11.0748
201.916	18.6055
205.291	10.1803
208.666	1.82825
212.041	32.6782
215.416	74.6152
218.79	121.564
222.165	181.432
225.54	239.916
228.915	313.253
232.29	408.049
235.664	508.633
239.039	624.438
242.414	758.078
245.789	909.189
249.164	1082.43
252.538	1266.88
255.913	1403.09
259.288	1363.81
262.663	1158.59
266.038	928.025
269.413	761.602
272.787	671.181
276.162	588.229
279.537	499.923
282.912	431.285
286.287	395.274
289.661	334.989
293.036	247.102
296.411	167.881
299.786	109.365
303.161	70.5664
306.536	43.0721
309.91	20.1672
313.285	1.83508
316.66	20.0055
320.035	26.5847
323.41	24.6576
326.784	14.1556
330.159	7.88599
333.534	34.6844
336.909	63.0657
340.284	92.6266
343.659	120.16
347.033	138.308
350.408	130.901
353.783	103.366
357.158	67.6748
360.533	41.4335
363.908	31.0686
367.282	39.4927
370.657	68.9739
374.032	100.58
377.407	144.458
380.782	200.273
384.156	268.81
387.531	348.86
390.906	433.757
394.281	505.772
397.656	554.316
401.031	593.712
404.405	594.803
407.78	597.364
411.155	587.539
414.53	561.667
417.905	508.468
421.279	442.236
424.654	368.49
428.029	321.048
431.404	300.38
434.779	317.533
438.154	360.076
441.528	439.575
444.903	532.114
448.278	628.396
451.653	703.638
455.028	734.19
458.402	683.386
461.777	580.896
465.152	448.87
468.527	342.532
471.902	258.782
475.276	192.498
478.651	141.268
482.026	103.234
485.401	70.483
488.776	40.1873
492.151	18.3154
495.525	2.53723
498.9	2.58716
502.275	11.4706
505.65	13.744
509.025	8.84644
512.399	7.59399
515.774	5.73206
519.149	3.71258
522.524	0.11438
525.899	7.86267
529.274	18.4642
532.648	23.2707
536.023	27.0909
539.398	30.9407
542.773	35.1903
546.148	42.3005
549.523	44.6981
552.897	50.8297
556.272	54.2515
559.647	54.6418
563.022	54.5713
566.396	53.0508
569.771	53.0346
573.146	50.5049
576.521	49.8229
579.896	52.7107
583.271	51.7328
586.645	58.3479
590.02	61.1261
593.395	57.3859
596.77	55.1114
600.145	51.8074
603.519	47.8055
606.894	43.0777
610.269	38.3188
613.644	32.163
617.019	24.2817
620.394	17.6161
623.768	11.5715
627.143	9.34094
630.518	7.79669
633.893	4.83899
637.268	0.529541
640.643	1.73468
644.017	0.541321
647.392	5.54755
650.767	16.1287
654.142	34.7338
657.517	57.3644
660.891	82.8185
664.266	94.9236
667.641	85.058
671.016	61.2269
674.391	50.61
677.765	43.551
681.14	47.7106
684.515	55.0665
687.89	35.9834
691.265	2.28296
694.64	1.81879
698.014	0.218262
701.389	0.425781
704.764	0.005981
708.139	10.6526
711.514	29.0366
714.889	61.3965
718.263	119.934
721.638	206.176
725.013	326.376
728.388	446.825
731.763	478.932
735.137	410.614
738.512	266.553
741.887	113.622
745.262	67.6144
748.637	50.2082
752.011	35.7339
755.386	18.119
758.761	7.33374
762.136	0.661072
765.511	0.554382
768.886	1.49792
772.26	0.595825
775.635	1.94226
779.01	4.13086
782.385	5.0846
785.76	8.88959
789.135	10.6483
792.509	12.395
795.884	12.8141
799.259	16.4302
802.634	16.2809
806.009	19.9282
809.383	22.3932
812.758	25.9426
816.133	29.0652
819.508	33.7985
822.883	34.041
826.257	34.3124
829.632	34.3998
833.007	35.0434
836.382	38.8282
839.757	33.6102
843.132	34.0134
846.506	31.0347
849.881	43.7561
853.256	37.1388
856.631	38.7939
860.006	50.4634
863.38	68.7934
866.755	86.834
870.13	80.691
873.505	52.4927
876.88	27.1902
880.255	18.504
883.629	16.7393
887.004	8.51685
890.379	7.99066
893.754	4.22516
897.129	3.16626
900.504	0.780945
903.878	1.49213
907.253	0.611023
910.628	0.965454
914.003	1.61304
917.378	1.30078
920.752	2.8067
924.127	5.44861
927.502	7.35455
930.877	6.28717
934.252	6.98749
937.626	8.85742
941.001	13.5245
944.376	13.5943
947.751	10.6767
951.126	8.07611
954.5	7.77991
957.875	8.67462
961.25	9.01947
964.625	6.50824
968	9.93842
971.375	1.63501
974.75	3.24493
978.124	4.64874
981.499	1.55151
984.874	1.39874
988.249	5.63647
991.624	1.37744
994.998	0.314819
998.373	0.653198
1001.75	2.10706
1005.12	1.02673
1008.5	0.677002
1011.87	3.4715
1015.25	5.98297
1018.62	5.13135
1022	6.70642
1025.37	7.87958
1028.75	9.55536
1032.12	8.82886
1035.5	6.60877
1038.87	5.44092
1042.25	10.0906
1045.62	10.3643
1048.99	11.3364
1052.37	15.426
1055.74	17.783
1059.12	31.7383
1062.49	43.2441
1065.87	64.8343
1069.24	103.228
1072.62	151.934
1075.99	221.105
1079.37	344.557
1082.74	574.307
1086.12	1009.97
1089.49	1574.6
1092.87	2250.16
1096.24	2581.22
1099.62	998.616
1102.99	218.823
1106.37	74.5699
1109.74	36.6061
1113.12	18.0811
1116.49	13.1317
1119.87	6.11603
1123.24	1.03394
1126.62	0.274902
1129.99	1.80926
1133.37	1.09534
1136.74	2.31921
1140.12	4.72876
1143.49	3.28174
1146.87	1.98486
1150.24	0.816772
1153.62	2.21759
1156.99	0.062805
1160.36	1.8717
1163.74	2.9519
1167.11	4.25586
1170.49	3.22009
1173.86	3.25073
1177.24	2.85071
1180.61	5.64178
1183.99	7.18304
1187.36	8.19537
1190.74	9.6004
1194.11	10.0776
1197.49	9.29321
1200.86	6.3797
1204.24	12.9937
1207.61	10.0067
1210.99	14.5114
1214.36	14.7445
1217.74	15.1044
1221.11	17.4808
1224.49	17.5464
1227.86	18.8031
1231.24	19.9006
1234.61	13.598
1237.98	16.1907
1241.36	18.727
1244.73	18.5815
1248.11	23.8626
1251.48	25.7771
1254.86	22.8629
1258.23	20.9406
1261.61	21.0022
1264.98	20.7062
1268.36	19.5994
1271.73	15.4965
1275.11	10.9291
1278.48	9.10541
1281.86	7.50195
1285.23	5.22778
1288.61	2.33423
1291.98	3.79419
1295.36	0.333984
1298.73	1.49237
