Measurement: Raman, 785 nm, unoriented, Raman Data RAW
Mineral: Parisite-(Ce)
Rruff sample: R050308
Ideal chemistry: CaCe_2_(CO_3_)_3_F_2_
Locality: Muzo, Bogota, Colombia
Source: Eugene Schlepp
Description: Green hexagonal prism
Measured chemistry: Ca_1.00_(Ce_1.03_La_0.49_Nd_0.42_Y_0.06_)_Σ=2_(CO_3_)_3_F_2.00_ ; = lighter phase. Ca_1.00_(Ce_0.96_La_0.51_Nd_0.48_Y_0.05_)_Σ=2_(CO_3_)_3_(F_1.82_(OH)_0.18_)_Σ=2_ = darker phase
Raman shift (cm-1)	intensity
159.107	596.737
161.999	627.047
164.892	663.541
167.785	685.116
170.677	714.117
173.57	760.058
176.463	781.09
179.356	804.365
182.248	878.819
185.141	901.997
188.034	981.039
190.926	1047.87
193.819	1108.15
196.712	1155.22
199.604	1188.96
202.497	1204.13
205.39	1212.78
208.282	1261.91
211.175	1230.6
214.068	1269.87
216.961	1270.24
219.853	1335.38
222.746	1358.09
225.639	1439.81
228.531	1454.31
231.424	1492.46
234.317	1513.92
237.209	1528.07
240.102	1528.92
242.995	1558.93
245.888	1542.21
248.78	1542.16
251.673	1488.91
254.566	1491.05
257.458	1482.49
260.351	1494.43
263.244	1482.82
266.137	1459.03
269.029	1462.05
271.922	1473.18
274.815	1447.77
277.707	1438.72
280.6	1451.99
283.493	1455.04
286.385	1466.49
289.278	1446.28
292.171	1459.84
295.063	1443.46
297.956	1423.05
300.849	1426.62
303.742	1403.43
306.634	1386.72
309.527	1369.67
312.42	1335.73
315.312	1294.49
318.205	1271.32
321.098	1196.44
323.99	1182.72
326.883	1098.34
329.776	1072.12
332.669	1031.67
335.561	980.323
338.454	937.303
341.347	892.379
344.239	851.122
347.132	829.36
350.025	802.275
352.918	773.741
355.81	744.93
358.703	708.923
361.596	696.672
364.488	688.302
367.381	666.764
370.274	657.877
373.166	652.062
376.059	656.611
378.952	641.98
381.844	636.031
384.737	645.553
387.63	613.826
390.523	622.781
393.415	604.298
396.308	601.353
399.201	603.12
402.093	604.657
404.986	607.898
407.879	613.426
410.772	592.099
413.664	621.771
416.557	618.885
419.45	636.361
422.342	628.568
425.235	659.08
428.128	669.411
431.02	700.036
433.913	714.675
436.806	734.52
439.699	794.841
442.591	799.863
445.484	803.012
448.377	811.784
451.269	833.582
454.162	852.509
457.055	825.04
459.947	836.491
462.84	845.948
465.733	822.956
468.625	839.148
471.518	828.99
474.411	826.174
477.304	809.941
480.196	814.499
483.089	795.353
485.982	803.79
488.874	791.02
491.767	786.259
494.66	757.26
497.553	740.807
500.445	722.503
503.338	695.306
506.231	666.006
509.123	649.806
512.016	603.744
514.909	597.641
517.802	555.603
520.694	537.14
523.587	513.571
526.48	500.477
529.372	482.231
532.265	477.058
535.158	446.711
538.05	438.818
540.943	442.216
543.836	444.475
546.729	451.358
549.621	471.636
552.514	466.173
555.407	479.072
558.299	498.299
561.192	500.215
564.085	517.573
566.977	516.08
569.87	529.812
572.763	513.437
575.655	521.483
578.548	520.261
581.441	526.794
584.333	529.975
587.226	524.037
590.119	537.561
593.012	541.972
595.904	535.282
598.797	539.457
601.69	540.45
604.582	539.277
607.475	506.679
610.368	497.199
613.26	476.504
616.153	464.697
619.046	437.75
621.939	409.611
624.831	399.901
627.724	362.834
630.617	335.879
633.509	314.678
636.402	288.235
639.295	266.883
642.188	242.828
645.08	244.208
647.973	225.576
650.866	221.188
653.758	203.938
656.651	195.354
659.544	181.046
662.436	193.899
665.329	173.775
668.222	175.166
671.115	160.693
674.007	165.099
676.9	162.741
679.793	158.051
682.685	160.754
685.578	160.874
688.471	149.339
691.363	147.416
694.256	147.15
697.149	144.839
700.042	140.007
702.934	139.836
705.827	150.2
708.72	140.628
711.612	146.381
714.505	138.154
717.398	135.864
720.29	144.791
723.183	147.966
726.076	140.863
728.968	150.995
731.861	143.516
734.754	152.116
737.647	148.211
740.539	145.273
743.432	147.667
746.325	154.621
749.217	159.273
752.11	162.176
755.003	151.687
757.895	158.287
760.788	162.309
763.681	168.742
766.574	169.466
769.466	176.584
772.359	184.017
775.252	189.068
778.144	187.936
781.037	186.74
783.93	191.834
786.822	209.612
789.715	202.475
792.608	207.848
795.501	218.475
798.393	225.274
801.286	227.637
804.179	240.966
807.071	242.663
809.964	245.044
812.857	247.66
815.75	256.76
818.642	269.103
821.535	287.338
824.428	286.825
827.32	295.039
830.213	308.226
833.106	313.327
835.998	328.456
838.891	329.101
841.784	339.472
844.677	353.053
847.569	355.953
850.462	370.697
853.355	386.175
856.247	401.837
859.14	398.221
862.033	415.016
864.925	429.92
867.818	441.214
870.711	461.757
873.604	504.348
876.496	500.399
879.389	516.388
882.282	525.893
885.174	556.586
888.067	574.102
890.96	572.76
893.852	591.488
896.745	608.606
899.638	634.925
902.53	637.567
905.423	648.624
908.316	634.559
911.209	664.511
914.101	687.359
916.994	684.182
919.887	707.01
922.779	715.134
925.672	730.07
928.565	708.404
931.457	721.992
934.35	713.827
937.243	712.195
940.136	713.021
943.028	739.442
945.921	732.046
948.814	746.231
951.706	762.958
954.599	793.565
957.492	808.581
960.385	826.622
963.277	866.844
966.17	883.005
969.063	939.407
971.955	953.636
974.848	999.603
977.741	1026.49
980.633	1073.24
983.526	1158.59
986.419	1149.78
989.312	1213.35
992.204	1244.43
995.097	1302.02
997.99	1334.3
1000.88	1410.83
1003.77	1460.46
1006.67	1488.26
1009.56	1524.98
1012.45	1583.89
1015.35	1636.25
1018.24	1669.06
1021.13	1739.33
1024.02	1792.11
1026.92	1858.85
1029.81	1877.91
1032.7	1934.04
1035.6	2047.62
1038.49	2087.35
1041.38	2147.41
1044.27	2196.5
1047.17	2264.84
1050.06	2373.64
1052.95	2467.63
1055.84	2558.99
1058.74	2654.32
1061.63	2790.82
1064.52	2934.39
1067.41	3109.68
1070.31	3289.32
1073.2	3420.77
1076.09	3637.21
1078.98	3850.19
1081.88	4076.3
1084.77	4346.95
1087.66	4578.41
1090.56	4861.87
1093.45	5247.5
1096.34	5635.41
1099.23	6085.76
1102.13	6693.7
1105.02	7246.29
1107.91	8130.33
1110.81	9099.07
1113.7	10348.9
1116.59	11799
1119.48	13651
1122.38	16056.8
1125.27	19263.9
1128.16	23630.2
1131.05	29216.4
1133.95	36363.2
1136.84	44132.4
1139.73	52178.3
1142.62	59087.8
1145.52	64591.9
1148.41	68763.9
1151.3	70984.9
1154.19	71050
1157.09	68285.6
1159.98	64349.1
1162.87	61734.2
1165.77	63321.3
1168.66	69592.7
1171.55	78116.1
1174.44	85453.6
1177.34	87787.7
1180.23	83239.7
1183.12	73604.6
1186.02	62661.5
1188.91	53069
1191.8	44977.9
1194.69	38988
1197.59	33895.7
1200.48	29947.6
1203.37	26711.5
1206.26	24371.7
1209.16	22541.4
1212.05	21323.7
1214.94	20561.1
1217.84	20364.8
1220.73	20403.2
1223.62	20632.3
1226.51	21104.3
1229.41	21647.2
1232.3	22369.1
1235.19	22934.5
1238.08	23426.6
1240.98	23620.8
