Measurement: Raman, 780 nm, unoriented, Raman Data Processed
Mineral: Perovskite
Rruff sample: R110178
Ideal chemistry: CaTi^4+^O_3_
Locality: St Lawrence Columbium mine, Oka, Laurentides, Quebec, Canada
Source: Donald Doell
Description: Black lustrous cubes
Measured chemistry: (Ca_0.78_Na_0.21_Mg_0.03_Ce_0.01_La_0.01_)_∑=1.05_(Ti_0.42_Nb_0.39_Fe_0.12_Ta_0.03_Zr_0.01_)_∑=0.98_O_3_
Raman shift (cm-1)	intensity
198.151	0
201.044	0.183136
203.937	1.15607
206.829	5.32355
209.722	8.64908
212.615	13.3458
215.507	13.2485
218.4	15.4316
221.293	18.0492
224.186	21.5699
227.078	24.5868
229.971	22.5314
232.864	31.7325
235.756	27.1408
238.649	24.6405
241.542	14.7207
244.435	7.79825
247.327	6.48398
250.22	3.35886
253.113	3.30377
256.005	1.89484
258.898	2.81076
261.791	5.66647
264.683	5.14096
267.576	8.14627
270.469	6.61987
273.361	6.2515
276.254	6.66544
279.147	6.19409
282.04	3.58469
284.932	4.18509
287.825	3.35574
290.718	4.39725
293.61	3.35471
296.503	7.08368
299.396	4.49731
302.288	3.57385
305.181	4.35318
308.074	2.81375
310.967	5.47626
313.859	4.67981
316.752	4.86047
319.645	4.15894
322.537	6.81583
325.43	5.32483
328.323	6.86996
331.216	5.18716
334.108	6.27039
337.001	7.46661
339.894	6.30161
342.786	5.35461
345.679	8.21521
348.572	7.4136
351.464	6.35445
354.357	7.00658
357.25	7.95152
360.142	7.28377
363.035	8.52806
365.928	5.55023
368.821	6.77918
371.713	7.43608
374.606	5.70189
377.499	1.98785
380.391	3.89957
383.284	0.875717
386.177	0.915726
389.07	1.9397
391.962	2.64438
394.855	0.017944
397.748	0.396713
400.64	1.12454
403.533	0.032349
406.426	0.975922
409.318	0.291473
412.211	1.3539
415.104	0.08905
417.997	0.709579
420.889	1.39728
423.782	1.71667
426.675	3.36855
429.567	4.73282
432.46	7.99957
435.353	11.6212
438.245	16.6666
441.138	25.9533
444.031	30.7382
446.923	35.2083
449.816	41.1038
452.709	45.7764
455.602	43.5848
458.494	39.3693
461.387	38.0614
464.28	30.4588
467.172	25.6668
470.065	24.6425
472.958	22.3454
475.851	19.626
478.743	16.1142
481.636	12.6249
484.529	10.2469
487.421	6.24115
490.314	4.11777
493.207	1.27269
496.099	3.07314
498.992	2.65158
501.885	0.160278
504.777	2.08257
507.67	4.73817
510.563	5.51936
513.456	7.44067
516.348	10.0678
519.241	8.48607
522.134	10.4904
525.026	11.5397
527.919	11.2743
530.812	13.2313
533.705	13.8536
536.597	18.0138
539.49	16.5118
542.383	16.1966
545.275	13.9187
548.168	14.1404
551.061	13.3576
553.953	14.7059
556.846	13.7579
559.739	12.9361
562.631	12.2321
565.524	10.0834
568.417	10.0093
571.31	8.21365
574.202	7.1259
577.095	7.45433
579.988	4.78534
582.88	3.51512
585.773	1.82427
588.666	1.16949
591.558	4.54627
594.451	2.41243
597.344	2.04814
600.237	0.810745
603.129	1.44687
606.022	2.97966
608.915	2.50612
611.807	1.42935
614.7	1.05553
617.593	0.733536
620.486	3.76712
623.378	2.25708
626.271	4.34346
629.164	4.68208
632.056	6.72414
634.949	7.17137
637.842	8.12703
640.734	7.42625
643.627	11.1081
646.52	10.0654
649.413	11.0819
652.305	10.9073
655.198	10.6258
658.091	8.5945
660.983	10.0887
663.876	8.65698
666.769	5.58142
669.661	5.53677
672.554	4.45831
675.447	2.54587
678.34	1.63576
681.232	2.20787
684.125	0.510742
687.018	0.084457
689.91	0.305008
692.803	3.84644
695.696	1.08063
698.588	4.12743
701.481	3.93776
704.374	3.40886
707.266	1.884
710.159	2.54846
713.052	2.91518
715.945	0.513733
718.837	4.33569
721.73	7.26697
724.623	8.68703
727.515	16.5794
730.408	26.8389
733.301	32.9146
736.193	43.2168
739.086	55.7686
741.979	67.545
744.872	83.8748
747.764	99.1254
750.657	115.563
753.55	127.805
756.442	144.88
759.335	160.492
762.228	173.84
765.12	185.853
768.013	199.366
770.906	203.057
773.799	211.438
776.691	216.742
779.584	220.746
782.477	222.173
785.369	219.37
788.262	215.487
791.155	217.348
794.048	211.934
796.94	207.435
799.833	200.681
802.726	194.812
805.618	191.458
808.511	185.436
811.404	181.3
814.296	172.276
817.189	166.787
820.082	161.254
822.975	151.279
825.867	142.77
828.76	133.75
831.653	123.475
834.545	110.183
837.438	100.457
840.331	87.8684
843.223	78.7655
846.116	68.0268
849.009	57.2257
851.902	49.3685
854.794	38.7902
857.687	31.7813
860.58	23.2367
863.472	18.8685
866.365	13.308
869.258	7.27278
872.15	3.67496
875.043	1.56235
877.936	0.986267
880.829	2.70125
883.721	4.33977
886.614	4.71332
889.507	5.06445
892.399	2.1219
895.292	2.41798
898.185	1.40834
901.077	2.77428
903.97	1.20926
906.863	0.608864
909.756	2.8953
912.648	3.29197
915.541	5.97245
918.434	6.48856
921.326	7.85462
924.219	10.0543
927.112	11.2143
930.005	11.8468
932.897	12.8593
935.79	13.3004
938.683	12.7531
941.575	14.1928
944.468	14.4648
947.361	14.2797
950.253	13.328
953.146	14.6962
956.039	13.1691
958.932	11.2575
961.824	11.4737
964.717	9.16714
967.61	9.03853
970.502	8.07721
973.395	8.65037
976.288	7.77178
979.18	6.85878
982.073	6.51984
984.966	4.96062
987.859	5.59967
990.751	6.67074
993.644	6.22926
996.537	4.96561
999.429	5.50884
1002.32	3.64252
1005.22	5.90942
1008.11	4.21944
1011	2.95175
1013.89	4.30293
1016.78	4.40898
1019.68	4.54407
1022.57	2.36632
1025.46	2.04502
1028.36	2.48588
1031.25	3.79553
1034.14	1.37177
1037.03	2.56657
1039.93	1.52714
1042.82	1.92291
1045.71	4.30772
1048.61	1.63479
1051.5	1.0199
1054.39	1.89684
1057.28	2.2893
1060.18	4.80276
1063.07	1.19093
1065.96	1.85188
1068.85	1.15899
1071.75	0.842636
1074.64	0.270813
1077.53	0.257492
1080.42	1.98876
1083.32	2.27968
1086.21	1.16614
1089.1	0.183556
1092	0.258621
1094.89	0.793282
1097.78	0.421913
1100.67	0.238213
1103.57	0.964241
1106.46	0.217911
1109.35	1.92356
1112.24	0.74511
1115.14	0.341644
1118.03	2.17088
1120.92	1.14173
1123.82	1.25513
1126.71	1.03599
1129.6	0.245956
1132.49	0.318253
1135.39	1.70087
1138.28	0.636406
1141.17	0.357155
1144.06	0.402115
1146.96	2.63114
1149.85	0.694794
1152.74	2.68675
1155.63	0.907776
1158.53	1.87942
1161.42	0.439537
1164.31	1.32713
1167.21	3.48772
1170.1	2.24492
1172.99	1.65224
1175.88	2.65791
1178.78	2.69427
1181.67	0.202469
1184.56	1.40143
1187.45	2.42917
1190.35	2.10381
1193.24	2.1598
1196.13	2.23215
1199.03	1.34357
1201.92	3.04886
1204.81	1.20457
1207.7	3.58711
1210.6	2.15372
1213.49	2.4745
1216.38	3.18063
1219.27	4.47088
1222.17	2.07817
1225.06	2.80292
1227.95	2.13342
1230.85	4.71418
1233.74	0.629616
1236.63	3.34736
1239.52	1.08315
1242.42	0.017094
1245.31	2.21487
1248.2	2.84341
1251.09	3.13713
1253.99	1.70282
1256.88	2.02795
1259.77	1.16006
1262.66	3.21462
1265.56	3.77369
1268.45	2.78385
1271.34	2.49719
1274.24	4.37256
1277.13	1.79664
1280.02	2.4706
1282.91	1.10918
