Measurement: Raman, 532 nm, unoriented, Raman Data Processed
Mineral: Perovskite
Rruff sample: R110178
Ideal chemistry: CaTi^4+^O_3_
Locality: St Lawrence Columbium mine, Oka, Laurentides, Quebec, Canada
Source: Donald Doell
Description: Black lustrous cubes
Measured chemistry: (Ca_0.78_Na_0.21_Mg_0.03_Ce_0.01_La_0.01_)_∑=1.05_(Ti_0.42_Nb_0.39_Fe_0.12_Ta_0.03_Zr_0.01_)_∑=0.98_O_3_
Raman shift (cm-1)	intensity
203.308	0
206.2	4.17517
209.093	2.01746
211.986	2.54318
214.878	0.156494
217.771	1.707
220.664	4.63351
223.556	6.45877
226.449	6.59363
229.342	9.40985
232.234	11.5991
235.127	17.2525
238.02	15.2458
240.913	11.3395
243.805	6.67026
246.698	3.79715
249.591	2.78146
252.483	1.29404
255.376	2.54196
258.269	3.46735
261.161	8.41977
264.054	12.1462
266.947	12.561
269.84	15.5082
272.732	15.8043
275.625	16.7111
278.518	14.6428
281.41	13.6996
284.303	10.1588
287.196	7.71162
290.089	6.97734
292.981	7.67603
295.874	8.37909
298.767	6.87186
301.659	6.51508
304.552	7.73836
307.445	7.1772
310.337	9.68289
313.23	8.57974
316.123	9.90434
319.015	11.8199
321.908	10.861
324.801	12.1786
327.694	13.939
330.586	13.5757
333.479	13.7462
336.372	14.7778
339.264	16.713
342.157	14.3348
345.05	14.5034
347.942	11.7622
350.835	12.1914
353.728	11.5567
356.621	10.4658
359.513	9.98053
362.406	9.94382
365.299	9.33719
368.191	11.6916
371.084	10.7198
373.977	10.3858
376.87	9.17841
379.762	8.58383
382.655	7.95564
385.548	6.1855
388.44	7.15762
391.333	6.56297
394.226	5.45645
397.118	4.4606
400.011	3.88396
402.904	0.672104
405.796	1.13995
408.689	0.881042
411.582	0.529526
414.475	1.72331
417.367	0.974518
420.26	1.94905
423.153	2.42279
426.045	1.55014
428.938	0.511063
431.831	1.77377
434.724	0.633408
437.616	1.44008
440.509	4.43767
443.402	9.15115
446.294	10.0608
449.187	19.0022
452.08	23.6337
454.972	27.3738
457.865	28.0174
460.758	22.8617
463.651	16.5387
466.543	14.6108
469.436	13.3318
472.329	14.8466
475.221	13.3425
478.114	12.2701
481.007	8.80655
483.899	7.39146
486.792	5.70981
489.685	4.39972
492.577	3.97012
495.47	4.98599
498.363	7.14745
501.256	9.0856
504.148	9.24257
507.041	13.1148
509.934	16.2562
512.826	19.9104
515.719	21.5971
518.612	24.5362
521.505	25.3463
524.397	27.4414
527.29	31.0359
530.183	30.9708
533.075	33.3406
535.968	31.6711
538.861	30.6418
541.753	32.7261
544.646	33.1634
547.539	33.509
550.432	33.2582
553.324	31.5705
556.217	30.9317
559.11	27.6906
562.002	25.9255
564.895	24.3205
567.788	21.702
570.68	20.3183
573.573	19.5888
576.466	16.8793
579.359	16.1889
582.251	13.111
585.144	9.57803
588.037	8.78441
590.929	7.69076
593.822	7.28236
596.715	6.01703
599.607	4.6218
602.5	4.1281
605.393	0.775024
608.285	1.30045
611.178	1.32476
614.071	0.464775
616.964	0.585808
619.856	0.109665
622.749	0.128677
625.642	0.732903
628.534	0.170364
631.427	1.37307
634.32	2.83662
637.212	2.85695
640.105	1.6212
642.998	0.385704
645.891	3.33923
648.783	1.69371
651.676	2.82974
654.569	2.65789
657.461	6.38562
660.354	2.88159
663.247	5.26324
666.139	5.60552
669.032	5.49956
671.925	5.01439
674.818	3.56892
677.71	4.78088
680.603	5.4998
683.496	4.10598
686.388	2.46027
689.281	1.59074
692.174	3.23375
695.067	1.16135
697.959	1.75394
700.852	0.398003
703.745	1.60504
706.637	0.204514
709.53	0.444923
712.423	0.554848
715.315	3.1395
718.208	2.31035
721.101	1.78774
723.994	0.55352
726.886	0.416008
729.779	1.13898
732.672	1.28486
735.564	3.58859
738.457	5.65472
741.35	7.77975
744.242	10.8678
747.135	17.0587
750.028	20.5223
752.92	27.0289
755.813	30.5202
758.706	36.041
761.599	41.3577
764.491	47.2024
767.384	53.5204
770.277	59.4352
773.169	62.9315
776.062	69.9818
778.955	75.319
781.847	81.3412
784.74	83.8105
787.633	88.031
790.526	91.9678
793.418	94.4489
796.311	98.4936
799.204	101.753
802.096	102.199
804.989	108.494
807.882	110.611
810.774	112.718
813.667	116.636
816.56	115.483
819.453	118.989
822.345	117.569
825.238	114.144
828.131	110.538
831.023	107.56
833.916	102.015
836.809	95.0717
839.702	90.0832
842.594	82.0598
845.487	73.4052
848.38	67.3923
851.272	59.9027
854.165	54.1393
857.058	48.1097
859.95	40.5914
862.843	34.804
865.736	29.7086
868.629	23.0657
871.521	18.1371
874.414	14.6629
877.307	11.678
880.199	7.91778
883.092	4.91669
885.985	3.64638
888.877	1.33813
891.77	0.413483
894.663	2.39146
897.556	1.32851
900.448	1.38657
903.341	2.62791
906.234	1.1269
909.126	1.40794
912.019	0.216461
914.912	1.53101
917.804	0.464119
920.697	0.394501
923.59	0.761932
926.482	2.61039
929.375	3.15717
932.268	1.92438
935.161	2.68262
938.053	4.2697
940.946	4.56477
943.839	4.0277
946.731	4.30399
949.624	8.73953
952.517	5.00101
955.409	7.28097
958.302	6.83919
961.195	5.98585
964.088	5.82704
966.98	5.93728
969.873	7.38235
972.766	5.64006
975.658	5.12082
978.551	5.56302
981.444	4.88926
984.337	5.15329
987.229	4.02404
990.122	2.3817
993.015	3.86866
995.907	4.35095
998.8	3.92023
1001.69	5.85644
1004.59	3.90258
1007.48	4.12833
1010.37	4.96473
1013.26	5.46572
1016.16	3.00398
1019.05	3.08021
1021.94	3.31374
1024.83	3.36415
1027.73	4.83237
1030.62	3.21858
1033.51	2.79471
1036.4	4.49245
1039.3	3.54977
1042.19	2.80746
1045.08	3.01747
1047.98	0.998055
1050.87	2.82712
1053.76	2.19482
1056.65	3.27006
1059.55	2.16789
1062.44	3.05734
1065.33	0.091175
1068.22	1.18643
1071.12	2.38647
1074.01	1.41644
1076.9	0.467915
1079.8	1.9561
1082.69	1.77652
1085.58	1.03295
1088.47	1.36832
1091.37	2.01719
1094.26	3.08336
1097.15	2.38395
1100.04	0.541084
1102.94	1.67155
1105.83	1.02286
1108.72	0.646454
1111.62	0.03289
1114.51	1.81991
1117.4	1.20793
1120.29	1.56003
1123.19	1.26629
1126.08	1.26535
1128.97	0.796848
1131.86	0.13694
1134.76	0.318718
1137.65	0.166142
1140.54	1.07519
1143.43	1.04847
1146.33	0.352592
1149.22	0.662754
1152.11	3.05236
1155.01	1.93665
1157.9	0.571846
1160.79	0.494961
1163.68	0.491707
1166.58	2.08411
1169.47	0.266922
1172.36	1.07555
1175.26	1.95551
1178.15	3.50695
1181.04	1.33277
1183.93	0.171383
1186.83	0.43676
1189.72	0.316853
1192.61	1.68401
1195.5	1.12782
1198.4	0.771236
1201.29	2.49455
1204.18	1.00136
1207.07	1.07415
1209.97	0.371582
1212.86	1.7482
1215.75	0.810337
1218.64	0.938011
1221.54	0.585735
1224.43	2.70108
1227.32	1.49112
1230.22	2.03079
1233.11	2.83385
1236	2.169
1238.89	1.35538
1241.79	1.69005
1244.68	2.28373
1247.57	1.78496
1250.46	2.75987
1253.36	1.35626
1256.25	0.843571
1259.14	3.19558
1262.04	2.90621
1264.93	1.43346
1267.82	0.467285
1270.71	2.01779
1273.61	0.439949
1276.5	1.2791
1279.39	2.11306
1282.29	2.48787
1285.18	2.8708
1288.07	0.651531
1290.96	1.22514
1293.86	0.934601
1296.75	1.61013
1299.64	2.52758
1302.53	0.240475
