Measurement: Raman, 532 nm, unoriented, Raman Data RAW
Mineral: Petersite-(Ce)
Rruff sample: R050541
Ideal chemistry: Cu^2+^_6_Ce^3+^(PO_4_)_3_(OH)_6_3H_2_O
Locality: Cherry Creek district, Yavapai County, Arizona, USA
Source: UAMM
Description: Spray of yellowish-green acicular crystals, type sample
Measured chemistry: Cu_6.03_(Ce_0.18_Y_0.16_La_0.12_Nd_0.09_Gd_0.03_Pr_0.02_Sm_0.01_Dy_0.01_Ca_0.42_)_Σ=1.05_[(PO_4_)_0.95_(SiO_4_)_0.05_]_3_(OH)_6_·3.21H_2_O
Raman shift (cm-1)	intensity
95.685	186.594
99.06	376.383
102.435	586.927
105.81	862.845
109.185	1207.44
112.56	1589.13
115.934	2044.62
119.309	2584.36
122.684	2854.01
126.059	2271.21
129.434	1613.39
132.808	1234.61
136.183	1042.71
139.558	920.757
142.933	888.135
146.308	866.663
149.682	882.075
153.057	881.397
156.432	929.685
159.807	967.289
163.182	1087.57
166.557	1236.74
169.931	1322.83
173.306	1461.31
176.681	1534.95
180.056	1522.38
183.431	1460.93
186.805	1365.72
190.18	1315.08
193.555	1290.39
196.93	1278.45
200.305	1312.51
203.68	1344.83
207.054	1411.63
210.429	1463.08
213.804	1474.64
217.179	1423.53
220.554	1225.87
223.928	1081.04
227.303	942.544
230.678	859.95
234.053	818.311
237.428	784.21
240.803	779.83
244.177	771.876
247.552	795.058
250.927	843.082
254.302	860.51
257.677	874.382
261.052	825.021
264.426	801.403
267.801	785.423
271.176	778.082
274.551	800.604
277.926	818.251
281.3	778.003
284.675	762.429
288.05	749.161
291.425	754.442
294.8	762.179
298.174	764.169
301.549	745.639
304.924	745.534
308.299	701.141
311.674	670.554
315.049	628.49
318.423	596.885
321.798	585.828
325.173	572.867
328.548	571.95
331.923	600.046
335.297	604.469
338.672	613.872
342.047	581.436
345.422	558.371
348.797	524.66
352.172	498.689
355.546	480.627
358.921	466.78
362.296	444.753
365.671	451.585
369.046	450.037
372.421	466.872
375.795	464.674
379.17	471.824
382.545	512.936
385.92	553.339
389.295	664.498
392.669	758.251
396.044	805.383
399.419	747.706
402.794	626.862
406.169	560.657
409.543	540.985
412.918	523.583
416.293	526.328
419.668	499.625
423.043	500.274
426.418	501.688
429.792	493.366
433.167	515.98
436.542	550.886
439.917	567.179
443.292	606.049
446.667	649.625
450.041	665.916
453.416	760.946
456.791	877.842
460.166	993.693
463.541	1232.98
466.915	1539.95
470.29	1930.88
473.665	2215.91
477.04	2266.21
480.415	1991.11
483.789	1576.09
487.164	1249.98
490.539	999.503
493.914	833.922
497.289	739.993
500.664	671.759
504.038	628.48
507.413	608.025
510.788	611.463
514.163	582.807
517.538	597.738
520.912	637.165
524.287	646.728
527.662	634.162
531.037	597.307
534.412	568.6
537.787	559.229
541.161	582.347
544.536	577.734
547.911	603.11
551.286	646.402
554.661	685.034
558.036	725.765
561.41	770.685
564.785	885.471
568.16	1122.62
571.535	1559.52
574.909	2506.24
578.284	2981.52
581.659	2016.07
585.034	1422.45
588.409	1086.01
591.784	861.891
595.159	733.205
598.533	634.57
601.908	585.719
605.283	539.762
608.658	496.226
612.033	476.255
615.407	457.523
618.782	439.62
622.157	432.255
625.532	434.48
628.907	428.107
632.281	393.484
635.656	392.956
639.031	372.355
642.406	354.853
645.781	339.422
649.156	346.564
652.53	339.969
655.905	332.279
659.28	333.428
662.655	335.775
666.03	322.29
669.404	320.95
672.779	323.424
676.154	322.145
679.529	326.593
682.904	341.307
686.279	335.313
689.653	334.101
693.028	320.275
696.403	333.601
699.778	323.817
703.153	341.67
706.528	335.393
709.902	353.629
713.277	369.398
716.652	348.11
720.027	367.211
723.402	373.547
726.776	376.851
730.151	379.082
733.526	367.857
736.901	376.949
740.276	374.866
743.651	355.514
747.025	363.969
750.4	368.812
753.775	337.643
757.15	328.387
760.525	320.87
763.899	323.352
767.274	338.284
770.649	336.822
774.024	327.777
777.399	318.027
780.773	339.602
784.148	326.784
787.523	327.093
790.898	326.897
794.273	332.16
797.648	335.058
801.022	332.39
804.397	350.59
807.772	323.297
811.147	333.634
814.522	343.807
817.896	338.355
821.271	338.889
824.646	330.75
828.021	331.785
831.396	325.498
834.771	321.673
838.145	325.485
841.52	316.233
844.895	320.369
848.27	329.226
851.645	322.39
855.019	321.75
858.394	325.999
861.769	324.51
865.144	324.441
868.519	327.817
871.894	339.398
875.268	343.646
878.643	340.145
882.018	347.608
885.393	339.901
888.768	357.869
892.143	347.682
895.517	360.818
898.892	362.911
902.267	364.222
905.642	383.333
909.017	397.822
912.391	416.138
915.766	425.827
919.141	449.523
922.516	478.417
925.891	538.017
929.266	571.546
932.64	625.607
936.015	709.818
939.39	788.943
942.765	916.573
946.14	1042.38
949.514	1114.42
952.889	1096.94
956.264	972.666
959.639	850.645
963.014	745.859
966.388	660.533
969.763	621.441
973.138	604.455
976.513	590.429
979.888	581.377
983.263	571.231
986.637	576.51
990.012	571.46
993.387	559.422
996.762	555.275
1000.14	561.236
1003.51	575.305
1006.89	596.325
1010.26	601.558
1013.64	612.943
1017.01	664.549
1020.39	711.28
1023.76	750.688
1027.13	812.95
1030.51	918.858
1033.88	1140.71
1037.26	1461.65
1040.63	1818.78
1044.01	1977.7
1047.38	1734.06
1050.76	1333.72
1054.13	1077.39
1057.51	876.369
1060.88	781.208
1064.26	730.659
1067.63	703.098
1071.01	734.557
1074.38	784.007
1077.76	814.08
1081.13	834.945
1084.51	772.799
1087.88	727.294
1091.26	650.629
1094.63	634.773
1098.01	642.303
1101.38	655.16
1104.76	651.827
1108.13	660.873
1111.51	605.923
1114.88	571.669
1118.26	538.179
1121.63	519.868
1125.01	509.402
1128.38	499.305
1131.76	489.669
1135.13	486.018
1138.5	468.008
1141.88	485.118
1145.25	461.522
1148.63	475.195
1152	487.614
1155.38	466.156
1158.75	437.79
1162.13	395.262
1165.5	393.313
1168.88	399.532
1172.25	387.282
1175.63	361.488
1179	369.102
1182.38	356.809
1185.75	352.526
1189.13	350.912
1192.5	337.234
1195.88	350.403
1199.25	349.35
1202.63	343.845
1206	347.594
1209.38	330.549
1212.75	337.244
1216.12	329.38
1219.5	327.682
1222.88	331.095
1226.25	337.224
1229.62	330.528
1233	338.808
1236.37	331.7
1239.75	339.167
1243.12	322.072
1246.5	344.276
1249.87	339.173
1253.25	332.843
1256.62	321.436
1260	328.633
1263.37	321.175
1266.75	323.259
1270.12	337.131
1273.5	323.629
1276.87	313.896
1280.25	332.804
1283.62	301.617
1287	318.465
1290.37	312.732
1293.75	311.623
1297.12	311.824
1300.49	314.78
