Measurement: Raman, 780 nm, unoriented, Raman Data RAW
Mineral: Pharmacolite
Rruff sample: R050537
Ideal chemistry: Ca(As^5+^O_3_OH)2H_2_O
Locality: Bohemia Region, Svornost mine, Jachymov, Czech Republic
Source: University of Arizona Mineral Museum
Description: Colorless acicular crystals
Measured chemistry: (Ca_0.97_Al_0.02_[box]_0.01_)_Σ=1_((As_0.99_P_0.01_)_Σ=1_O_3_OH)·2H_2_O
Raman shift (cm-1)	intensity
92.3769	4425.91
95.7518	4748.26
99.1266	5039.23
102.501	4958.4
105.876	4838.14
109.251	4804.93
112.626	4784.85
116.001	4816.77
119.376	4860.62
122.75	4987.89
126.125	5112.92
129.5	4940.8
132.875	4839.02
136.25	4801.19
139.624	4784.26
142.999	4800.67
146.374	4854.49
149.749	4947.32
153.124	5019.26
156.499	5083.56
159.873	5084.28
163.248	5005.16
166.623	4925.26
169.998	4894.38
173.373	4901.7
176.747	4936.92
180.122	4960.5
183.497	4947.47
186.872	4953.57
190.247	4997.15
193.621	5017.25
196.996	4930.54
200.371	4867.48
203.746	4868.61
207.121	4899.95
210.495	4913.34
213.87	4881.13
217.245	4850.2
220.62	4817.12
223.995	4823.28
227.37	4834.18
230.744	4853.81
234.119	4882.69
237.494	4930.69
240.869	4961.64
244.244	4965.56
247.619	4965.48
250.993	4952.49
254.368	4959.45
257.743	4974.28
261.118	5004.35
264.493	5022.12
267.867	5059.01
271.242	5117
274.617	5137.41
277.992	5190.82
281.367	5281.51
284.741	5440.3
288.116	5516.83
291.491	5363.38
294.866	5171.61
298.241	5080.54
301.616	5063.46
304.99	5091.61
308.365	5106.57
311.74	5107.75
315.115	5094.72
318.49	5131.22
321.865	5204.02
325.239	5312.41
328.614	5462.5
331.989	5645.65
335.364	5806.42
338.739	5923.02
342.113	5957.69
345.488	5980.74
348.863	6052.03
352.238	6117.51
355.613	6201.7
358.987	6187.53
362.362	6076.11
365.737	5893.46
369.112	5700.17
372.487	5526.9
375.861	5332.4
379.236	5161.57
382.611	5028.48
385.986	4931.43
389.361	4879.41
392.736	4852.69
396.11	4815.16
399.485	4794.35
402.86	4745.42
406.235	4698.56
409.61	4661.16
412.985	4627.63
416.359	4606.61
419.734	4575.68
423.109	4566.25
426.484	4540.23
429.859	4546.29
433.233	4566.59
436.608	4598.38
439.983	4650.4
443.358	4746.74
446.733	4840.29
450.108	4856.88
453.482	4704.73
456.857	4557.64
460.232	4478.45
463.607	4423.23
466.982	4370.95
470.356	4360.18
473.731	4346.43
477.106	4329.54
480.481	4325.89
483.856	4304.86
487.231	4299.1
490.605	4289.88
493.98	4273.05
497.355	4264.82
500.73	4256.1
504.104	4253.88
507.479	4243.95
510.854	4247.05
514.229	4245.84
517.604	4256.64
520.979	4250.81
524.354	4266.7
527.728	4272.29
531.103	4281.46
534.478	4281.95
537.853	4284.9
541.227	4272.66
544.602	4252.26
547.977	4233.34
551.352	4194.7
554.727	4183.85
558.102	4159.67
561.476	4138.45
564.851	4110.2
568.226	4096.61
571.601	4088.6
574.976	4076.45
578.351	4053.63
581.725	4050.49
585.1	4030.97
588.475	4022.42
591.85	4039.62
595.225	3998.72
598.599	3998.15
601.974	3985.96
605.349	3991.27
608.724	3981.58
612.099	3995.85
615.473	3977.63
618.848	3969.04
622.223	3960.07
625.598	3963.92
628.973	3962.57
632.347	3959.19
635.722	3956.37
639.097	3978.02
642.472	3965.77
645.847	3976.32
649.222	3981.6
652.596	3997.5
655.971	4010.32
659.346	4044.98
662.721	4071.1
666.096	4105.53
669.471	4159.62
672.845	4208
676.22	4265.75
679.595	4336.2
682.97	4439.47
686.345	4620.7
689.719	4897.44
693.094	5309.53
696.469	5834.41
699.844	6513.73
703.219	7319.8
706.593	7850.66
709.968	7443.62
713.343	6359.25
716.718	5437.17
720.093	4881.28
723.468	4518.95
726.842	4271.82
730.217	4090.17
733.592	3980.4
736.967	3890.74
740.342	3839.85
743.716	3801.58
747.091	3751.8
750.466	3723.39
753.841	3692.75
757.216	3670.83
760.591	3653.6
763.965	3643.2
767.34	3631.57
770.715	3628.36
774.09	3620.5
777.465	3621.59
780.84	3618.16
784.214	3614.64
787.589	3620.04
790.964	3639.59
794.339	3650.05
797.714	3664.08
801.088	3676.21
804.463	3707.45
807.838	3751.29
811.213	3784.32
814.588	3835.98
817.962	3904.3
821.337	3981.36
824.712	4072.27
828.087	4194.23
831.462	4376.35
834.837	4590.8
838.211	4900.23
841.586	5287.37
844.961	5643.07
848.336	6121.17
851.711	6893.95
855.085	7209.68
858.46	6635.88
861.835	6530.85
865.21	6813.46
868.585	6983.66
871.96	5438.88
875.334	4270.23
878.709	3859.6
882.084	3699.75
885.459	3672.97
888.834	3634.13
892.208	3506.74
895.583	3424.34
898.958	3390.56
902.333	3359.78
905.708	3330.84
909.082	3325.24
912.457	3315.24
915.832	3310.18
919.207	3313.89
922.582	3305.74
925.957	3291.66
929.331	3282.4
932.706	3255.25
936.081	3243.7
939.456	3225.63
942.831	3215.66
946.205	3201.18
949.58	3194.14
952.955	3185.75
956.33	3179.77
959.705	3177.69
963.08	3159.09
966.454	3151.45
969.829	3148.55
973.204	3146.63
976.579	3139.13
979.954	3127.96
983.328	3144.14
986.703	3136.39
990.078	3135.03
993.453	3133.32
996.828	3113.9
1000.2	3103.1
1003.58	3091.93
1006.95	3101.87
1010.33	3095.74
1013.7	3083.43
1017.08	3085.52
1020.45	3079.89
1023.83	3076.28
1027.2	3071.15
1030.58	3069.58
1033.95	3071.52
1037.33	3066.2
1040.7	3052.54
1044.08	3046.02
1047.45	3040.45
1050.83	3041.43
1054.2	3042.57
1057.57	3040.37
1060.95	3033.25
1064.32	3030.05
1067.7	3016.05
1071.07	3013.34
1074.45	3008.12
1077.82	3009.17
1081.2	3006.3
1084.57	2993.01
1087.95	2989.57
1091.32	2992.37
1094.7	2992.21
1098.07	2977.76
1101.45	2976.29
1104.82	2968.39
1108.2	2973.82
1111.57	2990.07
1114.95	2971
1118.32	2960.02
1121.7	2953.05
1125.07	2950.25
1128.45	2956.03
1131.82	2945.47
1135.19	2949.58
1138.57	2934.07
1141.94	2942.19
1145.32	2935.42
1148.69	2935.7
1152.07	2941.67
1155.44	2941.36
1158.82	2930.72
1162.19	2927.57
1165.57	2924.17
1168.94	2937.18
1172.32	2939.52
1175.69	2944.05
1179.07	2936.32
1182.44	2936.88
1185.82	2941.35
1189.19	2927.18
1192.57	2927.53
1195.94	2916.29
1199.32	2913.39
1202.69	2912.96
1206.07	2897.84
1209.44	2889.05
1212.82	2888.71
1216.19	2878.06
1219.57	2867.84
1222.94	2857.83
1226.32	2872.06
1229.69	2873.51
1233.07	2876.85
1236.44	2858.02
1239.81	2842.6
1243.19	2840.82
1246.56	2853.31
1249.94	2856.34
1253.31	2840.59
1256.69	2834.37
1260.06	2835.64
1263.44	2834.76
1266.81	2846.37
1270.19	2851.01
1273.56	2843.6
1276.94	2846.27
1280.31	2850.68
1283.69	2836.8
