Measurement: Raman, 780 nm, unoriented, Raman Data RAW
Mineral: Phillipsite-Ca
Rruff sample: R060161
Ideal chemistry: Ca_3_(Si_10_Al_6_)O_32_12H_2_O
Locality: Sasback on Rhine, Germany
Source: Marcus Origlieri
Description: Coating of colorless pseudo-octahedral shaped crystals
Measured chemistry: (K_0.72_Ca_0.50_Na_0.17_Ba_0.03_)_Σ=1.42_(Si_5.65_Al_2.35_)_Σ=8_O_16_·6H_2_O
Raman shift (cm-1)	intensity
92.0254	233.844
95.4002	237.036
98.775	223.835
102.15	211.453
105.525	209.595
108.9	205.39
112.274	203.388
115.649	204.77
119.024	202.81
122.399	203.472
125.773	201.443
129.148	201.68
132.523	196.193
135.898	192.921
139.273	187.924
142.648	178.988
146.022	171.358
149.397	165.816
152.772	157.1
156.147	148.633
159.522	139.042
162.897	132.82
166.271	126.452
169.646	120.219
173.021	115.741
176.396	114.724
179.771	112.042
183.145	109.894
186.52	109.423
189.895	109.671
193.27	107.915
196.645	106.366
200.019	103.403
203.394	101.525
206.769	96.5547
210.144	94.0778
213.519	88.728
216.893	83.2387
220.268	80.1505
223.643	77.6991
227.018	74.8267
230.393	72.8881
233.768	70.9042
237.142	69.4734
240.517	67.6488
243.892	67.847
247.267	66.0642
250.642	63.362
254.017	61.7721
257.391	59.8227
260.766	58.2508
264.141	58.5819
267.516	56.6185
270.891	56.7445
274.265	56.7071
277.64	57.0734
281.015	55.7229
284.39	55.2215
287.765	55.5297
291.139	54.362
294.514	53.1955
297.889	52.9596
301.264	55.8093
304.639	54.0962
308.014	52.3898
311.388	51.5747
314.763	50.5712
318.138	51.4066
321.513	50.2291
324.888	49.0168
328.262	48.7927
331.637	47.848
335.012	47.3593
338.387	46.4987
341.762	46.0776
345.137	45.5008
348.511	45.83
351.886	45.4656
355.261	45.1379
358.636	44.1506
362.01	44.4789
365.385	43.8638
368.76	44.0576
372.135	45.5721
375.51	45.5774
378.885	45.7554
382.259	45.7259
385.634	46.6159
389.009	49.5178
392.384	50.0178
395.759	52.2078
399.134	53.1236
402.508	55.401
405.883	58.0075
409.258	61.1481
412.633	63.328
416.008	65.1046
419.382	66.4053
422.757	68.2616
426.132	66.5709
429.507	65.5224
432.882	65.9588
436.257	66.6497
439.631	70.0248
443.006	74.679
446.381	82.2786
449.756	91.2952
453.13	104.236
456.505	115.985
459.88	130.754
463.255	143.209
466.63	156.946
470.005	163.663
473.379	169.249
476.754	167.574
480.129	162.95
483.504	152.295
486.879	139.236
490.253	121.101
493.628	102.921
497.003	85.5141
500.378	73.3548
503.753	61.7202
507.128	53.909
510.502	49.7753
513.877	46.926
517.252	43.6993
520.627	42.4106
524.002	41.5829
527.376	39.7953
530.751	37.7965
534.126	37.3262
537.501	36.1022
540.876	34.9872
544.25	33.535
547.625	33.0239
551	31.281
554.375	30.6505
557.75	30.1715
561.125	29.7801
564.499	30.0519
567.874	29.1431
571.249	28.7247
574.624	27.4356
577.999	28.4344
581.374	28.1636
584.748	27.4605
588.123	27.8492
591.498	27.1011
594.873	27.0711
598.248	26.7435
601.622	27.2981
604.997	27.0243
608.372	27.2208
611.747	27.3654
615.122	27.3759
618.496	26.5476
621.871	27.3158
625.246	26.5716
628.621	26.5946
631.996	26.8317
635.37	26.9801
638.745	26.9952
642.12	26.2183
645.495	26.2955
648.87	25.9339
652.245	25.9963
655.619	25.2627
658.994	25.3926
662.369	25.2255
665.744	24.6329
669.119	24.828
672.494	25.2727
675.868	24.5237
679.243	25.0031
682.618	24.777
685.993	24.2712
689.368	24.303
692.742	24.128
696.117	23.9088
699.492	25.1987
702.867	24.4447
706.242	23.9463
709.616	25.1349
712.991	25.054
716.366	24.7879
719.741	25.6451
723.116	24.9774
726.49	24.7873
729.865	24.9919
733.24	24.5726
736.615	24.1182
739.99	24.6052
743.365	24.6456
746.739	26.2346
750.114	24.8008
753.489	25.6511
756.864	24.8986
760.239	25.4965
763.614	25.8168
766.988	25.4046
770.363	24.6064
773.738	24.8412
777.113	24.3262
780.487	23.6881
783.862	24.1944
787.237	22.9687
790.612	22.9594
793.987	23.8902
797.362	22.8289
800.736	23.2013
804.111	22.327
807.486	21.5863
810.861	22.0539
814.236	21.7282
817.611	21.5412
820.985	21.528
824.36	22.0598
827.735	21.2815
831.11	21.4135
834.485	21.5265
837.859	21.9368
841.234	21.6658
844.609	20.8666
847.984	21.2044
851.359	21.2505
854.734	21.0458
858.108	20.6861
861.483	20.5088
864.858	21.4647
868.233	21.4291
871.607	19.6772
874.982	21.0155
878.357	19.3729
881.732	19.6398
885.107	19.3343
888.482	18.2904
891.856	19.1491
895.231	18.5957
898.606	17.7511
901.981	17.7895
905.356	18.1238
908.731	17.432
912.105	17.8872
915.48	17.8415
918.855	16.9785
922.23	17.2146
925.605	16.882
928.979	16.8057
932.354	16.3231
935.729	17.3663
939.104	17.0599
942.479	16.8985
945.854	16.6422
949.228	16.8667
952.603	16.6254
955.978	16.5391
959.353	16.607
962.727	16.7887
966.102	16.8605
969.477	17.508
972.852	17.5489
976.227	17.6557
979.602	18.7328
982.976	18.5993
986.351	18.5316
989.726	18.6271
993.101	18.2564
996.476	18.5332
999.851	17.3305
1003.23	19.5723
1006.6	19.2714
1009.98	18.4401
1013.35	18.4996
1016.73	19.3397
1020.1	19.0938
1023.47	19.5716
1026.85	19.5778
1030.22	19.7555
1033.6	19.2944
1036.97	21.176
1040.35	20.3503
1043.72	20.2744
1047.1	20.4036
1050.47	19.5949
1053.85	19.8079
1057.22	20.6888
1060.6	19.7864
1063.97	20.7256
1067.35	21.0975
1070.72	22.1178
1074.1	21.3763
1077.47	23.5738
1080.85	22.5907
1084.22	23.0927
1087.6	23.1822
1090.97	22.1727
1094.35	23.0908
1097.72	23.1017
1101.1	24.1747
1104.47	23.4788
1107.84	23.4342
1111.22	22.1955
1114.59	22.516
1117.97	22.0292
1121.34	23.2298
1124.72	21.9075
1128.09	21.3979
1131.47	21.1501
1134.84	20.4027
1138.22	20.4819
1141.59	20.9065
1144.97	19.1517
1148.34	18.3642
1151.72	18.6134
1155.09	17.8541
1158.47	17.2961
1161.84	16.2886
1165.22	15.9179
1168.59	15.959
1171.97	16.7397
1175.34	14.7344
1178.72	14.1097
1182.09	13.5762
1185.46	13.9451
1188.84	14.016
1192.21	13.3014
1195.59	13.6958
1198.96	12.8809
1202.34	13.3286
1205.71	13.0991
1209.09	12.7072
1212.46	13.8524
1215.84	12.4029
1219.21	12.6578
1222.59	13.293
1225.96	13.6611
1229.34	11.6774
1232.71	12.7188
1236.09	12.1551
1239.46	12.9213
1242.84	12.541
1246.21	13.8766
1249.59	12.3189
1252.96	12.7032
1256.34	12.1985
1259.71	12.7222
1263.09	13.5038
1266.46	13.1158
1269.84	12.4673
1273.21	12.1114
1276.59	13.9282
1279.96	12.1933
1283.34	12.9736
