Measurement: Raman, 785 nm, unoriented, Raman Data RAW
Mineral: Philipsbornite
Rruff sample: R060683
Ideal chemistry: Pb^2+^Al_3_(As^5+^O_4_)(As^5+^O_3_OH)(OH)_6_
Locality: Gold Hill, Nevada, USA
Source: Bob Jenkins
Description: Aggregate of olive green spheroidal masses
Measured chemistry: light: Pb_1.00_(Al_2.60_Fe^3+^_0.40_)_Σ=3_[(As_0.85_S_0.15_)O_4_]_2_((OH)_5.30_(H_2_O)_0.70_)_Σ=6_; dark : Pb_1.00_(Al_2.76_Fe^3+^_0.24_)_Σ=3_[(As_0.75_S_0.25_)O_4_]_2_((OH)_5.49_(H_2_O)_0.51_)_Σ=6_; OH  by charge balance; traces Cu, Zn, S
Raman shift (cm-1)	intensity
147.08	6694.53
149.973	7899.84
152.866	8488.01
155.758	8294.9
158.651	8029.11
161.544	7709.58
164.436	7711.72
167.329	7864.62
170.222	8169.87
173.115	8309.58
176.007	8314.96
178.9	8598.7
181.793	8885.12
184.685	9461.18
187.578	10023.2
190.471	10796.3
193.363	11552
196.256	12178.5
199.149	12555
202.042	12733.2
204.934	12853.1
207.827	12592
210.72	12259.9
213.612	11837.5
216.505	11333.1
219.398	10916.1
222.29	10539.9
225.183	10323.8
228.076	10149.8
230.969	10089.4
233.861	10069.9
236.754	10059.8
239.647	10002.7
242.539	9916.46
245.432	9883.98
248.325	9866.32
251.217	9847.02
254.11	9903.24
257.003	10033.9
259.896	10097
262.788	10244.5
265.681	10138.1
268.574	9928.59
271.466	9698.71
274.359	9380.01
277.252	9202.46
280.144	9134.1
283.037	9083.35
285.93	9033.02
288.823	9038.78
291.715	9116.55
294.608	9251.05
297.501	9233.43
300.393	9448.86
303.286	9550.56
306.179	9602.31
309.071	9700.87
311.964	9764.67
314.857	9751.17
317.75	9721.81
320.642	9638.85
323.535	9594.3
326.428	9541.9
329.32	9469.18
332.213	9413.59
335.106	9208.89
337.998	8956.03
340.891	8758.32
343.784	8566.53
346.677	8476.72
349.569	8338.89
352.462	8281.48
355.355	8155.12
358.247	8059.53
361.14	7916.65
364.033	7880.85
366.925	7802.81
369.818	7728.38
372.711	7719.39
375.603	7748.25
378.496	7691.09
381.389	7738.69
384.282	7751.08
387.174	7777.74
390.067	7848.19
392.96	7948.97
395.852	8024.27
398.745	8065.95
401.638	8272.36
404.53	8368.21
407.423	8622.54
410.316	8747.11
413.209	9085.96
416.101	9344.06
418.994	9716.37
421.887	9877.66
424.779	10069.8
427.672	10258.5
430.565	10238.5
433.457	10342.4
436.35	10250.1
439.243	10257.9
442.136	10097
445.028	10079.3
447.921	9927.34
450.814	9825.36
453.706	9687.64
456.599	9741.17
459.492	9882.98
462.384	9960.51
465.277	10295.9
468.17	10672
471.063	11066.1
473.955	11424.4
476.848	11667
479.741	11720.8
482.633	11473.2
485.526	11116
488.419	10794.9
491.311	10321.5
494.204	9962.28
497.097	9519.55
499.99	9201.61
502.882	9060.56
505.775	8934.11
508.668	8876.65
511.56	8965.91
514.453	9007.45
517.346	9066.17
520.239	9286.54
523.131	9498.39
526.024	9761.59
528.917	9545.25
531.809	9076.94
534.702	8383.37
537.595	7950.19
540.487	7566.93
543.38	7348.4
546.273	7195.47
549.166	7126.81
552.058	7092.62
554.951	7102.12
557.844	7104.2
560.736	7220.45
563.629	7185.79
566.522	7204.88
569.414	7132.22
572.307	7148.96
575.2	7095.69
578.093	7085.35
580.985	7032.13
583.878	7015.85
586.771	7025.7
589.663	6921.56
592.556	6849.4
595.449	6818.54
598.341	6761.63
601.234	6728.9
604.127	6639.77
607.019	6608.33
609.912	6597.75
612.805	6548.33
615.698	6574.17
618.59	6600.58
621.483	6587.95
624.376	6619
627.268	6527.75
630.161	6488.03
633.054	6521.23
635.946	6432.68
638.839	6499.11
641.732	6524.02
644.625	6477.46
647.517	6414.98
650.41	6326.77
653.303	6277.45
656.195	6198.63
659.088	6039.75
661.981	5915.21
664.873	5865.03
667.766	5840.48
670.659	5808.6
673.552	5753.93
676.444	5803.11
679.337	5791.93
682.23	5793.61
685.122	5873.22
688.015	5809.23
690.908	5797.4
693.8	5734.06
696.693	5866.61
699.586	5773.84
702.479	5730.46
705.371	5739.22
708.264	5716.57
711.157	5693.08
714.049	5656.64
716.942	5733.24
719.835	5684.47
722.727	5724.72
725.62	5728.53
728.513	5687.8
731.406	5686.07
734.298	5694.84
737.191	5711.38
740.084	5715.12
742.976	5764.22
745.869	5738.6
748.762	5773.56
751.654	5774.2
754.547	5781.17
757.44	5768.9
760.333	5689.7
763.225	5721.9
766.118	5733.01
769.011	5809.19
771.903	5839.64
774.796	5836.05
777.689	5853.94
780.581	5929.86
783.474	5981.78
786.367	6095.74
789.26	6205.79
792.152	6260.04
795.045	6411.46
797.938	6596.11
800.83	6712.21
803.723	6866.38
806.616	7038.91
809.508	7309.99
812.401	7434.26
815.294	7767
818.187	8027.69
821.079	8243.87
823.972	8636.98
826.865	8997.91
829.757	9449.14
832.65	9959.91
835.543	10569
838.435	11348.5
841.328	12146.4
844.221	12856.2
847.114	13482.3
850.006	14029
852.899	14384.2
855.792	14563.6
858.684	14603.9
861.577	14676.5
864.47	14694.1
867.362	14610.1
870.255	14560.2
873.148	14377.1
876.041	14076.4
878.933	13568.2
881.826	12959.6
884.719	12033.7
887.611	11193.1
890.504	10266.6
893.397	9586.36
896.289	8913.17
899.182	8387.62
902.075	7801.23
904.968	7326.41
907.86	6998.01
910.753	6697.42
913.646	6440.17
916.538	6183.7
919.431	6006.62
922.324	5786.48
925.216	5656.18
928.109	5448.51
931.002	5383.16
933.894	5307.95
936.787	5205.74
939.68	5102.83
942.573	5020.1
945.465	5058.9
948.358	5005.34
951.251	4986.73
954.143	4954.95
957.036	4980.92
959.929	4907.36
962.821	4917.21
965.714	4903.95
968.607	4947.85
971.5	5012.94
974.392	5095
977.285	5086.23
980.178	5217.82
983.07	5339.98
985.963	5428.22
988.856	5562.58
991.748	5785.34
994.641	5970.26
997.534	6218.17
1000.43	6262.76
1003.32	6487.58
1006.21	6762.24
1009.11	7102.89
1012	7301.05
1014.89	7138.47
1017.78	6845.47
1020.68	6130.73
1023.57	5492.69
1026.46	5046.28
1029.35	4763.04
1032.25	4612.89
1035.14	4550.99
1038.03	4541.77
1040.92	4502.43
1043.82	4544.16
1046.71	4525.94
1049.6	4527.65
1052.49	4579.1
1055.39	4558.81
1058.28	4614.19
1061.17	4573.03
1064.07	4585.01
1066.96	4640.26
1069.85	4610.62
1072.74	4616.24
1075.64	4681.69
1078.53	4594.01
1081.42	4736.98
1084.32	4658.72
1087.21	4656.9
1090.1	4620.21
1092.99	4657.93
1095.89	4611.83
1098.78	4579.38
1101.67	4569.4
1104.56	4528.36
1107.46	4488.63
1110.35	4524.05
1113.24	4420.91
1116.13	4412.58
1119.03	4316.62
1121.92	4287.56
1124.81	4269.9
1127.7	4221.88
1130.6	4206.55
1133.49	4164.79
1136.38	4111.52
1139.28	4124.63
1142.17	4080.7
1145.06	4040.12
1147.95	4046.5
1150.85	3985.52
1153.74	3949.82
1156.63	3941.54
1159.53	3971.35
1162.42	3931.93
1165.31	3918.88
1168.2	3927.48
1171.1	3898.1
1173.99	3831.45
1176.88	3859.47
1179.77	3830.42
1182.67	3875.2
1185.56	3817.11
1188.45	3758.83
1191.35	3794.82
1194.24	3782.04
1197.13	3712.95
1200.02	3683.12
1202.92	3690.98
1205.81	3695.25
1208.7	3683.22
1211.59	3597.45
1214.49	3603.81
1217.38	3567.56
1220.27	3610.35
1223.16	3583.1
1226.06	3537.75
1228.95	3512.67
1231.84	3515.44
1234.73	3446.49
1237.63	3453.53
1240.52	3456.75
1243.41	3476.95
1246.31	3453.87
1249.2	3486.06
1252.09	3530.79
1254.98	3400.36
1257.88	3397.36
1260.77	3382.13
1263.66	3426.31
1266.56	3443.67
