Measurement: Raman, 532 nm, unoriented, Raman Data RAW
Mineral: Philipsbornite
Rruff sample: R060683
Ideal chemistry: Pb^2+^Al_3_(As^5+^O_4_)(As^5+^O_3_OH)(OH)_6_
Locality: Gold Hill, Nevada, USA
Source: Bob Jenkins
Description: Aggregate of olive green spheroidal masses
Measured chemistry: light: Pb_1.00_(Al_2.60_Fe^3+^_0.40_)_Σ=3_[(As_0.85_S_0.15_)O_4_]_2_((OH)_5.30_(H_2_O)_0.70_)_Σ=6_; dark : Pb_1.00_(Al_2.76_Fe^3+^_0.24_)_Σ=3_[(As_0.75_S_0.25_)O_4_]_2_((OH)_5.49_(H_2_O)_0.51_)_Σ=6_; OH  by charge balance; traces Cu, Zn, S
Raman shift (cm-1)	intensity
132.13	13724.4
135.022	15086
137.915	16520.6
140.808	17381.7
143.7	17710.5
146.593	17438.7
149.486	17436.3
152.378	17256.3
155.271	17326.5
158.164	17280.8
161.057	17100.9
163.949	16804.3
166.842	16562.3
169.735	16483.8
172.627	16807
175.52	17244
178.413	18121.3
181.305	19128.4
184.198	20520.7
187.091	22037.1
189.984	23522.3
192.876	24810.2
195.769	25651.2
198.662	26173.5
201.554	26395.6
204.447	26350.7
207.34	25956.6
210.232	25173.7
213.125	24466.9
216.018	23531.1
218.911	22652.9
221.803	21944.5
224.696	21414.7
227.589	21107
230.481	21005.1
233.374	21098.9
236.267	20957.2
239.16	20727.9
242.052	20566.5
244.945	20503.1
247.838	20498.2
250.73	20430.3
253.623	20336.7
256.516	20319.7
259.408	20518.6
262.301	20545.4
265.194	20540.3
268.086	20255.3
270.979	19839.2
273.872	19426.5
276.765	19286.8
279.657	19026
282.55	18979.4
285.443	19081.9
288.335	19152.6
291.228	19229
294.121	19460
297.013	19606.2
299.906	19776.9
302.799	20040.1
305.691	20284.3
308.584	20470.6
311.477	20416.9
314.37	20407.1
317.262	20283.4
320.155	20359.3
323.048	20203.1
325.94	20150.3
328.833	20031.9
331.726	19871.8
334.618	19694.8
337.511	19333.5
340.404	19190.2
343.297	18920.6
346.189	18696.2
349.082	18515.5
351.975	18379.4
354.867	18267.4
357.76	18107.8
360.653	18049.2
363.546	17912.1
366.438	17955.5
369.331	17948.1
372.224	18102.8
375.116	18122.4
378.009	18303.2
380.902	18175.5
383.794	18306
386.687	18500
389.58	18739.2
392.473	18894
395.365	19050.4
398.258	19253.5
401.151	19559.6
404.043	19977
406.936	20480.9
409.829	21121.1
412.721	21827.7
415.614	22350.1
418.507	23063.4
421.4	23599.7
424.292	24152.6
427.185	24621.6
430.078	25028.4
432.97	25336.6
435.863	25586.5
438.756	25666.7
441.648	25620.9
444.541	25373
447.434	25165.9
450.327	25015.2
453.219	25194.3
456.112	25406.8
459.005	25793.4
461.897	26374
464.79	27279.3
467.683	28413.7
470.575	29653.7
473.468	30622.6
476.361	31324
479.254	31122.2
482.146	30628.3
485.039	29790.6
487.931	28610.4
490.824	27175
493.717	25890.5
496.61	24937.9
499.502	24237.7
502.395	23819.7
505.288	23511
508.181	23586.4
511.073	23601.4
513.966	23649.1
516.859	23854
519.751	24240.6
522.644	24757.7
525.537	25135.1
528.429	24779
531.322	23864
534.215	22691.3
537.107	21616.5
540	21153
542.893	20787.5
545.786	20708.1
548.678	20602.8
551.571	20629.2
554.464	20674.3
557.356	20761.6
560.249	20849.3
563.142	21007.9
566.034	21117.5
568.927	21208.6
571.82	21265.6
574.713	21394.1
577.605	21097.4
580.498	21098.7
583.391	21006.5
586.283	21006.8
589.176	20874.4
592.069	21049.8
594.961	20698
597.854	20480.2
600.747	20564.2
603.64	20553.3
606.532	20499
609.425	20368.8
612.318	20511.2
615.21	20504.1
618.103	20515.4
620.996	20721.9
623.888	20812.5
626.781	20745.8
629.674	20578.2
632.567	20395.8
635.459	20485.2
638.352	20571.8
641.245	20578.6
644.137	20570.2
647.03	20572
649.923	20616.2
652.815	20498.5
655.708	20208.8
658.601	19947.8
661.494	19805.6
664.386	19490.1
667.279	19633.7
670.172	19622.2
673.064	19667.2
675.957	19595.3
678.85	19626.7
681.742	19803.7
684.635	19781.8
687.528	19879.7
690.42	19906
693.313	20018.3
696.206	20088.6
699.099	20001.4
701.991	20019.3
704.884	19991.9
707.777	20095.6
710.669	20014.6
713.562	20059.8
716.455	20175.2
719.347	20321.2
722.24	20315.5
725.133	20373.8
728.026	20513.1
730.918	20487.9
733.811	20611.3
736.704	20667.8
739.596	20681.3
742.489	20866.4
745.382	21016.8
748.274	21075
751.167	21181.4
754.06	21049.8
756.953	21174
759.845	21234.4
762.738	21262.4
765.631	21289.4
768.523	21483.1
771.416	21558.9
774.309	21776.8
777.201	21981.1
780.094	22220.3
782.987	22510.2
785.88	22636.2
788.772	23083.1
791.665	23373.6
794.558	23849.6
797.45	24276.4
800.343	24688.1
803.236	25148.1
806.128	25803.3
809.021	26240.1
811.914	26871.2
814.807	27454.8
817.699	28263.4
820.592	29064.8
823.485	29972.9
826.377	31086
829.27	32243.1
832.163	33722.8
835.055	35202.1
837.948	37053.3
840.841	39079.3
843.734	40840.3
846.626	42511.5
849.519	43895.9
852.412	44695.9
855.304	45187
858.197	45665.8
861.09	46113.1
863.982	46316.4
866.875	46516.7
869.768	46385.2
872.661	46179.1
875.553	45517.2
878.446	44459.2
881.339	43007.8
884.231	41005.3
887.124	38917.1
890.017	36961.4
892.909	34910.4
895.802	33597.8
898.695	31869.6
901.588	30443.7
904.48	29234.1
907.373	28384.9
910.266	27489
913.158	26861.9
916.051	26151.5
918.944	25787.6
921.836	25528.8
924.729	25157.8
927.622	24837.9
930.515	24639.4
933.407	24361.9
936.3	24189
939.193	24097.2
942.085	23997.1
944.978	23775.3
947.871	23765.4
950.763	23656.3
953.656	23703.3
956.549	23757.8
959.442	23809.8
962.334	23833.1
965.227	24104.4
968.12	23963.5
971.012	24302.9
973.905	24332.9
976.798	24727
979.69	25035.9
982.583	25260.7
985.476	25484.2
988.369	25904.7
991.261	26356.6
994.154	27073
997.047	27690.1
999.939	28157.6
1002.83	28675.8
1005.73	29490.4
1008.62	30327.3
1011.51	30942.2
1014.4	30858.7
1017.29	29992.5
1020.19	28331.3
1023.08	26783.9
1025.97	25814.4
1028.87	25147.5
1031.76	24650.4
1034.65	24693.8
1037.54	24716.7
1040.44	24784.4
1043.33	24757
1046.22	24881
1049.12	25025
1052.01	25081.9
1054.9	25270.4
1057.79	25408.4
1060.69	25547.6
1063.58	25472.5
1066.47	25511.6
1069.36	25585.2
1072.26	25702.4
1075.15	25710.9
1078.04	25920.8
1080.93	25918.7
1083.83	25908.8
1086.72	26172.5
1089.61	26232.8
1092.51	26243.7
1095.4	26392
1098.29	26398.4
1101.18	26454.2
1104.08	26385.2
1106.97	26429.7
1109.86	26297.5
1112.76	26202.4
1115.65	26114.9
1118.54	25953.1
1121.43	25897.6
1124.33	25947.1
1127.22	25792
1130.11	25923.9
1133	25889
1135.9	25801.7
1138.79	25757.8
1141.68	25663.8
1144.57	25666.7
1147.47	25662.9
1150.36	25501.6
1153.25	25686.2
1156.14	25670.4
1159.04	25720.3
1161.93	25778.8
1164.82	25595.9
1167.72	25577.6
1170.61	25669.9
1173.5	25746.4
1176.39	25805.8
1179.29	25763
1182.18	25847
1185.07	25952.1
1187.96	25753.4
1190.86	25706.2
1193.75	25612.2
1196.64	25673.7
1199.54	25693.3
1202.43	25709.6
1205.32	25710.6
1208.21	25758.5
1211.11	25820.2
1214	25750.9
1216.89	25870.9
1219.78	25802.5
1222.68	25714.9
1225.57	25736.6
1228.46	25887.6
1231.36	25898.5
1234.25	25979.3
1237.14	26036.9
1240.03	26046.4
1242.93	26008
1245.82	26051.3
1248.71	26133.6
1251.6	26221.7
1254.5	26065.8
1257.39	26156.9
1260.28	26277.4
1263.17	26134.8
1266.07	26074.2
1268.96	26396.1
1271.85	26619.3
1274.75	26596.9
1277.64	26608.3
1280.53	26456.3
1283.42	26571.3
1286.32	26588.6
