Measurement: Raman, 780 nm, unoriented, Raman Data RAW
Mineral: Phosphuranylite
Rruff sample: R050470
Ideal chemistry: KCa(H_3_O)_3_(U^6+^O_2_)_7_(PO_4_)_4_O_4_8H_2_O
Locality: La Faye mine, Grury District, Burgundy Region, France
Source: University of Arizona Mineral Museum
Description: Yellow thin flattened bladed crystals
Measured chemistry: (Ca_0.70_Pb_0.30_)_Σ=1_(U_1.00_O_2_)_7_(P_1.00_O_4_)_4_(OH)_4_·15.72H_2_O
Raman shift (cm-1)	intensity
94.2653	4403.49
97.6401	4655.89
101.015	4652.87
104.39	4637.04
107.765	4709.61
111.139	4789.02
114.514	4879.41
117.889	4968.98
121.264	5075.46
124.639	5161.94
128.013	5271.8
131.388	5367.7
134.763	5488.06
138.138	5611.21
141.513	5734.67
144.888	5840.22
148.262	5966.04
151.637	6070.81
155.012	6203.91
158.387	6327.69
161.762	6429.38
165.137	6535.31
168.511	6665.23
171.886	6808.33
175.261	6942.46
178.636	7088.31
182.011	7249.12
185.385	7382.64
188.76	7556.17
192.135	7746.85
195.51	7923.08
198.885	8088.12
202.26	8231.82
205.634	8444.79
209.009	8606.22
212.384	8758.27
215.759	8928.87
219.134	9074.77
222.508	9252.75
225.883	9384.13
229.258	9567.35
232.633	9727.46
236.008	9892.28
239.382	10063.4
242.757	10221
246.132	10388.8
249.507	10546.9
252.882	10729.4
256.257	10845
259.632	11021.8
263.006	11174.8
266.381	11304
269.756	11443.4
273.131	11603
276.506	11731.8
279.88	11894.2
283.255	12061.8
286.63	12216.5
290.005	12373.3
293.38	12488.6
296.755	12628
300.129	12799.2
303.504	12946
306.879	13077.5
310.254	13235.3
313.629	13400.4
317.003	13594.5
320.378	13757.3
323.753	13950
327.128	14093.4
330.503	14314.1
333.877	14502.2
337.252	14726.7
340.627	14944.1
344.002	15198.8
347.377	15396
350.752	15677
354.126	15875.6
357.501	16137.8
360.876	16376
364.251	16629.6
367.626	16859.9
371	17106.8
374.375	17307.6
377.75	17521.4
381.125	17691.1
384.5	17855.2
387.875	17988.4
391.249	18109.2
394.624	18198.1
397.999	18262.5
401.374	18327.6
404.749	18291.3
408.123	18261.4
411.498	18241
414.873	18196.1
418.248	18097.9
421.623	18036.8
424.998	17920
428.372	17764.6
431.747	17628.5
435.122	17515.9
438.497	17380.1
441.872	17234
445.247	17110.5
448.621	16929.4
451.996	16816.6
455.371	16687.9
458.746	16572.9
462.121	16496.9
465.495	16400
468.87	16263.6
472.245	16148.5
475.62	16013.1
478.995	15895.7
482.37	15808.6
485.744	15670.8
489.119	15546.5
492.494	15418.3
495.869	15296.2
499.244	15141.4
502.618	15046.3
505.993	14881.8
509.368	14735.6
512.743	14617.9
516.118	14495.2
519.493	14321.8
522.867	14202.6
526.242	14057.6
529.617	13935.7
532.992	13750.5
536.367	13631.3
539.741	13445.1
543.116	13337.2
546.491	13151.5
549.866	13019.3
553.241	12846.3
556.615	12709.3
559.99	12539.9
563.365	12343.8
566.74	12204.3
570.115	12056.2
573.49	11883.8
576.864	11735.5
580.239	11587.1
583.614	11439.6
586.989	11279
590.364	11141.4
593.739	11016.8
597.113	10900.5
600.488	10741.4
603.863	10636.8
607.238	10534.6
610.613	10374.2
613.987	10297.1
617.362	10168.8
620.737	10081.6
624.112	9964.19
627.487	9879.05
630.862	9771.96
634.236	9657.71
637.611	9601.48
640.986	9535.24
644.361	9428.7
647.736	9351.91
651.111	9260.27
654.485	9172.99
657.86	9101.94
661.235	9028.82
664.61	8926.25
667.985	8877.58
671.359	8785.36
674.734	8716.96
678.109	8609.12
681.484	8541.52
684.859	8438.87
688.234	8391.79
691.608	8318.11
694.983	8213.91
698.358	8162.31
701.733	8100.75
705.108	8014.71
708.482	7950.81
711.857	7884.29
715.232	7816.07
718.607	7724.67
721.982	7656.29
725.356	7574.89
728.731	7490.35
732.106	7419.6
735.481	7365.94
738.856	7279.68
742.231	7194.52
745.605	7134.38
748.98	7053.47
752.355	6991.76
755.73	6894.48
759.105	6823.72
762.48	6749.66
765.854	6679.56
769.229	6588.43
772.604	6506.53
775.979	6426.89
779.354	6340.17
782.729	6229.97
786.103	6151.38
789.478	6066.97
792.853	5968.96
796.228	5859.88
799.602	5785.57
802.977	5648.96
806.352	5548.74
809.727	5463.8
813.102	5336.89
816.477	5274.99
819.851	5181.29
823.226	5075.64
826.601	4985.84
829.976	4908.85
833.351	4816.24
836.726	4707.09
840.1	4631.54
843.475	4556.06
846.85	4452.29
850.225	4388.15
853.6	4305.94
856.974	4229.63
860.349	4161.11
863.724	4088.26
867.099	4024.27
870.474	3961.45
873.849	3888.12
877.223	3832.59
880.598	3774.61
883.973	3722.4
887.348	3673.32
890.723	3619.23
894.097	3559.24
897.472	3533.87
900.847	3482.96
904.222	3429.81
907.597	3390.08
910.972	3349.06
914.346	3329.8
917.721	3273.08
921.096	3249.12
924.471	3210.29
927.846	3188.69
931.221	3145.45
934.595	3117.74
937.97	3100.48
941.345	3066.42
944.72	3045.04
948.095	3023.88
951.469	3010.11
954.844	2995.06
958.219	2969.01
961.594	2961.97
964.969	2939.53
968.343	2926.51
971.718	2912.44
975.093	2896.42
978.468	2878.45
981.843	2875.73
985.218	2863.23
988.592	2865.99
991.967	2854.43
995.342	2875.78
998.717	2844.13
1002.09	2839.06
1005.47	2844.58
1008.84	2853.16
1012.22	2853.49
1015.59	2851.32
1018.97	2870.93
1022.34	2878.57
1025.71	2874.79
1029.09	2888.05
1032.46	2904.44
1035.84	2923.55
1039.21	2956.2
1042.59	2953.08
1045.96	2980.28
1049.34	3004.86
1052.71	3025.7
1056.09	3049.27
1059.46	3082.51
1062.84	3120.12
1066.21	3139
1069.59	3174.36
1072.96	3200.96
1076.34	3265.82
1079.71	3284.62
1083.09	3344.15
1086.46	3383.66
1089.84	3429.86
1093.21	3486.98
1096.59	3539.46
1099.96	3611.35
1103.34	3677.96
1106.71	3727.65
1110.09	3823.31
1113.46	3886.61
1116.84	3966.15
1120.21	4036.45
1123.59	4143.34
1126.96	4241.23
1130.34	4335.65
1133.71	4423.73
1137.08	4535.49
1140.46	4654.9
1143.83	4771.68
1147.21	4873.98
1150.58	4987.4
1153.96	5110.36
1157.33	5249.46
1160.71	5362.47
1164.08	5517.54
1167.46	5651.02
1170.83	5793.04
1174.21	5935.52
1177.58	6094.15
1180.96	6233.81
1184.33	6379.32
1187.71	6543.09
1191.08	6686.97
1194.46	6840.94
1197.83	6994.21
1201.21	7155.39
1204.58	7339.55
1207.96	7490.98
1211.33	7652.06
1214.7	7797.52
1218.08	7945.25
1221.45	8087.71
1224.83	8265.26
1228.2	8464.81
1231.58	8614.18
1234.95	8771.24
1238.33	8957.45
1241.7	9121.63
1245.08	9301.6
1248.45	9494.66
1251.83	9663.96
1255.2	9809.41
1258.58	9979.95
1261.95	10167.5
1265.33	10344.9
1268.7	10502.4
1272.08	10688.3
1275.45	10851.6
1278.83	11036.7
1282.2	11172.2
1285.58	11385.3
