Measurement: Raman, 785 nm, unoriented, Raman Data RAW
Mineral: Phosphohedyphane
Rruff sample: R060733
Ideal chemistry: Ca_2_Pb^2+^_3_(PO_4_)_3_Cl
Locality: Capitana mine, Copiapo, Chile
Source: Bob Jenkins
Description: Colorless prismatic crystals associated with colorless gypsum, co-type sample
Measured chemistry: (Ca_1.75_Pb_0.22_Na_0.03_)_Î£=2_Pb_3.00_(P_1.00_O_4_)_3_Cl_1.00_
Raman shift (cm-1)	intensity
126.805	214.118
129.697	281.143
132.59	358.626
135.483	422.444
138.376	495.062
141.268	603.341
144.161	821.39
147.054	1019
149.946	1180.12
152.839	1278.34
155.732	1340.01
158.625	1437.13
161.517	1552.33
164.41	1718.36
167.303	1845.06
170.195	1978.68
173.088	2055.92
175.981	2158.11
178.873	2239.16
181.766	2367.09
184.659	2487.49
187.552	2591.6
190.444	2624.43
193.337	2697.84
196.23	2775.66
199.122	2870.56
202.015	2953.09
204.908	2946.98
207.8	3048.8
210.693	3064.75
213.586	3099.26
216.478	3203.68
219.371	3279.01
222.264	3347.74
225.157	3438.19
228.049	3532.68
230.942	3633.07
233.835	3687.15
236.727	3779.98
239.62	3925.77
242.513	3993.18
245.405	4184.17
248.298	4386.72
251.191	4564.97
254.084	4754.2
256.976	5032.19
259.869	5306.11
262.762	5669.21
265.654	5946.06
268.547	6283.06
271.44	6575.23
274.332	6906.06
277.225	7180.67
280.118	7406.48
283.011	7632.5
285.903	7864.64
288.796	8052.43
291.689	8265.38
294.581	8430.31
297.474	8657.59
300.367	8926.42
303.26	9359.91
306.152	9801.42
309.045	10318.2
311.938	10947.2
314.83	11716.5
317.723	12533.5
320.616	13310.1
323.508	14079.8
326.401	14755.1
329.294	15136
332.187	15197.8
335.079	14901.5
337.972	14236.5
340.865	13618
343.757	12718.5
346.65	11887.5
349.543	11102.8
352.435	10353.1
355.328	9750.76
358.221	9190.82
361.113	8709.46
364.006	8200.23
366.899	7802.33
369.792	7470.6
372.684	7129.52
375.577	6926.46
378.47	6676.4
381.362	6407.29
384.255	6263.33
387.148	6016.22
390.041	5907.28
392.933	5800.62
395.826	5659.85
398.719	5568.05
401.611	5434.13
404.504	5359.43
407.397	5256.43
410.289	5171.26
413.182	5121.97
416.075	5052.26
418.967	5065.72
421.86	5026.85
424.753	5009.97
427.646	4946.9
430.538	4988.48
433.431	4951.24
436.324	4969.58
439.216	4983.31
442.109	4936.76
445.002	4946.3
447.894	4952.61
450.787	4981.97
453.68	4938.63
456.573	4918.22
459.465	4881.67
462.358	4886.09
465.251	4834.31
468.143	4759.22
471.036	4784.29
473.929	4712.88
476.822	4662.18
479.714	4569.68
482.607	4570.03
485.5	4526.1
488.392	4452.44
491.285	4419.06
494.178	4384.9
497.07	4336.56
499.963	4314.16
502.856	4285.01
505.748	4289.13
508.641	4246.44
511.534	4245.11
514.427	4254.2
517.319	4249.81
520.212	4243.29
523.105	4209.85
525.997	4239.76
528.89	4227.13
531.783	4183.87
534.676	4225.9
537.568	4208.86
540.461	4216.6
543.354	4182.23
546.246	4082.82
549.139	4065.42
552.032	4025.09
554.924	3989.85
557.817	3932.77
560.71	3873.05
563.602	3799.24
566.495	3728.33
569.388	3700.29
572.281	3623.53
575.173	3563.89
578.066	3485.33
580.959	3403.5
583.851	3362.12
586.744	3251.37
589.637	3140.14
592.529	3067.25
595.422	2938.7
598.315	2858.88
601.208	2772.61
604.1	2636.47
606.993	2547.86
609.886	2432.46
612.778	2357.18
615.671	2257.13
618.564	2161.7
621.457	2083.1
624.349	2020.25
627.242	1935.47
630.135	1860.91
633.027	1815.11
635.92	1753.21
638.813	1634.19
641.705	1597.34
644.598	1550.02
647.491	1489.35
650.384	1436.14
653.276	1401.78
656.169	1358.77
659.062	1316.67
661.954	1289.6
664.847	1223.96
667.74	1213.99
670.632	1183.91
673.525	1177.52
676.418	1132.93
679.311	1099.23
682.203	1060.93
685.096	1015.02
687.989	1018.05
690.881	998.721
693.774	963.699
696.667	970.199
699.559	933.813
702.452	917.275
705.345	923.638
708.237	899.006
711.13	871.082
714.023	872.634
716.916	829.376
719.808	851.518
722.701	812.079
725.594	788.787
728.486	771.246
731.379	755.614
734.272	741.298
737.164	733.565
740.057	718.512
742.95	702.256
745.843	692.167
748.735	656.814
751.628	657.102
754.521	652.568
757.413	633.606
760.306	621.633
763.199	602.42
766.091	594.534
768.984	582.658
771.877	586.613
774.77	570.829
777.662	564.071
780.555	554.591
783.448	546.379
786.34	536.624
789.233	520.232
792.126	544.466
795.019	505.084
797.911	496.852
800.804	495.054
803.697	492.408
806.589	475.037
809.482	491.906
812.375	492.419
815.267	488.528
818.16	463.987
821.053	473.384
823.946	472.95
826.838	488.434
829.731	487.954
832.624	493.926
835.516	482.476
838.409	480.234
841.302	461.421
844.194	435.531
847.087	451.44
849.98	446.064
852.872	448.769
855.765	451.982
858.658	449.451
861.551	478.484
864.443	466.166
867.336	486.952
870.229	453.067
873.121	467.482
876.014	491.861
878.907	492.603
881.799	492.652
884.692	486.615
887.585	514.781
890.478	510.701
893.37	536.693
896.263	535.726
899.156	537.05
902.048	552.096
904.941	569.797
907.834	587.945
910.726	609.91
913.619	615.091
916.512	651.294
919.405	696.362
922.297	741.232
925.19	818.081
928.083	872.462
930.975	913.767
933.868	886.277
936.761	838.605
939.654	814.629
942.546	830.138
945.439	823.447
948.332	826.338
951.224	860.233
954.117	874.533
957.01	907.872
959.902	969.703
962.795	992.934
965.688	1014.8
968.581	1057.43
971.473	1091.39
974.366	1165.67
977.259	1201.3
980.151	1224.59
983.044	1279.83
985.937	1328.48
988.829	1377.67
991.722	1443.14
994.615	1508.84
997.508	1581.77
1000.4	1652.55
1003.29	1758.91
1006.19	1820.07
1009.08	1940.91
1011.97	2027.57
1014.86	2181.27
1017.76	2293.01
1020.65	2497.95
1023.54	2633.83
1026.43	2771.86
1029.33	3019.31
1032.22	3176.16
1035.11	3375
1038.01	3590.99
1040.9	3836.26
1043.79	4075.23
1046.68	4298.45
1049.58	4611.9
1052.47	4849.72
1055.36	5114.78
1058.25	5421.94
1061.15	5754.3
1064.04	6116.58
1066.93	6486.52
1069.83	6931.62
1072.72	7191.09
1075.61	7673.02
1078.5	8006.45
1081.4	8376.45
1084.29	8895.71
1087.18	9324.16
1090.07	9801.26
1092.97	10296.6
1095.86	10788.7
1098.75	11345
1101.64	11981
1104.54	12515
1107.43	13123.3
1110.32	13924.9
1113.21	14595.4
1116.11	15372.1
1119	16087.8
1121.89	16956.7
1124.79	17845.3
1127.68	18704.7
1130.57	19613
1133.46	20627.9
1136.36	21745
1139.25	22887.3
1142.14	24093.1
1145.04	25356.2
1147.93	26840
1150.82	28350.6
1153.71	29988.4
1156.61	31621.5
1159.5	33189.1
1162.39	34944.1
1165.28	36595.7
1168.18	38439.7
1171.07	40018.2
1173.96	41203.1
1176.86	42516.7
1179.75	43670.6
1182.64	44424.1
1185.53	45245.8
1188.43	45678.6
1191.32	46063.7
1194.21	46209.1
1197.1	46114.2
1200	45635.3
1202.89	45125.6
1205.78	44561.3
1208.67	43781.5
1211.57	43086.4
1214.46	41955.6
1217.35	41180.6
1220.24	40367.9
1223.14	39596.7
1226.03	39191.9
1228.92	38829.9
1231.82	38411.4
1234.71	38235.2
1237.6	38144.8
1240.49	37979.8
