Measurement: Raman, 780 nm, unoriented, Raman Data Processed
Mineral: Pigeonite
Rruff sample: R200002
Ideal chemistry: (Mg,Fe^2+^,Ca)SiO_3_
Locality: Belmont Quarry, near Leesburg, Loudoun County, Virginia, USA
Source: James Shigley
Description: Grey to yellow prismatic crystals associated with white anorthite and dark biotite
Raman shift (cm-1)	intensity
98.6707	0
102.046	7.23828
105.42	26.9695
108.795	0.146484
112.17	0.900269
115.545	6.2113
118.92	24.0657
122.294	40.5703
125.669	42.235
129.044	51.1096
132.419	48.7726
135.794	59.1965
139.168	63.6824
142.543	63.2709
145.918	43.0389
149.293	16.2797
152.668	8.35022
156.043	12.687
159.417	5.21509
162.792	12.8398
166.167	2.8717
169.542	15.757
172.917	21.2297
176.292	31.6399
179.666	38.7069
183.041	38.6897
186.416	49.4248
189.791	36.1083
193.166	45.4819
196.54	40.1495
199.915	37.9722
203.29	40.5599
206.665	47.5493
210.04	57.9138
213.415	62.2524
216.789	76.5681
220.164	67.8946
223.539	67.8651
226.914	69.1954
230.289	65.8903
233.663	52.9131
237.038	42.0331
240.413	32.1228
243.788	33.7926
247.163	22.858
250.537	18.7614
253.912	16.7142
257.287	22.2054
260.662	30.1758
264.037	40.8258
267.412	14.0271
270.786	10.699
274.161	6.29236
277.536	2.06653
280.911	6.07178
284.286	8.40942
287.661	4.80774
291.035	9.49793
294.41	15.4181
297.785	23.0577
301.16	24.9847
304.535	34.9448
307.909	46.6681
311.284	68.1367
314.659	107.286
318.034	149.796
321.409	198.835
324.784	205.474
328.158	155.732
331.533	119.311
334.908	92.0513
338.283	79.8394
341.658	73.1465
345.032	83.2924
348.407	82.0979
351.782	81.6456
355.157	86.813
358.532	86.6687
361.906	85.4451
365.281	90.3081
368.656	96.7571
372.031	97.6912
375.406	95.0653
378.781	77.1763
382.155	57.8717
385.53	52.5686
388.905	53.9051
392.28	49.7118
395.655	48.501
399.029	32.98
402.404	11.2936
405.779	2.88831
409.154	2.21875
412.529	1.84436
415.904	0.351318
419.278	5.57581
422.653	2.56628
426.028	3.43213
429.403	8.80017
432.778	4.38977
436.152	1.36377
439.527	2.19275
442.902	6.45178
446.277	6.36951
449.652	3.55737
453.027	11.5804
456.401	3.1416
459.776	7.52203
463.151	5.37518
466.526	11.577
469.901	9.3971
473.276	2.01666
476.65	7.57336
480.025	6.86316
483.4	0.983887
486.775	0.638733
490.15	4.66443
493.524	13.2841
496.899	15.6554
500.274	24.2913
503.649	27.0772
507.024	40.9071
510.399	52.6812
513.773	45.6501
517.148	57.1882
520.523	59.0039
523.898	62.6888
527.273	62.94
530.647	68.4633
534.022	62.9648
537.397	63.8022
540.772	44.8272
544.147	54.4742
547.521	41.4439
550.896	49.6185
554.271	54.0527
557.646	55.4113
561.021	51.6366
564.396	32.7949
567.77	23.134
571.145	9.82111
574.52	8.44251
577.895	13.2065
581.27	7.81067
584.644	5.42749
588.019	0.214478
591.394	1.21307
594.769	1.55518
598.144	0.081665
601.519	3.65985
604.893	2.70306
608.268	6.17688
611.643	9.72241
615.018	15.2651
618.393	11.8247
621.768	17.1536
625.142	17.522
628.517	21.955
631.892	30.6108
635.267	46.8242
638.642	64.2938
642.016	93.183
645.391	137.989
648.766	183.441
652.141	202.139
655.516	213.648
658.89	258.428
662.265	336.796
665.64	415.785
669.015	440.115
672.39	355.596
675.765	224.632
679.139	139.36
682.514	86.001
685.889	50.8826
689.264	32.2283
692.639	18.9205
696.014	19.2261
699.388	12.6456
702.763	9.90454
706.138	8.76636
709.513	0.144592
712.888	1.55402
716.262	2.87134
719.637	4.06683
723.012	1.11939
726.387	1.04639
729.762	2.92444
733.136	14.6683
736.511	5.65015
739.886	6.95148
743.261	4.02393
746.636	5.12555
750.011	3.09302
753.385	1.24048
756.76	1.5379
760.135	4.87488
763.51	10.4674
766.885	2.9566
770.26	5.6344
773.634	9.69141
777.009	1.99719
780.384	3.36005
783.759	6.48114
787.134	3.95062
790.508	3.12219
793.883	10.8185
797.258	9.1886
800.633	7.27722
804.008	3.33087
807.383	6.10468
810.757	8.8894
814.132	7.55511
817.507	11.9713
820.882	6.39429
824.257	13.8534
827.631	13.3774
831.006	6.9032
834.381	13.5516
837.756	6.55279
841.131	2.80951
844.505	9.67737
847.88	6.12176
851.255	8.00171
854.63	5.21997
858.005	4.07489
861.38	5.16125
864.754	4.01019
868.129	3.97376
871.504	3.25153
874.879	4.60193
878.254	0.806519
881.629	10.0236
885.003	5.44653
888.378	1.63568
891.753	5.20569
895.128	1.17432
898.503	7.93335
901.877	5.39276
905.252	2.34851
908.627	2.76117
912.002	12.8714
915.377	14.3484
918.751	15.0433
922.126	14.1409
925.501	12.9834
928.876	4.22058
932.251	5.599
935.625	5.64441
939	5.40698
942.375	7.79242
945.75	13.1522
949.125	15.527
952.5	12.7195
955.875	9.74457
959.249	3.39044
962.624	4.43799
965.999	1.9165
969.374	17.032
972.749	22.3447
976.123	38.7419
979.498	78.2292
982.873	137.772
986.248	231.897
989.623	364.411
992.997	460.875
996.372	404.199
999.747	290.246
1003.12	224.577
1006.5	181.561
1009.87	171.298
1013.25	151.328
1016.62	96.7492
1020	60.0631
1023.37	38.6468
1026.75	19.8097
1030.12	13.6955
1033.49	13.3588
1036.87	11.3919
1040.24	12.3653
1043.62	11.3539
1046.99	6.81839
1050.37	2.80728
1053.74	2.04825
1057.12	1.39557
1060.49	2.16214
1063.87	3.25522
1067.24	1.99307
1070.62	3.29419
1073.99	2.3324
1077.37	2.62662
1080.74	2.5018
1084.12	3.66275
1087.49	3.06876
1090.87	2.27033
1094.24	2.76712
1097.62	8.60229
1100.99	2.74988
1104.37	8.39862
1107.74	3.51724
1111.12	2.41574
1114.49	1.02209
1117.87	5.6225
1121.24	3.31009
1124.62	5.76593
1127.99	3.56122
1131.37	1.73547
1134.74	0.636047
1138.12	6.24667
1141.49	1.81787
1144.86	4.69699
1148.24	3.9689
1151.61	6.98529
1154.99	7.31851
1158.36	5.97321
1161.74	3.39096
1165.11	5.54828
1168.49	3.04843
1171.86	1.80356
1175.24	2.27585
1178.61	6.8931
1181.99	8.5488
1185.36	3.52295
1188.74	4.78711
1192.11	5.3837
1195.49	7.16135
1198.86	0.607391
1202.24	1.1879
1205.61	4.65826
1208.99	4.63757
1212.36	5.03342
1215.73	11.0332
1219.11	8.21118
1222.48	7.60785
1225.86	1.12991
1229.23	0.168396
1232.61	4.79739
1235.98	1.55045
1239.36	8.63187
1242.73	3.17804
1246.11	3.81049
1249.48	2.55716
1252.86	5.0325
1256.23	2.9017
1259.61	0.690369
1262.98	8.15973
1266.36	2.62506
1269.73	6.02728
1273.11	1.16101
1276.48	5.14593
1279.86	6.97446
