Measurement: Raman, 532 nm, unoriented, Raman Data Processed
Mineral: Pigeonite
Rruff sample: R200002
Ideal chemistry: (Mg,Fe^2+^,Ca)SiO_3_
Locality: Belmont Quarry, near Leesburg, Loudoun County, Virginia, USA
Source: James Shigley
Description: Grey to yellow prismatic crystals associated with white anorthite and dark biotite
Raman shift (cm-1)	intensity
88.1367	0
91.5115	38.1585
94.8863	29.1518
98.2612	3.7901
101.636	1.37811
105.011	3.26544
108.386	43.895
111.76	43.851
115.135	72.0629
118.51	100.254
121.885	125.061
125.26	170.383
128.635	184.838
132.009	223.627
135.384	251.208
138.759	271.756
142.134	292.574
145.509	276.409
148.883	239.773
152.258	201.941
155.633	161.501
159.008	128.969
162.383	113.22
165.757	95.5264
169.132	73.1022
172.507	78.5973
175.882	65.0274
179.257	57.9081
182.632	54.2505
186.006	58.0148
189.381	39.4522
192.756	38.6678
196.131	21.6047
199.506	11.2534
202.881	13.0717
206.255	16.6114
209.63	30.6323
213.005	50.0831
216.38	68.119
219.755	74.4975
223.129	73.0328
226.504	85.3448
229.879	78.9925
233.254	51.0266
236.629	40.3007
240.004	16.6314
243.378	15.1487
246.753	11.7282
250.128	6.26715
253.503	0.521973
256.878	19.7647
260.252	29.4462
263.627	54.596
267.002	54.209
270.377	35.1577
273.752	16.349
277.127	4.00232
280.501	13.3139
283.876	5.45825
287.251	3.72046
290.626	6.16333
294.001	17.7323
297.375	36.8948
300.75	53.7355
304.125	65.8184
307.5	90.3097
310.875	116.245
314.25	168.603
317.624	258.11
320.999	367.729
324.374	463.062
327.749	463.083
331.124	354.683
334.498	256.15
337.873	205.37
341.248	194.809
344.623	192.668
347.998	178.038
351.373	158.812
354.747	160.221
358.122	149.491
361.497	143.199
364.872	152.593
368.247	154.273
371.621	160.079
374.996	128.446
378.371	128.726
381.746	101.439
385.121	79.7932
388.495	83.6977
391.87	87.3156
395.245	94.7714
398.62	88.3405
401.995	64.1555
405.37	34.6498
408.744	10.061
412.119	2.04053
415.494	0.421143
418.869	0.684814
422.244	5.06873
425.618	8.06836
428.993	6.93604
432.368	11.876
435.743	15.1603
439.118	10.6623
442.493	7.94055
445.867	7.45129
449.242	5.47693
452.617	15.2661
455.992	3.14368
459.367	8.95666
462.741	16.8287
466.116	18.1121
469.491	13.7125
472.866	5.62927
476.241	0.424805
479.615	6.78174
482.99	5.51685
486.365	3.82361
489.74	4.6991
493.115	7.78271
496.49	21.9547
499.864	29.0929
503.239	50.7353
506.614	72.8835
509.989	78.464
513.364	86.0251
516.739	93.7235
520.113	100.565
523.488	119.214
526.863	133.601
530.238	147.321
533.613	157.837
536.987	144.12
540.362	113.952
543.737	81.1486
547.112	66.8705
550.487	79.7992
553.861	80.545
557.236	91.6583
560.611	90.4043
563.986	76.7634
567.361	49.0475
570.736	26.546
574.11	21.7873
577.485	18.8917
580.86	9.7052
584.235	12.5674
587.61	9.22974
590.985	2.91809
594.359	7.5979
597.734	1.61768
601.109	3.83899
604.484	8.78406
607.859	12.9879
611.233	37.9452
614.608	52.8961
617.983	61.2189
621.358	68.7074
624.733	71.3744
628.107	73.499
631.482	82.9062
634.857	110.388
638.232	172.332
641.607	243.001
644.982	359.459
648.356	525.958
651.731	669.706
655.106	716.432
658.481	773.99
661.856	970.598
665.231	1288.38
668.605	1543.58
671.98	1483.29
675.355	1058.66
678.73	641.438
682.105	380.159
685.479	229.795
688.854	144.748
692.229	98.2411
695.604	59.6173
698.979	44.3766
702.354	24.3117
705.728	14.3306
709.103	17.2621
712.478	2.71143
715.853	2.49878
719.227	2.24268
722.602	3.78174
725.977	6.45886
729.352	1.26514
732.727	9.30859
736.102	20.6288
739.476	23.1648
742.851	20.7025
746.226	5.13318
749.601	5.09021
752.976	3.16931
756.351	7.0636
759.725	9.81213
763.1	14.2415
766.475	13.0234
769.85	29.5309
773.225	25.7532
776.599	21.9392
779.974	16.3127
783.349	20.5861
786.724	7.36414
790.099	12.8287
793.473	12.2717
796.848	15.6573
800.223	13.1378
803.598	12.9506
806.973	8.69446
810.348	31.1971
813.722	40.0985
817.097	48.9628
820.472	55.3517
823.847	50.0582
827.222	44.0576
830.597	50.4734
833.971	46.9772
837.346	36.662
840.721	26.8821
844.096	22.3436
847.471	17.6584
850.846	10.5264
854.22	20.0615
857.595	8.69397
860.97	3.71863
864.345	7.93787
867.72	7.31555
871.094	1.87573
874.469	8.3761
877.844	3.73792
881.219	12.6943
884.594	7.49731
887.968	23.137
891.343	11.9485
894.718	16.0505
898.093	27.2737
901.468	36.7835
904.842	43.5322
908.217	51.2865
911.592	67.085
914.967	82.2956
918.342	98.5147
921.717	81.1
925.091	58.9856
928.466	43.0839
931.841	32.4548
935.216	12.0984
938.591	10.3372
941.966	20.3386
945.34	30.6448
948.715	56.8352
952.09	63.2161
955.465	47.5231
958.84	28.9095
962.214	21.3292
965.589	25.6405
968.964	35.5083
972.339	75.9491
975.714	138.922
979.088	256.067
982.463	455.928
985.838	783.544
989.213	1312.58
992.588	1950.67
995.963	2102.24
999.337	1625.7
1002.71	1147.76
1006.09	869.392
1009.46	737.377
1012.84	681.362
1016.21	541.566
1019.59	351.419
1022.96	181.168
1026.34	117.319
1029.71	79.6582
1033.09	53.3109
1036.46	32.7539
1039.84	32.7439
1043.21	31.7028
1046.59	22.713
1049.96	4.62341
1053.33	7.71362
1056.71	13.5646
1060.08	6.5929
1063.46	12.3551
1066.83	3.53369
1070.21	4.70581
1073.58	1.57385
1076.96	1.59839
1080.33	6.09717
1083.71	5.29663
1087.08	5.51306
1090.46	5.67517
1093.83	0.907959
1097.21	14.4098
1100.58	15.2659
1103.96	22.0692
1107.33	12.3381
1110.71	12.223
1114.08	19.1499
1117.46	24.6586
1120.83	25.3225
1124.21	2.73743
1127.58	5.1029
1130.95	6.14844
1134.33	9.17188
1137.7	12.2672
1141.08	8.6936
1144.45	9.1355
1147.83	1.51318
1151.2	9.09363
1154.58	12.443
1157.95	13.7325
1161.33	17.1423
1164.7	1.21301
1168.08	2.67786
1171.45	13.411
1174.83	14.1862
1178.2	24.8883
1181.58	7.68823
1184.95	16.2346
1188.33	14.679
1191.7	13.9989
1195.08	12.7649
1198.45	11.0066
1201.83	0.20874
1205.2	24.3615
1208.58	11.9287
1211.95	1.06836
1215.33	6.83594
1218.7	19.7788
1222.08	3.9585
1225.45	1.55762
1228.83	9.2063
1232.2	6.91724
1235.58	9.56494
1238.95	11.2437
1242.32	23.2012
1245.7	26.8977
1249.07	19.9155
1252.45	12.3616
1255.82	18.7095
1259.2	12.354
1262.57	22.2268
1265.95	20.677
1269.32	7.22827
1272.7	7.93262
1276.07	0.901855
1279.45	2.05103
1282.82	2.94116
1286.2	11.5911
1289.57	12.9983
1292.95	9.4331
1296.32	2.7749
1299.7	5.80591
