Measurement: Raman, 780 nm, unoriented, Raman Data Processed
Mineral: Plancheite
Rruff sample: R190037
Ideal chemistry: Cu^2+^_8_(Si_4_O_11_)_2_(OH)_4_H_2_O
Locality: Kambove, Katanga, Democratic Republic of the Congo
Source: Rukin Jelks
Description: Sprays of blue fibrous or acicular crystals on matrix
Raman shift (cm-1)	intensity
107.831	0
111.206	2.34851
114.581	2.21899
117.955	15.9288
121.33	9.68213
124.705	23.3527
128.08	16.0801
131.455	6.58325
134.829	5.34705
138.204	7.66223
141.579	13.0558
144.954	21.4329
148.329	16.5812
151.704	37.5247
155.078	43.636
158.453	30.0031
161.828	28.908
165.203	5.29297
168.578	1.41296
171.952	0.359375
175.327	0.596069
178.702	14.3136
182.077	20.6906
185.452	26.1814
188.827	26.8403
192.201	39.178
195.576	29.4432
198.951	40.9336
202.326	63.2258
205.701	76.1155
209.076	88.9203
212.45	92.986
215.825	74.4171
219.2	61.2744
222.575	47.6124
225.95	36.1179
229.324	37.2174
232.699	31.051
236.074	41.7991
239.449	28.182
242.824	31.4758
246.198	30.7325
249.573	26.5821
252.948	17.9709
256.323	20.067
259.698	22.3525
263.073	21.9292
266.447	15.2888
269.822	11.8951
273.197	1.9856
276.572	3.80835
279.947	1.6178
283.322	1.35669
286.696	8.33313
290.071	8.67334
293.446	8.48889
296.821	0.036377
300.196	0.182251
303.57	10.4005
306.945	12.2743
310.32	8.84375
313.695	16.2696
317.07	9.95459
320.445	9.72131
323.819	13.9733
327.194	16.1924
330.569	13.7425
333.944	23.91
337.319	7.85474
340.693	12.2517
344.068	11.1172
347.443	7.88855
350.818	7.80786
354.193	6.22778
357.567	3.84717
360.942	1.16333
364.317	0.821289
367.692	8.23206
371.067	4.82385
374.442	2.46863
377.816	3.77258
381.191	6.48157
384.566	10.4851
387.941	7.49976
391.316	14.2721
394.69	10.0521
398.065	5.58875
401.44	5.51575
404.815	5.20361
408.19	5.78406
411.565	4.61926
414.939	0.967529
418.314	9.59106
421.689	7.8407
425.064	7.87707
428.439	13.1006
431.813	12.0688
435.188	18.0385
438.563	18.4437
441.938	21.1005
445.313	18.0291
448.688	13.5608
452.062	14.2602
455.437	12.3474
458.812	8.92566
462.187	6.93189
465.562	6.15601
468.937	9.875
472.311	5.84009
475.686	8.61621
479.061	5.61377
482.436	7.07471
485.81	7.63391
489.185	5.29614
492.56	10.7385
495.935	8.99365
499.31	9.26672
502.685	5.93311
506.059	5.21167
509.434	5.2561
512.809	8.703
516.184	1.19092
519.559	4.07629
522.933	2.03796
526.308	1.87769
529.683	1.51111
533.058	0.224487
536.433	4.99829
539.808	1.73474
543.182	2.1814
546.557	2.9314
549.932	8.87195
553.307	12.24
556.682	15.0288
560.057	10.52
563.431	5.66504
566.806	5.49341
570.181	1.29578
573.556	1.2738
576.931	2.48181
580.306	3.87769
583.68	4.57288
587.055	3.53076
590.43	1.6355
593.805	8.94995
597.18	4.94324
600.554	0.819092
603.929	1.12256
607.304	0.317993
610.679	0.869019
614.054	4.36108
617.428	2.83935
620.803	4.7085
624.178	4.60046
627.553	6.30725
630.928	6.07752
634.303	10.9978
637.677	7.78796
641.052	10.9756
644.427	13.7011
647.802	15.2841
651.177	14.8159
654.552	25.2794
657.926	32.7391
661.301	38.5621
664.676	42.7363
668.051	51.42
671.426	54.6738
674.8	51.5016
678.175	39.8603
681.55	29.3709
684.925	26.5998
688.3	12.3612
691.674	1.52917
695.049	2.271
698.424	10.4341
701.799	3.11194
705.174	5.99158
708.548	3.40845
711.923	5.10474
715.298	5.9176
718.673	2.32178
722.048	6.7533
725.423	4.65662
728.797	9.82312
732.172	6.96631
735.547	8.64343
738.922	4.3396
742.297	7.80103
745.672	5.21289
749.046	5.40466
752.421	0.674927
755.796	5.62085
759.171	8.29736
762.546	15.2954
765.92	7.37573
769.295	10.6351
772.67	10.9159
776.045	6.59229
779.42	8.64441
782.795	6.54932
786.169	6.90076
789.544	9.5354
792.919	10.6366
796.294	8.11682
799.669	8.78259
803.043	9.73523
806.418	4.7688
809.793	1.99683
813.168	5.25488
816.543	8.09582
819.918	11.4592
823.292	2.03992
826.667	6.75269
830.042	1.31561
833.417	0.099854
836.792	2.27801
840.166	4.55444
843.541	4.72662
846.916	4.93774
850.291	4.13263
853.666	0.02948
857.04	3.59314
860.415	8.30566
863.79	8.93768
867.165	7.28851
870.54	3.23151
873.915	4.89783
877.289	1.2641
880.664	7.4538
884.039	8.73108
887.414	5.86444
890.789	5.64685
894.163	3.33923
897.538	7.98547
900.913	0.451233
904.288	4.89636
907.663	3.341
911.038	3.79657
914.412	9.31354
917.787	3.3266
921.162	5.06506
924.537	6.23956
927.912	8.77814
931.287	9.37415
934.661	12.8452
938.036	15.1698
941.411	9.24786
944.786	9.10034
948.161	16.0916
951.535	14.4812
954.91	5.83124
958.285	11.1351
961.66	6.69074
965.035	6.58521
968.409	7.69897
971.784	2.99213
975.159	3.06012
978.534	9.10541
981.909	9.31067
985.284	3.24579
988.658	0.362244
992.033	6.43121
995.408	3.80896
998.783	4.19458
1002.16	6.66486
1005.53	3.30664
1008.91	2.11273
1012.28	3.60126
1015.66	2.87366
1019.03	2.1015
1022.41	2.17999
1025.78	1.61536
1029.16	4.18982
1032.53	3.11493
1035.91	4.79468
1039.28	7.70538
1042.66	3.29956
1046.03	0.105774
1049.4	1.80707
1052.78	6.54803
1056.15	13.0189
1059.53	11.3846
1062.9	14.4325
1066.28	10.1408
1069.65	8.4314
1073.03	5.83435
1076.4	6.22479
1079.78	12.1347
1083.15	11.6809
1086.53	9.14764
1089.9	9.60889
1093.28	2.72711
1096.65	0.831543
1100.03	6.06439
1103.4	2.896
1106.78	7.10706
1110.15	2.25201
1113.53	1.62738
1116.9	3.98383
1120.28	2.74457
1123.65	0.528259
1127.03	2.33685
1130.4	2.28619
1133.78	8.92645
1137.15	8.45196
1140.53	10.7958
1143.9	13.1307
1147.28	5.4892
1150.65	11.3614
1154.03	5.46326
1157.4	6.96551
1160.77	6.60425
1164.15	0.685059
1167.52	10.1497
1170.9	8.00256
1174.27	8.34308
1177.65	10.6624
1181.02	4.22375
1184.4	3.6294
1187.77	10.6061
1191.15	7.54181
1194.52	10.0487
1197.9	5.97076
1201.27	7.68036
1204.65	7.18744
1208.02	8.87378
1211.4	12.919
1214.77	5.39984
1218.15	4.28296
1221.52	15.49
1224.9	7.69348
1228.27	0.827698
1231.64	1.02637
1235.02	6.53326
1238.39	6.65979
1241.77	4.91467
1245.14	8.46448
1248.52	2.47516
1251.89	0.827393
1255.27	9.21637
1258.64	6.7254
1262.02	11.2072
1265.39	14.2683
1268.77	5.20978
1272.14	6.6485
1275.52	3.52222
1278.89	6.47199
1282.27	0
