Measurement: Raman, 532 nm, unoriented, Raman Data Processed
Mineral: Plancheite
Rruff sample: R190037
Ideal chemistry: Cu^2+^_8_(Si_4_O_11_)_2_(OH)_4_H_2_O
Locality: Kambove, Katanga, Democratic Republic of the Congo
Source: Rukin Jelks
Description: Sprays of blue fibrous or acicular crystals on matrix
Raman shift (cm-1)	intensity
141.652	0
144.544	27.4473
147.437	51.7305
150.33	122.958
153.222	176.767
156.115	241.36
159.008	252.521
161.901	206.151
164.793	102.276
167.686	11.0005
170.579	7.99219
173.471	1.91455
176.364	7.60303
179.257	3.72998
182.149	23.6689
185.042	27.2383
187.935	68.6553
190.828	104.251
193.72	133.383
196.613	187.284
199.506	194.184
202.398	233.115
205.291	308.546
208.184	471.834
211.077	600.59
213.969	595.261
216.862	430.218
219.755	278.288
222.647	177.586
225.54	126.229
228.433	79.4868
231.325	60.2358
234.218	45.4058
237.111	39.0234
240.004	47.3545
242.896	53.9585
245.789	84.2007
248.682	82.0449
251.574	70.5034
254.467	89.7158
257.36	107.775
260.252	109.579
263.145	75.0913
266.038	57.2671
268.93	7.51953
271.823	25.3887
274.716	25.0669
277.609	12.7236
280.501	11.2476
283.394	6.29199
286.287	3.75391
289.179	23.3555
292.072	20.2168
294.965	23.019
297.858	30.9199
300.75	50.937
303.643	64.0664
306.536	69.3237
309.428	65.8218
312.321	66.3037
315.214	68.9062
318.106	59.7139
320.999	76.3662
323.892	112.295
326.784	146.622
329.677	135.647
332.57	141.576
335.463	135.382
338.355	126.942
341.248	125.783
344.141	98.9766
347.033	72.3887
349.926	50.7588
352.819	37.106
355.712	23.1245
358.604	2.62744
361.497	13.6006
364.39	10.7036
367.282	30.5205
370.175	39.519
373.068	10.4629
375.96	18.6245
378.853	26.6685
381.746	48.7295
384.639	77.8106
387.531	100.107
390.424	123.566
393.317	109.973
396.209	111.795
399.102	113.494
401.995	109.332
404.887	99.665
407.78	73.7319
410.673	84.3511
413.566	80.6187
416.458	58.0122
419.351	38.727
422.244	22.313
425.136	39.4941
428.029	66.979
430.922	96.3677
433.815	118.356
436.707	160.402
439.6	158.782
442.493	134.724
445.385	128.924
448.278	131.139
451.171	81.0269
454.063	24.3608
456.956	6.19336
459.849	6.16553
462.741	20.3037
465.634	2.83984
468.527	3.28857
471.42	36.4141
474.312	25.104
477.205	18.3086
480.098	15.4756
482.99	10.9214
485.883	1.91162
488.776	7.04297
491.668	7.15332
494.561	36.6318
497.454	59.0723
500.347	67.124
503.239	79.2349
506.132	52.415
509.025	58.8301
511.917	32.4038
514.81	3.30225
517.703	5.5791
520.596	22.8086
523.488	25.4585
526.381	40.2441
529.274	18.7593
532.166	20.981
535.059	37.5288
537.952	47.9365
540.844	74.2559
543.737	71.0059
546.63	90.4512
549.523	80.9639
552.415	103.764
555.308	96.188
558.201	82.5991
561.093	68.2075
563.986	58.5562
566.879	62.5444
569.771	57.248
572.664	47.9087
575.557	46.126
578.449	33.8667
581.342	23.3804
584.235	49.3652
587.128	32.2749
590.02	13.0981
592.913	4.95996
595.806	7.73828
598.698	6.03955
601.591	1.31348
604.484	1.22217
607.376	1.30273
610.269	24.2661
613.162	31.8838
616.055	38.0977
618.947	30.582
621.84	14.2158
624.733	6.40771
627.625	0.412598
630.518	6.87891
633.411	11.3843
636.303	16.3374
639.196	38.1357
642.089	26.602
644.982	29.4692
647.874	48.8687
650.767	76.2241
653.66	101.363
656.552	137.782
659.445	167.361
662.338	190.523
665.231	245.371
668.123	343.698
671.016	411.072
673.909	401.664
676.801	332.763
679.694	253.962
682.587	190.122
685.479	155.799
688.372	111.404
691.265	70.6977
694.158	45.0718
697.05	28.4165
699.943	10.8389
702.836	4.11768
705.728	9.75732
708.621	35.7661
711.514	27.5479
714.406	33.7065
717.299	7.63623
720.192	10.2065
723.085	1.69531
725.977	2.88477
728.87	1.00586
731.763	2.07275
734.655	12.6284
737.548	47.5869
740.441	36.0742
743.333	5.36475
746.226	8.66797
749.119	13.6738
752.011	7.88672
754.904	22.8716
757.797	35.5688
760.69	42.4741
763.582	37.0884
766.475	17.4624
769.368	32.1968
772.26	32.9058
775.153	32.4619
778.046	32.1768
780.938	46.4541
783.831	50.2422
786.724	43.7602
789.617	37.4487
792.509	25.5327
795.402	38.5513
798.295	58.4087
801.187	43.0581
804.08	13.8091
806.973	8.22754
809.865	1.48731
812.758	21.5986
815.651	7.58594
818.544	22.6733
821.436	11.729
824.329	13.9326
827.222	9.05176
830.114	26.0576
833.007	48.853
835.9	43.7065
838.793	56.043
841.685	44.9277
844.578	58.1963
847.471	20.8975
850.363	7.39307
853.256	26.665
856.149	16.9253
859.041	22.8975
861.934	22.2612
864.827	23.6929
867.72	25.7578
870.612	25.3096
873.505	3.3208
876.398	5.67627
879.29	7.67139
882.183	18.9429
885.076	21.6611
887.968	48.2461
890.861	39.3779
893.754	26.2007
896.646	26.9497
899.539	29.4185
902.432	37.9072
905.325	45.3374
908.217	45.6641
911.11	32.4106
914.003	17.2759
916.895	32.2109
919.788	40.8188
922.681	22.6274
925.574	6.38379
928.466	8.68652
931.359	16.0884
934.252	13.8208
937.144	14.0151
940.037	14.6973
942.93	20.6416
945.822	25.0537
948.715	6.854
951.608	16.0786
954.501	7.50391
957.393	0.160156
960.286	15.2886
963.179	47.8076
966.071	44.5669
968.964	16.0596
971.857	27.8003
974.75	25.5098
977.642	41.209
980.535	44.9424
983.428	46.5039
986.32	30.3701
989.213	35.5869
992.106	37.2808
994.998	49.8916
997.891	42.2319
1000.78	45.8276
1003.68	44.9395
1006.57	47.4644
1009.46	45.498
1012.36	31.7236
1015.25	11.5601
1018.14	0.146973
1021.03	4.45752
1023.92	6.20361
1026.82	30.6343
1029.71	26.562
1032.6	43.1265
1035.5	27.022
1038.39	12.083
1041.28	17.9375
1044.17	10.4072
1047.07	16.7612
1049.96	1.74072
1052.85	0.841797
1055.74	66.8818
1058.64	65.3525
1061.53	64.0596
1064.42	35.271
1067.32	46.2637
1070.21	53.0171
1073.1	51.6875
1075.99	47.7949
1078.89	44.1196
1081.78	53.624
1084.67	51.105
1087.57	38.8975
1090.46	17.3486
1093.35	19.5181
1096.24	34.1148
1099.14	63.9898
1102.03	53.6538
1104.92	45.0718
1107.81	13.2685
1110.71	5.63428
1113.6	17.1421
1116.49	19.3921
1119.38	56.5342
1122.28	43.4399
1125.17	37.3643
1128.06	4.29004
1130.95	4.20654
1133.85	24.8984
1136.74	39.2002
1139.63	39.1045
1142.53	40.1318
1145.42	35.667
1148.31	32.0869
1151.2	31.9766
1154.1	30.5708
1156.99	35.646
1159.88	39.4736
1162.78	52.4126
1165.67	24.2046
1168.56	5.60254
1171.45	22.814
1174.35	65.4468
1177.24	64.4531
1180.13	41.2065
1183.02	28.877
1185.92	43.8477
1188.81	60.4766
1191.7	69.3106
1194.6	47.5478
1197.49	52.3272
1200.38	45.2178
1203.27	56.8516
1206.17	20.5391
1209.06	29.9395
1211.95	36.8115
1214.84	58.9844
1217.74	60.7754
1220.63	43.2705
1223.52	39.4815
1226.41	18.8213
1229.31	20.8799
1232.2	25.9521
1235.09	8.1416
1237.98	10.9219
1240.88	35.5977
1243.77	54.7676
1246.66	68.7197
1249.56	63.2607
1252.45	42.2451
1255.34	46.0576
1258.23	53.5352
1261.13	46.0947
1264.02	20.4961
1266.91	20.1699
1269.81	19.248
1272.7	0.758789
1275.59	4.85352
1278.48	4.36719
1281.38	23.2969
1284.27	17.3828
1287.16	6.02637
