Measurement: Raman, 532 nm, unoriented, Raman Data RAW
Mineral: Platinum
Rruff sample: R060750
Ideal chemistry: Pt
Locality: Bear Creek, near Nyak, Alaska, USA
Source: Michael Scott
Description: Silver metallic water-worn nuggets
Raman shift (cm-1)	intensity
133.094	2365.52
135.986	2463.49
138.879	2717.46
141.772	2585.6
144.664	2967.03
147.557	2955.29
150.45	2621.24
153.342	2690.64
156.235	2661.79
159.128	2557.68
162.02	2615.06
164.913	2654.89
167.806	2610.86
170.699	2617.7
173.591	2923.5
176.484	2565.49
179.377	2654.74
182.269	2563.26
185.162	2589.59
188.055	2532.85
190.947	2654.07
193.84	2619.57
196.733	2636.2
199.626	2596.17
202.518	2576.44
205.411	2579.43
208.304	2581.11
211.196	2566.71
214.089	2544.89
216.982	2568.89
219.875	2600.84
222.767	2569.62
225.66	2609.29
228.553	2594.82
231.445	2567
234.338	2584.3
237.231	2619.15
240.123	2612.15
243.016	2618.17
245.909	2625.17
248.802	2619.35
251.694	2646.11
254.587	2640.39
257.48	2632.37
260.372	2701.47
263.265	2599.24
266.158	2627.91
269.05	2642.88
271.943	2571.72
274.836	2534.08
277.728	2664.2
280.621	2644.57
283.514	2700.12
286.406	2678.88
289.299	2654.24
292.192	2751.03
295.085	2674.27
297.977	2670.13
300.87	2695.37
303.763	2778.54
306.655	2641.96
309.548	2612.38
312.441	2793.3
315.334	2717.72
318.226	2683.19
321.119	2685.71
324.012	2689.6
326.904	2787.47
329.797	2739.66
332.69	2672.33
335.582	2678.51
338.475	2718.14
341.368	2787.89
344.26	2679.99
347.153	2742.54
350.046	2651.43
352.939	2691.65
355.831	2707.25
358.724	2781.47
361.617	2668.72
364.509	2743.6
367.402	2736.15
370.295	2745.52
373.188	2742.25
376.08	2726.2
378.973	2791.1
381.866	2704.69
384.758	2740.94
387.651	2762.99
390.544	2802.17
393.436	2769.17
396.329	2783.49
399.222	2813.19
402.114	2761.54
405.007	2891.3
407.9	2819.83
410.793	2848.72
413.685	2855
416.578	2825.7
419.471	2791.78
422.363	2818.47
425.256	2776.47
428.149	2844.42
431.041	2853.84
433.934	2814.71
436.827	2865.84
439.719	2906.77
442.612	2849.32
445.505	2857.47
448.398	2869.78
451.29	2845.8
454.183	2885.66
457.076	2929.9
459.968	2860.25
462.861	2869.71
465.754	2887.16
468.647	2958.87
471.539	2923.12
474.432	2872.54
477.325	2989
480.217	2908.75
483.11	2903.75
486.003	2956.93
488.895	2941.18
491.788	2962.33
494.681	3082.02
497.574	2994.91
500.466	2986.39
503.359	3029.6
506.252	3036.91
509.144	3003.27
512.037	3069.16
514.93	3009.74
517.822	3114.82
520.715	3047.4
523.608	3046.86
526.5	3026.18
529.393	3076.83
532.286	3055.2
535.179	3014.05
538.071	3057.23
540.964	3045.61
543.857	3127.23
546.749	3049.52
549.642	3179.61
552.535	3098.36
555.427	3078.78
558.32	3179.97
561.213	3213.28
564.106	3104.89
566.998	3119.49
569.891	3179.66
572.784	3145.1
575.676	3200.05
578.569	3141.67
581.462	3275.37
584.354	3224.28
587.247	3216.46
590.14	3227.87
593.033	3192.58
595.925	3232.97
598.818	3294.24
601.711	3314.36
604.603	3268.14
607.496	3297.14
610.389	3345.93
613.281	3281.8
616.174	3347.43
619.067	3335.06
621.96	3382.5
624.852	3276.92
627.745	3280.52
630.638	3365.58
633.53	3410.74
636.423	3377.4
639.316	3406.56
642.208	3386.11
645.101	3387.06
647.994	3381.22
650.886	3387.22
653.779	3435.19
656.672	3400.11
659.565	3488.23
662.457	3418.58
665.35	3477.9
668.243	3499.43
671.135	3492.33
674.028	3452.02
676.921	3494.37
679.813	3489.84
682.706	3430.55
685.599	3449.64
688.492	3524.03
691.384	3518.04
694.277	3514.49
697.17	3530.82
700.062	3441.5
702.955	3521.85
705.848	3484.25
708.74	3500.76
711.633	3466.7
714.526	3445.81
717.418	3514.13
720.311	3542.55
723.204	3430.25
726.097	3474.18
728.989	3497.66
731.882	3507.22
734.775	3439.58
737.667	3490.25
740.56	3525.98
743.453	3449.7
746.346	3436.15
749.238	3419.2
752.131	3408.17
755.024	3418.12
757.916	3443.01
760.809	3412.27
763.702	3382.39
766.594	3443.23
769.487	3419.22
772.38	3373.35
775.273	3400.7
778.165	3377.96
781.058	3381.3
783.951	3360.75
786.843	3394.31
789.736	3377.3
792.629	3385.05
795.521	3399.43
798.414	3424.68
801.307	3421.32
804.199	3430.22
807.092	3436.83
809.985	3396.65
812.878	3453.8
815.77	3480
818.663	3486.65
821.556	3474.97
824.448	3459.9
827.341	3473.25
830.234	3447.89
833.126	3472.99
836.019	3543.06
838.912	3487
841.805	3555.64
844.697	3502.17
847.59	3516.43
850.483	3505.44
853.375	3479.27
856.268	3505.85
859.161	3523.09
862.053	3588.26
864.946	3576.87
867.839	3551.75
870.731	3544.22
873.624	3542.05
876.517	3608.34
879.41	3637.49
882.302	3574.95
885.195	3618.82
888.088	3575.31
890.98	3665.45
893.873	3643.78
896.766	3626.4
899.659	3605.87
902.551	3587.6
905.444	3648.39
908.337	3662.08
911.229	3673.94
914.122	3744.46
917.015	3630.92
919.907	3717.74
922.8	3793.18
925.693	3695.26
928.586	3563.39
931.478	3762.92
934.371	3687.51
937.264	3635.48
940.156	3735.45
943.049	3648.38
945.942	3735.14
948.834	3780.23
951.727	3711.99
954.62	3793.71
957.513	3804.14
960.405	3787.72
963.298	3745.96
966.191	3809.03
969.083	3893.16
971.976	3853.7
974.869	3874.49
977.761	3851.28
980.654	3816.89
983.547	3828.55
986.439	3744.35
989.332	3820.97
992.225	3821.94
995.118	3808.77
998.01	3865.88
1000.9	3790.77
1003.8	3813.37
1006.69	3824.72
1009.58	3866.66
1012.47	3858.65
1015.37	3941.99
1018.26	3873.16
1021.15	3932.27
1024.05	3891.61
1026.94	3969.16
1029.83	3918.54
1032.72	3947.23
1035.62	3939.57
1038.51	4052.04
1041.4	4025.34
1044.29	3992.49
1047.19	4075.97
1050.08	4124.13
1052.97	4054.51
1055.86	4075.84
1058.76	3990.65
1061.65	3997.92
1064.54	3983.68
1067.43	4023.01
1070.33	4054.27
1073.22	3981.23
1076.11	3991.99
1079.01	4006.76
1081.9	4011.2
1084.79	4017.16
1087.68	3993.21
1090.58	3953.31
1093.47	4058.91
1096.36	4093.9
1099.26	4094.54
1102.15	4094.66
1105.04	4093.31
1107.93	4088.15
1110.83	4103.41
1113.72	4090.28
1116.61	4160.44
1119.5	4081.21
1122.4	4086.8
1125.29	4082.22
1128.18	4110.9
1131.07	4143.57
1133.97	4165.93
1136.86	4116.28
1139.75	4056.22
1142.64	4155.44
1145.54	4141.14
1148.43	4233.65
1151.32	4169.62
1154.22	4208.67
1157.11	4172.87
1160	4150.6
1162.89	4129.66
1165.79	4105.34
1168.68	4180.14
1171.57	4158.09
1174.46	4295.99
1177.36	4209.46
1180.25	4208.74
1183.14	4275.74
1186.04	4243.59
1188.93	4227.43
1191.82	4305.07
1194.71	4152
1197.61	4277.29
1200.5	4181.21
1203.39	4292.21
1206.29	4285.83
1209.18	4342.71
1212.07	4287.01
1214.96	4227.02
1217.86	4302.06
1220.75	4334.54
1223.64	4355.11
1226.53	4394.47
1229.43	4346.65
1232.32	4324.84
1235.21	4423.19
1238.1	4418.36
1241	4482.41
1243.89	4467.77
1246.78	4494.88
1249.67	4456.92
1252.57	4502.64
1255.46	4493.23
1258.35	4442.91
1261.25	4505.13
1264.14	4492.95
1267.03	4455.63
1269.92	4505.92
1272.82	4588.49
1275.71	4602.76
1278.6	4619.52
1281.49	4584.29
