Measurement: Raman, 780 nm, unoriented, Raman Data Processed
Mineral: Polybasite
Rruff sample: R061052
Ideal chemistry: Cu(Ag,Cu)_6_Ag_9_Sb_2_S_11_
Locality: Elsa, Yukon Territory, Canada
Source: Royal Ontario Museum
Description: Metallic, iron-black with reddish hints; pseudohexagonal tabular crystals associated with hexagonal prisms of stephanite
Measured chemistry: Cu_1.00_Ag_15.00_Sb_2.00_S_11.00_
Raman shift (cm-1)	intensity
101.082	0
104.456	0.26408
107.831	3.90939
111.206	5.30005
114.581	0.913662
117.956	0.125591
121.331	0.5889
124.705	3.77758
128.08	5.67111
131.455	6.84768
134.83	3.87447
138.205	3.39169
141.579	1.27797
144.954	2.58915
148.329	0.00251
151.704	0.396091
155.079	0.299721
158.453	0.045473
161.828	2.30394
165.203	3.89958
168.578	6.2807
171.953	7.81542
175.328	9.19043
178.702	8.96645
182.077	9.79043
185.452	9.40649
188.827	10.0454
192.202	10.3583
195.577	11.2297
198.951	11.701
202.326	12.2531
205.701	11.8977
209.076	11.1254
212.451	10.0682
215.825	9.20312
219.2	9.93312
222.575	9.9251
225.95	10.5934
229.325	10.4789
232.7	10.2507
236.074	9.86245
239.449	8.08425
242.824	6.53579
246.199	5.25318
249.574	3.29903
252.948	2.01594
256.323	1.41615
259.698	1.03089
263.073	0.040743
266.448	0.12683
269.822	0.529443
273.197	0.025333
276.572	0.061265
279.947	0.194144
283.322	1.08584
286.697	2.35343
290.071	3.6888
293.446	6.4519
296.821	9.52659
300.196	11.3639
303.571	10.4555
306.945	9.41673
310.32	10.1037
313.695	15.1917
317.07	24.6549
320.445	32.7781
323.82	44.1363
327.194	67.3114
330.569	107.174
333.944	151.833
337.319	108.422
340.694	45.5792
344.068	19.0264
347.443	8.99787
350.818	5.04618
354.193	2.93857
357.568	2.11395
360.942	1.85091
364.317	0.904501
367.692	0.842184
371.067	0.086787
374.442	0.253892
377.817	0.175893
381.191	0.371811
384.566	0.015555
387.941	0.152252
391.316	0.046016
394.691	0.147768
398.065	0.058706
401.44	0.294283
404.815	0.246433
408.19	0.17341
411.565	0.006766
414.94	0.366824
418.314	0.165761
421.689	0.727262
425.064	0.23471
428.439	0.455525
431.814	0.26059
435.188	0.754073
438.563	0.71285
441.938	0.480832
445.313	0.504081
448.688	0.644227
452.063	0.713573
455.437	0.929437
458.812	0.128006
462.187	0.255908
465.562	0.377137
468.937	0.63116
472.312	0.47031
475.686	0.345028
479.061	0.298856
482.436	0.404938
485.811	1.00992
489.186	0.883074
492.56	0.673057
495.935	0.547324
499.31	0.413609
502.685	0.107103
506.06	0.45964
509.435	0.276425
512.809	0.42748
516.184	0.409252
519.559	0.431079
522.934	0.232728
526.308	0.227988
529.683	0.49939
533.058	0.615341
536.433	0.012038
539.808	0.306488
543.183	0.30114
546.557	0.372327
549.932	0.182442
553.307	0.506031
556.682	0.316818
560.057	0.314785
563.432	0.363692
566.806	0.566679
570.181	0.462999
573.556	0.543583
576.931	0.236246
580.306	0.143395
583.681	0.602067
587.055	0.095883
590.43	0.044583
593.805	0.241123
597.18	0.290689
600.555	0.145998
603.929	0.101628
607.304	0.422273
610.679	0.580512
614.054	0.391106
617.429	0.08607
620.803	0.148376
624.178	0.124985
627.553	0.463663
630.928	0.536008
634.303	0.278742
637.678	0.320809
641.052	0.58903
644.427	0.477132
647.802	0.329237
651.177	0.455664
654.552	0.167533
657.927	0.263953
661.301	0.01427
664.676	0.397075
668.051	0.412647
671.426	0.341526
674.801	0.500053
678.175	0.206924
681.55	0.387259
684.925	0.504885
688.3	0.151392
691.675	0.237368
695.049	0.404632
698.424	0.332109
701.799	0.463298
705.174	0.254913
708.549	0.250137
711.923	0.094563
715.298	0.510281
718.673	0.094147
722.048	0.341377
725.423	0.275394
728.798	0.159943
732.172	0.05449
735.547	0.321262
738.922	0.169489
742.297	0.065838
745.672	0.410595
749.047	0.510532
752.421	0.130805
755.796	0.138952
759.171	0.36563
762.546	0.228961
765.921	0.360154
769.295	0.272941
772.67	0.144674
776.045	0.099842
779.42	0.605914
782.795	0.290515
786.169	0.243033
789.544	0.56478
792.919	0.159912
796.294	0.27655
799.669	0.158649
803.044	0.043035
806.418	0.173073
809.793	0.45516
813.168	0.290728
816.543	0.449999
819.918	0.223091
823.293	0.472023
826.667	0.33214
830.042	0.29786
833.417	0.30979
836.792	0.184265
840.167	0.477274
843.541	0.301886
846.916	0.492414
850.291	0.328165
853.666	0.348038
857.041	0.378225
860.415	0.018056
863.79	0.340165
867.165	0.27602
870.54	0.462157
873.915	0.49187
877.29	0.258888
880.664	0.229123
884.039	0.285727
887.414	0.221569
890.789	0.17146
894.164	0.339761
897.538	0.021721
900.913	0.353466
904.288	0.095844
907.663	0.078606
911.038	0.280408
914.413	0.41191
917.787	0.302012
921.162	0.36909
924.537	0.448811
927.912	0.024428
931.287	0.426878
934.661	0.074256
938.036	0.184639
941.411	0.266089
944.786	0.512274
948.161	0.22844
951.535	0.290788
954.91	0.304809
958.285	0.099134
961.66	0.032587
965.035	0.313374
968.41	0.106245
971.784	0.178791
975.159	0.468361
978.534	0.324154
981.909	0.149297
985.284	0.303401
988.659	0.353878
992.033	0.725331
995.408	0.018432
998.783	0.305686
1002.16	0.405215
1005.53	0.156453
1008.91	0.204817
1012.28	0.093121
1015.66	0.384131
1019.03	0.541388
1022.41	0.314088
1025.78	0.388
1029.16	0.128594
1032.53	0.334816
1035.91	0.192624
1039.28	0.231661
1042.66	0.345462
1046.03	0.179509
1049.4	0.211044
1052.78	0.348666
1056.15	0.173211
1059.53	0.323817
1062.9	0.350201
1066.28	0.620184
1069.65	0.238741
1073.03	0.219053
1076.4	0.684139
1079.78	1.10275
1083.15	0.305809
1086.53	0.262109
1089.9	0.398701
1093.28	0.587827
1096.65	0.467219
1100.03	0.187232
1103.4	0.195015
1106.78	0.170152
1110.15	0.40074
1113.53	0.201111
1116.9	0.107409
1120.28	0.121628
1123.65	0.087473
1127.03	0.025139
1130.4	0.168936
1133.78	0.190032
1137.15	0.01977
1140.53	0.326844
1143.9	0.008259
1147.28	0.538608
1150.65	0.190735
1154.03	0.311017
1157.4	0.301442
1160.77	0.286643
1164.15	0.483686
1167.52	0.344714
1170.9	0.310922
1174.27	0.317454
1177.65	0.114452
1181.02	0.678405
1184.4	0.316012
1187.77	0.082324
1191.15	0.51397
1194.52	0.370081
1197.9	0.577837
1201.27	0.001525
1204.65	0.223694
1208.02	0.479333
1211.4	0.53247
1214.77	0.587736
1218.15	0.35862
1221.52	0.465966
1224.9	0.64493
1228.27	0.298348
1231.64	0.265646
1235.02	0.535864
1238.39	0.314443
1241.77	0.398648
1245.14	0.417498
1248.52	0.906946
1251.89	0.092872
1255.27	0.586998
1258.64	0.371841
1262.02	0.549479
1265.39	0.224924
1268.77	0.481719
1272.14	0.274847
1275.52	0.200323
1278.89	0.498721
1282.27	0
