Measurement: Raman, 532 nm, unoriented, Raman Data Processed
Mineral: Polybasite
Rruff sample: R061052
Ideal chemistry: Cu(Ag,Cu)_6_Ag_9_Sb_2_S_11_
Locality: Elsa, Yukon Territory, Canada
Source: Royal Ontario Museum
Description: Metallic, iron-black with reddish hints; pseudohexagonal tabular crystals associated with hexagonal prisms of stephanite
Measured chemistry: Cu_1.00_Ag_15.00_Sb_2.00_S_11.00_
Raman shift (cm-1)	intensity
90.5473	0
93.9221	0.247762
97.2969	0.123927
100.672	0.096774
104.047	0.130035
107.421	0.256765
110.796	0.212418
114.171	0.004568
117.546	0.430631
120.921	0.29552
124.296	0.441859
127.67	0.444777
131.045	0.506622
134.42	0.290143
137.795	0.18428
141.17	0.26904
144.544	0.55203
147.919	0.337091
151.294	0.340523
154.669	0.689644
158.044	0.018171
161.418	0.22162
164.793	0.241332
168.168	0.310243
171.543	0.220385
174.918	0.330929
178.293	0.048762
181.667	0.570696
185.042	0.208139
188.417	0.428194
191.792	0.414484
195.167	0.21835
198.542	0.531308
201.916	0.326246
205.291	0.56343
208.666	0.594675
212.041	0.535924
215.416	0.686334
218.79	0.507034
222.165	0.233359
225.54	0.343427
228.915	0.0429
232.29	0.294985
235.664	0.273595
239.039	0.248807
242.414	0.38785
245.789	0.267492
249.164	0.214349
252.538	0.266609
255.913	0.332476
259.288	0.904641
262.663	0.43278
266.038	0.315619
269.413	0.455254
272.787	0.320509
276.162	0.337588
279.537	0.108994
282.912	0.064076
286.287	0.468285
289.661	0.419547
293.036	0.705015
296.411	0.170891
299.786	0.582319
303.161	0.429467
306.536	0.391268
309.91	0.34331
313.285	0.290492
316.66	0.358327
320.035	0.183567
323.41	0.090105
326.784	0.039125
330.159	0.498015
333.534	0.269411
336.909	0.051682
340.284	0.41615
343.659	0.324948
347.033	0.394058
350.408	0.063795
353.783	0.25481
357.158	0.645522
360.533	0.412228
363.908	0.187364
367.282	0.406998
370.657	0.360319
374.032	0.114704
377.407	0.10458
380.782	0.121169
384.156	0.438018
387.531	0.339888
390.906	0.143971
394.281	0.036748
397.656	0.306645
401.031	0.313988
404.405	0.450158
407.78	0.134179
411.155	0.190751
414.53	0.353592
417.905	0.261471
421.279	0.301732
424.654	0.276209
428.029	0.144367
431.404	0.124424
434.779	0.568359
438.154	0.049023
441.528	0.005193
444.903	0.156465
448.278	0.168215
451.653	0.339666
455.028	0.168114
458.402	0.064049
461.777	0.237982
465.152	0.117384
468.527	0.188708
471.902	0.502399
475.276	0.581449
478.651	0.882176
482.026	0.694553
485.401	0.903652
488.776	0.31548
492.151	0.19403
495.525	0.330414
498.9	0.12582
502.275	0.126974
505.65	0.135624
509.025	0.193581
512.399	0.452941
515.774	0.070354
519.149	0.244626
522.524	0.499988
525.899	0.051756
529.274	0.120349
532.648	0.190809
536.023	0.121818
539.398	0.142037
542.773	0.372947
546.148	0.20854
549.523	0.326846
552.897	0.340679
556.272	0.24165
559.647	0.041304
563.022	0.161508
566.396	0.373115
569.771	0.251026
573.146	0.485856
576.521	0.106493
579.896	0.161614
583.271	0.16497
586.645	0.460296
590.02	0.644493
593.395	0.207886
596.77	0.349894
600.145	0.024535
603.519	0.101355
606.894	0.153483
610.269	0.373843
613.644	0.372945
617.019	0.48653
620.394	0.263551
623.768	0.102681
627.143	0.099859
630.518	0.44807
633.893	0.322845
637.268	0.140845
640.643	0.372666
644.017	0.492922
647.392	0.270292
650.767	0.357514
654.142	0.409313
657.517	0.396576
660.891	0.235248
664.266	0.004881
667.641	0.32547
671.016	0.251067
674.391	0.304529
677.765	0.551702
681.14	0.232298
684.515	0.178249
687.89	0.260765
691.265	0.233305
694.64	0.055833
698.014	0.406655
701.389	0.226928
704.764	0.262542
708.139	0.39178
711.514	0.361851
714.889	0.173499
718.263	0.348063
721.638	0.195441
725.013	0.251717
728.388	0.167026
731.763	0.076138
735.137	0.082918
738.512	0.256216
741.887	0.058815
745.262	0.388607
748.637	0.168702
752.011	0.324632
755.386	0.095634
758.761	0.200731
762.136	0.392034
765.511	0.359427
768.886	0.277343
772.26	0.075073
775.635	0.275799
779.01	0.443257
782.385	0.507391
785.76	0.318612
789.135	0.016608
792.509	0.015499
795.884	0.241742
799.259	0.083929
802.634	0.222175
806.009	0.129845
809.383	0.143992
812.758	0.211535
816.133	0.404771
819.508	0.354254
822.883	0.266416
826.257	0.149026
829.632	0.341763
833.007	0.289949
836.382	0.160476
839.757	0.34729
843.132	0.171152
846.506	0.339395
849.881	0.366938
853.256	0.500413
856.631	0.315226
860.006	0.144019
863.38	0.48975
866.755	0.025047
870.13	0.366879
873.505	0.339794
876.88	0.200193
880.255	0.312618
883.629	0.315039
887.004	0.000446
890.379	0.364551
893.754	0.115417
897.129	0.317641
900.504	0.365206
903.878	0.34272
907.253	0.04098
910.628	0.169486
914.003	0.043129
917.378	0.056969
920.752	0.488353
924.127	0.113284
927.502	0.190236
930.877	0.332652
934.252	0.1898
937.626	0.117888
941.001	0.205721
944.376	0.143809
947.751	0.254508
951.126	0.48874
954.5	0.332853
957.875	0.378211
961.25	0.334346
964.625	0.331383
968	0.258488
971.375	0.210807
974.75	0.383956
978.124	0.180377
981.499	0.322439
984.874	0.341588
988.249	0.003036
991.624	0.19837
994.998	0.075974
998.373	0.445587
1001.75	0.34463
1005.12	0.078067
1008.5	0.099644
1011.87	0.494709
1015.25	0.31648
1018.62	0.298724
1022	0.127175
1025.37	0.197255
1028.75	0.371507
1032.12	0.182504
1035.5	0.379774
1038.87	0.37912
1042.25	0.294803
1045.62	0.199691
1048.99	0.169574
1052.37	0.025256
1055.74	0.194501
1059.12	0.324266
1062.49	0.110758
1065.87	0.249106
1069.24	0.295247
1072.62	0.305137
1075.99	0.071132
1079.37	0.27161
1082.74	0.415317
1086.12	0.288266
1089.49	0.328721
1092.87	0.324203
1096.24	0.190777
1099.62	0.007978
1102.99	0.205508
1106.37	0.369809
1109.74	0.226258
1113.12	0.132846
1116.49	0.044989
1119.87	0.139083
1123.24	0.436701
1126.62	0.057815
1129.99	0.142044
1133.37	0.32973
1136.74	0.207031
1140.12	0.014233
1143.49	0.184001
1146.87	0.421339
1150.24	0.01209
1153.62	0.368501
1156.99	0.05265
1160.36	0.434969
1163.74	0.144143
1167.11	0.196454
1170.49	0.358813
1173.86	0.067623
1177.24	0.489673
1180.61	0.355047
1183.99	0.051068
1187.36	0.17975
1190.74	0.571895
1194.11	0.246717
1197.49	0.449106
1200.86	0.0381
1204.24	0.406974
1207.61	0.403163
1210.99	0.232427
1214.36	0.489597
1217.74	0.019649
1221.11	0.222792
1224.49	0.358699
1227.86	0.396199
1231.24	0.498517
1234.61	0.26646
1237.98	0.460026
1241.36	0.549349
1244.73	0.359162
1248.11	0.338568
1251.48	0.310601
1254.86	0.435441
1258.23	0.361766
1261.61	0.267995
1264.98	0.401186
1268.36	0.409776
1271.73	0.44354
1275.11	0.409472
1278.48	0.139136
1281.86	0.675753
1285.23	0.046182
1288.61	0.272034
1291.98	0.285583
1295.36	0.117491
1298.73	0.089428
