Measurement: Raman, 532 nm, unoriented, Raman Data Processed
Mineral: Polystyrene
Rruff sample: R150076
Ideal chemistry: (C_8_H_8_)_n_
Locality: Synthetic
Source: Thermo Electron Corporation
Description: Polystyrene calibration standard
Raman shift (cm-1)	intensity
89.7832	0
93.158	816.707
96.5328	481.828
99.9077	83.707
103.282	411.676
106.657	1430.8
110.032	2733.15
113.407	3638.66
116.782	3938.66
120.157	3952.35
123.531	3169.64
126.906	2340.06
130.281	1527.05
133.656	914.672
137.031	423.858
140.405	142.897
143.78	142.128
147.155	314.31
150.53	51.2607
153.905	284.702
157.28	664.301
160.654	1060.34
164.029	1461.99
167.404	1767
170.779	2008.73
174.154	2214.12
177.528	2313.71
180.903	2389.47
184.278	2484.35
187.653	2572.25
191.028	2683.38
194.403	2801.03
197.777	2973.22
201.152	3090.11
204.527	3168.04
207.902	3308.08
211.277	3594.24
214.651	3885.69
218.026	4144.34
221.401	4258.74
224.776	4216.9
228.151	3916.02
231.525	3355.07
234.9	2722.03
238.275	2068.58
241.65	1416.53
245.025	869.332
248.4	514.54
251.774	331.974
255.149	235.326
258.524	192.917
261.899	160.836
265.274	154.574
268.649	154.83
272.023	174.727
275.398	164.467
278.773	163.068
282.148	130.863
285.523	83.9644
288.897	50.5791
292.272	11.2835
295.647	17.6926
299.022	32.9224
302.397	29.2415
305.772	30.4145
309.146	18.3684
312.521	1.70142
315.896	13.9062
319.271	23.4002
322.646	51.6692
326.02	70.8811
329.395	80.2681
332.77	76.8337
336.145	84.9966
339.52	71.1694
342.894	60.8013
346.269	39.9116
349.644	20.0007
353.019	1.39331
356.394	13.7048
359.769	12.4309
363.143	2.41406
366.518	38.6352
369.893	59.8813
373.268	125.694
376.643	195.936
380.017	300.228
383.392	403.492
386.767	502.163
390.142	588.487
393.517	654.571
396.892	737.734
400.266	835.304
403.641	978.033
407.016	1063.71
410.391	989.091
413.766	824.635
417.14	675.171
420.515	579.237
423.89	465.012
427.265	411.334
430.64	340.178
434.014	306.922
437.389	285.354
440.764	271.604
444.139	259.889
447.514	215.642
450.889	159.924
454.263	104.594
457.638	65.0598
461.013	41.5803
464.388	16.4785
467.763	12.0586
471.137	6.14624
474.512	0.716553
477.887	17.4172
481.262	12.8567
484.637	5.84033
488.012	0.560547
491.386	5.78101
494.761	3.15894
498.136	9.91455
501.511	11.8296
504.886	32.6604
508.26	36.9045
511.635	59.5791
515.01	79.3709
518.385	107.413
521.76	125.641
525.135	154.394
528.509	194.157
531.884	276.915
535.259	356.228
538.634	423.245
542.009	433.657
545.384	411
548.758	378.771
552.133	331.569
555.508	294.971
558.883	269.3
562.258	258.254
565.632	260.398
569.007	217.999
572.382	199.881
575.757	159.896
579.132	139.59
582.506	123.284
585.881	109.083
589.256	92.5122
592.631	80.7044
596.006	76.6501
599.381	98.4273
602.755	130.606
606.13	211.155
609.505	484.645
612.88	854.034
616.255	1903.97
619.63	3813.53
623.004	5891.78
626.379	2314.91
629.754	827.87
633.129	472.828
636.504	307.85
639.878	160.912
643.253	72.6946
646.628	32.9646
650.003	11.4233
653.378	6.44653
656.752	0.057129
660.127	7.6731
663.502	7.12256
666.877	11.6123
670.252	13.7918
673.626	3.68457
677.001	3.7478
680.376	5.30664
683.751	4.0647
687.126	2.00171
690.501	11.6582
693.875	31.499
697.25	83.4981
700.625	154.53
704	191.265
707.375	128.981
710.75	22.9214
714.124	21.0774
717.499	23.4529
720.874	17.9875
724.249	3.93555
727.624	73.1313
730.998	198.052
734.373	441.106
737.748	775.371
741.123	1003.14
744.498	1134.33
747.872	1296.05
751.247	1500
754.622	1747.53
757.997	1919.56
761.372	1920.53
764.747	1798.69
768.121	1660.27
771.496	1491.1
774.871	1294.35
778.246	1253.93
781.621	1493.8
784.995	1974.7
788.37	2651.06
791.745	3422.13
795.12	3952.04
798.495	3920.63
801.87	3068.41
805.244	2035.16
808.619	1362.69
811.994	982.098
815.369	642.089
818.744	310.881
822.119	71.5574
825.493	45.7293
828.868	36.7446
832.243	75.126
835.618	312.318
838.993	619.651
842.367	762.941
845.742	671.38
849.117	421.031
852.492	220.345
855.867	158.536
859.241	150.311
862.616	170.851
865.991	160.74
869.366	166.083
872.741	170.311
876.115	204.245
879.49	225.859
882.865	231.951
886.24	233.073
889.615	260.797
892.99	311.066
896.364	410.915
899.739	577.501
903.114	798.784
906.489	882.421
909.864	736.711
913.239	494.08
916.613	269.105
919.988	118.896
923.363	51.8855
926.738	11.3567
930.113	40.9463
933.487	13.1243
936.862	40.062
940.237	21.4439
943.612	5.16479
946.987	12.0503
950.361	20.7705
953.736	39.093
957.111	32.4373
960.486	23.3486
963.861	142.211
967.236	191.267
970.61	151.595
973.985	190.98
977.36	379.034
980.735	754.767
984.11	1319.12
987.485	2407.89
990.859	4880
994.234	7659.84
997.609	15189.6
1000.98	38410.5
1004.36	48857.3
1007.73	17945
1011.11	4585.12
1014.48	1388.33
1017.86	730.54
1021.23	1172.74
1024.61	2703.19
1027.98	6251.25
1031.36	10795.9
1034.73	10997.9
1038.11	6556.88
1041.48	3003.25
1044.86	1422.1
1048.23	729.364
1051.61	425.821
1054.98	291.918
1058.36	242.924
1061.73	291.473
1065.11	431.524
1068.48	657.435
1071.86	829.611
1075.23	853.77
1078.6	814.54
1081.98	775.175
1085.35	739.44
1088.73	736.326
1092.1	751.987
1095.48	806.366
1098.85	845.481
1102.23	766.801
1105.6	552.165
1108.98	313.713
1112.35	178.445
1115.73	113.685
1119.1	47.699
1122.48	67.7405
1125.85	109.573
1129.23	108.566
1132.6	83.8203
1135.98	18.7134
1139.35	128.982
1142.73	389.139
1146.1	842.065
1149.48	1495.48
1152.85	2750.51
1156.22	4392.92
1159.6	3902.34
1162.97	2485.73
1166.35	1815.48
1169.72	1712.01
1173.1	1984.31
1176.47	2686.47
1179.85	4283.98
1183.22	5971.85
1186.6	5696.47
1189.97	5149.32
1193.35	5546.33
1196.72	6170.77
1200.1	6407.8
1203.47	6256.43
1206.85	5381.86
1210.22	4007.14
1213.6	2741.92
1216.97	1905.3
1220.35	1463.69
1223.72	1212.32
1227.1	993.198
1230.47	750.868
1233.85	520.442
1237.22	353.053
1240.6	278.945
1243.97	232.783
1247.35	193.833
1250.72	174.621
1254.1	123.577
1257.47	73.2117
1260.85	25.8855
1264.22	3.88574
1267.59	10.3015
1270.97	8.70239
1274.34	0.449707
1277.72	12.104
1281.09	44.0425
1284.47	52.0386
1287.84	26.1094
1291.22	35.5503
1294.59	63.23
1297.97	44.3023
1301.34	3.16992
