Measurement: Raman, 780 nm, unoriented, Raman Data Processed
Mineral: Polystyrene
Rruff sample: R150076
Ideal chemistry: (C_8_H_8_)_n_
Locality: Synthetic
Source: Thermo Electron Corporation
Description: Polystyrene calibration standard
Raman shift (cm-1)	intensity
93.9705	0
97.3453	699.227
100.72	903.801
104.095	893.835
107.47	910.583
110.845	823.661
114.219	589.449
117.594	516.246
120.969	607.751
124.344	651.432
127.719	472.228
131.094	318.481
134.468	168.864
137.843	36.0727
141.218	18.9766
144.593	99.7578
147.968	123.539
151.342	168.885
154.717	179.052
158.092	527.152
161.467	846.741
164.842	1136.2
168.216	1381.8
171.591	1559.9
174.966	1681.7
178.341	1756.99
181.716	1790.21
185.09	1810.9
188.465	1819.66
191.84	1821.43
195.215	1824.97
198.59	1829.87
201.965	1817.91
205.339	1805.53
208.714	1798.45
212.089	1832.67
215.464	1894.63
218.839	1940.11
222.214	1947
225.588	1880
228.963	1724.94
232.338	1484.51
235.713	1227.58
239.088	966.653
242.462	712.324
245.837	510.385
249.212	375.645
252.587	289.253
255.962	230.639
259.336	195.99
262.711	165.943
266.086	146.352
269.461	133.363
272.836	114.527
276.211	97.9412
279.585	81.431
282.96	62.9623
286.335	42.9772
289.71	26.7363
293.085	8.56988
296.459	1.14221
299.834	7.55042
303.209	9.12903
306.584	6.75891
309.959	6.02496
313.334	2.26666
316.708	0.540405
320.083	3.49408
323.458	7.14014
326.833	11.1713
330.207	12.8898
333.582	14.7884
336.957	13.351
340.332	9.77661
343.707	4.71002
347.082	0.242493
350.456	5.40674
353.831	9.95514
357.206	10.728
360.581	11.4937
363.956	1.61713
367.33	6.0733
370.705	21.749
374.08	40.2642
377.455	66.8401
380.83	94.4524
384.205	124.717
387.579	160.503
390.954	190.926
394.329	215.248
397.704	237.363
401.079	263.212
404.453	305.243
407.828	325.702
411.203	300.06
414.578	246.596
417.953	193.456
421.327	160.524
424.702	130.205
428.077	106.773
431.452	91.4281
434.827	82.3995
438.202	76.9437
441.576	74.1489
444.951	65.5295
448.326	59.1688
451.701	44.0486
455.076	29.0906
458.45	17.5263
461.825	11.5979
465.2	6.11383
468.575	4.92844
471.95	2.89401
475.325	0.890594
478.699	2.81522
482.074	0.787048
485.449	0.46933
488.824	3.02567
492.199	5.90729
495.573	5.31879
498.948	8.89148
502.323	9.89337
505.698	13.9116
509.073	16.2564
512.447	21.2918
515.822	25.8908
519.197	30.4126
522.572	35.0253
525.947	40.0759
529.322	51.2666
532.696	70.1659
536.071	89.1033
539.446	104.56
542.821	108.804
546.196	101.588
549.57	89.8686
552.945	85.7622
556.32	79.2918
559.695	71.8477
563.07	64.6289
566.444	55.2577
569.819	49.507
573.194	42.6269
576.569	34.7524
579.944	27.4898
583.319	16.878
586.693	14.9055
590.068	12.6931
593.443	12.9898
596.818	15.1325
600.193	21.2842
603.567	33.3216
606.942	72.4732
610.317	122.018
613.692	206.707
617.067	429.529
620.442	1035.52
623.816	1281.78
627.191	450.757
630.566	168.929
633.941	98.7443
637.316	58.4168
640.69	29.7291
644.065	12.2021
647.44	3.50162
650.815	0.191986
654.19	5.23343
657.564	3.11197
660.939	0.325043
664.314	3.22958
667.689	6.47028
671.064	1.00418
674.439	0.135132
677.813	1.26898
681.188	1.37518
684.563	1.59973
687.938	1.80902
691.313	2.96777
694.688	6.952
698.062	20.3615
701.437	36.893
704.812	39.6861
708.187	21.7709
711.562	4.68778
714.936	4.47815
718.311	6.68365
721.686	5.55716
725.061	3.05978
728.436	19.1337
731.81	48.7275
735.185	106.388
738.56	175.093
741.935	217.348
745.31	243.205
748.684	269.631
752.059	310.287
755.434	359.193
758.809	392.755
762.184	382.27
765.559	356.724
768.933	335.98
772.308	301.168
775.683	268.893
779.058	272.347
782.433	332.878
785.808	442.726
789.182	589.356
792.557	743.869
795.932	852.871
799.307	815.5
802.682	614.16
806.056	396.069
809.431	270.326
812.806	193.287
816.181	120.294
819.556	51.7713
822.93	5.66202
826.305	9.81549
829.68	6.43939
833.055	15.1296
836.43	51.845
839.804	95.898
843.179	112.4
846.554	98.3411
849.929	63.8783
853.304	40.7238
856.679	34.1448
860.053	32.7886
863.428	37.5323
866.803	38.9454
870.178	38.2026
873.553	40.2376
876.927	43.7241
880.302	46.293
883.677	46.6367
887.052	45.6817
890.427	50.6482
893.802	56.0237
897.176	71.5408
900.551	99.5694
903.926	131.561
907.301	139.091
910.676	111.096
914.05	77.02
917.425	38.6128
920.8	17.8034
924.175	6.42184
927.55	1.52637
930.924	7.77924
934.299	8.64792
937.674	5.12503
941.049	1.69013
944.424	0.400085
947.799	0.885345
951.173	4.97455
954.548	8.20425
957.923	5.40182
961.298	5.98819
964.673	24.7416
968.047	26.9697
971.422	22.4604
974.797	31.8262
978.172	78.0968
981.547	153.664
984.922	268.371
988.296	539.269
991.671	1096.23
995.046	1559.71
998.421	3152.27
1001.8	8099.42
1005.17	7785.54
1008.54	2505.35
1011.92	636.476
1015.29	203.912
1018.67	145.04
1022.04	265.415
1025.42	575.912
1028.79	1286.14
1032.17	2037.76
1035.54	1869.79
1038.92	1023.61
1042.29	462.105
1045.67	220.516
1049.04	115.424
1052.42	70.6718
1055.79	52.4555
1059.17	52.9695
1062.54	66.918
1065.92	97.3713
1069.29	139.704
1072.67	166.873
1076.04	167.691
1079.42	156.542
1082.79	149.332
1086.17	144.048
1089.54	143.066
1092.92	149.037
1096.29	158.394
1099.66	161.112
1103.04	143.425
1106.41	100.764
1109.79	52.9355
1113.16	30.8078
1116.54	19.4457
1119.91	0.245056
1123.29	12.9809
1126.66	20.9399
1130.04	17.8634
1133.41	11.2468
1136.79	3.32758
1140.16	32.2107
1143.54	88.0251
1146.91	177.5
1150.29	308.35
1153.66	587.017
1157.04	836.428
1160.41	655.586
1163.79	403.176
1167.16	308.671
1170.54	315.25
1173.91	381.354
1177.29	551.845
1180.66	918.648
1184.04	1160.49
1187.41	1000.01
1190.79	886.677
1194.16	949.805
1197.54	1022.58
1200.91	1053.72
1204.28	988.286
1207.66	818.136
1211.03	589.409
1214.41	399.263
1217.78	277.572
1221.16	212.185
1224.53	175.567
1227.91	143.359
1231.28	101.357
1234.66	64.6346
1238.03	40.3543
1241.41	27.528
1244.78	23.2473
1248.16	19.4629
1251.53	15.8404
1254.91	13.034
1258.28	3.91269
1261.66	0.598694
1265.03	1.98541
1268.41	1.39356
1271.78	3.55994
1275.16	4.96411
1278.53	4.95547
1281.9	2.43909
