Measurement: Raman, 780 nm, unoriented, Raman Data RAW
Mineral: Pseudowollastonite
Rruff sample: R070762
Ideal chemistry: CaSiO_3_
Locality: Dredged from Tampa Bay harbour, Tampa Bay, Florida, USA
Source: Paul Roth
Description: White massive associated with barringerite, R070439
Measured chemistry: Ca_1.00_Si_1.00_O_3_
Raman shift (cm-1)	intensity
92.5234	8935.48
95.8983	10053.9
99.2731	9973.53
102.648	9733.92
106.023	9699.55
109.397	9738.87
112.772	9772.84
116.147	9798.02
119.522	9902.06
122.897	9898.05
126.272	9956.47
129.646	9978.43
133.021	9986.69
136.396	10018.5
139.771	10078.2
143.146	10098.8
146.52	10109.4
149.895	10176.5
153.27	10232.8
156.645	10260.4
160.02	10310.2
163.395	10299
166.769	10307.1
170.144	10375.6
173.519	10431.8
176.894	10463.5
180.269	10489.8
183.643	10531.2
187.018	10583.5
190.393	10655.6
193.768	10702.8
197.143	10745.2
200.518	10768.2
203.892	10846.2
207.267	10894.1
210.642	10990.2
214.017	11033.1
217.392	11093.8
220.766	11187.3
224.141	11222.3
227.516	11293.4
230.891	11379.2
234.266	11452.9
237.641	11544.2
241.015	11627.1
244.39	11745.9
247.765	11863.9
251.14	11976.4
254.515	12041.9
257.889	12148.1
261.264	12272.4
264.639	12407
268.014	12537.3
271.389	12657.4
274.764	12784.8
278.138	12923.5
281.513	13112.5
284.888	13308.1
288.263	13535.9
291.638	13725.5
295.012	13965
298.387	14165.6
301.762	14421.2
305.137	14706.2
308.512	14958
311.887	15192.9
315.261	15482.9
318.636	15718.3
322.011	16001.9
325.386	16245.6
328.761	16527
332.135	16716.6
335.51	16957.5
338.885	17111.3
342.26	17271.6
345.635	17381.8
349.01	17442.1
352.384	17445.2
355.759	17458.3
359.134	17481.9
362.509	17459.6
365.884	17402.5
369.258	17349.7
372.633	17274.9
376.008	17164.5
379.383	17157.3
382.758	17096.4
386.132	17017.8
389.507	17000.5
392.882	16989.1
396.257	17022.9
399.632	16975.3
403.007	16966.2
406.381	17002.8
409.756	16958.5
413.131	16952.4
416.506	16914.8
419.881	16849
423.255	16861.6
426.63	16730.5
430.005	16635.9
433.38	16582.8
436.755	16461.9
440.13	16384.4
443.504	16276
446.879	16157.8
450.254	16050.4
453.629	15923.7
457.004	15837.8
460.378	15717.5
463.753	15626.7
467.128	15500.7
470.503	15435.6
473.878	15336.4
477.252	15166.9
480.627	15016.7
484.002	14926.2
487.377	14867.5
490.752	14722.8
494.127	14609.4
497.501	14539.5
500.876	14388.3
504.251	14285.4
507.626	14156
511.001	14061.4
514.375	13971.8
517.75	13866.8
521.125	13755.4
524.5	13632.7
527.875	13617.2
531.25	13485.6
534.624	13334.8
537.999	13218.4
541.374	13136.1
544.749	13033.9
548.124	12963
551.499	12848.3
554.873	12768
558.248	12699.5
561.623	12618.2
564.998	12524.9
568.373	12432.6
571.747	12355.3
575.122	12251.8
578.497	12214.5
581.872	12100
585.247	12027.4
588.621	11968.5
591.996	11887.6
595.371	11835.8
598.746	11754.2
602.121	11676.8
605.495	11633.6
608.87	11529.3
612.245	11500.3
615.62	11398.5
618.995	11367.6
622.37	11311.2
625.744	11267.8
629.119	11184.9
632.494	11091.4
635.869	11068
639.244	10989
642.619	10924.6
645.993	10861.3
649.368	10809
652.743	10715.5
656.118	10646.4
659.493	10585.1
662.867	10558.2
666.242	10456.4
669.617	10426
672.992	10356.9
676.367	10234.6
679.741	10205.6
683.116	10112
686.491	10041.6
689.866	9958.17
693.241	9914.74
696.615	9886.08
699.99	9803.44
703.365	9760.07
706.74	9673.73
710.115	9636.4
713.49	9607.11
716.864	9545.24
720.239	9493.58
723.614	9400
726.989	9340.51
730.364	9279.09
733.739	9259.8
737.113	9177.39
740.488	9153.54
743.863	9113.32
747.238	9053.84
750.613	9041.89
753.987	8976.77
757.362	8972.99
760.737	8918.58
764.112	8863.6
767.487	8803.51
770.861	8798.33
774.236	8780.93
777.611	8697.96
780.986	8702.96
784.361	8617.9
787.736	8605.33
791.11	8521.73
794.485	8465.79
797.86	8435.42
801.235	8353.82
804.61	8314.58
807.985	8277.67
811.359	8197.32
814.734	8106.17
818.109	8054.85
821.484	8026.69
824.859	7949.87
828.233	7862.65
831.608	7827.81
834.983	7739.07
838.358	7633.52
841.733	7549.63
845.107	7509.19
848.482	7426.16
851.857	7316.29
855.232	7253.23
858.607	7171.58
861.982	7132.7
865.356	7044.43
868.731	6972.9
872.106	6894.62
875.481	6859.98
878.856	6796.66
882.231	6724.08
885.605	6683.12
888.98	6607.15
892.355	6586.97
895.73	6556.39
899.105	6482.51
902.479	6459.72
905.854	6399.21
909.229	6381.66
912.604	6357.52
915.979	6302.89
919.353	6291.85
922.728	6248.71
926.103	6202.88
929.478	6197.86
932.853	6159.78
936.227	6142.45
939.602	6105.43
942.977	6101.62
946.352	6063.72
949.727	6054.35
953.102	6041.92
956.476	6091.2
959.851	6083.85
963.226	6048.17
966.601	5998.17
969.976	5940.27
973.351	5889.9
976.725	5868.29
980.1	5842.63
983.475	5844.25
986.85	5830.8
990.225	5821.45
993.599	5820.56
996.974	5827.37
1000.35	5838.71
1003.72	5816.3
1007.1	5785.17
1010.47	5783.02
1013.85	5787.9
1017.22	5804.77
1020.6	5820.99
1023.97	5817.69
1027.35	5818.31
1030.72	5826.85
1034.1	5832.07
1037.47	5859.19
1040.85	5845.15
1044.22	5867.46
1047.6	5857.86
1050.97	5898.14
1054.35	5872.07
1057.72	5888.4
1061.1	5898.5
1064.47	5956.88
1067.85	5936.92
1071.22	5970.99
1074.6	5993.6
1077.97	6030.53
1081.35	6059.21
1084.72	6070.26
1088.09	6114.73
1091.47	6153.79
1094.84	6192.05
1098.22	6237.02
1101.59	6259.04
1104.97	6303.94
1108.34	6390.39
1111.72	6407.73
1115.09	6475.26
1118.47	6547.33
1121.84	6624.44
1125.22	6718.51
1128.59	6802.93
1131.97	6895.69
1135.34	6993.14
1138.72	7107.36
1142.09	7218.25
1145.47	7329.78
1148.84	7453.77
1152.22	7569.04
1155.59	7729.88
1158.96	7897.32
1162.34	8023.83
1165.71	8208.89
1169.09	8352.45
1172.46	8571.35
1175.84	8769.63
1179.21	9004.69
1182.59	9257.22
1185.96	9485.45
1189.34	9738.06
1192.71	10063.2
1196.09	10360.6
1199.46	10678.2
1202.84	11061.2
1206.21	11401.3
1209.59	11758.9
1212.96	12173.3
1216.34	12590.3
1219.71	12972.9
1223.09	13408.8
1226.46	13851.2
1229.84	14256.8
1233.21	14738.9
1236.59	15242.2
1239.96	15739.1
1243.34	16236.3
1246.71	16813
1250.09	17370.7
1253.46	17940.1
1256.84	18521.3
1260.21	19042.7
1263.59	19572.1
1266.96	20101.9
1270.33	20535.3
1273.71	20880.4
1277.08	21208.3
1280.46	21520.5
1283.83	21695.4
