Measurement: Raman, 532 nm, unoriented, Raman Data Processed
Mineral: Pseudobrookite
Rruff sample: R140974
Ideal chemistry: (Fe^3+^_2_Ti^4+^)O_5_
Locality: Emmelberg, Üdersdorf, Daun, Eifel, Rhineland-Palatinate, Germany
Source: Ch. and H. Schäfer
Description: Dark brown tabular or elongated crystals. Associated with sanidine and mullite (supposedly).
Raman shift (cm-1)	intensity
149.084	0
151.976	0.097626
154.869	1.74318
157.762	4.38942
160.654	0.354935
163.547	1.69038
166.44	2.87015
169.333	1.58769
172.225	4.19824
175.118	3.35001
178.011	2.27168
180.903	3.22983
183.796	2.8318
186.689	4.43161
189.581	6.04746
192.474	5.98859
195.367	5.95326
198.26	7.31464
201.152	7.39256
204.045	6.78532
206.938	4.56897
209.83	2.95261
212.723	1.72809
215.616	2.67625
218.508	2.53027
221.401	4.0309
224.294	4.45094
227.186	4.74213
230.079	4.28676
232.972	2.38191
235.865	1.86926
238.757	1.09093
241.65	0.436066
244.543	0.667053
247.435	0.929367
250.328	1.37946
253.221	0.554474
256.113	0.436859
259.006	0.360535
261.899	1.17461
264.792	2.54593
267.684	2.1878
270.577	3.51709
273.47	4.77014
276.362	6.14358
279.255	7.90138
282.148	8.43877
285.041	10.1725
287.933	11.7192
290.826	14.2452
293.719	17.3621
296.611	19.2779
299.504	20.8379
302.397	23.5817
305.289	26.7741
308.182	29.8212
311.075	33.3937
313.967	37.6581
316.86	41.3579
319.753	45.1757
322.646	49.297
325.538	51.9007
328.431	53.075
331.324	52.6973
334.216	52.4221
337.109	50.6187
340.002	47.2034
342.894	43.4995
345.787	38.6347
348.68	33.3057
351.573	28.4071
354.465	24.0413
357.358	19.3186
360.251	16.1733
363.143	11.4199
366.036	9.0511
368.929	5.99928
371.822	3.49802
374.714	1.59462
377.607	2.00101
380.5	0.107925
383.392	0.873215
386.285	0.856155
389.178	0.490601
392.07	0.224426
394.963	0.32695
397.856	1.31168
400.748	3.38863
403.641	4.58688
406.534	5.30811
409.427	6.52351
412.319	7.8741
415.212	9.30096
418.105	10.3665
420.997	12.6909
423.89	13.6291
426.783	14.1977
429.675	15.7029
432.568	15.3247
435.461	16.4676
438.354	16.6124
441.246	17.6188
444.139	16.9273
447.032	18.2699
449.924	15.9975
452.817	15.9859
455.71	15.2887
458.603	13.5213
461.495	11.6337
464.388	10.6747
467.281	9.31509
470.173	9.04983
473.066	7.04451
475.959	5.42975
478.851	5.53159
481.744	7.13393
484.637	10.1992
487.529	4.68234
490.422	1.6427
493.315	1.79959
496.208	0.166321
499.1	0.291992
501.993	0.53923
504.886	1.04797
507.778	0.410507
510.671	0.241898
513.564	0.136185
516.457	0.562454
519.349	0.230469
522.242	0.355286
525.135	0.945908
528.027	0.72818
530.92	1.04752
533.813	0.618164
536.705	1.09663
539.598	1.90874
542.491	1.82039
545.384	2.88437
548.276	3.50093
551.169	3.40274
554.062	4.28183
556.954	3.99799
559.847	4.46851
562.74	6.19301
565.632	5.60811
568.525	6.26852
571.418	6.59767
574.311	6.34009
577.203	6.54579
580.096	7.29787
582.989	7.09625
585.881	7.51521
588.774	8.39879
591.667	7.09889
594.559	7.26457
597.452	6.45525
600.345	6.60693
603.237	7.04907
606.13	6.03516
609.023	5.96979
611.916	6.66702
614.808	5.59148
617.701	4.67468
620.594	4.65704
623.486	4.75613
626.379	4.28912
629.272	3.78262
632.164	4.21803
635.057	3.84335
637.95	3.39027
640.843	3.76991
643.735	2.96794
646.628	4.08614
649.521	2.46077
652.413	2.9261
655.306	2.03419
658.199	1.64243
661.091	1.65883
663.984	1.33884
666.877	1.18454
669.77	0.893692
672.662	0.479401
675.555	0.104797
678.448	0.592865
681.34	0.303482
684.233	0.941666
687.126	0.624939
690.019	0.270401
692.911	0.114105
695.804	0.127518
698.697	0.934052
701.589	0.563324
704.482	0.215729
707.375	1.32317
710.267	0.700455
713.16	0.027939
716.053	2.48131
718.946	3.43649
721.838	2.54648
724.731	4.58398
727.624	5.01422
730.516	5.67129
733.409	5.88684
736.302	7.05287
739.194	9.91713
742.087	9.13222
744.98	11.3506
747.872	12.6249
750.765	14.9121
753.658	14.9908
756.551	16.2764
759.443	17.5315
762.336	18.4438
765.229	18.8347
768.121	20.798
771.014	20.4599
773.907	22.4942
776.799	21.3527
779.692	22.6502
782.585	22.6711
785.478	22.0087
788.37	23.5652
791.263	21.0911
794.156	20.0695
797.048	19.7484
799.941	20.0055
802.834	19.2046
805.726	19.248
808.619	18.5426
811.512	18.2738
814.405	16.9613
817.297	16.7159
820.19	18.0562
823.083	14.8264
825.975	14.5023
828.868	13.2259
831.761	12.679
834.654	13.2591
837.546	10.8643
840.439	11.9747
843.332	10.8119
846.224	11.3461
849.117	10.2115
852.01	9.67506
854.902	9.92009
857.795	9.13799
860.688	8.78645
863.581	8.09369
866.473	6.77403
869.366	5.58101
872.259	4.38258
875.151	3.69392
878.044	1.87457
880.937	1.39123
883.829	0.413681
886.722	0.503693
889.615	0.028961
892.508	0.788513
895.4	0.217377
898.293	0.386932
901.186	0.389557
904.078	1.82912
906.971	1.13294
909.864	0.161163
912.756	0.594986
915.649	0.375259
918.542	0.530457
921.434	0.606964
924.327	1.09808
927.22	1.71165
930.113	2.05324
933.005	1.07042
935.898	2.29594
938.791	1.93599
941.683	2.56198
944.576	3.03685
947.469	3.31006
950.361	4.0648
953.254	4.17654
956.147	4.81697
959.04	3.96236
961.932	4.80087
964.825	4.04895
967.718	5.10742
970.61	4.67886
973.503	4.45366
976.396	3.90195
979.288	3.13464
982.181	3.22681
985.074	3.2011
987.967	3.25478
990.859	2.79453
993.752	2.2993
996.645	2.91545
999.537	1.58037
1002.43	2.50073
1005.32	3.64381
1008.22	1.99008
1011.11	2.34395
1014	2.21988
1016.89	2.64484
1019.79	1.82085
1022.68	1.28241
1025.57	2.43459
1028.46	1.51901
1031.36	1.6839
1034.25	2.9879
1037.14	2.90672
1040.04	3.30228
1042.93	3.67046
1045.82	2.67264
1048.71	2.64528
1051.61	2.81625
1054.5	2.98413
1057.39	2.16167
1060.28	1.80061
1063.18	1.39848
1066.07	1.81282
1068.96	0.86908
1071.86	0.757156
1074.75	0.270233
1077.64	0.273911
1080.53	0.029755
1083.43	0.130783
1086.32	0.739868
1089.21	0.505676
1092.1	0.428604
1095	0.8423
1097.89	0.496826
1100.78	0.976807
1103.67	0.393433
1106.57	1.03906
1109.46	0.622009
1112.35	0.325974
1115.24	0.125656
1118.14	0.128967
1121.03	0.102737
1123.92	0.567963
1126.82	0.459457
1129.71	0.74263
1132.6	0.037827
1135.49	1.01881
1138.39	0.449326
1141.28	1.44243
1144.17	0.675278
1147.07	0.118347
1149.96	0.662628
1152.85	0.532944
1155.74	0.467667
1158.64	1.0938
1161.53	0.889252
1164.42	0.941177
1167.31	1.26598
1170.21	1.50787
1173.1	0.499649
1175.99	1.62672
1178.88	0.45787
1181.78	0.589493
1184.67	0.601196
1187.56	1.54659
1190.46	1.08205
1193.35	2.20929
1196.24	1.80486
1199.13	1.48692
1202.03	0.667191
1204.92	2.11871
1207.81	1.05792
1210.7	1.37706
1213.6	1.28757
1216.49	0.247589
1219.38	2.24049
1222.28	1.80025
1225.17	1.46762
1228.06	0.143845
1230.95	0.089447
1233.85	0.87207
1236.74	0.592529
1239.63	1.4574
1242.52	1.7281
1245.42	1.30711
1248.31	1.71706
1251.2	1.17163
1254.1	1.38985
1256.99	2.61262
1259.88	1.07022
1262.77	1.47923
1265.67	0.873398
1268.56	1.33296
1271.45	0.651993
1274.34	0.912964
1277.24	1.14777
1280.13	0.237076
1283.02	0.637543
1285.91	0.944107
1288.81	0.073959
1291.7	0.059891
1294.59	0.576706
1297.49	0.69516
1300.38	0.638992
