Measurement: Raman, 780 nm, unoriented, Raman Data Processed
Mineral: Pseudobrookite
Rruff sample: R140974
Ideal chemistry: (Fe^3+^_2_Ti^4+^)O_5_
Locality: Emmelberg, Üdersdorf, Daun, Eifel, Rhineland-Palatinate, Germany
Source: Ch. and H. Schäfer
Description: Dark brown tabular or elongated crystals. Associated with sanidine and mullite (supposedly).
Raman shift (cm-1)	intensity
93.9705	0
97.3453	0.966675
100.72	0.048615
104.095	1.57318
107.47	3.73549
110.845	2.45598
114.219	1.97145
117.594	1.37035
120.969	0.954056
124.344	0.932098
127.719	0.415283
131.094	0.569916
134.468	1.61295
137.843	4.34364
141.218	10.7659
144.593	10.4049
147.968	14.2909
151.342	15.9294
154.717	20.8126
158.092	23.438
161.467	27.6927
164.842	32.7917
168.216	37.7645
171.591	43.2345
174.966	50.2647
178.341	59.0577
181.716	70.3013
185.09	83.9764
188.465	99.3593
191.84	115.527
195.215	134.186
198.59	147.358
201.965	146.846
205.339	128.328
208.714	106.125
212.089	95.1575
215.464	95.6163
218.839	104.823
222.214	115.796
225.588	113.653
228.963	93.8144
232.338	64.9969
235.713	40.6507
239.088	23.2264
242.462	12.3176
245.837	6.00848
249.212	2.60626
252.587	1.50175
255.962	1.87251
259.336	1.11134
262.711	0.559311
266.086	0.410614
269.461	2.18854
272.836	3.41231
276.211	5.71551
279.585	9.42183
282.96	13.4314
286.335	15.7504
289.71	20.983
293.085	24.7357
296.459	29.3968
299.834	35.1029
303.209	40.7632
306.584	47.2682
309.959	53.8529
313.334	59.7679
316.708	65.7094
320.083	71.5571
323.458	77.7083
326.833	81.0085
330.207	81.9093
333.582	82.0985
336.957	79.8548
340.332	76.2525
343.707	69.454
347.082	62.5181
350.456	55.0002
353.831	46.4642
357.206	38.6136
360.581	31.3963
363.956	23.4242
367.33	18.7308
370.705	13.9004
374.08	8.77835
377.455	6.04541
380.83	3.98383
384.205	1.2793
387.579	0.671432
390.954	0.262802
394.329	0.695496
397.704	0.392624
401.079	0.156631
404.453	1.36969
407.828	1.77452
411.203	3.35201
414.578	4.1004
417.953	6.43997
421.327	7.45139
424.702	8.42477
428.077	9.0838
431.452	10.1757
434.827	9.61889
438.202	8.97147
441.576	8.41912
444.951	7.5817
448.326	6.33733
451.701	5.83387
455.076	4.1434
458.45	2.97475
461.825	1.1216
465.2	0.048706
468.575	0.242355
471.95	0.717278
475.325	0.41803
478.699	0.468399
482.074	0.122787
485.449	0.410225
488.824	1.16752
492.199	1.45146
495.573	2.25466
498.948	2.25871
502.323	2.38809
505.698	2.52809
509.073	2.44926
512.447	2.92289
515.822	2.60187
519.197	2.98746
522.572	1.84595
525.947	2.17188
529.322	1.67955
532.696	1.6209
536.071	0.309326
539.446	0.411209
542.821	0.412315
546.196	0.082512
549.57	0.686234
552.945	0.882423
556.32	1.08032
559.695	1.77998
563.07	1.50655
566.444	2.46794
569.819	2.48879
573.194	3.15846
576.569	3.89262
579.944	3.46454
583.319	4.062
586.693	3.68725
590.068	4.24519
593.443	4.34565
596.818	5.08822
600.193	4.8379
603.567	6.00952
606.942	6.20531
610.317	6.93825
613.692	8.47554
617.067	9.88787
620.442	11.7719
623.816	14.2289
627.191	17.0795
630.566	19.7949
633.941	23.9066
637.316	28.2921
640.69	33.0932
644.065	37.515
647.44	40.976
650.815	43.5911
654.19	43.7912
657.564	41.4919
660.939	36.908
664.314	30.4202
667.689	23.8466
671.064	18.41
674.439	13.5751
677.813	11.6754
681.188	7.04829
684.563	4.31537
687.938	2.16066
691.313	1.48824
694.688	0.559341
698.062	0.318283
701.437	0.386192
704.812	1.1385
708.187	0.862892
711.562	0.705299
714.936	0.005814
718.311	0.958
721.686	1.87665
725.061	1.83409
728.436	3.18178
731.81	4.21626
735.185	6.60688
738.56	7.25081
741.935	9.11793
745.31	10.718
748.684	12.6338
752.059	14.9252
755.434	16.678
758.809	17.4926
762.184	19.6691
765.559	20.1395
768.933	19.7226
772.308	20.7927
775.683	21.6154
779.058	21.6927
782.433	20.8952
785.808	21.1182
789.182	20.1989
792.557	19.7169
795.932	19.2281
799.307	17.9862
802.682	17.7101
806.056	16.8151
809.431	16.0053
812.806	14.7337
816.181	13.8558
819.556	13.8649
822.93	12.4912
826.305	11.5873
829.68	10.7186
833.055	9.25173
836.43	8.83029
839.804	8.35768
843.179	8.57872
846.554	7.49445
849.929	6.64225
853.304	6.00306
856.679	4.51086
860.053	4.0479
863.428	2.90593
866.803	2.16025
870.178	0.561062
873.553	0.481869
876.927	0.185108
880.302	0.227516
883.677	0.525291
887.052	0.214729
890.427	0.676365
893.802	0.562271
897.176	0.52655
900.551	0.159931
903.926	0.005306
907.301	0.232262
910.676	0.052032
914.05	0.498878
917.425	0.773777
920.8	0.962881
924.175	0.833286
927.55	0.937696
930.924	1.2048
934.299	2.04144
937.674	2.3135
941.049	2.20009
944.424	1.91875
947.799	2.19315
951.173	1.99777
954.548	2.08062
957.923	1.88322
961.298	1.61735
964.673	1.58135
968.047	1.4713
971.422	1.22001
974.797	1.54482
978.172	1.05153
981.547	1.05487
984.922	1.21212
988.296	0.803137
991.671	0.874811
995.046	0.869175
998.421	0.781464
1001.8	0.67066
1005.17	0.471485
1008.54	0.229305
1011.92	0.345518
1015.29	0.34215
1018.67	0.245291
1022.04	0.431622
1025.42	0.381107
1028.79	0.377712
1032.17	0.108032
1035.54	0.41004
1038.92	0.522987
1042.29	0.227922
1045.67	0.529316
1049.04	0.386703
1052.42	0.010107
1055.79	0.372318
1059.17	0.257969
1062.54	0.4461
1065.92	0.050386
1069.29	0.095968
1072.67	0.106934
1076.04	0.44038
1079.42	0.005491
1082.79	0.338501
1086.17	0.043083
1089.54	0.325926
1092.92	0.045309
1096.29	0.098452
1099.66	0.417652
1103.04	0.100708
1106.41	0.181292
1109.79	0.271067
1113.16	0.362988
1116.54	0.279104
1119.91	0.437843
1123.29	0.729662
1126.66	0.451748
1130.04	0.488405
1133.41	0.638969
1136.79	0.637964
1140.16	0.879881
1143.54	0.792576
1146.91	0.785397
1150.29	0.991728
1153.66	0.883688
1157.04	1.00155
1160.41	0.895639
1163.79	0.432644
1167.16	1.2454
1170.54	1.47058
1173.91	1.55442
1177.29	1.86976
1180.66	1.28336
1184.04	1.81337
1187.41	1.69413
1190.79	1.89888
1194.16	1.51832
1197.54	1.88355
1200.91	1.6169
1204.28	1.61044
1207.66	1.93232
1211.03	1.7399
1214.41	0.899776
1217.78	0.96624
1221.16	0.432625
1224.53	0.017286
1227.91	0.225965
1231.28	0.010593
1234.66	0.060194
1238.03	0.117086
1241.41	0.576071
1244.78	0.376854
1248.16	0.722006
1251.53	1.50516
1254.91	1.44813
1258.28	1.28445
1261.66	0.86507
1265.03	1.29489
1268.41	1.17848
1271.78	0.630844
1275.16	0.284691
1278.53	0.461498
1281.9	0.015629
