Measurement: Raman, 532 nm, unoriented, Raman Data RAW
Mineral: Pseudowollastonite
Rruff sample: R070762
Ideal chemistry: CaSiO_3_
Locality: Dredged from Tampa Bay harbour, Tampa Bay, Florida, USA
Source: Paul Roth
Description: White massive associated with barringerite, R070439
Measured chemistry: Ca_1.00_Si_1.00_O_3_
Raman shift (cm-1)	intensity
92.3535	871.124
95.7283	1047.61
99.1031	1791.42
102.478	3183.31
105.853	5684.71
109.228	8911.53
112.602	11886.3
115.977	15778.5
119.352	20838.2
122.727	25217.8
126.102	28338.6
129.476	31284.5
132.851	34481.8
136.226	35612.4
139.601	36182.9
142.976	36719.5
146.351	36956.2
149.725	36971.7
153.1	37055.6
156.475	37269.3
159.85	37469.6
163.225	37595.4
166.6	37711.8
169.974	37809.7
173.349	37817
176.724	37875.4
180.099	37968.9
183.474	38049.9
186.848	38154.1
190.223	38149.3
193.598	38229.3
196.973	38293.1
200.348	38381
203.722	38412.9
207.097	38524.1
210.472	38623.3
213.847	38772.3
217.222	38929.9
220.596	38971.9
223.971	38941.8
227.346	39084.3
230.721	39203.2
234.096	39317.5
237.471	39462.3
240.845	39615.7
244.22	39803.2
247.595	39840.6
250.97	39999.3
254.345	40125.9
257.719	40256.2
261.094	40251.5
264.469	40271.6
267.844	40427
271.219	40579.3
274.594	40725.8
277.968	40841
281.343	40950.6
284.718	40936.8
288.093	40962.1
291.468	40975.4
294.842	40978
298.217	41054.6
301.592	41250
304.967	41364
308.342	41371.4
311.717	41332.7
315.091	41472.5
318.466	41505.4
321.841	41558
325.216	41568.2
328.591	41622.2
331.966	41615.5
335.34	41626.3
338.715	41674.3
342.09	41680.6
345.465	41742.8
348.84	41852.8
352.214	42044.1
355.589	41984.7
358.964	41988.9
362.339	42083.5
365.714	42196.8
369.089	42195.9
372.463	42152.4
375.838	42221.8
379.213	42331.5
382.588	42483
385.963	42514.9
389.337	42573.1
392.712	42580.7
396.087	42452.4
399.462	42636.4
402.837	42718.6
406.212	42767.8
409.586	42753.6
412.961	42819.1
416.336	42896.5
419.711	42999.4
423.086	42995.4
426.46	43010.3
429.835	43069.4
433.21	43149.7
436.585	43118.2
439.96	43064
443.334	43106.7
446.709	43114.4
450.084	43252.7
453.459	43331
456.834	43330.7
460.209	43327.6
463.583	43280.4
466.958	43353.9
470.333	43310.6
473.708	43357.8
477.083	43416.9
480.457	43469.7
483.832	43565.3
487.207	43558.1
490.582	43501.6
493.957	43458.6
497.332	43603.4
500.706	43618.2
504.081	43607.5
507.456	43602.1
510.831	43559.4
514.206	43661.6
517.58	43760.2
520.955	43787.2
524.33	43743.9
527.705	43764.4
531.08	43809
534.455	43891.3
537.829	43891.5
541.204	43886.7
544.579	43995.1
547.954	43943.8
551.329	44056.5
554.703	44062.5
558.078	44055.2
561.453	44120.8
564.828	44130.4
568.203	44084.2
571.577	44107.4
574.952	44161.9
578.327	44282.7
581.702	44384.7
585.077	44459.7
588.452	44435
591.826	44411.1
595.201	44464.1
598.576	44465.8
601.951	44574.1
605.326	44480.2
608.7	44546.2
612.075	44646.3
615.45	44596.5
618.825	44567.9
622.2	44609.4
625.574	44623.6
628.949	44696.3
632.324	44693.2
635.699	44726.7
639.074	44738.4
642.449	44627.4
645.823	44615.8
649.198	44630.4
652.573	44660.1
655.948	44773.1
659.323	44847.6
662.697	45051.3
666.072	44984
669.447	44793.8
672.822	44829.1
676.197	44854.3
679.572	44907.6
682.946	44940.2
686.321	44833.9
689.696	44772.5
693.071	44775.7
696.446	44803
699.821	44986.6
703.195	44934.7
706.57	44918.6
709.945	44933
713.32	44921.9
716.695	44902.9
720.069	44939.5
723.444	45013.9
726.819	45068.1
730.194	45035.6
733.569	44955.8
736.943	45030.9
740.318	45048.4
743.693	45048.6
747.068	45153.8
750.443	45096.2
753.818	45139.7
757.192	45053.9
760.567	45128
763.942	45176.4
767.317	45232.1
770.692	45181.1
774.067	45230
777.441	45153.2
780.816	45165.4
784.191	45271.2
787.566	45373.8
790.941	45374
794.315	45411.3
797.69	45310.8
801.065	45345.9
804.44	45420.2
807.815	45511.7
811.189	45480.2
814.564	45395.3
817.939	45479.2
821.314	45513.6
824.689	45574.7
828.063	45462.9
831.438	45431.2
834.813	45492.2
838.188	45550
841.563	45610.5
844.938	45572
848.312	45528.9
851.687	45582.7
855.062	45691.5
858.437	45622.4
861.812	45606
865.187	45680.8
868.561	45769.7
871.936	45798.6
875.311	45724.7
878.686	45655.4
882.061	45697.9
885.435	45766.6
888.81	45828.3
892.185	45789.5
895.56	45740.4
898.935	45786.3
902.309	45856
905.684	45884.5
909.059	45856.1
912.434	45901.4
915.809	45874.1
919.184	45969.3
922.558	46003.2
925.933	46019
929.308	46088.9
932.683	46032.2
936.058	46019.7
939.433	45974.9
942.807	45960.5
946.182	45954.8
949.557	46043.2
952.932	46160.5
956.307	46371.8
959.681	46440.6
963.056	46443.3
966.431	46456.8
969.806	46343.4
973.181	46252.5
976.556	46244.9
979.93	46270.3
983.305	46302
986.68	46362.2
990.055	46335
993.43	46337.3
996.804	46334.7
1000.18	46270.5
1003.55	46320.3
1006.93	46362.5
1010.3	46407
1013.68	46510.4
1017.05	46547.7
1020.43	46492.9
1023.8	46549.8
1027.18	46522.1
1030.55	46648.4
1033.93	46610
1037.3	46813.9
1040.68	46644.6
1044.05	46694.9
1047.43	46650.6
1050.8	46651.1
1054.18	46769.4
1057.55	46874.5
1060.93	46827.5
1064.3	46808.1
1067.68	46805.4
1071.05	46834.1
1074.42	46767.5
1077.8	46874.1
1081.17	46897
1084.55	46929.2
1087.92	46977.1
1091.3	46890.8
1094.67	46932.3
1098.05	46933.9
1101.42	47040
1104.8	46945
1108.17	47022.1
1111.55	46911.3
1114.92	47058.6
1118.3	47104
1121.67	47087
1125.05	47085.9
1128.42	47150.2
1131.8	47291.8
1135.17	47313.9
1138.55	47307.2
1141.92	47320.1
1145.3	47296.8
1148.67	47287
1152.05	47109.4
1155.42	47246.6
1158.8	47295.1
1162.17	47334.5
1165.55	47452.3
1168.92	47460.3
1172.3	47485.6
1175.67	47501.5
1179.04	47506.9
1182.42	47497.1
1185.79	47424
1189.17	47605.8
1192.54	47602
1195.92	47536.8
1199.29	47463.2
1202.67	47589.1
1206.04	47529
1209.42	47607.7
1212.79	47634.2
1216.17	47735.8
1219.54	47694.9
1222.92	47743
1226.29	47691.5
1229.67	47746.8
1233.04	47842.7
1236.42	47872.9
1239.79	47740.3
1243.17	47737.4
1246.54	47845.6
1249.92	47991.2
1253.29	48006.7
1256.66	47963.7
1260.04	47963.6
1263.41	48021.8
1266.79	48037.1
1270.16	48087.5
1273.54	48068.3
1276.91	48104.3
1280.29	48146.3
1283.66	48258.8
1287.04	48326.7
1290.41	48390.5
1293.79	48317.3
1297.16	48303.9
1300.54	48359.4
1303.91	48283
