Measurement: Raman, 780 nm, unoriented, Raman Data RAW
Mineral: Pyrite
Rruff sample: R070692
Ideal chemistry: Fe^2+^(S_2_)^2-^
Locality: Pohla, Schwarzenberg, Erzebirge, Saxony, Germany
Source: James Shigley
Description: Yellow-brown metallic prismatic crystals with light blue tarnish, pseudomorph after argentopyrite. Even though they look like good crystals, the sample is extremely fine-grained.
Raman shift (cm-1)	intensity
119.748	0
122.641	50.7286
125.534	56.6362
128.427	11.5712
131.319	68.272
134.212	63.073
137.105	58.6936
139.997	109.034
142.89	34.0037
145.783	25.6566
148.675	10.765
151.568	36.6237
154.461	22.5916
157.353	32.1702
160.246	2.31274
163.139	6.00269
166.032	20.1929
168.924	13.3085
171.817	32.8394
174.71	38.782
177.602	40.2358
180.495	35.5581
183.388	57.7721
186.28	35.5793
189.173	78.6422
192.066	38.7174
194.959	76.2046
197.851	55.3199
200.744	62.9996
203.637	25.7206
206.529	47.5378
209.422	37.8162
212.315	51.4179
215.208	53.2362
218.1	27.1398
220.993	28.9984
223.886	22.4352
226.778	64.4028
229.671	40.6791
232.564	54.4065
235.456	65.359
238.349	7.76013
241.242	2.71521
244.135	54.6376
247.027	6.98731
249.92	16.1251
252.813	24.2186
255.705	28.7927
258.598	31.507
261.491	13.6542
264.384	20.0575
267.276	17.4397
270.169	1.1073
273.062	18.1117
275.954	9.89636
278.847	13.1472
281.74	1.3269
284.632	20.3436
287.525	25.3755
290.418	39.5988
293.31	27.1671
296.203	19.8957
299.096	36.9972
301.989	58.91
304.881	46.0591
307.774	50.567
310.667	69.9896
313.559	40.3372
316.452	62.8762
319.345	72.7864
322.238	108.032
325.13	138.18
328.023	225.487
330.916	242.629
333.808	359.061
336.701	432.998
339.594	465.814
342.486	419.929
345.379	240.732
348.272	179.139
351.164	110.054
354.057	84.7452
356.95	59.9016
359.843	39.4013
362.735	73.391
365.628	76.6821
368.521	94.2958
371.413	92.9844
374.306	89.0752
377.199	83.8055
380.091	69.2795
382.984	38.7976
385.877	18.8345
388.77	71.8505
391.662	21.8761
394.555	6.54144
397.448	50.3224
400.34	32.8478
403.233	3.22858
406.126	11.7827
409.019	32.5942
411.911	63.6467
414.804	61.2042
417.697	86.1442
420.589	99.8211
423.482	102.27
426.375	110.345
429.267	99.3423
432.16	66.8247
435.053	63.4107
437.945	23.7189
440.838	18.6795
443.731	7.40479
446.624	17.6231
449.516	9.79449
452.409	18.4564
455.302	28.0836
458.194	9.10016
461.087	2.02667
463.98	30.0939
466.873	9.19904
469.765	3.76092
472.658	3.40796
475.551	31.6752
478.443	43.421
481.336	44.4617
484.229	42.0189
487.121	47.7198
490.014	22.9151
492.907	38.3768
495.8	12.175
498.692	45.0801
501.585	33.8456
504.478	25.9634
507.37	32.1548
510.263	13.434
513.156	42.6692
516.048	30.9719
518.941	19.7545
521.834	14.0138
524.726	32.2989
527.619	5.77014
530.512	18.0549
533.405	46.6352
536.297	32.337
539.19	11.1809
542.083	18.1898
544.975	35.5533
547.868	57.0551
550.761	48.835
553.654	68.5466
556.546	26.6399
559.439	24.746
562.332	27.7804
565.224	12.1307
568.117	47.5456
571.01	31.3217
573.902	23.1338
576.795	10.4888
579.688	37.5286
582.581	12.357
585.473	26.2219
588.366	18.8107
591.259	12.5597
594.151	25.6897
597.044	40.8174
599.937	13.769
602.829	28.1463
605.722	0.738708
608.615	13.7971
611.508	31.032
614.4	37.3804
617.293	36.7853
620.186	13.0356
623.078	18.1501
625.971	30.2497
628.864	27.027
631.756	6.54358
634.649	0.471375
637.542	0.089905
640.434	8.60492
643.327	0.309021
646.22	29.9947
649.113	24.3705
652.005	19.5555
654.898	22.3743
657.791	16.6565
660.683	4.01953
663.576	12.8645
666.469	16.6711
669.361	9.25415
672.254	11.7892
675.147	19.2452
678.04	21.4371
680.932	1.09467
683.825	5.92731
686.718	39.3105
689.61	11.7869
692.503	4.10858
695.396	43.2366
698.288	4.79816
701.181	6.53003
704.074	3.9472
706.967	6.32159
709.859	23.5873
712.752	18.0915
715.645	23.5713
718.537	16.0163
721.43	21.4476
724.323	40.4722
727.216	21.7521
730.108	15.0639
733.001	25.0266
735.894	33.1132
738.786	35.4556
741.679	41.1086
744.572	48.1374
747.464	49.2047
750.357	38.0496
753.25	33.6575
756.143	17.3492
759.035	38.8795
761.928	33.292
764.821	14.416
767.713	33.6
770.606	17.0374
773.499	35.1991
776.391	43.2116
779.284	10.5604
782.177	49.7244
785.069	50.0652
787.962	49.4381
790.855	41.0041
793.748	23.4371
796.64	21.5443
799.533	26.569
802.426	35.3248
805.318	34.2647
808.211	10.8641
811.104	0.7229
813.996	1.97974
816.889	32.644
819.782	5.45996
822.675	11.3224
825.567	30.7456
828.46	10.1618
831.353	33.7335
834.245	7.11218
837.138	22.8018
840.031	46.8954
842.924	30.884
845.816	24.3672
848.709	37.5894
851.602	40.3355
854.494	35.2864
857.387	53.3746
860.28	26.4951
863.173	13.6997
866.065	25.9313
868.958	14.1152
871.851	13.3633
874.743	25.2573
877.636	3.98199
880.529	10.8091
883.421	22.3738
886.314	26.2367
889.207	23.8195
892.1	13.9712
894.992	3.55414
897.885	28.7001
900.778	15.3962
903.67	6.7096
906.563	44.9551
909.456	27.8302
912.348	43.1343
915.241	17.1846
918.134	10.2566
921.027	20.3638
923.919	44.9781
926.812	41.9133
929.705	50.6176
932.597	18.728
935.49	3.93793
938.383	16.3868
941.275	3.92481
944.168	1.63324
947.061	4.56787
949.953	16.7436
952.846	11.314
955.739	6.17352
958.632	8.73767
961.524	22.2421
964.417	25.1787
967.31	34.0314
970.202	0.602356
973.095	19.0652
975.988	41.0157
978.88	32.3626
981.773	4.53522
984.666	28.9673
987.559	2.62341
990.451	7.46863
993.344	17.7116
996.237	44.1915
999.129	24.9931
1002.02	25.9425
1004.91	6.59405
1007.81	28.4145
1010.7	21.3649
1013.59	10.8776
1016.49	22.1052
1019.38	26.2703
1022.27	22.3466
1025.16	28.8716
1028.06	21.6016
1030.95	49.4949
1033.84	39.4899
1036.73	45.3627
1039.63	41.0973
1042.52	36.275
1045.41	57.9423
1048.31	30.9789
1051.2	28.8704
1054.09	24.4695
1056.98	21.167
1059.88	17.8077
1062.77	4.31714
1065.66	20.4377
1068.55	39.3032
1071.45	25.1526
1074.34	10.1614
1077.23	11.4772
1080.12	28.47
1083.02	19.5859
1085.91	20.2188
1088.8	6.07318
1091.7	25.7048
1094.59	3.32819
1097.48	16.1196
1100.37	23.8812
1103.27	29.0761
1106.16	32.7871
1109.05	23.1092
1111.94	21.5774
1114.84	20.7965
1117.73	11.7433
1120.62	18.2716
1123.52	22.45
1126.41	12.8309
1129.3	36.3868
1132.19	1.74127
1135.09	31.2712
1137.98	31.6738
1140.87	31.4075
1143.76	7.18744
1146.66	14.6139
1149.55	18.0858
1152.44	23.5898
1155.34	21.7855
1158.23	31.4473
1161.12	18.8953
1164.01	15.5662
1166.91	8.49432
1169.8	27.4683
1172.69	23.6298
1175.58	26.2597
1178.48	28.9409
1181.37	45.1824
1184.26	24.0235
1187.15	13.8163
1190.05	27.45
1192.94	21.585
1195.83	43.5907
1198.73	54.5755
1201.62	32.1627
1204.51	28.9629
1207.4	9.56403
1210.3	47.8348
1213.19	13.5685
1216.08	6.95941
1218.97	7.39429
1221.87	30.9671
1224.76	8.61774
1227.65	29.8777
1230.55	18.6546
1233.44	15.1951
1236.33	39.2908
1239.22	21.3599
1242.12	27.176
1245.01	38.2126
1247.9	12.1986
1250.79	5.07172
1253.69	14.7927
1256.58	47.8264
1259.47	18.5728
1262.37	3.61932
1265.26	24.9069
1268.15	27.819
1271.04	44.8769
