Measurement: Raman, 532 nm, unoriented, Raman Data Processed
Mineral: Pyroxmangite
Rruff sample: R130536
Ideal chemistry: Mn^2+^SiO_3_
Locality: Taguchi mine, Shidara, Aichi Prefecture, Japan
Source: Rock Currier and Marcus Origlieri
Description: Tabular gemmy red crystals
Raman shift (cm-1)	intensity
117.746	0
121.121	0.543945
124.496	33.8115
127.87	52.7715
131.245	78.4228
134.62	87.1436
137.995	83.6914
141.37	96.0244
144.744	82.3516
148.119	69.6728
151.494	101.888
154.869	166.843
158.244	166.191
161.619	122.092
164.993	99.2002
168.368	58.4355
171.743	42.8008
175.118	49.7227
178.493	55.4512
181.868	67.499
185.242	89.8291
188.617	78.6494
191.992	70.0039
195.367	57.9688
198.742	76.4932
202.116	79.3076
205.491	79.5107
208.866	67.9414
212.241	44.3486
215.616	47.4844
218.99	32.1279
222.365	8.53223
225.74	4.45215
229.115	0.875977
232.49	22.6621
235.865	4.99316
239.239	34.5478
242.614	68.2481
245.989	60.9277
249.364	3.95801
252.739	21.3916
256.113	8.07129
259.488	51.292
262.863	53.5361
266.238	56.7598
269.613	72.0996
272.988	101.821
276.362	146.744
279.737	199.268
283.112	245.206
286.487	336.354
289.862	419.088
293.236	365.621
296.611	255.894
299.986	157.452
303.361	93.1436
306.736	58.8565
310.111	43.5195
313.485	45.0664
316.86	67.6231
320.235	56.252
323.61	85.8897
326.985	83.7949
330.359	74.2627
333.734	66.8877
337.109	60.5967
340.484	47.8408
343.859	40.0654
347.233	28.5029
350.608	66.0078
353.983	128.659
357.358	181.686
360.733	234.388
364.108	218.935
367.482	155.942
370.857	98.1377
374.232	7.46582
377.607	0.421875
380.982	9.02637
384.356	25.4258
387.731	63.917
391.106	74.9228
394.481	118.127
397.856	136.74
401.231	142.755
404.605	193.334
407.98	199.487
411.355	257.976
414.73	372.279
418.105	557.883
421.479	719.457
424.854	629.042
428.229	379.111
431.604	156.696
434.979	41.0371
438.354	19.6865
441.728	13.5859
445.103	11.5801
448.478	13.2402
451.853	3.8916
455.228	25.2373
458.603	40.1172
461.977	12.7705
465.352	45.5967
468.727	53.541
472.102	41.75
475.477	19.0752
478.851	0.908203
482.226	19.3086
485.601	70.126
488.976	99.8965
492.351	97.2568
495.726	77.0576
499.1	80.9492
502.475	65.1768
505.85	83.4199
509.225	121.427
512.6	142.028
515.974	147.867
519.349	123.267
522.724	127.184
526.099	107.389
529.474	30.543
532.848	45.251
536.223	40.4326
539.598	35.4482
542.973	50.4961
546.348	107.603
549.722	158.74
553.097	163.875
556.472	154.825
559.847	189.647
563.222	206.173
566.597	164.292
569.971	103.566
573.346	104.956
576.721	91.9258
580.096	90.9814
583.471	53.8418
586.846	75.1406
590.22	32.8203
593.595	17.4141
596.97	13.2422
600.345	12.7754
603.72	18.373
607.094	6.34766
610.469	25.7559
613.844	30.8984
617.219	12.2988
620.594	15.6465
623.968	14.9023
627.343	18.9258
630.718	51.1973
634.093	75.6133
637.468	153.215
640.843	267.812
644.217	444.156
647.592	671.838
650.967	986.018
654.342	1260.1
657.717	1475.04
661.091	1813.1
664.466	2288.11
667.841	2501.88
671.216	1975.65
674.591	1130.13
677.966	563.834
681.34	363.738
684.715	203.15
688.09	163.06
691.465	178.086
694.84	137.982
698.215	176.154
701.589	146.881
704.964	102.607
708.339	78.4258
711.714	55.3613
715.089	38.6992
718.463	77.1738
721.838	78.3887
725.213	62.4238
728.588	62.8672
731.963	19.9961
735.337	14.877
738.712	36.2969
742.087	52.7832
745.462	73.6543
748.837	73.7461
752.212	94.4531
755.586	31.2266
758.961	7.57422
762.336	31.9219
765.711	8.11719
769.086	1.57031
772.46	10.9727
775.835	27.6113
779.21	12.8203
782.585	31.4941
785.96	58.9629
789.335	14.0137
792.709	23.8164
796.084	11.8672
799.459	5.64648
802.834	32.0918
806.209	63.5039
809.583	74.9844
812.958	68.4473
816.333	53.377
819.708	111.436
823.083	85.2539
826.457	43.3145
829.832	9.66211
833.207	26.4746
836.582	6.86719
839.957	39.6445
843.332	58.0352
846.706	61.9453
850.081	31.1641
853.456	22.8496
856.831	70.5469
860.206	111.76
863.581	119.184
866.955	111.043
870.33	185.297
873.705	228.691
877.08	236.859
880.455	203.435
883.829	105.879
887.204	54.957
890.579	72.6231
893.954	105.812
897.329	91.3672
900.703	81.7812
904.078	64.0156
907.453	56.2266
910.828	3.13867
914.203	26.5547
917.578	5.43945
920.952	38.1758
924.327	3.39648
927.702	26.5059
931.077	22.291
934.452	46.5723
937.827	34.8281
941.201	37.2832
944.576	57.9941
947.951	52.2344
951.326	116.035
954.701	134.258
958.075	227.971
961.45	475.053
964.825	909.658
968.2	1402.26
971.575	1774.58
974.949	1764.28
978.324	1342.67
981.699	1034.54
985.074	1071.19
988.449	1251.69
991.823	1555.31
995.198	1907.24
998.573	2162.41
1001.95	1998.32
1005.32	1560.14
1008.7	1243.65
1012.07	1146.7
1015.45	1249.2
1018.82	1329.47
1022.2	1040.47
1025.57	655.094
1028.95	466.098
1032.32	220.357
1035.7	186.318
1039.07	130.932
1042.45	123.309
1045.82	139.627
1049.19	114.131
1052.57	77.7852
1055.94	42.2051
1059.32	22.4355
1062.69	17.5469
1066.07	0.042969
1069.44	10.6621
1072.82	2.23047
1076.19	109.266
1079.57	217.328
1082.94	426.309
1086.32	875.143
1089.69	755.144
1093.07	239.949
1096.44	68.7871
1099.82	97.6894
1103.19	58.377
1106.57	10.8789
1109.94	63.6797
1113.32	87.8184
1116.69	43.5625
1120.07	73.3496
1123.44	33.5273
1126.82	33.0195
1130.19	7.46875
1133.57	1.19141
1136.94	38.332
1140.32	44.5977
1143.69	54.9629
1147.07	34.6797
1150.44	51.2539
1153.82	111.373
1157.19	118.311
1160.56	79.3926
1163.94	59.3613
1167.31	56.9043
1170.69	88.6211
1174.06	93.4414
1177.44	71.7617
1180.81	115.43
1184.19	97.8086
1187.56	120.545
1190.94	119.119
1194.31	99.2754
1197.69	72.0019
1201.06	28.6191
1204.44	51.3652
1207.81	45.6875
1211.19	46.5742
1214.56	21.6875
1217.94	38.4434
1221.31	60.707
1224.69	47.2285
1228.06	9.58398
1231.44	13.3047
1234.81	12.9414
1238.18	14.0098
1241.56	10.4805
1244.93	60.4961
1248.31	72.666
1251.68	72.3652
1255.06	91.8516
1258.43	104.834
1261.81	55.4746
1265.18	6.81055
1268.56	60.4688
1271.93	37.1074
1275.31	60.7676
1278.68	20.6797
1282.06	38.7168
1285.43	44.8301
1288.81	48.0742
1292.18	28.3535
1295.56	59.9141
1298.93	53.5234
