Measurement: Raman, 532 nm, unoriented, Raman Data Processed
Mineral: Pyroxferroite
Rruff sample: R140465
Ideal chemistry: Fe^2+^SiO_3_
Locality: Isanago mine, Ohro, Kyotango city, Kyoto Prefecture, Kinki Region, Honshu Island, Japan
Source: Rock Currier
Description: Vitreous pinkish granular crystals, associated with black magnetite.
Raman shift (cm-1)	intensity
89.7832	0
93.158	27.2278
96.5328	18.7258
99.9077	1.78009
103.282	1.26978
106.657	2.61365
110.032	36.8524
113.407	47.3098
116.782	87.7251
120.157	114.541
123.531	102.124
126.906	99.7559
130.281	91.6285
133.656	97.814
137.031	86.7757
140.405	67.8875
143.78	51.3931
147.155	39.8167
150.53	36.1144
153.905	35.1094
157.28	35.3276
160.654	31.0205
164.029	27.2786
167.404	23.8859
170.779	17.0938
174.154	12.8132
177.528	11.8702
180.903	9.48047
184.278	12.3264
187.653	13.1364
191.028	10.3657
194.403	7.62445
197.777	6.31122
201.152	1.84479
204.527	0.839172
207.902	0.740906
211.277	3.25134
214.651	1.09033
218.026	2.34283
221.401	2.30688
224.776	0.165833
228.151	0.629028
231.525	4.50293
234.9	0.932495
238.275	3.41016
241.65	3.93518
245.025	5.60474
248.4	6.63873
251.774	4.20764
255.149	7.59259
258.524	16.0319
261.899	22.6655
265.274	31.3752
268.649	34.666
272.023	32.9305
275.398	33.4969
278.773	32.154
282.148	32.3877
285.523	38.3052
288.897	43.3638
292.272	44.348
295.647	44.7281
299.022	43.337
302.397	42.0673
305.772	44.1798
309.146	42.7285
312.521	45.8441
315.896	48.9891
319.271	51.3477
322.646	57.7479
326.02	65.2321
329.395	69.3971
332.77	70.0278
336.145	71.7633
339.52	63.6824
342.894	49.8544
346.269	33.9078
349.644	25.9658
353.019	17.7943
356.394	20.0989
359.769	23.2291
363.143	29.058
366.518	19.0018
369.893	7.7467
373.268	2.11963
376.643	2.40637
380.017	1.67969
383.392	2.28577
386.767	3.76892
390.142	7.17847
393.517	7.83423
396.892	12.9899
400.266	15.8672
403.641	15.5514
407.016	9.93701
410.391	8.51831
413.766	14.1212
417.14	16.965
420.515	23.3047
423.89	23.2621
427.265	13.9718
430.64	7.42932
434.014	1.00561
437.389	3.99548
440.764	2.43103
444.139	1.42395
447.514	3.13525
450.889	6.30786
454.263	8.2533
457.638	9.0271
461.013	6.10278
464.388	5.50464
467.763	10.9707
471.137	8.48694
474.512	8.30383
477.887	4.42554
481.262	5.77649
484.637	11.986
488.012	17.5465
491.386	16.5554
494.761	16.913
498.136	15.4902
501.511	16.325
504.886	15.1925
508.26	22.0092
511.635	33.9885
515.01	44.8942
518.385	48.5774
521.76	46.4012
525.135	42.3188
528.509	32.1492
531.884	22.2579
535.259	15.1836
538.634	10.3091
542.009	9.95581
545.384	10.0458
548.758	13.7662
552.133	15.1642
555.508	18.7553
558.883	14.5105
562.258	18.0494
565.632	14.5273
569.007	8.76587
572.382	10.3164
575.757	6.03076
579.132	9.78418
582.506	4.48804
585.881	0.885986
589.256	2.052
592.631	1.95068
596.006	5.52661
599.381	2.92383
602.755	0.628296
606.13	1.13184
609.505	4.1438
612.88	8.83618
616.255	8.82593
619.63	8.62256
623.004	13.681
626.379	19.8588
629.754	30.6115
633.129	44.3032
636.504	60.765
639.878	82.9474
643.253	125.255
646.628	186.976
650.003	270.175
653.378	368.979
656.752	458.111
660.127	543.507
663.502	627.686
666.877	675.565
670.252	646.227
673.626	490.24
677.001	316.988
680.376	193.448
683.751	125.566
687.126	93.2971
690.501	80.0738
693.875	78.1298
697.25	79.2821
700.625	82.8977
704	73.6746
707.375	53.3953
710.75	36.9816
714.124	22.3262
717.499	15.2944
720.874	13.9413
724.249	11.5602
727.624	13.2455
730.998	7.66943
734.373	6.43762
737.748	1.60864
741.123	1.69421
744.498	4.57495
747.872	5.86389
751.247	10.3347
754.622	0.473022
757.997	0.567749
761.372	2.79187
764.747	3.90234
768.121	0.324585
771.496	1.42651
774.871	1.73108
778.246	2.61462
781.621	2.33838
784.995	9.03027
788.37	1.74963
791.745	0.798462
795.12	4.41882
798.495	3.46814
801.87	8.38086
805.244	12.7899
808.619	13.8508
811.994	6.23425
815.369	6.06958
818.744	10.8068
822.119	11.5978
825.493	9.78137
828.868	2.44849
832.243	1.08679
835.618	0.664429
838.993	4.50561
842.367	6.14685
845.742	8.35461
849.117	4.19043
852.492	3.10193
855.867	8.17065
859.241	12.4502
862.616	13.248
865.991	14.0304
869.366	19.8033
872.741	19.3036
876.115	17.8986
879.49	11.1796
882.865	9.06128
886.24	6.59387
889.615	5.55188
892.99	10.7402
896.364	4.69141
899.739	6.33789
903.114	1.3158
906.489	2.96667
909.864	0.680298
913.239	4.78735
916.613	0.21228
919.988	0.205444
923.363	2.17761
926.738	4.60998
930.113	7.25647
933.487	7.34729
936.862	12.4224
940.237	16.6028
943.612	24.2252
946.987	35.6835
950.361	53.5107
953.736	72.9268
957.111	102.217
960.486	153.529
963.861	208.007
967.236	277.384
970.61	344.344
973.985	392.669
977.36	410.446
980.735	400.191
984.11	400.625
987.485	423.211
990.859	449.369
994.234	464.871
997.609	457.82
1000.98	420.392
1004.36	353.569
1007.73	296.151
1011.11	256.538
1014.48	225.436
1017.86	192.759
1021.23	149.309
1024.61	107.519
1027.98	75.6072
1031.36	51.6648
1034.73	39.6312
1038.11	30.734
1041.48	21.9675
1044.86	20.783
1048.23	12.6929
1051.61	12.1068
1054.98	6.02918
1058.36	0.196655
1061.73	2.55798
1065.11	2.1543
1068.48	2.45019
1071.86	0.651123
1075.23	2.38269
1078.6	4.91016
1081.98	16.4927
1085.35	33.1549
1088.73	23.3004
1092.1	16.5182
1095.48	9.81116
1098.85	11.1349
1102.23	6.56372
1105.6	1.25537
1108.98	7.30835
1112.35	5.1344
1115.73	5.75269
1119.1	8.34717
1122.48	10.0344
1125.85	4.87085
1129.23	5.93872
1132.6	0.265015
1135.98	1.48157
1139.35	3.36902
1142.73	9.75195
1146.1	4.73523
1149.48	6.84998
1152.85	11.4548
1156.22	11.8383
1159.6	13.7837
1162.97	14.1666
1166.35	11.1307
1169.72	10.4551
1173.1	12.4188
1176.47	11.8852
1179.85	9.40124
1183.22	9.53332
1186.6	13.1736
1189.97	10.1588
1193.35	6.52258
1196.72	7.15381
1200.1	6.43066
1203.47	7.03491
1206.85	6.85547
1210.22	5.74683
1213.6	5.45154
1216.97	6.43518
1220.35	6.99902
1223.72	6.42285
1227.1	2.04309
1230.47	2.47192
1233.85	5.61621
1237.22	2.99792
1240.6	8.60669
1243.97	4.84094
1247.35	5.05164
1250.72	9.2096
1254.1	7.91711
1257.47	7.45691
1260.85	6.91956
1264.22	4.52673
1267.59	2.51477
1270.97	1.10181
1274.34	3.32532
1277.72	4.94824
1281.09	6.0105
1284.47	5.10132
1287.84	3.6283
1291.22	0.817017
1294.59	6.57324
1297.97	3.72485
1301.34	0.023315
