Measurement: Raman, 514 nm, unoriented, Raman Data RAW
Mineral: Pyrope
Rruff sample: X050131
Ideal chemistry: Mg_3_Al_2_(SiO_4_)_3_
Locality: unknown
Source: G.R. Rossman
Description: variety rhodolite
Raman shift (cm-1)	intensity
101.1	17
106.1	14.1187
111.2	22.5374
116.2	26.7566
121.3	44.4541
126.3	66.7697
131.4	100.54
136.4	140.807
141.5	177.51
146.5	242.908
151.6	289.558
156.6	299.603
161.7	326.8
166.7	343
171.8	320.818
176.8	350.14
181.9	382.821
186.9	448.506
192	462.684
197	514.191
202.1	572.294
207.1	696.138
212.2	770.876
217.2	642.39
222.3	559.251
227.4	478.89
232.4	431.651
237.5	440.832
242.5	441.857
247.6	447
252.6	469.626
257.7	480.668
262.7	501.801
267.8	508.516
272.8	510.712
277.9	516.802
282.9	530.524
288	541.553
293	526.436
298.1	566.852
303.1	575.397
308.2	647.969
313.2	737.282
318.3	838.021
323.3	848.585
328.4	865.584
333.4	1003.13
338.5	1214.15
343.5	1565.42
348.6	1947.43
353.6	2842.75
358.7	3446.5
363.7	3176.87
368.8	2325.12
373.8	1736.37
378.9	1375.54
383.9	1006.6
389	733.557
394	579.648
399.1	482.362
404.1	431.228
409.2	386.293
414.2	386.789
419.3	352.128
424.3	361.738
429.4	349.298
434.4	330.349
439.5	339.05
444.5	338.115
449.6	336.853
454.6	329.992
459.7	333.708
464.7	342.121
469.8	365.771
474.8	393.572
479.9	468.989
485	596.597
490	689.1
495.1	594.938
500.1	652.655
505.2	871.172
510.2	988.609
515.3	816.782
520.3	616.308
525.4	549.187
530.4	560.498
535.5	552.982
540.5	582.492
545.6	716.87
550.6	1006.23
555.7	1614.94
560.7	2203.54
565.8	2032.01
570.8	1293.07
575.9	749.743
580.9	559.609
586	479.628
591	479.019
596.1	451.402
601.1	420.327
606.2	393.665
611.2	401.356
616.3	378.264
621.3	374.767
626.4	358.908
631.4	423.996
636.5	592.887
641.5	766.602
646.6	848.319
651.6	700.865
656.7	480.168
661.7	370.318
666.8	336.809
671.8	311.408
676.9	307.764
681.9	291.572
687	269.991
692	270.173
697.1	268.681
702.1	278.906
707.2	256.702
712.2	273.961
717.3	275.464
722.3	288.416
727.4	278.053
732.4	286.088
737.5	292.832
742.6	289.442
747.6	299.036
752.7	287.858
757.7	310.22
762.8	306.684
767.8	299.243
772.9	313.872
777.9	311.864
783	333.901
788	307.978
793.1	324.88
798.1	330.824
803.2	336.2
808.2	355.583
813.3	385.175
818.3	432.824
823.4	424.52
828.4	440.395
833.5	483.916
838.5	519.026
843.6	590.366
848.6	743.822
853.7	1026.79
858.7	1531.19
863.8	2178.05
868.8	2355.91
873.9	1948.56
878.9	1475.9
884	1271.53
889	1275.92
894.1	1564.63
899.1	1934.55
904.2	2492.48
909.2	3666.08
914.3	6555.47
919.3	11359.8
924.4	13903.3
929.4	10856.7
934.5	6095.89
939.5	3246.03
944.6	1970.96
949.6	1351.08
954.7	1032.28
959.7	806.44
964.8	752.118
969.8	649.408
974.9	626.946
979.9	621.828
985	627.385
990.1	612.668
995.1	613.092
1000.2	560.312
1005.2	497.459
1010.3	508.247
1015.3	480.784
1020.4	523.748
1025.4	543.488
1030.5	588.497
1035.5	644.013
1040.6	746.812
1045.6	932.113
1050.7	1146.22
1055.7	1326.91
1060.8	1256.77
1065.8	939.72
1070.9	658.551
1075.9	502.542
1081	421.24
1086	399.002
1091.1	342.046
1096.1	316.734
1101.2	336.684
1106.2	327.715
1111.3	304.17
1116.3	317.714
1121.4	301
1126.4	284.856
1131.5	307.091
1136.5	284.986
1141.6	284.469
1146.6	280.339
1151.7	265.803
1156.7	295.514
1161.8	276.367
1166.8	300.786
1171.9	296.497
1176.9	318.322
1182	317.005
1187	312.038
1192.1	329.711
1197.1	322.147
1202.2	331.873
1207.2	324.296
1212.3	320.302
1217.3	307.373
1222.4	321.108
1227.4	310.267
1232.5	317.979
1237.5	320.67
1242.6	318.034
1247.7	320
1252.7	303.013
1257.8	298.19
1262.8	321.979
1267.9	340.514
1272.9	345.491
1278	321.948
1283	344.642
1288.1	335.168
1293.1	324.04
1298.2	331.144
1303.2	326.919
1308.3	331.401
1313.3	314.493
1318.4	316.111
1323.4	333.743
1328.5	322.206
1333.5	311.905
1338.6	307.963
1343.6	310.582
1348.7	315.661
1353.7	309.447
1358.8	294.674
1363.8	288.601
1368.9	300
1373.9	323.308
1379	314.423
1384	319.25
1389.1	312.915
1394.1	316.795
1399.2	315.003
1404.2	317.076
1409.3	326.751
1414.3	340.847
1419.4	343.366
1424.4	342.37
1429.5	357.475
1434.5	322.905
1439.6	357.454
1444.6	365.747
1449.7	340.178
1454.7	361.089
1459.8	358.758
1464.8	349.709
1469.9	404.776
1474.9	390.957
1480	385.977
1485	408.424
1490.1	400.538
1495.1	399.74
1500.2	412.665
