Measurement: Raman, 780 nm, unoriented, Raman Data Processed
Mineral: Pyroxferroite
Rruff sample: R140465
Ideal chemistry: Fe^2+^SiO_3_
Locality: Isanago mine, Ohro, Kyotango city, Kyoto Prefecture, Kinki Region, Honshu Island, Japan
Source: Rock Currier
Description: Vitreous pinkish granular crystals, associated with black magnetite.
Raman shift (cm-1)	intensity
93.9705	0
97.3453	6.59784
100.72	1.82044
104.095	0.545715
107.47	3.43866
110.845	4.74963
114.219	10.1486
117.594	29.1483
120.969	31.0242
124.344	28.1804
127.719	22.62
131.094	24.8158
134.468	23.1887
137.843	20.9903
141.218	12.3306
144.593	3.974
147.968	1.82458
151.342	2.8194
154.717	2.95404
158.092	0.770325
161.467	4.7851
164.842	3.22522
168.216	1.78339
171.591	1.48865
174.966	1.80774
178.341	0.552124
181.716	5.40808
185.09	9.02698
188.465	7.90076
191.84	4.02911
195.215	6.62707
198.59	10.1104
201.965	3.30084
205.339	4.6037
208.714	5.05139
212.089	2.07153
215.464	6.35785
218.839	4.14362
222.214	4.4823
225.588	5.05072
228.963	3.00763
232.338	1.57257
235.713	1.18897
239.088	1.17798
242.462	0.815857
245.837	1.97424
249.212	2.13965
252.587	0.786804
255.962	0.822693
259.336	7.65448
262.711	8.0451
266.086	11.4204
269.461	14.7227
272.836	13.3059
276.211	12.0084
279.585	10.2819
282.96	13.8145
286.335	14.0617
289.71	17.8561
293.085	19.3958
296.459	21.4794
299.834	24.1356
303.209	23.1356
306.584	20.0684
309.959	18.3063
313.334	20.8481
316.708	26.0027
320.083	27.5825
323.458	31.1822
326.833	34.6328
330.207	34.2006
333.582	35.3202
336.957	39.6697
340.332	32.8334
343.707	26.0767
347.082	22.3237
350.456	12.1003
353.831	11.7707
357.206	11.0985
360.581	13.5211
363.956	9.74304
367.33	8.2456
370.705	4.14679
374.08	3.28943
377.455	0.708496
380.83	1.65076
384.205	0.029846
387.579	0.648926
390.954	1.76269
394.329	4.43182
397.704	4.94202
401.079	5.44348
404.453	4.48468
407.828	6.09686
411.203	3.59241
414.578	7.56586
417.953	10.2558
421.327	14.2523
424.702	14.3843
428.077	9.34833
431.452	6.60736
434.827	4.33972
438.202	0.917969
441.576	0.820007
444.951	0.534058
448.326	0.335083
451.701	3.90399
455.076	4.06268
458.45	4.18634
461.825	5.56268
465.2	6.76788
468.575	6.88782
471.95	9.92596
475.325	8.26093
478.699	7.91339
482.074	7.21832
485.449	8.02991
488.824	8.43146
492.199	7.06952
495.573	8.66754
498.948	7.31635
502.323	5.96484
505.698	7.33075
509.073	6.95929
512.447	11.1443
515.822	14.8359
519.197	16.5868
522.572	16.6154
525.947	14.1667
529.322	10.5058
532.696	4.95737
536.071	3.25964
539.446	2.03525
542.821	3.40381
546.196	2.98486
549.57	2.34164
552.945	2.92886
556.32	3.6329
559.695	5.05093
563.07	4.40182
566.444	3.65414
569.819	4.14764
573.194	1.69098
576.569	1.32553
579.944	0.620178
583.319	0.708038
586.693	0.328156
590.068	1.10327
593.443	3.52832
596.818	0.268982
600.193	0.361237
603.567	0.716003
606.942	1.89328
610.317	1.44986
613.692	2.87662
617.067	3.4433
620.442	3.69015
623.816	7.51907
627.191	6.88769
630.566	13.6787
633.941	19.7429
637.316	25.1934
640.69	37.3077
644.065	52.1
647.44	72.8498
650.815	102.475
654.19	137.858
657.564	166.909
660.939	190.956
664.314	212.909
667.689	225.196
671.064	201.989
674.439	146.164
677.813	89.9559
681.188	56.7151
684.563	38.5557
687.938	29.2231
691.313	25.4498
694.688	24.2212
698.062	23.8151
701.437	24.6759
704.812	21.3303
708.187	14.0177
711.562	9.6673
714.936	6.18399
718.311	5.46564
721.686	2.42639
725.061	2.59042
728.436	1.09622
731.81	0.242645
735.185	1.11362
738.56	0.423553
741.935	0.865479
745.31	0.443024
748.684	0.261383
752.059	0.05545
755.434	0.407227
758.809	0.73999
762.184	0.35495
765.559	0.568695
768.933	0.138885
772.308	1.41058
775.683	0.257507
779.058	1.41089
782.433	0.456055
785.808	1.81921
789.182	2.46963
792.557	3.43179
795.932	2.39035
799.307	2.23022
802.682	1.81757
806.056	3.44281
809.431	3.1835
812.806	2.76364
816.181	3.5192
819.556	3.28857
822.93	3.72876
826.305	3.13885
829.68	3.39062
833.055	2.1871
836.43	3.0611
839.804	3.42224
843.179	2.53873
846.554	1.61301
849.929	2.65042
853.304	3.90915
856.679	3.90631
860.053	2.09103
863.428	5.96231
866.803	4.57739
870.178	5.16644
873.553	4.93738
876.927	5.82111
880.302	3.95554
883.677	2.62763
887.052	2.63669
890.427	2.69238
893.802	1.69724
897.176	0.674713
900.551	0.857788
903.926	0.066772
907.301	1.73105
910.676	0.532043
914.05	0.243164
917.425	0.380554
920.8	0.700592
924.175	1.57181
927.55	0.956451
930.924	1.0777
934.299	2.03198
937.674	3.99136
941.049	4.07956
944.424	7.1687
947.799	8.58691
951.173	12.9171
954.548	21.0063
957.923	28.6125
961.298	38.4034
964.673	53.1168
968.047	68.073
971.422	82.5435
974.797	89.938
978.172	87.8885
981.547	84.3977
984.922	86.2298
988.296	91.2528
991.671	92.385
995.046	95.8151
998.421	91.4254
1001.8	81.5783
1005.17	68.508
1008.54	57.8567
1011.92	49.6476
1015.29	43.5142
1018.67	38.2137
1022.04	28.3613
1025.42	19.5924
1028.79	12.129
1032.17	9.29958
1035.54	7.95961
1038.92	4.1837
1042.29	3.51637
1045.67	0.924454
1049.04	1.53599
1052.42	2.62831
1055.79	0.470505
1059.17	0.339355
1062.54	0.740051
1065.92	0.42659
1069.29	0.073242
1072.67	0.463638
1076.04	0.657547
1079.42	0.970505
1082.79	2.25156
1086.17	1.35109
1089.54	6.71884
1092.92	1.0524
1096.29	0.751892
1099.66	2.05662
1103.04	0.284531
1106.41	0.935181
1109.79	2.00796
1113.16	0.327148
1116.54	0.146393
1119.91	0.536972
1123.29	1.24843
1126.66	0.347397
1130.04	0.763443
1133.41	0.242172
1136.79	0.066193
1140.16	1.01425
1143.54	1.76738
1146.91	1.67876
1150.29	1.07146
1153.66	1.77814
1157.04	0.990005
1160.41	0.550766
1163.79	1.31239
1167.16	1.33687
1170.54	2.78284
1173.91	1.7234
1177.29	2.09651
1180.66	2.04303
1184.04	2.09956
1187.41	1.25288
1190.79	1.73749
1194.16	0.466003
1197.54	1.95047
1200.91	1.53101
1204.28	2.00729
1207.66	0.879196
1211.03	1.03456
1214.41	3.04121
1217.78	1.29388
1221.16	0.941986
1224.53	0.58551
1227.91	0.712769
1231.28	0.102264
1234.66	0.993683
1238.03	0.281845
1241.41	1.03137
1244.78	0.062881
1248.16	0.046219
1251.53	0.478973
1254.91	0.735992
1258.28	1.67909
1261.66	1.11925
1265.03	1.12558
1268.41	0.949936
1271.78	1.13234
1275.16	0.240875
1278.53	0.897125
1281.9	0.90155
