Measurement: Raman, 780 nm, unoriented, Raman Data Processed
Mineral: Pyroxmangite
Rruff sample: R130536
Ideal chemistry: Mn^2+^SiO_3_
Locality: Taguchi mine, Shidara, Aichi Prefecture, Japan
Source: Rock Currier and Marcus Origlieri
Description: Tabular gemmy red crystals
Raman shift (cm-1)	intensity
145.075	0
147.968	9.71289
150.86	0.570313
153.753	33.3633
156.646	57.3594
159.538	26.4883
162.431	29.9473
165.324	6.39648
168.216	9.63672
171.109	4.95703
174.002	15.5645
176.894	3.25391
179.787	66.5137
182.68	91.1445
185.573	147.949
188.465	168.072
191.358	110.002
194.251	79.9336
197.143	99.1328
200.036	53.6562
202.929	66.2852
205.821	84.2344
208.714	68.9688
211.607	41.4961
214.5	55.6406
217.392	63.8301
220.285	76.3516
223.178	73.0566
226.07	58.1875
228.963	48.9062
231.856	58.4434
234.749	78.3613
237.641	76.418
240.534	67.2852
243.427	84.4746
246.319	131.613
249.212	69.584
252.105	58.3574
254.997	29.0547
257.89	15.8965
260.783	26.2305
263.675	39.8438
266.568	72.4688
269.461	110.125
272.354	83.8594
275.246	136.705
278.139	130.701
281.032	193.443
283.924	220.365
286.817	265.213
289.71	285.147
292.602	293.572
295.495	260.418
298.388	207.981
301.281	176.305
304.173	120.301
307.066	65.6133
309.959	54.2812
312.851	79.3242
315.744	87.75
318.637	112.348
321.529	104.691
324.422	101.627
327.315	72.6621
330.207	71.4668
333.1	78.2148
335.993	116.107
338.886	135.195
341.778	100.814
344.671	55.9648
347.564	75.459
350.456	24.7168
353.349	20.2441
356.242	69.0293
359.135	83.6387
362.027	77.6484
364.92	39.7305
367.813	40.5117
370.705	18.8555
373.598	4.25781
376.491	0.753906
379.383	31.918
382.276	10.1016
385.169	9.68555
388.062	14.0117
390.954	54.166
393.847	52.0586
396.74	37.9648
399.632	21.2754
402.525	64.5117
405.418	26.2285
408.31	40.8555
411.203	68.9785
414.096	68.1641
416.988	96.2793
419.881	174.547
422.774	210.732
425.667	190.135
428.559	128.793
431.452	86.6484
434.345	46.4258
437.237	17.5488
440.13	1.40039
443.023	28.0254
445.915	13.8809
448.808	41.5586
451.701	75.5898
454.594	72.8359
457.486	99.291
460.379	95.1641
463.272	103.154
466.164	96.4727
469.057	153.92
471.95	142.357
474.842	105.047
477.735	96.8535
480.628	95.625
483.521	104.08
486.413	119.086
489.306	114.031
492.199	117.586
495.091	94.8086
497.984	73.4297
500.877	79.5234
503.769	41.916
506.662	30.3926
509.555	79.4258
512.447	65.4805
515.34	76.3867
518.233	67.375
521.126	62.6602
524.018	29.9336
526.911	39.8203
529.804	6.13086
532.696	6.20312
535.589	0.398438
538.482	0.869141
541.375	13.4082
544.267	6.59375
547.16	9.01172
550.053	20.9883
552.945	22.9121
555.838	20.5254
558.731	52.8008
561.623	33.6191
564.516	39.2656
567.409	56.3145
570.302	49.2578
573.194	50.502
576.087	72.3965
578.98	39.8672
581.872	25.75
584.765	26.752
587.658	4.77148
590.55	6.78906
593.443	16.1875
596.336	2.60742
599.229	18.873
602.121	24.1934
605.014	16.248
607.907	36.9844
610.799	4.65625
613.692	4.68555
616.585	3.84961
619.477	6.67969
622.37	15.0039
625.263	9.91992
628.155	17.1406
631.048	26.3828
633.941	50.875
636.833	53.3477
639.726	103.772
642.619	124.205
645.512	192.18
648.404	214.926
651.297	293.123
654.19	351.662
657.082	470.158
659.975	552.65
662.868	626.049
665.76	724.25
668.653	732.336
671.546	543.322
674.439	331.578
677.331	161.525
680.224	107.609
683.117	59.7715
686.009	42.834
688.902	40.1738
691.795	56.3242
694.688	67.2686
697.58	49.5107
700.473	61.3603
703.366	38.375
706.258	33.919
709.151	41.373
712.044	56.5762
714.936	91.8818
717.829	103.013
720.722	84.7988
723.614	46.6855
726.507	24.998
729.4	11.335
732.293	34.627
735.185	57.4434
738.078	37.9258
740.971	20.2705
743.863	32.3486
746.756	25.3848
749.649	3.48242
752.541	32.2832
755.434	39.4639
758.327	37.081
761.22	3.20215
764.112	24.1807
767.005	8.49316
769.898	17.0498
772.79	30.6924
775.683	29.4619
778.576	35.2969
781.468	28.7441
784.361	19.459
787.254	19.0977
790.146	32.5908
793.039	33.3477
795.932	35.7266
798.825	41.4414
801.717	65.3262
804.61	66.9287
807.503	88.3037
810.395	68.083
813.288	28.8232
816.181	59.6025
819.073	56.2129
821.966	48.5391
824.859	39.7461
827.752	60.377
830.644	35.5244
833.537	13.169
836.43	35.7959
839.322	44.1758
842.215	35.0068
845.108	44.6123
848	59.0147
850.893	44.4238
853.786	45.8877
856.679	36.332
859.571	32.8682
862.464	44.6875
865.357	56.8594
868.249	32.5449
871.142	45.376
874.035	56.7041
876.927	58.2998
879.82	38.1748
882.713	59.374
885.606	41.9727
888.498	13.1494
891.391	41.1279
894.284	57.3174
897.176	7.86816
900.069	32.8525
902.962	20.0342
905.854	27.6924
908.747	21.6582
911.64	21.1035
914.533	2.51172
917.425	2.25195
920.318	1.4707
923.211	20.3154
926.103	0.8125
928.996	8.53516
931.889	16.4414
934.781	16.4629
937.674	30.3896
940.567	28.2061
943.46	9.9668
946.352	1.83203
949.245	1.04297
952.138	4.88281
955.03	38.2334
957.923	52.8691
960.816	114.276
963.708	162.74
966.601	227.492
969.494	324.618
972.386	387.427
975.279	316.806
978.172	235.191
981.065	195.408
983.957	177.868
986.85	198.016
989.743	261.66
992.635	311.055
995.528	382.59
998.421	420.628
1001.31	391.097
1004.21	307.994
1007.1	248.133
1009.99	209.451
1012.88	177.43
1015.78	203.749
1018.67	202.572
1021.56	169.427
1024.45	119.408
1027.35	69.1387
1030.24	24.7285
1033.13	12.6133
1036.03	45.4014
1038.92	8.1875
1041.81	3.73828
1044.7	17.7764
1047.6	10.4902
1050.49	7.02832
1053.38	3.7832
1056.28	2.86523
1059.17	2.79688
1062.06	19.3047
1064.95	24.3457
1067.85	15.625
1070.74	17.2217
1073.63	17.8799
1076.52	65.9785
1079.42	99.6963
1082.31	176.86
1085.2	342.169
1088.09	468.005
1090.99	202.232
1093.88	59.2432
1096.77	17.165
1099.66	5.51562
1102.56	5.79297
1105.45	9.24805
1108.34	9.7666
1111.24	11.9375
1114.13	12.3574
1117.02	4.77246
1119.91	6.85059
1122.81	9.61816
1125.7	2.83594
1128.59	4.13281
1131.48	16.9648
1134.38	32.7617
1137.27	21.7041
1140.16	46.4922
1143.06	27.1445
1145.95	34.1152
1148.84	40.6807
1151.73	50.3857
1154.63	55.2422
1157.52	57.0635
1160.41	34.4268
1163.31	56.8545
1166.2	57.7471
1169.09	77.3857
1171.98	74.4248
1174.88	67.8008
1177.77	66.3042
1180.66	65.2412
1183.55	67.2256
1186.45	62.1987
1189.34	66.1499
1192.23	55.0566
1195.12	78.416
1198.02	61.8047
1200.91	74.3867
1203.8	64.7686
1206.69	58.2085
1209.59	47.104
1212.48	49.5185
1215.37	33.981
1218.27	25.3901
1221.16	18.8784
1224.05	3.79443
1226.94	25.771
1229.84	30.8398
1232.73	28.2373
1235.62	20.3442
1238.52	5.00342
1241.41	0.134766
1244.3	0.573242
1247.19	16.2119
1250.09	6.60303
1252.98	18.6104
1255.87	35.2651
1258.76	28.1035
1261.66	35.707
1264.55	33.7798
1267.44	24.5547
1270.33	24.1489
1273.23	11.4038
1276.12	5.95898
1279.01	25.9331
1281.9	25.3355
1284.8	0
