Measurement: Raman, 514 nm, unoriented, Raman Data RAW
Mineral: Pyrope
Rruff sample: X050130
Ideal chemistry: Mg_3_Al_2_(SiO_4_)_3_
Locality: San Bernardo, Dora Maria Massif, Italy
Source: G.R. Rossman
Raman shift (cm-1)	intensity
101.1	34
106.1	35.7062
111.2	59.1494
116.2	77.0087
121.3	121.782
126.3	197.417
131.4	280.531
136.4	361.76
141.5	482.33
146.5	581.398
151.6	679.558
156.6	731.88
161.7	807.295
166.7	820.935
171.8	910.628
176.8	946.221
181.9	987.598
186.9	1054.36
192	1162.88
197	1266.22
202.1	1452.65
207.1	1637.56
212.2	1718.96
217.2	1621.78
222.3	1397.05
227.4	1253.24
232.4	1208.79
237.5	1219.59
242.5	1204.11
247.6	1253.29
252.6	1310.87
257.7	1352.82
262.7	1360.61
267.8	1392.28
272.8	1446.59
277.9	1437.08
282.9	1491.69
288	1495.08
293	1509.6
298.1	1478.85
303.1	1530.38
308.2	1650.13
313.2	1685.75
318.3	1889.93
323.3	1978.54
328.4	1977.66
333.4	2021.57
338.5	2264.71
343.5	2621.45
348.6	3007.52
353.6	3757.31
358.7	4912.98
363.7	5461.25
368.8	4909.33
373.8	3895.7
378.9	3048.65
383.9	2499.17
389	2012.6
394	1738.19
399.1	1582.75
404.1	1492.14
409.2	1405.01
414.2	1396.05
419.3	1387.85
424.3	1379.26
429.4	1339.15
434.4	1338.25
439.5	1342.48
444.5	1331.32
449.6	1338.16
454.6	1358.62
459.7	1349.14
464.7	1362.04
469.8	1421.42
474.8	1482.56
479.9	1512.9
485	1707.31
490	1880.7
495.1	1875.72
500.1	1789.13
505.2	1937.6
510.2	2211.27
515.3	2180.6
520.3	1910.91
525.4	1792.86
530.4	1738.01
535.5	1745.03
540.5	1818.83
545.6	2019.14
550.6	2443.19
555.7	3337.68
560.7	4594.04
565.8	4671.97
570.8	3592.84
575.9	2507.32
580.9	1982.11
586	1797.17
591	1722.27
596.1	1771.72
601.1	1721.49
606.2	1649.01
611.2	1611.1
616.3	1625.06
621.3	1630.61
626.4	1690.71
631.4	1713.32
636.5	1907.79
641.5	2225.34
646.6	2634.17
651.6	2492.72
656.7	2176.53
661.7	1832.31
666.8	1677.46
671.8	1633.74
676.9	1610.96
681.9	1620.5
687	1569.44
692	1622.41
697.1	1629.92
702.1	1627.87
707.2	1612.09
712.2	1648.79
717.3	1607.19
722.3	1661.02
727.4	1674.85
732.4	1676.73
737.5	1685.48
742.6	1667.03
747.6	1680.41
752.7	1731.79
757.7	1743.01
762.8	1757.7
767.8	1768.08
772.9	1791.26
777.9	1797.27
783	1797.97
788	1804.11
793.1	1839.64
798.1	1856.23
803.2	1002.2
808.2	1875.46
813.3	1903.03
818.3	1959.46
823.4	1993.91
828.4	2003.02
833.5	2090.99
838.5	2206.54
843.6	2326.73
848.6	2603.06
853.7	3021.31
858.7	3902.38
863.8	5282.87
868.8	5886.83
873.9	5261.66
878.9	4119.2
884	3499.26
889	3357.93
894.1	3565.45
899.1	4013.75
904.2	4751.37
909.2	6034.16
914.3	9235.88
919.3	15577.1
924.4	21313.5
929.4	19985.4
934.5	13356
939.5	7760.46
944.6	5037.85
949.6	3835.67
954.7	3200.66
959.7	2870.74
964.8	2733.31
969.8	2534.25
974.9	2527.09
979.9	2572.47
985	2539.28
990.1	2697.79
995.1	2864.21
1000.2	2871.81
1005.2	2738.8
1010.3	2475.57
1015.3	2411.32
1020.4	2390.1
1025.4	2408.33
1030.5	2453.3
1035.5	2536.28
1040.6	2600.14
1045.6	2741.25
1050.7	3019.87
1055.7	3454.16
1060.8	3778.66
1065.8	3534.15
1070.9	3154.08
1075.9	2855.97
1081	2566.36
1086	2339.97
1091.1	2290.71
1096.1	2227.64
1101.2	2287.43
1106.2	2370.33
1111.3	2367.36
1116.3	2354.93
1121.4	2299.61
1126.4	2257.2
1131.5	2201.77
1136.5	2218.62
1141.6	2189.76
1146.6	2172.15
1151.7	2191.92
1156.7	2185.68
1161.8	2180.63
1166.8	2242.7
1171.9	2240.38
1176.9	2245.25
1182	2225.5
1187	2238
1192.1	2226.15
1197.1	2257.51
1202.2	2271.8
1207.2	2253.03
1212.3	2306.62
1217.3	2277.82
1222.4	2310.02
1227.4	2283.88
1232.5	2309.22
1237.5	2323.37
1242.6	2336.96
1247.7	2323.26
1252.7	2288
1257.8	2290.61
1262.8	2307.77
1267.9	2338.63
1272.9	2375.77
1278	2358.31
1283	2375.49
1288.1	2399.36
1293.1	2405.7
1298.2	2397.49
1303.2	2372.62
1308.3	2391.99
1313.3	2331.29
1318.4	2392.07
1323.4	2379.1
1328.5	2377.2
1333.5	2380.78
1338.6	2404.08
1343.6	2398.04
1348.7	2395.82
1353.7	2424.42
1358.8	2408.06
1363.8	2390.75
1368.9	2419.73
1373.9	2480.51
1379	2458.04
1384	2485.12
1389.1	2487.43
1394.1	2511.94
1399.2	2558
1404.2	2609.94
1409.3	2662.22
1414.3	2747.63
1419.4	2839.27
1424.4	2871.64
1429.5	2930.16
1434.5	2970.6
1439.6	3106.22
1444.6	3260.59
1449.7	3220.55
1454.7	3072.45
1459.8	2829.14
1464.8	2722.14
1469.9	2643.91
1474.9	2716.41
1480	2687.62
1485	2748.77
1490.1	2748.27
1495.1	2839.32
1500.2	2880
