Measurement: Raman, 532 nm, unoriented, Raman Data Processed
Mineral: Quartz
Rruff sample: R110104
Ideal chemistry: SiO_2_
Locality: Synthetic
Source: Gemological Institute of America
Description: A cut, purple (1.31ct) amethyst gemstone, hydrothermally grown.
Raman shift (cm-1)	intensity
172.452	0
175.345	0.243851
178.237	18.4898
181.13	39.7062
184.023	82.9226
186.916	134.06
189.808	204.816
192.701	282.911
195.594	376.331
198.486	477.498
201.379	575.905
204.272	643.056
207.164	630.674
210.057	566.078
212.95	466.679
215.843	359.35
218.735	264.81
221.628	194.232
224.521	147.416
227.413	109.159
230.306	80.4972
233.199	57.0861
236.091	42.952
238.984	29.6214
241.877	22.2029
244.769	19.049
247.662	17.2956
250.555	17.8388
253.448	22.3758
256.34	31.6019
259.233	53.2986
262.126	107.315
265.018	162.636
267.911	73.1668
270.804	18.5417
273.697	3.51522
276.589	0.013901
279.482	2.2168
282.375	3.37617
285.267	1.72015
288.16	2.8388
291.053	3.35584
293.945	1.2473
296.838	0.615936
299.731	0.193451
302.623	2.00233
305.516	2.57774
308.409	3.6496
311.302	5.25331
314.194	5.94501
317.087	6.95357
319.98	8.97223
322.872	7.80125
325.765	9.01818
328.658	9.93907
331.55	11.1184
334.443	14.4382
337.336	15.6997
340.229	22.5924
343.121	28.8834
346.014	38.2825
348.907	57.282
351.799	99.8663
354.692	185.322
357.585	135.588
360.478	28.9209
363.37	8.59639
366.263	5.58392
369.156	6.70444
372.048	9.35453
374.941	5.30424
377.834	3.12428
380.726	7.08898
383.619	12.58
386.512	25.0529
389.404	50.7822
392.297	102.999
395.19	129.641
398.083	37.5248
400.975	29.0801
403.868	17.4469
406.761	1.94589
409.653	0.72084
412.546	1.75413
415.439	0.905319
418.332	0.604904
421.224	2.94733
424.117	0.01545
427.01	1.61106
429.902	6.79469
432.795	10.1958
435.688	16.2505
438.58	29.9516
441.473	48.6797
444.366	80.2673
447.259	142.843
450.151	256.014
453.044	422.108
455.937	676.004
458.829	1126.99
461.722	1844.48
464.615	2517.88
467.507	1957.31
470.4	1020.3
473.293	561.09
476.185	344.474
479.078	234.101
481.971	168.72
484.864	124.83
487.756	96.8647
490.649	75.4484
493.542	61.7781
496.434	49.3912
499.327	40.4413
502.22	32.233
505.113	27.5037
508.005	21.497
510.898	17.8847
513.791	17.0674
516.683	14.874
519.576	13.4876
522.469	15.0891
525.361	14.0334
528.254	13.1643
531.147	13.8703
534.04	14.0024
536.932	10.7519
539.825	5.36483
542.718	3.52663
545.61	3.77446
548.503	3.83613
551.396	1.77448
554.288	1.02401
557.181	0.666389
560.074	2.65183
562.967	1.09222
565.859	1.45282
568.752	0.196632
571.645	0.635078
574.537	0.515419
577.43	0.134544
580.323	2.69122
583.216	3.26324
586.108	2.55528
589.001	3.1247
591.894	3.66531
594.786	5.27538
597.679	3.75941
600.572	3.7924
603.464	1.47838
606.357	1.9755
609.25	2.76627
612.142	3.56244
615.035	3.69392
617.928	3.25702
620.821	2.73624
623.713	1.4359
626.606	1.15354
629.499	1.1238
632.391	0.520996
635.284	0.850822
638.177	2.01978
641.069	0.653496
643.962	0.188057
646.855	0.048027
649.747	1.16901
652.64	0.850258
655.533	1.03884
658.426	0.895065
661.318	0.853699
664.211	0.748665
667.104	0.181358
669.996	1.32022
672.889	2.24025
675.782	1.66037
678.674	3.94456
681.567	4.94476
684.46	7.43761
687.353	10.8395
690.245	18.4885
693.138	26.4574
696.031	35.9761
698.923	26.5231
701.816	12.6683
704.709	6.3428
707.601	6.31493
710.494	4.43391
713.387	2.9871
716.28	1.87747
719.172	1.14603
722.065	2.36227
724.958	1.80354
727.85	1.30043
730.743	1.71664
733.636	0.417816
736.529	0.534012
739.421	1.50591
742.314	0.350159
745.207	0.27095
748.099	0.627098
750.992	0.5896
753.885	0.176239
756.777	0.21994
759.67	0.874046
762.563	0.106041
765.456	0.357635
768.348	1.15325
771.241	0.953072
774.134	2.4761
777.026	5.697
779.919	6.53469
782.812	7.15348
785.704	6.84624
788.597	8.23312
791.49	12.8993
794.383	20.2409
797.275	27.7246
800.168	39.7596
803.061	66.1021
805.953	88.7324
808.846	65.5872
811.739	31.629
814.631	16.5591
817.524	10.5487
820.417	7.95256
823.309	5.53483
826.202	4.01106
829.095	2.6261
831.988	2.42457
834.88	2.45628
837.773	2.90865
840.666	2.00154
843.558	2.17794
846.451	2.29855
849.344	1.79658
852.236	1.45788
855.129	1.28698
858.022	1.66757
860.915	2.8612
863.807	1.37614
866.7	1.48103
869.593	0.027954
872.485	0.059059
875.378	0.977806
878.271	1.47862
881.163	1.90729
884.056	0.794563
886.949	2.48283
889.842	2.97601
892.734	2.48456
895.627	2.51784
898.52	3.24793
901.412	2.33558
904.305	1.09866
907.198	0.954079
910.091	3.3414
912.983	3.30319
915.876	3.05173
918.769	3.18894
921.661	4.34073
924.554	4.10043
927.447	1.88296
930.339	2.00381
933.232	0.427406
936.125	0.38604
939.018	0.619972
941.91	2.11319
944.803	1.09321
947.696	1.45987
950.588	2.34696
953.481	1.58753
956.374	1.62544
959.266	2.29315
962.159	0.944153
965.052	3.36242
967.944	1.40745
970.837	0.820152
973.73	1.41412
976.623	0.100067
979.515	0.257141
982.408	2.41688
985.301	0.997429
988.193	1.16064
991.086	0.10199
993.979	0.796745
996.871	0.400345
999.764	0.21656
1002.66	0.570129
1005.55	1.27081
1008.44	0.687897
1011.34	1.36017
1014.23	2.02841
1017.12	1.27565
1020.01	0.717667
1022.91	1.83557
1025.8	1.59628
1028.69	1.85587
1031.58	3.18891
1034.48	3.95895
1037.37	4.21513
1040.26	6.73264
1043.15	10.74
1046.05	12.7967
1048.94	10.1613
1051.83	7.74456
1054.73	5.52838
1057.62	9.26356
1060.51	9.50397
1063.4	14.8696
1066.3	19.0405
1069.19	25.846
1072.08	24.9343
1074.97	16.1982
1077.87	10.6748
1080.76	11.8127
1083.65	11.9438
1086.55	6.6395
1089.44	2.85885
1092.33	1.99308
1095.22	1.89261
1098.12	1.72058
1101.01	1.34226
1103.9	0.250229
1106.79	0.657761
1109.69	0.799377
1112.58	0.767113
1115.47	1.31621
1118.37	0.47641
1121.26	0.092026
1124.15	1.09807
1127.04	1.13619
1129.94	1.36712
1132.83	2.84274
1135.72	2.13817
1138.61	3.81518
1141.51	3.73892
1144.4	5.87052
1147.29	8.25182
1150.18	13.4978
1153.08	22.0185
1155.97	36.9886
1158.86	55.2031
1161.76	70.282
1164.65	49.9656
1167.54	24.1967
1170.43	9.69383
1173.33	5.04092
1176.22	3.29509
1179.11	2.48828
1182	1.21616
1184.9	1.74478
1187.79	0.773453
1190.68	0.96785
1193.58	0.437393
1196.47	0.70816
1199.36	1.48404
1202.25	0.46965
1205.15	1.64494
1208.04	1.49117
1210.93	1.68619
1213.82	1.85028
1216.72	3.21674
1219.61	4.61488
1222.5	6.41836
1225.39	9.18277
1228.29	15.5921
1231.18	17.858
1234.07	19.0751
1236.97	15.9119
1239.86	11.1602
1242.75	8.30963
1245.64	5.8448
1248.54	4.5011
1251.43	2.87296
1254.32	2.34526
1257.21	3.11519
1260.11	3.02358
1263	1.80127
1265.89	0.602951
1268.79	0.243332
1271.68	2.04709
1274.57	1.60863
1277.46	0.125504
1280.36	0.360474
1283.25	0.273315
1286.14	1.73988
1289.03	1.7446
1291.93	0.020523
1294.82	0.413437
1297.71	0.493561
1300.61	1.46039
