Measurement: Raman, 785 nm, unoriented, Raman Data RAW
Mineral: Raslakite
Rruff sample: R070071
Ideal chemistry: Na_15_Ca_3_Fe^2+^_3_(Na,Zr^4+^)_3_Zr^4+^_3_(Si,Nb^3+^)Si_25_O_73_(OH,H_2_O)_3_(Cl,OH)
Locality: Raslak Cirques, near Kedybverpahkh Mountain, Lovozero Massif, Kola Peninsula, Russia
Source: Michael Scott
Description: Massive, orange anhedral grains exhibiting conchoidal fracture, co-type material
Raman shift (cm-1)	intensity
145.898	2655.85
148.791	3025.21
151.683	3163.46
154.576	3149.51
157.469	3153.17
160.362	3255.99
163.254	3434.01
166.147	3580.72
169.04	3664.42
171.932	3746.74
174.825	3763.65
177.718	3814.65
180.61	3806.26
183.503	3843.01
186.396	3936.12
189.288	4019.11
192.181	4112.85
195.074	4141.51
197.967	4243.27
200.859	4322.17
203.752	4393.65
206.645	4409.95
209.537	4404.67
212.43	4511.73
215.323	4517.42
218.215	4636.06
221.108	4740.97
224.001	4860.66
226.894	5034.93
229.786	5186.25
232.679	5383.56
235.572	5564.28
238.464	5754.1
241.357	5952.23
244.25	6045.82
247.143	6153.96
250.035	6119.97
252.928	6168.22
255.821	6216.41
258.713	6252.96
261.606	6243.74
264.499	6298.38
267.391	6278.47
270.284	6226.56
273.177	6227.7
276.07	6282.94
278.962	6353.68
281.855	6359.17
284.748	6420.78
287.64	6477.29
290.533	6541.11
293.426	6567.15
296.318	6515.12
299.211	6491.07
302.104	6550.2
304.997	6593.82
307.889	6564.72
310.782	6570.29
313.675	6409.53
316.567	6401.22
319.46	6292.67
322.353	6240.2
325.245	6233.56
328.138	6203.14
331.031	6206.39
333.923	6201.49
336.816	6189.56
339.709	6241.22
342.602	6345.68
345.494	6475.29
348.387	6629.29
351.28	6798.52
354.172	7039.68
357.065	7299.26
359.958	7586.68
362.851	7965.16
365.743	8324.7
368.636	8802.62
371.529	9170.08
374.421	9641.84
377.314	9966.13
380.207	10183.3
383.099	10347.8
385.992	10489.8
388.885	10556.4
391.777	10379.3
394.67	10148.7
397.563	9755.5
400.456	9400.84
403.348	8955.69
406.241	8531.38
409.134	8241.97
412.026	7869.19
414.919	7663.02
417.812	7495.91
420.704	7289.3
423.597	7156.88
426.49	6993.66
429.383	6892.74
432.275	6789.15
435.168	6656.76
438.061	6549.82
440.953	6423.29
443.846	6296.23
446.739	6193.14
449.632	6107.58
452.524	5970.53
455.417	5791.54
458.31	5662.07
461.202	5567.73
464.095	5404.53
466.988	5327.41
469.88	5177.2
472.773	5090.99
475.666	4898.17
478.558	4773.14
481.451	4724.47
484.344	4642.19
487.237	4516.21
490.129	4447.14
493.022	4379.56
495.915	4272.69
498.807	4189.05
501.7	4159.48
504.593	4094.53
507.486	4097.55
510.378	4035.26
513.271	4046.82
516.164	3919.8
519.056	3914.01
521.949	3900.62
524.842	3869.62
527.734	3862.41
530.627	3838.49
533.52	3834.83
536.413	3769.6
539.305	3762.2
542.198	3768.78
545.091	3733.34
547.983	3760.53
550.876	3826.04
553.769	3804.2
556.661	3866.57
559.554	3936.15
562.447	4019.11
565.34	4025.63
568.232	3962.91
571.125	3969.79
574.018	3889.57
576.91	3828.19
579.803	3712.63
582.696	3737.99
585.588	3638.92
588.481	3608.06
591.374	3633.83
594.266	3607.12
597.159	3598.95
600.052	3683.76
602.945	3652.62
605.837	3709.57
608.73	3666.48
611.623	3712.89
614.515	3676.32
617.408	3639.06
620.301	3631.24
623.193	3639.77
626.086	3652.95
628.979	3666.17
631.872	3750
634.764	3709.38
637.657	3654.43
640.55	3707.34
643.442	3616.68
646.335	3624.77
649.228	3547.73
652.12	3511.26
655.013	3468.36
657.906	3372.86
660.799	3286.19
663.691	3211.46
666.584	3193.46
669.477	3102.7
672.369	3047.38
675.262	3016.96
678.155	2948.12
681.048	2916.67
683.94	2829.18
686.833	2832.61
689.726	2819.9
692.618	2805.9
695.511	2745.22
698.404	2757.52
701.296	2712.16
704.189	2647
707.082	2576.03
709.975	2512.88
712.867	2402.68
715.76	2359.49
718.653	2340.33
721.545	2299.45
724.438	2283.93
727.331	2274.3
730.223	2293.65
733.116	2265.54
736.009	2279.99
738.902	2248.69
741.794	2251.02
744.687	2237.13
747.58	2215.84
750.472	2183.72
753.365	2121.74
756.258	2096.68
759.15	2031.57
762.043	1983.68
764.936	1919.97
767.828	1883.97
770.721	1878.42
773.614	1800.52
776.507	1752.97
779.399	1714.71
782.292	1675.37
785.185	1635.64
788.077	1604.44
790.97	1562.82
793.863	1550.89
796.755	1511.21
799.648	1453.72
802.541	1428.73
805.434	1411.71
808.326	1366.53
811.219	1318.56
814.112	1308.42
817.004	1288.96
819.897	1262.23
822.79	1248.66
825.683	1215.21
828.575	1209.74
831.468	1194.41
834.361	1202.47
837.253	1186.44
840.146	1179.51
843.039	1220.38
845.931	1204.37
848.824	1192.82
851.717	1188.12
854.61	1210.05
857.502	1229.23
860.395	1231.46
863.288	1239.51
866.18	1294.45
869.073	1307.05
871.966	1327.7
874.858	1332.23
877.751	1369.15
880.644	1429.04
883.537	1480.11
886.429	1519.55
889.322	1589.18
892.215	1608.48
895.107	1658.32
898	1698.08
900.893	1725.79
903.785	1797.01
906.678	1873.77
909.571	1878.26
912.463	1913.96
915.356	1962.89
918.249	1960.77
921.142	2015.66
924.034	2060.24
926.927	2113.03
929.82	2121.09
932.712	2137.19
935.605	2204.05
938.498	2213.36
941.39	2241.86
944.283	2255.58
947.176	2265.64
950.069	2241.27
952.961	2219.78
955.854	2210.04
958.747	2200.49
961.639	2146.35
964.532	2145.34
967.425	2132.81
970.317	2150.67
973.21	2168.17
976.103	2194.21
978.996	2230.94
981.888	2279.86
984.781	2320.51
987.674	2369.2
990.566	2431.25
993.459	2448.47
996.352	2445.69
999.245	2488.88
1002.14	2503.73
1005.03	2559.01
1007.92	2550.63
1010.82	2583.04
1013.71	2603.35
1016.6	2687.9
1019.49	2742.07
1022.39	2783.99
1025.28	2861.79
1028.17	2934.01
1031.06	3061.28
1033.96	3155.95
1036.85	3222.35
1039.74	3336.01
1042.63	3459.39
1045.53	3537.54
1048.42	3652.98
1051.31	3811.59
1054.21	3936.75
1057.1	4092.29
1059.99	4308.27
1062.88	4500.9
1065.78	4703.1
1068.67	4992.04
1071.56	5175.41
1074.45	5443.63
1077.35	5573.07
1080.24	5847.33
1083.13	6072.65
1086.03	6330.64
1088.92	6689.32
1091.81	7034.17
1094.7	7398.26
1097.6	7773.65
1100.49	8167.19
1103.38	8694.28
1106.27	9312.55
1109.17	9923.42
1112.06	10696.4
1114.95	11529.6
1117.85	12336.8
1120.74	13455.1
1123.63	14707.1
1126.52	16056.3
1129.42	17611.4
1132.31	19237.7
1135.2	21167.7
1138.09	23189.1
1140.99	25456.3
1143.88	27841.2
1146.77	30443.7
1149.66	33004.9
1152.56	35647.4
1155.45	38317.2
1158.34	40947.4
1161.24	43515.6
1164.13	45824.6
1167.02	48019.6
1169.91	50003.5
1172.81	51752.3
1175.7	53140.5
1178.59	54016.6
1181.48	54871.4
1184.38	55315.2
1187.27	55393
1190.16	55703.8
1193.06	55869.2
1195.95	55527.9
1198.84	55394.2
1201.73	55457.3
1204.63	55338.6
1207.52	55737.4
1210.41	56013
1213.3	56690.8
1216.2	56865.4
1219.09	57541.9
1221.98	58127.2
1224.88	58399.5
1227.77	58565.6
1230.66	58810
1233.55	59164.9
1236.45	59175.3
1239.34	59368.3
1242.23	59821.9
