Measurement: Raman, 532 nm, unoriented, Raman Data Processed
Mineral: Raspite
Rruff sample: R130514
Ideal chemistry: Pb^2+^W^6+^O_4_
Locality: Grand Central mine, Tombstone, Arizona, USA
Source: Bruce Murphy
Description: Elongated, prismatic-to-tabular, pale yellow-to-colorless crystals, associated with chlorargyrite, emmonsite, ottoite, quartz, and jarosite.
Measured chemistry: Pb_0.96_(W_0.57_Te_0.44_Al_0.01_)O_4_
Raman shift (cm-1)	intensity
89.6737	0
93.0485	0.946932
96.4233	0.648868
99.7982	0.146595
103.173	0.579616
106.548	0.549633
109.923	0.917596
113.297	0.953714
116.672	1.55526
120.047	0.855448
123.422	2.83494
126.797	4.95649
130.172	6.85225
133.546	4.89391
136.921	3.6014
140.296	2.33323
143.671	2.18242
147.046	0.015065
150.42	0.022626
153.795	0.022534
157.17	0.30442
160.545	0.442469
163.92	0.106227
167.294	1.1397
170.669	1.72785
174.044	1.3586
177.419	9.08645
180.794	20.6519
184.169	29.0085
187.543	37.0592
190.918	53.8762
194.293	76.9942
197.668	84.0409
201.043	82.2039
204.417	76.269
207.792	73.5969
211.167	72.8211
214.542	64.3986
217.917	49.4973
221.292	30.7465
224.666	14.8445
228.041	8.5791
231.416	6.94289
234.791	4.90548
238.166	7.95882
241.541	7.61083
244.915	9.18238
248.29	12.0649
251.665	16.4837
255.04	19.3575
258.415	21.8359
261.789	27.5391
265.164	30.0957
268.539	27.1123
271.914	17.7471
275.289	15.7419
278.663	13.3614
282.038	13.3115
285.413	12.6872
288.788	15.5051
292.163	17.7089
295.538	18.835
298.912	19.2419
302.287	22.8781
305.662	24.0633
309.037	20.6908
312.412	14.1129
315.786	9.57846
319.161	2.89495
322.536	1.71156
325.911	0.682737
329.286	0.983881
332.661	0.280775
336.035	0.627757
339.41	0.701603
342.785	0.18183
346.16	1.65909
349.535	3.91084
352.909	4.4067
356.284	5.17603
359.659	3.30059
363.034	5.99733
366.409	10.0981
369.784	13.3463
373.158	18.986
376.533	24.292
379.908	32.1484
383.283	43.4751
386.658	47.6353
390.032	46.3733
393.407	32.7188
396.782	20.7905
400.157	11.1005
403.532	6.59437
406.906	2.83
410.281	1.66901
413.656	2.00187
417.031	0.010782
420.406	0.151554
423.781	0.27476
427.155	0.044086
430.53	0.461041
433.905	0.52949
437.28	0.403982
440.655	2.50935
444.029	4.36819
447.404	5.35641
450.779	6.83101
454.154	6.78252
457.529	7.58518
460.904	7.27712
464.278	6.65354
467.653	4.6927
471.028	4.73462
474.403	4.16395
477.778	4.99765
481.152	4.04307
484.527	6.68332
487.902	8.24872
491.277	12.5345
494.652	14.2712
498.027	13.7507
501.401	9.01148
504.776	4.55156
508.151	1.90572
511.526	1.06455
514.901	0.28811
518.275	0.423543
521.65	0.165733
525.025	1.57527
528.4	2.64481
531.775	4.87247
535.149	7.24878
538.524	9.95728
541.899	12.4717
545.274	14.1136
548.649	13.557
552.024	13.5349
555.398	11.6821
558.773	9.54665
562.148	7.20763
565.523	6.58036
568.898	5.34233
572.273	5.00031
575.647	2.47329
579.022	1.08706
582.397	1.08577
585.772	0.014665
589.147	0.149761
592.521	0.403928
595.896	0.420332
599.271	0.184873
602.646	0.025075
606.021	1.02265
609.395	1.15118
612.77	0.026194
616.145	1.04287
619.52	4.45325
622.895	11.163
626.27	19.1531
629.644	31.9561
633.019	48.4259
636.394	59.4579
639.769	63.9599
643.144	59.4156
646.519	55.8073
649.893	50.7647
653.268	44.0161
656.643	36.7677
660.018	28.1191
663.393	24.3585
666.767	18.8168
670.142	22.8167
673.517	28.7566
676.892	35.5256
680.267	45.1268
683.641	51.4651
687.016	50.9019
690.391	47.4709
693.766	42.4257
697.141	41.4973
700.516	50.1487
703.89	63.5141
707.265	90.242
710.64	117.116
714.015	136.524
717.39	150.074
720.764	149.762
724.139	140.835
727.514	123.282
730.889	93.16
734.264	63.5542
737.639	39.8668
741.013	21.7398
744.388	10.7568
747.763	3.52951
751.138	1.52755
754.513	1.87138
757.888	0.352129
761.262	0.854878
764.637	0.282219
768.012	0.089272
771.387	0.166888
774.761	0.306789
778.136	0.508937
781.511	0.141431
784.886	2.00765
788.261	1.78717
791.636	3.22208
795.01	2.50371
798.385	2.48281
801.76	2.48172
805.135	2.654
808.51	2.29009
811.885	3.17963
815.259	4.63958
818.634	6.57587
822.009	5.63455
825.384	7.5489
828.759	6.53638
832.133	3.83697
835.508	2.44241
838.883	3.09792
842.258	4.58892
845.633	9.98333
849.008	15.7406
852.382	28.2822
855.757	46.6508
859.132	81.737
862.507	140.85
865.882	237.227
869.256	368.223
872.631	420.334
876.006	480.521
879.381	507.709
882.756	447.517
886.13	343.303
889.505	225.231
892.88	132.591
896.255	69.948
899.63	35.3836
903.005	16.5157
906.379	8.42169
909.754	4.29537
913.129	2.08358
916.504	1.53603
919.879	0.045574
923.254	0.700109
926.628	0.148842
930.003	0.643551
933.378	0.357465
936.753	0.411196
940.128	0.022918
943.502	0.591406
946.877	0.155592
950.252	0.969372
953.627	0.039326
957.002	0.106875
960.376	0.606803
963.751	0.130696
967.126	1.67633
970.501	1.67293
973.876	1.63917
977.25	0.722678
980.625	2.29852
984	0.980638
987.375	1.82932
990.75	1.05688
994.125	1.61834
997.5	1.3037
1000.87	1.95223
1004.25	1.74985
1007.62	1.32052
1011	1.57564
1014.37	1.59181
1017.75	2.62233
1021.12	3.26832
1024.5	2.44649
1027.87	2.76189
1031.25	2.67283
1034.62	3.88449
1038	3.76517
1041.37	3.05897
1044.75	3.49714
1048.12	3.0043
1051.5	2.27899
1054.87	1.72119
1058.25	0.792591
1061.62	2.15658
1065	1.39915
1068.37	0.819218
1071.74	0.193778
1075.12	1.42228
1078.49	0.56803
1081.87	0.721092
1085.24	0.057875
1088.62	0.470906
1091.99	0.174719
1095.37	0.123646
1098.74	0.416035
1102.12	0.522122
1105.49	0.476554
1108.87	0.365675
1112.24	0.218331
1115.62	0.021395
1118.99	0.297988
1122.37	0.091208
1125.74	0.01251
1129.12	1.22148
1132.49	0.22755
1135.87	0.953474
1139.24	0.12487
1142.62	0.537598
1145.99	0.923336
1149.37	0.901009
1152.74	0.578659
1156.12	1.33222
1159.49	0.303863
1162.87	0.043111
1166.24	1.19638
1169.62	1.7916
1172.99	1.57331
1176.37	1.25303
1179.74	1.3155
1183.11	0.589025
1186.49	0.999013
1189.86	1.38227
1193.24	0.324828
1196.61	0.768565
1199.99	1.69949
1203.36	0.216796
1206.74	0.62196
1210.11	1.6218
1213.49	0.418826
1216.86	0.161395
1220.24	0.530781
1223.61	0.105363
1226.99	0.97435
1230.36	0.419938
1233.74	0.273761
1237.11	0.434704
1240.49	0.009098
1243.86	0.166359
1247.24	1.10407
1250.61	0.648029
1253.99	0.729358
1257.36	0.003879
1260.73	1.03877
1264.11	0.398773
1267.48	1.12846
1270.86	0.578101
1274.23	0.651135
1277.61	1.13951
1280.98	1.30939
1284.36	0.138064
1287.73	0.738468
1291.11	1.56771
1294.48	0.56768
1297.86	0.88494
1301.23	0.242141
