Measurement: Raman, 780 nm, unoriented, Raman Data RAW
Mineral: Rathite
Rruff sample: R070691
Ideal chemistry: Ag^1+^_2_Pb^2+^_12-x_Tl^1+^_x/2_As^3+^_18+x/2_S^2-^_40_
Locality: Lengenbach Quarry, near Imfeld, Binnental, Valais, Switzerland
Source: James Shigley
Description: Lead-gray striated metallic crystals associated with dolomite. Known as rathite I.
Raman shift (cm-1)	intensity
88.4108	50541.1
91.7856	87913.6
95.1605	142006
98.5353	207344
101.91	264493
105.285	261132
108.66	252243
112.034	247051
115.409	242931
118.784	237410
122.159	230887
125.534	224933
128.909	219233
132.283	213728
135.658	209451
139.033	206269
142.408	202393
145.783	199165
149.157	197180
152.532	198301
155.907	201335
159.282	207213
162.657	213507
166.032	218762
169.406	222660
172.781	225255
176.156	225891
179.531	223153
182.906	216547
186.28	205968
189.655	194248
193.03	184449
196.405	176977
199.78	170274
203.155	162835
206.529	155416
209.904	148505
213.279	143350
216.654	140438
220.029	140816
223.404	143766
226.778	146747
230.153	146604
233.528	143658
236.903	140720
240.278	139431
243.652	142194
247.027	148896
250.402	158324
253.777	169786
257.152	182194
260.526	194647
263.901	206324
267.276	217804
270.651	228186
274.026	238550
277.401	248096
280.775	256945
284.15	264138
287.525	269273
290.9	270744
294.275	270442
297.649	267361
301.024	257005
304.399	238348
307.774	217309
311.149	201072
314.524	190005
317.898	181665
321.273	175734
324.648	170983
328.023	168494
331.398	165475
334.772	161836
338.147	152881
341.522	140777
344.897	138532
348.272	151460
351.647	174868
355.021	194654
358.396	205468
361.771	210878
365.146	202727
368.521	181964
371.896	156218
375.27	131074
378.645	105196
382.02	77706.1
385.395	53365.6
388.77	36710.5
392.144	27203
395.519	21845
398.894	18712.4
402.269	16535.2
405.644	15183
409.019	14126.8
412.393	13148.7
415.768	12384.8
419.143	11682.2
422.518	11161.7
425.892	10561.9
429.267	10105.7
432.642	9737.79
436.017	9350.92
439.392	9026.14
442.767	8738.08
446.141	8457.82
449.516	8166.87
452.891	7925.81
456.266	7792.58
459.641	7579.7
463.016	7369.49
466.39	7195.54
469.765	7013.94
473.14	6779.59
476.515	6671.75
479.89	6434.91
483.264	6300.11
486.639	6102.21
490.014	5936.3
493.389	5764.15
496.764	5745.04
500.139	5548.06
503.513	5548.94
506.888	5438.72
510.263	5354.04
513.638	5383.96
517.013	5292.71
520.388	5299.42
523.762	5262.9
527.137	5259.02
530.512	5280.21
533.887	5276.15
537.261	5285.57
540.636	5214.99
544.011	5215.19
547.386	5250.66
550.761	5261.75
554.136	5180.56
557.51	5259.77
560.885	5255.84
564.26	5337.69
567.635	5346.33
571.01	5320.28
574.385	5398.12
577.759	5343.76
581.134	5379.56
584.509	5386.52
587.884	5297.49
591.259	5208.48
594.633	5103.45
598.008	5050.51
601.383	4875.29
604.758	4746.83
608.133	4611.41
611.508	4536.03
614.882	4347.54
618.257	4295.54
621.632	4222.83
625.007	4123.52
628.382	4030.72
631.756	3920.35
635.131	3924.48
638.506	3867.8
641.881	3774.11
645.256	3718.23
648.63	3624.47
652.005	3567.07
655.38	3479.56
658.755	3730.14
662.13	3736.67
665.505	3621.71
668.879	3058.31
672.254	2995.67
675.629	2764.18
679.004	2716.03
682.379	2554.87
685.754	2456.71
689.128	2333.01
692.503	2224.83
695.878	2155.63
699.253	2098.75
702.628	2066.93
706.002	2046.18
709.377	2047.19
712.752	1998.89
716.127	1949.65
719.502	1936.42
722.876	1900.56
726.251	1796.51
729.626	1774.9
733.001	1725.72
736.376	1652.19
739.75	1611.83
743.125	1530.43
746.5	1476.91
749.875	1371.09
753.25	1278.51
756.625	1150.48
760	1058.04
763.374	970.773
766.749	852.65
770.124	794.255
773.499	726.804
776.874	662.231
780.248	651.433
783.623	642.553
786.998	587.51
790.373	592.261
793.748	872.145
797.122	540.751
800.497	543.124
803.872	539.929
807.247	528.26
810.622	510.467
813.996	493.654
817.371	508.502
820.746	468.272
824.121	463.929
827.496	455.675
830.871	470.838
834.245	438.326
837.62	651.196
840.995	429.472
844.37	456.588
847.745	453.863
851.12	435.134
854.494	571.917
857.869	454.596
861.244	441.196
864.619	438.77
867.994	449.299
871.369	787.13
874.743	463.098
878.118	440.668
881.493	436.099
884.868	379.576
888.243	388.65
891.617	393.67
894.992	387.714
898.367	837.942
901.742	562.439
905.117	399.236
908.491	375.314
911.866	396.566
915.241	394.834
918.616	363.37
921.991	373.248
925.365	545.127
928.74	361.18
932.115	369.459
935.49	352.439
938.865	360.284
942.24	348.134
945.614	360.637
948.989	339.635
952.364	349.543
955.739	341.006
959.114	345.805
962.489	352.597
965.863	351.81
969.238	340.635
972.613	333.594
975.988	350.33
979.363	332.108
982.737	306.784
986.112	331.249
989.487	320.647
992.862	322.819
996.237	317.878
999.611	334.888
1002.99	598.607
1006.36	291.921
1009.74	333.106
1013.11	319.945
1016.49	325.403
1019.86	311.164
1023.24	298.031
1026.61	314.262
1029.98	305.837
1033.36	310.797
1036.73	265.226
1040.11	300.722
1043.48	291.274
1046.86	331.325
1050.23	317.637
1053.61	273.994
1056.98	313.698
1060.36	285.906
1063.73	268.851
1067.11	287.922
1070.48	266.512
1073.86	300.487
1077.23	251.244
1080.61	275.481
1083.98	263.11
1087.36	293.833
1090.73	242.963
1094.11	687.038
1097.48	265.825
1100.86	265.241
1104.23	302.027
1107.61	252.114
1110.98	262.648
1114.36	292.767
1117.73	283.125
1121.11	268.536
1124.48	352.549
1127.86	290.494
1131.23	268.048
1134.6	259.295
1137.98	245.923
1141.35	235.523
1144.73	279.154
1148.1	255.744
1151.48	257.049
1154.85	262.203
1158.23	251.352
1161.6	244.105
1164.98	257.87
1168.35	265.869
1171.73	266.911
1175.1	270.875
1178.48	259.926
1181.85	257.32
1185.23	250.476
1188.6	267.597
1191.98	247.47
1195.35	234.334
1198.73	258.18
1202.1	224.31
1205.47	234.379
1208.85	267.415
1212.22	230.355
1215.6	243.858
1218.97	255.091
1222.35	246.689
1225.72	264.176
1229.1	265.4
1232.47	255.819
1235.85	244.751
1239.22	242.965
1242.6	251.26
1245.97	259.675
1249.35	232.626
1252.72	261.235
1256.1	259.89
1259.47	230.985
1262.85	239.651
1266.22	253.272
1269.6	251.186
1272.97	250.79
1276.35	230.467
1279.72	265.815
1283.1	222.812
1286.47	253.752
