Measurement: Raman, 532 nm, unoriented, Raman Data Processed
Mineral: Refikite
Rruff sample: R180004
Ideal chemistry: C_20_H_34_O_2_
Locality: Moors in Bad Feilnbach, Bavaria, Germany
Source: Stefan Schorn
Description: Colorless single crystals and radial groups on wood
Raman shift (cm-1)	intensity
88.1367	0
91.5115	88.1038
94.8863	60.5762
98.2612	14.8544
101.636	1.87939
105.011	1.3446
108.386	23.8229
111.76	16.6243
115.135	39.2389
118.51	80.1794
121.885	119.006
125.26	201.677
128.635	253.326
132.009	260.769
135.384	219.222
138.759	182.2
142.134	138.282
145.509	104.892
148.883	99.4077
152.258	103.553
155.633	106.474
159.008	61.102
162.383	20.4834
165.757	4.73486
169.132	3.8302
172.507	4.56543
175.882	24.6937
179.257	38.511
182.632	37.2463
186.006	36.3128
189.381	62.8865
192.756	101.971
196.131	178.248
199.506	243.066
202.881	275.622
206.255	246.331
209.63	196.423
213.005	203.907
216.38	235.854
219.755	258.142
223.129	287.679
226.504	241.093
229.879	154.296
233.254	94.8704
236.629	76.1462
240.004	56.7394
243.378	37.8491
246.753	35.4824
250.128	19.2962
253.503	9.48321
256.878	6.43994
260.252	4.96912
263.627	3.89282
267.002	1.57288
270.377	3.45392
273.752	9.52051
277.127	16.7479
280.501	20.424
283.876	43.0648
287.251	66.9662
290.626	93.2981
294.001	105.828
297.375	92.4275
300.75	89.0787
304.125	108.535
307.5	150.19
310.875	173.417
314.25	219.996
317.624	261.891
320.999	300.106
324.374	258.555
327.749	171.065
331.124	78.0096
334.498	28.977
337.873	10.0819
341.248	5.59387
344.623	4.1416
347.998	5.18274
351.373	15.3844
354.747	3.99915
358.122	27.5443
361.497	61.1594
364.872	153.375
368.247	384.548
371.621	634.721
374.996	407.26
378.371	168.851
381.746	100.888
385.121	88.4737
388.495	53.7361
391.87	69.1818
395.245	83.5807
398.62	51.1867
401.995	2.31323
405.37	4.31946
408.744	20.8689
412.119	65.1814
415.494	114.321
418.869	93.4125
422.244	79.7729
425.618	65.2306
428.993	57.4941
432.368	48.2552
435.743	55.4796
439.118	70.3236
442.493	91.0845
445.867	98.0796
449.242	76.817
452.617	67.9981
455.992	42.9436
459.367	23.7528
462.741	68.1705
466.116	148.849
469.491	321.471
472.866	646.051
476.241	1224.22
479.615	992.032
482.99	430.151
486.365	352.476
489.74	465.407
493.115	393.013
496.49	156.19
499.864	87.6925
503.239	136.462
506.614	147.83
509.989	48.7633
513.364	1.17651
516.739	11.9598
520.113	6.17078
523.488	1.67248
526.863	14.8969
530.238	11.0005
533.613	11.2101
536.987	6.70215
540.362	4.94409
543.737	19.6483
547.112	49.3711
550.487	114.175
553.861	231.023
557.236	426.464
560.611	342.846
563.986	205.031
567.361	174.613
570.736	119.187
574.11	128.542
577.485	165.269
580.86	126.418
584.235	86.4835
587.61	56.5645
590.985	27.9662
594.359	20.4344
597.734	15.5983
601.109	10.48
604.484	1.9549
607.859	2.7348
611.233	0.323181
614.608	6.60455
617.983	2.3609
621.358	4.5224
624.733	20.2842
628.107	28.6185
631.482	23.6231
634.857	17.2036
638.232	21.3082
641.607	9.05627
644.982	20.7624
648.356	26.8795
651.731	30.5736
655.106	18.1758
658.481	35.9141
661.856	66.0552
665.231	97.1642
668.605	63.9734
671.98	20.9329
675.355	0.447266
678.73	10.1782
682.105	8.34021
685.479	6.84082
688.854	20.3727
692.229	59.6628
695.604	86.7855
698.979	78.8751
702.354	130.783
705.728	250.787
709.103	438.726
712.478	445.268
715.853	551.52
719.227	920.218
722.602	1382.44
725.977	1400.76
729.352	704.253
732.727	404.821
736.102	519.085
739.476	723.106
742.851	443.228
746.226	175.061
749.601	33.7936
752.976	2.4707
756.351	22.227
759.725	63.0404
763.1	179.897
766.475	458.857
769.85	396.386
773.225	101.511
776.599	6.20886
779.974	2.33923
783.349	13.9755
786.724	28.3195
790.099	75.5503
793.473	71.5986
796.848	46.7389
800.223	13.918
803.598	33.007
806.973	147.278
810.348	200.647
813.722	99.0878
817.097	65.5016
820.472	81.2117
823.847	94.86
827.222	36.6918
830.597	54.0459
833.971	115.809
837.346	125.737
840.721	51.6851
844.096	0.507324
847.471	16.5304
850.846	13.1386
854.22	21.4217
857.595	27.1488
860.97	5.79028
864.345	28.0116
867.72	79.2056
871.094	150.565
874.469	138.231
877.844	127.865
881.219	115.291
884.594	158.238
887.968	154.987
891.343	72.0651
894.718	39.2452
898.093	23.9867
901.468	45.0548
904.842	35.1423
908.217	9.58862
911.592	19.0453
914.967	8.89246
918.342	44.2999
921.717	59.0701
925.091	128.565
928.466	183.31
931.841	119.388
935.216	92.3734
938.591	173.844
941.966	168.455
945.34	128.905
948.715	199.382
952.09	272.412
955.465	199.839
958.84	141.164
962.214	151.017
965.589	185.511
968.964	123.204
972.339	97.2304
975.714	145.036
979.088	247.89
982.463	244.925
985.838	185.996
989.213	227.904
992.588	367.858
995.963	318.329
999.337	97.6354
1002.71	71.5226
1006.09	85.84
1009.46	56.3379
1012.84	18.5446
1016.21	17.1373
1019.59	13.6803
1022.96	21.1367
1026.34	43.1337
1029.71	56.4402
1033.09	40.6852
1036.46	9.68152
1039.84	12.5427
1043.21	1.13098
1046.59	39.9644
1049.96	90.6086
1053.33	160.57
1056.71	134.005
1060.08	84.1262
1063.46	47.5121
1066.83	23.536
1070.21	33.2517
1073.58	26.381
1076.96	22.1248
1080.33	9.82678
1083.71	7.05298
1087.08	9.03857
1090.46	37.7627
1093.83	86.2455
1097.21	134.203
1100.58	161.692
1103.96	133.881
1107.33	94.9796
1110.71	57.6218
1114.08	27.6354
1117.46	1.25183
1120.83	11.359
1124.21	12.0384
1127.58	24.1107
1130.95	18.6362
1134.33	91.6769
1137.7	133.583
1141.08	148.181
1144.45	124.163
1147.83	99.152
1151.2	173.883
1154.58	337.699
1157.95	498.136
1161.33	514.38
1164.7	438.14
1168.08	592.607
1171.45	575.988
1174.83	514.366
1178.2	558.399
1181.58	501.728
1184.95	438.31
1188.33	392.983
1191.7	450.163
1195.08	568.382
1198.45	751.084
1201.83	1038.03
1205.2	793.017
1208.58	378.348
1211.95	139.184
1215.33	48.2322
1218.7	2.95459
1222.08	9.68567
1225.45	46.6531
1228.83	64.9485
1232.2	129.168
1235.58	180.207
1238.95	118.434
1242.32	140.734
1245.7	385.231
1249.07	795.854
1252.45	630.653
1255.82	301.399
1259.2	136.895
1262.57	29.0431
1265.95	0.506958
1269.32	13.5836
1272.7	20.7218
1276.07	7.14734
1279.45	13.5297
1282.82	54.8367
1286.2	94.0912
1289.57	76.618
1292.95	6.43567
1296.32	2.59998
1299.7	1.85608
