Measurement: Raman, 780 nm, unoriented, Raman Data Processed
Mineral: Refikite
Rruff sample: R180004
Ideal chemistry: C_20_H_34_O_2_
Locality: Moors in Bad Feilnbach, Bavaria, Germany
Source: Stefan Schorn
Description: Colorless single crystals and radial groups on wood
Raman shift (cm-1)	intensity
95.778	0
99.1528	9.57812
102.528	57.9128
105.903	152.252
109.277	114.987
112.652	25.5646
116.027	0.829712
119.402	35.6215
122.777	153.714
126.151	234.904
129.526	239.986
132.901	186.784
136.276	103.054
139.651	48.5405
143.025	3.52643
146.4	12.488
149.775	2.53339
153.15	15.1464
156.525	62.3174
159.9	60.6387
163.274	69.923
166.649	79.932
170.024	107.288
173.399	133.207
176.774	147.1
180.149	159.077
183.523	163.992
186.898	188.742
190.273	236.96
193.648	294.503
197.023	388.348
200.397	482.242
203.772	484.967
207.147	398.579
210.522	354.791
213.897	366.216
217.272	412.773
220.646	443.399
224.021	438.305
227.396	322.797
230.771	221.539
234.146	160.552
237.52	128.03
240.895	104.032
244.27	83.3363
247.645	60.4675
251.02	44.0349
254.394	19.4834
257.769	11.5663
261.144	0.392059
264.519	6.90787
267.894	1.62442
271.269	0.280182
274.643	5.6947
278.018	18.1779
281.393	45.3099
284.768	80.3275
288.143	109.753
291.517	121.795
294.892	107.321
298.267	84.7416
301.642	82.7788
305.017	100.858
308.392	127.822
311.766	142.981
315.141	163.134
318.516	195.009
321.891	205.637
325.266	160.651
328.64	85.0853
332.015	25.4809
335.39	2.67111
338.765	14.6699
342.14	5.46591
345.515	1.63132
348.889	3.84341
352.264	2.46555
355.639	20.2301
359.014	38.7529
362.389	85.6158
365.764	268.39
369.138	645.394
372.513	835.13
375.888	433.247
379.263	195.754
382.637	131.305
386.012	95.9286
389.387	61.476
392.762	97.1124
396.137	97.192
399.512	36.6641
402.886	8.65927
406.261	7.42212
409.636	66.7503
413.011	171.37
416.386	227.796
419.76	187.312
423.135	189.632
426.51	182.631
429.885	168.265
433.26	147.734
436.635	150.75
440.01	157.086
443.384	173.911
446.759	160.802
450.134	138.401
453.509	109.355
456.884	66.1346
460.258	37.6501
463.633	69.557
467.008	191.883
470.383	486.272
473.758	1124.74
477.132	1929.12
480.507	1143.87
483.882	533.262
487.257	547.174
490.632	692.647
494.007	443.713
497.381	160.487
500.756	123.691
504.131	199.779
507.506	168.413
510.881	43.9483
514.255	2.4714
517.63	1.21912
521.005	8.91791
524.38	8.17712
527.755	7.25839
531.13	5.33008
534.504	16.2348
537.879	15.3907
541.254	11.2967
544.629	18.0567
548.004	61.3469
551.378	176.984
554.753	447.432
558.128	728.836
561.503	429.05
564.878	262.31
568.253	200.547
571.627	133.526
575.002	170.838
578.377	204.673
581.752	157.683
585.127	104.737
588.501	62.9669
591.876	40.0892
595.251	24.3806
598.626	18.5172
602.001	10.4658
605.375	4.44609
608.75	3.79773
612.125	1.38946
615.5	0.16568
618.875	0.441299
622.25	5.30476
625.625	7.00992
628.999	17.6026
632.374	21.0156
635.749	19.7133
639.124	15.8944
642.499	25.8907
645.873	30.8239
649.248	37.0018
652.623	30.1213
655.998	32.11
659.373	63.1991
662.747	128.912
666.122	155.441
669.497	68.8814
672.872	14.9169
676.247	0.991974
679.621	6.08502
682.996	6.1571
686.371	7.12061
689.746	42.0577
693.121	118.388
696.496	123.82
699.87	92.6888
703.245	163.96
706.62	290.009
709.995	488.342
713.37	421.27
716.745	617.205
720.119	1060.16
723.494	1544.76
726.869	1290.64
730.244	607.674
733.619	468.217
736.993	740.818
740.368	922.999
743.743	495.2
747.118	205.788
750.493	58.038
753.867	23.7235
757.242	33.3879
760.617	84.4579
763.992	259.022
767.367	514.012
770.742	285.773
774.116	62.093
777.491	0.841492
780.866	0.662048
784.241	1.44923
787.616	19.752
790.99	52.3033
794.365	31.8795
797.74	5.377
801.115	4.01773
804.49	37.598
807.865	119.761
811.239	114.301
814.614	64.9275
817.989	48.9656
821.364	77.5453
824.739	61.5295
828.114	24.3546
831.488	72.4259
834.863	119.208
838.238	143.288
841.613	50.0881
844.988	3.0858
848.362	8.72278
851.737	2.85237
855.112	25.7149
858.487	14.6593
861.862	4.99861
865.236	35.3386
868.611	95.6426
871.986	133.969
875.361	123.22
878.736	110.954
882.111	98.3722
885.485	122.17
888.86	87.4153
892.235	40.4587
895.61	21.6096
898.985	24.3677
902.36	49.9497
905.734	27.4922
909.109	5.73279
912.484	10.9969
915.859	11.6357
919.234	31.8938
922.608	38.5412
925.983	81.5358
929.358	89.615
932.733	46.7873
936.108	61.5786
939.482	123.887
942.857	102.547
946.232	148.32
949.607	222.781
952.982	278.43
956.357	195.361
959.731	156.484
963.106	188.559
966.481	210.435
969.856	148.417
973.231	128.653
976.606	229.679
979.98	333.464
983.355	268.765
986.73	178.517
990.105	246.262
993.48	369.824
996.854	242.262
1000.23	68.8541
1003.6	57.9969
1006.98	60.7275
1010.35	33.8498
1013.73	9.27266
1017.1	13.0055
1020.48	20.0159
1023.85	41.9139
1027.23	61.5205
1030.6	90.4951
1033.98	33.1061
1037.35	12.9426
1040.73	17.1418
1044.1	8.21289
1047.48	53.9361
1050.85	126.948
1054.23	224.756
1057.6	154.3
1060.98	96.1585
1064.35	53.7881
1067.73	33.6155
1071.1	31.2649
1074.47	31.6443
1077.85	15.7827
1081.22	7.05493
1084.6	4.14891
1087.97	9.38196
1091.35	33.9645
1094.72	69.4447
1098.1	127.58
1101.47	143.94
1104.85	135.441
1108.22	100.91
1111.6	59.2219
1114.97	18.8543
1118.35	3.73175
1121.72	8.26566
1125.1	8.92163
1128.47	10.0315
1131.85	18.272
1135.22	63.3966
1138.6	84.0979
1141.97	90.2103
1145.35	68.5019
1148.72	79.5367
1152.1	169.576
1155.47	353.748
1158.85	465.481
1162.22	423.162
1165.6	344.074
1168.97	444.538
1172.35	362.888
1175.72	345.62
1179.1	365.529
1182.47	334.733
1185.84	341.663
1189.22	325.577
1192.59	425.242
1195.97	508.607
1199.34	760.474
1202.72	978.344
1206.09	740.874
1209.47	323.04
1212.84	105.292
1216.22	16.6655
1219.59	6.58304
1222.97	13.7187
1226.34	13.025
1229.72	39.8669
1233.09	86.5925
1236.47	92.0304
1239.84	43.4302
1243.22	89.4845
1246.59	317.084
1249.97	495.254
1253.34	284.273
1256.71	141.376
1260.09	45.2592
1263.46	0.553528
1266.84	0.418121
1270.21	37.3268
1273.59	31.5949
1276.96	1.17758
1280.34	4.59567
