Measurement: Raman, 785 nm, unoriented, Raman Data Processed
Mineral: Reichenbachite
Rruff sample: R060867
Ideal chemistry: Cu^2+^_5_(P^5+^O_4_)_2_(OH)_4_
Locality: Old Gunnislake mine, Gunnislake, Cornwall, England
Source: Michael Scott
Description: Green spherical aggregates forming a coating on quartz
Raman shift (cm-1)	intensity
209.558	0
212.45	0.486279
215.343	0.515694
218.236	0.518753
221.128	0.290409
224.021	0.037148
226.914	0.234024
229.806	0.589695
232.699	0.378403
235.592	0.149719
238.485	0.691895
241.377	1.07138
244.27	0.857758
247.163	0.908524
250.055	0.767941
252.948	0.654728
255.841	0.681103
258.733	1.12193
261.626	1.16875
264.519	0.393875
267.412	0.278402
270.304	0.108694
273.197	0.059742
276.09	0.102671
278.982	0.970665
281.875	0.20141
284.768	0.222237
287.661	0.07645
290.553	0.069952
293.446	0.537952
296.339	0.210665
299.231	0.051239
302.124	0.014881
305.017	0.607317
307.909	0.310265
310.802	0.659668
313.695	0.270329
316.587	0.774792
319.48	1.29281
322.373	1.22866
325.266	0.913143
328.158	1.27914
331.051	0.517382
333.944	0.7306
336.837	0.555292
339.729	0.937237
342.622	0.41715
345.515	0.704132
348.407	0.889381
351.3	1.01124
354.193	0.626329
357.085	0.816483
359.978	0.63031
362.871	0.751272
365.764	0.457216
368.656	0.280516
371.549	0.873919
374.442	0.533773
377.334	0.37871
380.227	0.024584
383.12	0.258904
386.012	0.170488
388.905	0.303089
391.798	0.012257
394.69	0.039648
397.583	0.017687
400.476	0.083605
403.369	0.046551
406.261	0.397467
409.154	0.42193
412.047	0.191849
414.939	0.449205
417.832	0.710562
420.725	0.701143
423.618	1.10839
426.51	1.05456
429.403	1.13601
432.296	1.54049
435.188	1.89029
438.081	2.68402
440.974	4.0541
443.866	4.34207
446.759	5.42588
449.652	7.3057
452.545	7.05747
455.437	6.89553
458.33	5.76688
461.223	4.81483
464.115	3.99366
467.008	3.03437
469.901	2.1816
472.793	1.75558
475.686	1.89197
478.579	1.29842
481.471	1.36005
484.364	1.56
487.257	0.984224
490.15	1.16153
493.042	1.10983
495.935	1.0982
498.828	1.15052
501.72	1.1158
504.613	0.900705
507.506	1.22873
510.399	1.00303
513.291	1.2503
516.184	1.0287
519.077	1.69566
521.969	0.77524
524.862	0.680815
527.755	0.000612
530.647	0.656843
533.54	0.534821
536.433	0.248898
539.326	0.369274
542.218	0.352501
545.111	0.032278
548.004	0.67898
550.896	0.255304
553.789	0.134129
556.682	0.129925
559.574	0.057791
562.467	0.277479
565.36	0.235144
568.253	0.383131
571.145	0.362421
574.038	0.863043
576.931	0.711985
579.823	1.0102
582.716	1.20334
585.609	0.996368
588.501	1.05023
591.394	0.953978
594.287	0.726933
597.18	0.45183
600.072	0.613091
602.965	0.304434
605.858	0.206627
608.75	0.431438
611.643	0.022116
614.536	0.404757
617.428	0.167473
620.321	0.092606
623.214	0.417147
626.107	0.091883
628.999	0.161686
631.892	0.094051
634.785	0.211588
637.677	0.3146
640.57	0.347939
643.463	0.115564
646.356	0.307653
649.248	0.68305
652.141	0.456619
655.034	0.386686
657.926	0.122025
660.819	0.577452
663.712	0.227215
666.604	0.513519
669.497	0.612862
672.39	0.650272
675.283	0.521303
678.175	0.304272
681.068	0.311546
683.961	0.19425
686.853	0.788019
689.746	0.115417
692.639	0.411589
695.531	0.114939
698.424	0.026167
701.317	0.659334
704.21	0.144402
707.102	0.224836
709.995	0.492468
712.888	0.08707
715.78	0.303278
718.673	0.076471
721.566	0.253153
724.458	0.351301
727.351	0.220226
730.244	0.622566
733.136	0.267603
736.029	0.194681
738.922	0.232109
741.815	0.078819
744.707	0.321255
747.6	0.040258
750.493	0.117182
753.385	0.52379
756.278	0.330244
759.171	0.223639
762.063	0.240089
764.956	0.627949
767.849	0.385674
770.742	0.226341
773.634	0.429064
776.527	0.517109
779.42	0.729534
782.312	0.831074
785.205	0.404369
788.098	0.195665
790.99	0.861542
793.883	0.833967
796.776	0.958145
799.669	0.604248
802.561	0.847761
805.454	0.830856
808.347	0.663206
811.239	0.97839
814.132	1.1479
817.025	1.10583
819.918	1.40929
822.81	1.27295
825.703	1.3121
828.596	1.36078
831.488	0.975969
834.381	1.51642
837.274	1.68861
840.166	2.07025
843.059	2.25852
845.952	1.91984
848.845	1.95024
851.737	1.73579
854.63	1.88554
857.523	2.1131
860.415	2.16437
863.308	1.82973
866.201	1.48096
869.093	1.90006
871.986	1.34005
874.879	1.24275
877.771	1.07324
880.664	1.07992
883.557	0.757072
886.45	1.18408
889.342	0.847525
892.235	0.712587
895.128	0.348885
898.02	0.40617
900.913	0.299417
903.806	0.148455
906.698	0.529753
909.591	0.328503
912.484	0.176395
915.377	0.148811
918.269	0.158268
921.162	0.178917
924.055	0.187889
926.947	0.061207
929.84	0.257231
932.733	0.548504
935.625	0.694248
938.518	0.924648
941.411	0.842646
944.304	1.09519
947.196	1.85666
950.089	1.76794
952.982	2.19605
955.875	1.89903
958.767	2.10027
961.66	1.6768
964.553	1.9206
967.445	1.53223
970.338	1.65926
973.231	1.65626
976.123	1.28166
979.016	1.36072
981.909	1.49873
984.802	1.29075
987.694	1.05703
990.587	1.08978
993.48	0.606861
996.372	0.445964
999.265	0.143114
1002.16	0.337511
1005.05	0.322644
1007.94	0.134013
1010.84	0.357275
1013.73	0.199561
1016.62	0.130984
1019.51	0.012014
1022.41	0.281326
1025.3	0.01228
1028.19	0.33782
1031.09	0.179433
1033.98	0.349072
1036.87	0.567524
1039.76	0.519961
1042.66	0.383363
1045.55	0.805202
1048.44	1.17852
1051.33	0.891469
1054.23	0.75003
1057.12	0.438977
1060.01	0.861203
1062.9	0.617713
1065.8	0.708862
1068.69	0.42114
1071.58	0.441554
1074.47	0.495672
1077.37	0.168242
1080.26	0.348821
1083.15	0.334427
1086.05	0.40612
1088.94	0.343182
1091.83	0.646825
1094.72	0.948793
1097.62	1.0508
1100.51	1.08435
1103.4	0.813972
1106.3	0.805797
1109.19	0.517861
1112.08	0.335578
1114.97	0.030406
1117.87	0.050447
1120.76	0.614915
1123.65	0.134438
1126.54	0.053752
1129.44	0.518913
1132.33	0.152171
1135.22	0.223878
1138.12	0.302771
1141.01	0.152411
1143.9	0.249225
1146.79	0.140126
1149.68	0.37113
1152.58	0.32185
1155.47	0.559763
1158.36	0.362682
1161.26	0.461483
1164.15	0.174301
1167.04	0.715081
1169.93	0.458225
1172.83	0.211191
1175.72	0.388266
1178.61	0.523314
1181.51	0.265798
1184.4	0.725609
1187.29	0.464187
1190.18	0.238809
1193.08	0.198251
1195.97	0.535048
1198.86	0.572673
1201.75	0.363201
1204.65	0.339374
1207.54	0.433681
1210.43	0.331647
1213.33	0.132441
1216.22	0.555503
1219.11	0.13894
1222	0.341095
1224.9	0.112314
1227.79	0.543993
1230.68	0.204807
1233.57	0.224025
1236.47	0.111297
1239.36	0.424946
1242.25	0.363035
1245.14	0.181402
1248.04	0.040146
1250.93	0.055135
1253.82	0.199579
1256.71	0.192124
1259.61	0.317224
1262.5	0.315711
1265.39	0.31875
1268.29	0.030177
1271.18	0.228392
1274.07	0.563163
1276.96	0.33585
1279.86	0.158128
