Measurement: Raman, 532 nm, unoriented, Raman Data Processed
Mineral: Reichenbachite
Rruff sample: R060867
Ideal chemistry: Cu^2+^_5_(P^5+^O_4_)_2_(OH)_4_
Locality: Old Gunnislake mine, Gunnislake, Cornwall, England
Source: Michael Scott
Description: Green spherical aggregates forming a coating on quartz
Raman shift (cm-1)	intensity
105.975	0
109.35	0.27832
112.725	14.4836
116.1	56.8715
119.474	62.8757
122.849	54.9867
126.224	54.2966
129.599	65.2585
132.974	88.5827
136.348	98.8268
139.723	92.2345
143.098	74.8457
146.473	78.3906
149.848	96.6678
153.222	99.7521
156.597	84.3141
159.972	50.9092
163.347	28.066
166.722	15.4235
170.097	15.9089
173.471	18.7776
176.846	18.704
180.221	13.2253
183.596	6.99426
186.971	8.68671
190.345	15.7532
193.72	29.8332
197.095	41.8239
200.47	30.5532
203.845	18.1186
207.22	13.0839
210.594	15.2096
213.969	18.4194
217.344	21.0053
220.719	17.603
224.094	14.4002
227.469	12.6175
230.843	14.3166
234.218	9.83371
237.593	2.22057
240.968	6.5903
244.343	4.54497
247.717	0.018204
251.092	6.30366
254.467	12.3086
257.842	19.1762
261.217	24.3441
264.591	26.2805
267.966	25.7935
271.341	29.4348
274.716	34.5879
278.091	45.5109
281.466	64.469
284.84	82.99
288.215	81.8783
291.59	63.2921
294.965	48.7868
298.34	38.6248
301.714	28.2948
305.089	16.1455
308.464	8.65057
311.839	6.39839
315.214	6.64311
318.589	9.3093
321.963	10.0711
325.338	12.1403
328.713	10.1043
332.088	6.56741
335.463	3.65447
338.837	1.41397
342.212	2.97888
345.587	2.97783
348.962	4.61198
352.337	6.34338
355.712	6.55574
359.086	6.76274
362.461	7.11295
365.836	13.4371
369.211	20.6556
372.586	29.7829
375.96	33.7573
379.335	27.8118
382.71	15.8024
386.085	5.10687
389.46	2.77705
392.834	5.71294
396.209	6.63608
399.584	3.64957
402.959	0.3974
406.334	5.83551
409.709	12.0588
413.083	18.1319
416.458	26.0805
419.833	35.8289
423.208	47.0864
426.583	58.0534
429.957	60.2131
433.332	62.397
436.707	78.3251
440.082	112.461
443.457	162.541
446.832	230.586
450.206	309.246
453.581	394.347
456.956	433.313
460.331	381.742
463.706	278.218
467.08	189.338
470.455	130.446
473.83	99.4522
477.205	84.0913
480.58	75.0862
483.955	71.9789
487.329	65.5816
490.704	62.3682
494.079	57.6312
497.454	62.8417
500.829	70.0754
504.204	77.4442
507.578	85.8276
510.953	89.2597
514.328	101.088
517.703	108.146
521.078	101.089
524.452	76.0686
527.827	54.0479
531.202	44.6662
534.577	47.9025
537.952	49.4679
541.327	38.5527
544.701	19.8162
548.076	5.92952
551.451	2.39905
554.826	5.44513
558.201	4.68881
561.575	4.00507
564.95	0.85965
568.325	6.5945
571.7	18.274
575.075	28.2047
578.449	38.7931
581.824	49.9596
585.199	64.1393
588.574	71.076
591.949	61.7365
595.323	44.4228
598.698	32.0122
602.073	20.2529
605.448	13.7211
608.823	11.1516
612.198	8.16493
615.572	5.10562
618.947	3.86374
622.322	2.81174
625.697	2.24577
629.072	2.21841
632.447	2.54004
635.821	4.74698
639.196	2.34872
642.571	0.485916
645.946	0.522659
649.321	0.255478
652.695	2.82285
656.07	2.69044
659.445	2.12666
662.82	5.2092
666.195	9.09038
669.569	12.6601
672.944	16.1474
676.319	18.0639
679.694	18.7103
683.069	15.7193
686.444	12.4559
689.818	6.35525
693.193	4.05394
696.568	2.82489
699.943	0.387558
703.318	0.057266
706.692	0.258224
710.067	1.1174
713.442	0.357376
716.817	1.45815
720.192	0.822983
723.567	0.429825
726.941	1.25439
730.316	0.873932
733.691	3.79729
737.066	7.51419
740.441	8.85594
743.816	11.471
747.19	15.0557
750.565	19.7428
753.94	22.0425
757.315	24.8474
760.69	23.2035
764.064	20.3112
767.439	17.0439
770.814	12.0666
774.189	10.3406
777.564	6.1983
780.938	3.85055
784.313	2.37932
787.688	0.797073
791.063	1.66608
794.438	1.91171
797.813	0.742188
801.187	3.25246
804.562	6.78239
807.937	11.2884
811.312	20.0148
814.687	28.6284
818.062	32.9762
821.436	38.5061
824.811	40.2958
828.186	42.6335
831.561	45.6585
834.936	47.7804
838.31	46.907
841.685	49.0739
845.06	54.1693
848.435	61.1779
851.81	71.2579
855.184	82.6816
858.559	86.3021
861.934	75.8482
865.309	62.7514
868.684	45.4087
872.059	30.4759
875.433	18.173
878.808	13.1112
882.183	11.3828
885.558	14.5683
888.933	20.9886
892.308	21.9059
895.682	22.0971
899.057	16.2795
902.432	7.63322
905.807	2.26485
909.182	1.54874
912.556	2.67781
915.931	1.09448
919.306	0.687851
922.681	1.76036
926.056	5.27306
929.431	9.3378
932.805	15.4013
936.18	23.4132
939.555	35.8545
942.93	51.8935
946.305	75.0131
949.679	100.537
953.054	124.675
956.429	136.169
959.804	128.597
963.179	114.022
966.553	98.0285
969.928	87.368
973.303	79.6433
976.678	82.5509
980.053	88.9326
983.428	96.2036
986.802	98.5854
990.177	95.8614
993.552	85.0369
996.927	65.4306
1000.3	45.7965
1003.68	29.1847
1007.05	18.3605
1010.43	10.9688
1013.8	3.33574
1017.18	1.73856
1020.55	0.508682
1023.92	2.31741
1027.3	2.23633
1030.67	0.107544
1034.05	3.99289
1037.42	11.3464
1040.8	20.8987
1044.17	33.1544
1047.55	49.7264
1050.92	62.417
1054.3	67.5338
1057.67	55.0915
1061.05	39.6743
1064.42	28.9607
1067.8	22.2324
1071.17	19.4461
1074.55	20.3596
1077.92	24.4097
1081.3	29.654
1084.67	37.2163
1088.05	36.4591
1091.42	37.824
1094.8	46.2662
1098.17	60.9183
1101.55	83.2835
1104.92	103.071
1108.3	111.971
1111.67	95.1407
1115.05	68.7544
1118.42	45.7511
1121.8	31.2146
1125.17	20.772
1128.55	13.4586
1131.92	9.41832
1135.29	7.37032
1138.67	4.55521
1142.04	1.58919
1145.42	1.72017
1148.79	1.33136
1152.17	0.420364
1155.54	0.477814
1158.92	0.759079
1162.29	0.496658
1165.67	0.655884
1169.04	0.025467
1172.42	0.279114
1175.79	1.54124
1179.17	2.5693
1182.54	3.47939
1185.92	2.69064
1189.29	2.60803
1192.67	4.02004
1196.04	3.81487
1199.42	4.49239
1202.79	4.40797
1206.17	3.5509
1209.54	3.57442
1212.91	3.62237
1216.29	3.85474
1219.66	4.24939
1223.04	3.50134
1226.41	3.20282
1229.79	2.89648
1233.16	2.30879
1236.54	1.45659
1239.91	3.59259
1243.29	2.22577
1246.66	2.63696
1250.04	1.59447
1253.41	1.76523
1256.79	1.94049
1260.16	2.03725
1263.54	0.521072
1266.91	1.61186
1270.29	0.791229
1273.66	0.400009
1277.04	0.374527
1280.41	2.01073
1283.79	1.69151
1287.16	2.25929
1290.54	1.78047
1293.91	1.54916
1297.29	0.269821
1300.66	0
