Measurement: Raman, 780 nm, unoriented, Raman Data RAW
Mineral: Rhodostannite
Rruff sample: R120139
Ideal chemistry: Cu^1+^(Fe^2+^_0.5_Sn^4+^_1.5_)S^2-^_4_
Locality: Pirquitas, Jujuy Province, Argentina
Source: Michael Scott
Description: Steel gray metallic massive, associated with pirquitasite, R061016
Measured chemistry: (Cu_1.45_Ag_0.60_)Fe_1.00_Sn_3.02_S_8_
Raman shift (cm-1)	intensity
89.7532	0
93.1281	56.935
96.5029	56.8786
99.8777	54.053
103.252	50.3281
106.627	48.5479
110.002	48.0536
113.377	46.2491
116.752	45.4661
120.127	44.7446
123.501	44.1258
126.876	44.713
130.251	42.7828
133.626	42.4442
137.001	43.0764
140.375	41.9285
143.75	43.0344
147.125	41.9867
150.5	42.5241
153.875	42.6508
157.25	44.1218
160.624	44.2174
163.999	44.4242
167.374	44.5206
170.749	44.3089
174.124	44.0013
177.498	45.7656
180.873	45.5458
184.248	45.5486
187.623	47.5955
190.998	47.5553
194.373	48.6545
197.747	49.484
201.122	50.0677
204.497	49.9465
207.872	48.4489
211.247	46.9795
214.621	44.4921
217.996	43.7959
221.371	43.9738
224.746	43.885
228.121	45.0193
231.495	46.1341
234.87	49.2696
238.245	53.1101
241.62	58.3866
244.995	66.3377
248.369	77.3684
251.744	83.8901
255.119	81.4804
258.494	79.543
261.869	81.8147
265.244	82.6671
268.618	81.9747
271.993	82.028
275.368	83.929
278.743	84.9033
282.118	87.2478
285.493	85.0187
288.867	82.9184
292.242	74.8773
295.617	72.1643
298.992	67.2892
302.366	66.3657
305.741	67.2136
309.116	69.4493
312.491	73.1867
315.866	73.9882
319.241	69.0905
322.615	62.2374
325.99	56.7928
329.365	54.5594
332.74	54.9362
336.115	58.6186
339.49	64.0318
342.864	73.4227
346.239	84.378
349.614	92.4028
352.989	92.0287
356.364	82.5315
359.738	70.4732
363.113	60.69
366.488	51.5652
369.863	46.0701
373.238	41.8918
376.613	38.9345
379.987	36.5065
383.362	34.5144
386.737	33.5614
390.112	31.9736
393.486	31.3085
396.861	30.919
400.236	30.6523
403.611	30.4136
406.986	30.0895
410.361	30.1339
413.735	29.4349
417.11	29.2958
420.485	28.6956
423.86	28.7378
427.235	28.6294
430.61	28.1024
433.984	28.5439
437.359	28.0063
440.734	27.9458
444.109	27.2881
447.484	27.4639
450.858	26.7764
454.233	27.1734
457.608	27.3197
460.983	27.0161
464.358	26.9468
467.733	26.87
471.107	27.4509
474.482	26.6284
477.857	26.8814
481.232	26.1607
484.606	26.1585
487.981	25.9137
491.356	25.9053
494.731	26.5954
498.106	25.4804
501.481	26.423
504.855	26.1058
508.23	26.6291
511.605	25.883
514.98	25.5466
518.355	25.857
521.73	25.962
525.104	26.044
528.479	25.6541
531.854	25.9044
535.229	25.7181
538.604	26.3498
541.978	25.9448
545.353	25.719
548.728	25.4997
552.103	25.9012
555.478	25.4904
558.852	25.7522
562.227	25.4624
565.602	25.9218
568.977	25.2883
572.352	24.6575
575.726	25.1706
579.101	23.997
582.476	24.5125
585.851	23.9946
589.226	24.3704
592.601	23.6642
595.975	23.9888
599.35	22.9
602.725	22.9758
606.1	22.9812
609.475	21.6462
612.85	22.4636
616.224	22.0555
619.599	21.5718
622.974	21.6204
626.349	21.3177
629.723	21.0914
633.098	21.0216
636.473	20.5561
639.848	20.4179
643.223	19.9376
646.598	19.3399
649.972	20.005
653.347	19.3109
656.722	18.6356
660.097	19.5218
663.472	18.5226
666.846	18.3562
670.221	18.6836
673.596	18.0947
676.971	18.1648
680.346	17.7405
683.721	17.4152
687.095	17.9895
690.47	17.2391
693.845	17.5362
697.22	16.6322
700.595	17.0854
703.97	16.3619
707.344	16.795
710.719	16.3828
714.094	16.4543
717.469	16.5689
720.843	16.3626
724.218	16.0642
727.593	15.2012
730.968	15.8065
734.343	15.643
737.718	15.4282
741.092	15.4134
744.467	15.115
747.842	15.16
751.217	14.9313
754.592	15.1551
757.966	15.2882
761.341	14.9739
764.716	14.5154
768.091	14.9807
771.466	14.7442
774.841	14.239
778.215	14.4456
781.59	14.8999
784.965	13.9197
788.34	14.3611
791.715	13.9135
795.089	14.2027
798.464	13.8365
801.839	13.1755
805.214	13.8114
808.589	13.3199
811.963	13.7565
815.338	13.2631
818.713	13.5447
822.088	13.2485
825.463	13.6379
828.838	13.1866
832.212	13.1518
835.587	13.0192
838.962	13.0169
842.337	12.883
845.712	12.9749
849.087	13.1513
852.461	12.8206
855.836	12.5336
859.211	12.9435
862.586	12.4608
865.961	12.6815
869.335	12.607
872.71	12.8994
876.085	12.8305
879.46	12.5692
882.835	12.0087
886.209	12.1355
889.584	12.6678
892.959	12.1539
896.334	11.4605
899.709	12.0307
903.083	12.0864
906.458	11.8018
909.833	11.8284
913.208	11.476
916.583	12.1133
919.958	11.4623
923.332	11.5533
926.707	11.412
930.082	11.8756
933.457	11.7214
936.832	11.223
940.207	11.8841
943.581	11.0379
946.956	12.3933
950.331	11.7477
953.706	11.0367
957.081	11.6199
960.455	11.6204
963.83	11.0561
967.205	10.9672
970.58	11.3707
973.955	11.1612
977.329	11.5767
980.704	10.7618
984.079	11.1172
987.454	10.7181
990.829	11.1104
994.203	10.6132
997.578	10.5266
1000.95	10.5165
1004.33	10.6128
1007.7	10.6964
1011.08	10.3597
1014.45	11.0494
1017.83	10.7059
1021.2	10.2611
1024.58	10.4323
1027.95	10.8146
1031.33	10.0138
1034.7	9.83521
1038.08	10.5485
1041.45	9.79958
1044.83	10.0169
1048.2	9.89538
1051.58	9.74376
1054.95	10.3761
1058.33	10.5721
1061.7	10.1477
1065.08	10.1383
1068.45	10.1285
1071.82	10.1169
1075.2	9.94242
1078.57	9.52032
1081.95	9.91242
1085.32	10.0153
1088.7	9.77714
1092.07	10.3164
1095.45	9.63347
1098.82	9.41423
1102.2	9.59964
1105.57	9.81926
1108.95	9.62969
1112.32	9.48483
1115.7	9.39063
1119.07	9.89301
1122.45	9.42657
1125.82	9.64486
1129.2	9.87445
1132.57	9.0627
1135.95	9.55137
1139.32	9.36186
1142.69	9.37767
1146.07	8.9014
1149.44	9.843
1152.82	9.15066
1156.19	9.29572
1159.57	9.5552
1162.94	9.14438
1166.32	9.75575
1169.69	9.34467
1173.07	9.14886
1176.44	9.26923
1179.82	9.09721
1183.19	9.64755
1186.57	8.93569
1189.94	8.71376
1193.32	9.10987
1196.69	8.79772
1200.07	8.96865
1203.44	9.34674
1206.82	8.49429
1210.19	9.20108
1213.57	8.91086
1216.94	8.84026
1220.32	8.9886
1223.69	8.68839
1227.07	8.92314
1230.44	8.8095
1233.82	8.67743
1237.19	8.92448
1240.57	8.84294
1243.94	9.20841
1247.32	8.81315
1250.69	8.94612
1254.06	8.84989
1257.44	8.99836
1260.81	8.37457
1264.19	8.68482
1267.56	8.98437
1270.94	8.9436
1274.31	8.81862
1277.69	8.89916
1281.06	8.62523
