Measurement: Raman, 780 nm, unoriented, Raman Data RAW
Mineral: Rinkite-(Ce)
Rruff sample: R050229
Ideal chemistry: (Ca_3_Ce^3+^)Na(NaCa)Ti^4+^(Si_2_O_7_)_2_(OF)F_2_
Locality: Kipawa alkaline complex, near Sheffield Lake, Villedieu Township, Temiscamingue County, Quebec, Canada
Source: Marcus Origlieri
Description: Aggregate of coarsely crystalline yellowish-gray crystals associated with red eudialyte R050230
Raman shift (cm-1)	intensity
92.3535	2067.97
95.7283	2182.01
99.1031	2102.57
102.478	2034.42
105.853	2110.67
109.228	2141.5
112.602	2173.29
115.977	2231.76
119.352	2296.15
122.727	2342.14
126.102	2396.36
129.476	2429.53
132.851	2513.63
136.226	2558.85
139.601	2628.97
142.976	2697.78
146.351	2806.71
149.725	2894.42
153.1	2949.73
156.475	3074.17
159.85	3118.85
163.225	3231.75
166.6	3342.83
169.974	3449.61
173.349	3532.61
176.724	3692.19
180.099	3786.59
183.474	3917.61
186.848	4021.36
190.223	4052.18
193.598	4117.96
196.973	4241.87
200.348	4246.67
203.722	4332.98
207.097	4355.39
210.472	4368.41
213.847	4439.49
217.222	4496.72
220.596	4441.34
223.971	4558.25
227.346	4613.75
230.721	4665.89
234.096	4709.08
237.471	4760.76
240.845	4828.49
244.22	4894.21
247.595	4957.9
250.97	4916.72
254.345	5028.45
257.719	5002.56
261.094	5032.87
264.469	5047.7
267.844	5101.09
271.219	5099.34
274.594	5084.54
277.968	5152.42
281.343	5178.12
284.718	5283.24
288.093	5334.6
291.468	5424.19
294.842	5536.17
298.217	5619.46
301.592	5753.87
304.967	5808.82
308.342	5924.87
311.717	5948.58
315.091	6038.77
318.466	6134.09
321.841	6129.39
325.216	6219.49
328.591	6166.2
331.966	6177.84
335.34	6219.68
338.715	6402.48
342.09	6429.01
345.465	6674.34
348.839	6930.3
352.214	7165.25
355.589	7574.48
358.964	7928.9
362.339	8316.92
365.714	8804.32
369.088	9326
372.463	9834.08
375.838	10329.8
379.213	10585.3
382.588	10975.2
385.962	11175.8
389.337	11418.4
392.712	11505.2
396.087	11522.5
399.462	11506.9
402.837	11370.4
406.211	11101.7
409.586	10806.8
412.961	10411.9
416.336	9979.46
419.711	9453.68
423.086	9012.97
426.46	8588.4
429.835	8195.24
433.21	7840.93
436.585	7590.99
439.96	7401.58
443.334	7167.06
446.709	7118.6
450.084	7005.53
453.459	6984.27
456.834	6908.79
460.209	6876.49
463.583	6891.63
466.958	6944.89
470.333	6954.09
473.708	7001.47
477.083	6997.16
480.457	7047.94
483.832	7118.14
487.207	7138.99
490.582	7139.1
493.957	7083.38
497.332	7014.28
500.706	6966.62
504.081	6837.72
507.456	6671.6
510.831	6545.38
514.206	6305.5
517.58	6123.35
520.955	5966.25
524.33	5757.39
527.705	5647.64
531.08	5468.13
534.455	5269.65
537.829	5104.85
541.204	4952.28
544.579	4839.4
547.954	4683.88
551.329	4558.2
554.703	4468.24
558.078	4383.64
561.453	4290.29
564.828	4261.13
568.203	4205.78
571.577	4099.78
574.952	4022.38
578.327	3941.66
581.702	3894.01
585.077	3829.58
588.452	3780.47
591.826	3703.26
595.201	3650.31
598.576	3608.13
601.951	3567.27
605.326	3553.4
608.7	3453.3
612.075	3426.83
615.45	3332.28
618.825	3299.76
622.2	3253.14
625.574	3187.74
628.949	3181.83
632.324	3042.91
635.699	3057.26
639.074	3006.2
642.448	2934.01
645.823	2913.17
649.198	2887.08
652.573	2786.11
655.948	2781.49
659.323	2731
662.697	2688.25
666.072	2649.16
669.447	2587.49
672.822	2571.61
676.197	2493.17
679.572	2482.99
682.946	2453.94
686.321	2365.26
689.696	2355.89
693.071	2285.44
696.446	2272.44
699.82	2246.55
703.195	2228.05
706.57	2212.83
709.945	2160.33
713.32	2157.85
716.694	2157.15
720.069	2112.82
723.444	2119.51
726.819	2105.69
730.194	2110.48
733.569	2054.33
736.943	2086.08
740.318	2098.88
743.693	2065.76
747.068	2060.22
750.443	2050.22
753.817	2070.62
757.192	2051.7
760.567	2067.14
763.942	2043.02
767.317	2036.75
770.692	2029.16
774.066	2076.83
777.441	2043.29
780.816	2041.43
784.191	2057.32
787.566	2085.85
790.941	2128.76
794.315	2105.68
797.69	2161.55
801.065	2168.91
804.44	2157.05
807.815	2201.86
811.189	2234.49
814.564	2252.53
817.939	2266.68
821.314	2313.38
824.689	2351.1
828.063	2385.56
831.438	2428.1
834.813	2439.78
838.188	2457.48
841.563	2458.85
844.938	2458.39
848.312	2476.47
851.687	2462.08
855.062	2433.77
858.437	2413.56
861.812	2360.83
865.187	2360.9
868.561	2300.23
871.936	2306.09
875.311	2272.33
878.686	2229.08
882.061	2220.82
885.435	2207.67
888.81	2184.43
892.185	2204.71
895.56	2202.6
898.935	2208.37
902.309	2194.94
905.684	2221.34
909.059	2242.17
912.434	2275.09
915.809	2274.49
919.183	2322.18
922.558	2315.41
925.933	2352.64
929.308	2360.95
932.683	2410.69
936.058	2413.42
939.432	2430.28
942.807	2487.28
946.182	2495.25
949.557	2531.91
952.932	2572.24
956.307	2614.45
959.681	2624.53
963.056	2657.63
966.431	2636.06
969.806	2722.09
973.181	2692.38
976.555	2770.27
979.93	2778.29
983.305	2763.22
986.68	2818.03
990.055	2888.86
993.429	2919.17
996.804	2905.4
1000.18	3005.23
1003.55	3073.73
1006.93	3144.16
1010.3	3272.5
1013.68	3316.24
1017.05	3418.45
1020.43	3539.91
1023.8	3652.94
1027.18	3766.18
1030.55	3829.46
1033.93	4019.89
1037.3	4095.59
1040.68	4273.41
1044.05	4403.54
1047.43	4514.91
1050.8	4637.33
1054.18	4784.11
1057.55	4900.85
1060.93	5012.23
1064.3	5074.53
1067.67	5158.22
1071.05	5250.23
1074.42	5359.99
1077.8	5440.53
1081.17	5471.52
1084.55	5653.59
1087.92	5789.84
1091.3	5909.01
1094.67	6163.67
1098.05	6309.7
1101.42	6507.12
1104.8	6701.88
1108.17	6956.53
1111.55	7180.85
1114.92	7508.12
1118.3	7818.55
1121.67	8164.15
1125.05	8554.53
1128.42	8848.69
1131.8	9278.84
1135.17	9784.08
1138.55	10264.4
1141.92	10872.6
1145.3	11501.7
1148.67	12108.1
1152.05	12799.5
1155.42	13571.4
1158.8	14292.5
1162.17	15137
1165.55	16038.8
1168.92	16976.4
1172.3	18050.7
1175.67	19266.4
1179.04	20440.9
1182.42	21833.3
1185.79	23267.3
1189.17	24824.7
1192.54	26461.9
1195.92	27986.6
1199.29	29520.1
1202.67	31327.8
1206.04	32981.7
1209.42	34827
1212.79	36768.9
1216.17	38715
1219.54	40622.5
1222.92	42629
1226.29	44493.3
1229.67	46517.4
1233.04	48093.2
1236.42	49793.8
1239.79	51215.8
1243.17	52544.8
1246.54	53790.8
1249.92	54919
1253.29	56000.2
1256.66	57131.7
1260.04	57994
1263.41	58594.4
1266.79	58932.9
1270.16	59097.3
1273.54	59127.2
1276.91	58468
1280.29	58744
1283.66	58832
