Measurement: Raman, 780 nm, unoriented, Raman Data Processed
Mineral: Rodalquilarite
Rruff sample: R130549
Ideal chemistry: H_3_Fe^3+^_2_(Te^4+^O_3_)_4_Cl
Locality: Tombstone, Cochise County, Arizona
Source: Bob Jenkins
Description: Aggregates of grass-green to yellow-green stout crystals with good cleavage, associated with quartz and calcite
Raman shift (cm-1)	intensity
118.438	0
121.813	108.127
125.187	182.724
128.562	404.076
131.937	838.515
135.312	1580.34
138.687	3234.72
142.061	3411.19
145.436	683.232
148.811	67.491
152.186	23.5047
155.561	37.2387
158.936	38.0109
162.31	15.0023
165.685	97.2668
169.06	333.21
172.435	661.639
175.81	1000.46
179.185	1029.59
182.559	980.458
185.934	1255.63
189.309	1337.67
192.684	861.73
196.059	593.102
199.433	616.673
202.808	466.878
206.183	386.416
209.558	410.969
212.933	183.184
216.308	12.6922
219.682	12.652
223.057	27.964
226.432	76.603
229.807	136.143
233.182	136.329
236.556	49.2427
239.931	22.4748
243.306	13.7932
246.681	39.6591
250.056	77.9779
253.43	110.041
256.805	170.999
260.18	181.42
263.555	183.377
266.93	304.825
270.305	527.49
273.679	701.212
277.054	642.362
280.429	407.944
283.804	156.798
287.179	40.2177
290.553	16.6448
293.928	55.423
297.303	117.817
300.678	235.944
304.053	466.934
307.428	795.636
310.802	1135.62
314.177	1184.16
317.552	1118.01
320.927	1048.39
324.302	878.529
327.676	659.024
331.051	485.197
334.426	417.211
337.801	494.114
341.176	691.757
344.551	688.71
347.925	332.702
351.3	70.4747
354.675	25.9055
358.05	52.4812
361.425	36.9954
364.8	5.41925
368.174	48.7801
371.549	113.726
374.924	186.355
378.299	287.856
381.674	419.735
385.048	616.111
388.423	860.18
391.798	1169.34
395.173	1428.63
398.548	1574.1
401.923	1571.26
405.297	1512.25
408.672	1466.29
412.047	1300.88
415.422	946.207
418.796	625.138
422.171	443.637
425.546	387.705
428.921	424.031
432.296	516.195
435.671	661.546
439.045	796.765
442.42	877.598
445.795	888.048
449.17	827.26
452.545	725.306
455.92	624.934
459.294	553.262
462.669	518.739
466.044	538.645
469.419	575.804
472.794	533.917
476.168	417.179
479.543	296.864
482.918	207.127
486.293	146.677
489.668	100.854
493.043	65.8027
496.417	38.1331
499.792	16.6123
503.167	11.1393
506.542	3.87216
509.917	8.07608
513.291	6.41092
516.666	7.73911
520.041	12.0143
523.416	11.7253
526.791	11.5187
530.165	3.66644
533.54	6.461
536.915	1.80066
540.29	1.67709
543.665	0.602173
547.04	0.55838
550.414	3.19138
553.789	3.28482
557.164	6.95969
560.539	7.22525
563.914	10.4754
567.288	12.1137
570.663	13.2833
574.038	12.2657
577.413	15.079
580.788	23.0038
584.163	31.7547
587.537	58.7824
590.912	105.432
594.287	193.941
597.662	317.864
601.037	490.408
604.412	752.389
607.786	1111.56
611.161	1251.95
614.536	929.69
617.911	630.307
621.286	541.391
624.66	597.357
628.035	737.625
631.41	953.283
634.785	1205.61
638.16	1454.37
641.534	1599.91
644.909	1629.17
648.284	1605.97
651.659	1607.2
655.034	1635.13
658.409	1571.24
661.783	1361.8
665.158	1096.23
668.533	873.474
671.908	710.663
675.283	560.993
678.658	434.591
682.032	306.977
685.407	189.25
688.782	99.9715
692.157	43.123
695.532	8.61328
698.906	16.1183
702.281	22.1799
705.656	22.5792
709.031	4.33533
712.406	16.7366
715.78	43.2797
719.155	72.8979
722.53	92.9724
725.905	104.149
729.28	99.5923
732.654	93.5834
736.029	99.696
739.404	128.656
742.779	170.2
746.154	222.253
749.529	277.459
752.903	326.838
756.278	378.458
759.653	429.861
763.028	458.735
766.403	468.407
769.778	482.071
773.152	524.362
776.527	586.131
779.902	635.391
783.277	647.289
786.652	603.588
790.026	503.389
793.401	372.447
796.776	260.264
800.151	185.307
803.526	132.339
806.9	86.4651
810.275	56.1578
813.65	33.2019
817.025	18.1873
820.4	6.01627
823.775	1.94034
827.149	0.005066
830.524	3.29077
833.899	3.65506
837.274	3.16153
840.649	3.44546
844.024	2.354
847.398	0.729095
850.773	3.5719
854.148	2.68982
857.523	5.63504
860.898	6.24591
864.272	9.67313
867.647	8.78378
871.022	13.5023
874.397	15.2391
877.772	12.6599
881.146	13.5856
884.521	17.4086
887.896	18.2434
891.271	15.3285
894.646	15.3359
898.021	15.1145
901.395	9.29233
904.77	9.74731
908.145	9.94818
911.52	8.8718
914.895	4.77701
918.269	5.85297
921.644	5.37341
925.019	4.00287
928.394	4.97672
931.769	3.29983
935.144	2.61447
938.518	2.21728
941.893	1.06641
945.268	0.642914
948.643	0.26123
952.018	0.658905
955.393	0.940033
958.767	1.55832
962.142	1.11438
965.517	1.21005
968.892	1.62585
972.266	0.976624
975.641	1.0451
979.016	0.878204
982.391	0.133484
985.766	0.089813
989.141	1.0444
992.515	0.259094
995.89	0.70166
999.265	0.472534
1002.64	0.17218
1006.01	2.3128
1009.39	4.57504
1012.76	9.20413
1016.14	13.6451
1019.51	19.8893
1022.89	18.7718
1026.26	11.8328
1029.64	4.92764
1033.01	4.31525
1036.39	1.10205
1039.76	1.71115
1043.14	0.66806
1046.51	0.86322
1049.89	0.92157
1053.26	1.67481
1056.64	0.531586
1060.01	0.28241
1063.39	2.33585
1066.76	1.93622
1070.14	1.61688
1073.51	2.4989
1076.89	3.99976
1080.26	1.71512
1083.63	3.25018
1087.01	1.02393
1090.38	1.06186
1093.76	1.40607
1097.13	1.57495
1100.51	0.193024
1103.88	9.08533
1107.26	0.983551
1110.63	3.74356
1114.01	1.53744
1117.38	1.70886
1120.76	7.99252
1124.13	3.68973
1127.51	2.44733
1130.88	2.14551
1134.26	0.617249
1137.63	3.3685
1141.01	1.27176
1144.38	0.640594
1147.76	3.46018
1151.13	4.84979
1154.51	0.090881
1157.88	2.44009
1161.26	0.911438
1164.63	4.63681
1168.01	3.96018
1171.38	4.70532
1174.76	4.70157
1178.13	3.07523
1181.51	6.44888
1184.88	7.89154
1188.26	6.01004
1191.63	5.7486
1195.01	11.3076
1198.38	14.0181
1201.75	19.9808
1205.13	28.1641
1208.5	31.8331
1211.88	26.637
1215.25	21.9435
1218.63	21.5269
1222	17.4334
1225.38	18.0183
1228.75	18.9232
1232.13	17.9296
1235.5	17.878
1238.88	14.2752
1242.25	14.0085
1245.63	12.6785
1249	9.04102
1252.38	9.64453
1255.75	6.35922
1259.13	7.33633
1262.5	2.24173
1265.88	3.25647
1269.25	0.851898
1272.62	0.058289
1276	1.35425
1279.38	0.710785
