Measurement: Raman, 532 nm, unoriented, Raman Data Processed
Mineral: Rodalquilarite
Rruff sample: R130549
Ideal chemistry: H_3_Fe^3+^_2_(Te^4+^O_3_)_4_Cl
Locality: Tombstone, Cochise County, Arizona
Source: Bob Jenkins
Description: Aggregates of grass-green to yellow-green stout crystals with good cleavage, associated with quartz and calcite
Raman shift (cm-1)	intensity
118.992	0
122.367	349.882
125.742	1341.01
129.117	2183.47
132.492	3632.39
135.866	6757.73
139.241	13265.8
142.616	11660.7
145.991	2255.31
149.365	219.087
152.74	39.7139
156.115	36.01
159.49	44.6616
162.865	287.829
166.24	813.741
169.614	1783.63
172.989	3249.38
176.364	4722.31
179.739	4558.61
183.114	4177.95
186.488	5067.52
189.863	5103.18
193.238	3325.33
196.613	2616.81
199.988	2666.87
203.363	1943.92
206.737	1674.72
210.112	1688.45
213.487	625.178
216.862	0.337402
220.237	9.00073
223.612	163.752
226.986	362.398
230.361	626.25
233.736	622.374
237.111	219.349
240.486	91.6453
243.86	98.6655
247.235	25.1213
250.61	159.447
253.985	405.185
257.36	744.621
260.735	822.093
264.109	875.919
267.484	1322.64
270.859	2031.26
274.234	2528.22
277.609	2314.21
280.983	1454.18
284.358	500.57
287.733	115.301
291.108	114.731
294.483	396.408
297.858	898.976
301.232	1648.74
304.607	2934.96
307.982	4810.51
311.357	6331.84
314.732	6165.54
318.106	5616.7
321.481	5040.9
324.856	4010.02
328.231	3032.99
331.606	2432.51
334.981	2372.69
338.355	3024.89
341.73	4021.5
345.105	3717.3
348.48	1710.82
351.855	412.785
355.229	72.1746
358.604	206.328
361.979	192.788
365.354	62.2869
368.729	142.664
372.103	422.833
375.478	786.398
378.853	1305.99
382.228	2080.76
385.603	3156.12
388.978	4502.92
392.352	6043.82
395.727	7535.88
399.102	8475.75
402.477	8725.89
405.852	8848.27
409.226	8908.63
412.601	7793.3
415.976	5339.11
419.351	3293.59
422.726	2220.27
426.101	1866.16
429.475	1954.48
432.85	2356.3
436.225	2925.07
439.6	3465.9
442.975	3811.7
446.349	3900.46
449.724	3626.38
453.099	3178.72
456.474	2841.27
459.849	2651.82
463.224	2674.08
466.598	2891.76
469.973	3088.26
473.348	2781.43
476.723	2065.93
480.098	1428.63
483.473	994.975
486.847	699.457
490.222	480.453
493.597	313.578
496.972	189.001
500.347	86.2162
503.721	31.5096
507.096	5.16858
510.471	27.3829
513.846	43.2913
517.221	44.8434
520.596	44.5945
523.97	46.5692
527.345	40.4242
530.72	33.4104
534.095	25.4341
537.47	29.015
540.844	22.5021
544.219	14.9523
547.594	12.6188
550.969	1.56189
554.344	9.97302
557.718	24.818
561.093	39.0902
564.468	52.6356
567.843	62.8055
571.218	80.028
574.592	94.8958
577.967	125.772
581.342	178.142
584.717	287.326
588.092	466.176
591.467	803.553
594.841	1429.33
598.216	2474.3
601.591	3908.3
604.966	5831.96
608.341	7716.6
611.716	7861.65
615.09	5608.41
618.465	4029.91
621.84	3784.92
625.215	4396.1
628.59	5585.03
631.964	7220.58
635.339	9004.7
638.714	10486.3
642.089	11164.7
645.464	11080.7
648.838	10821.2
652.213	10767.4
655.588	10659.5
658.963	9902.44
662.338	8336.32
665.713	6603.26
669.087	5256.23
672.462	4195.57
675.837	3295.73
679.212	2480.19
682.587	1713.4
685.962	1066.05
689.336	578.533
692.711	267.271
696.086	61.4268
699.461	56.4351
702.836	112.922
706.21	114.837
709.585	66.5178
712.96	24.9222
716.335	140.997
719.71	273.433
723.085	381.554
726.459	455.822
729.834	493.665
733.209	562.179
736.584	677.295
739.959	837.796
743.333	1038.54
746.708	1225.21
750.083	1412.7
753.458	1545.82
756.833	1637.91
760.207	1664.77
763.582	1612.39
766.957	1499.77
770.332	1413.14
773.707	1433.57
777.082	1503.88
780.456	1602.49
783.831	1639.4
787.206	1566.5
790.581	1325.12
793.956	986.084
797.33	712.929
800.705	510.353
804.08	364.255
807.455	238.046
810.83	145.523
814.205	74.3906
817.579	29.301
820.954	4.10364
824.329	9.07703
827.704	16.5331
831.079	15.1036
834.453	12.8723
837.828	11.3941
841.203	0.064026
844.578	7.04016
847.953	12.8018
851.328	27.1913
854.702	35.7436
858.077	41.6561
861.452	51.857
864.827	67.4519
868.202	76.8337
871.577	86.1728
874.951	91.6168
878.326	98.3757
881.701	103.139
885.076	99.219
888.451	91.3257
891.825	82.5657
895.2	74.1682
898.575	69.9684
901.95	61.7422
905.325	56.0446
908.699	48.6873
912.074	44.2144
915.449	38.5975
918.824	32.5876
922.199	35.872
925.573	26.6874
928.948	19.4705
932.323	16.1543
935.698	14.4239
939.073	11.7018
942.448	10.614
945.822	5.33664
949.197	0.531677
952.572	2.11008
955.947	3.8681
959.322	3.38794
962.697	4.76117
966.071	3.59201
969.446	1.96725
972.821	4.63797
976.196	4.3425
979.571	13.176
982.945	4.39932
986.32	0.786499
989.695	0.930359
993.07	0.467682
996.445	1.74625
999.819	3.37704
1003.19	2.50638
1006.57	5.96173
1009.94	17.2611
1013.32	34.7817
1016.69	53.6975
1020.07	63.7788
1023.44	54.0673
1026.82	24.2367
1030.19	5.75552
1033.57	0.613647
1036.94	0.842316
1040.32	0.50943
1043.69	0.685242
1047.07	0.253998
1050.44	1.43848
1053.82	1.52686
1057.19	1.89188
1060.57	0.664734
1063.94	1.31458
1067.32	0.354401
1070.69	0.10434
1074.07	2.8754
1077.44	1.59314
1080.82	0.280518
1084.19	0.45459
1087.57	0.710785
1090.94	2.29282
1094.31	2.96069
1097.69	4.98181
1101.06	5.2908
1104.44	7.11496
1107.81	8.36624
1111.19	7.90073
1114.56	10.1502
1117.94	10.2627
1121.31	10.3908
1124.69	10.8722
1128.06	10.6467
1131.44	6.52945
1134.81	7.67316
1138.19	10.0241
1141.56	9.0058
1144.94	11.3297
1148.31	12.2185
1151.69	16.1724
1155.06	14.0589
1158.44	15.8989
1161.81	20.4316
1165.19	26.7034
1168.56	27.2966
1171.93	27.6204
1175.31	31.6133
1178.68	33.2262
1182.06	39.1257
1185.43	39.0839
1188.81	46.8354
1192.18	56.546
1195.56	74.5416
1198.93	105.076
1202.31	158.827
1205.68	214.42
1209.06	233.999
1212.43	165.024
1215.81	94.2358
1219.18	54.412
1222.56	31.7946
1225.93	19.4975
1229.31	13.595
1232.68	8.30188
1236.06	5.05664
1239.43	1.29886
1242.81	1.6463
1246.18	2.44174
1249.56	0.456818
1252.93	0.849792
1256.31	0.780273
1259.68	1.7348
1263.06	0.602325
1266.43	1.41638
1269.81	0.489075
1273.18	3.6955
1276.56	3.42053
1279.93	5.17172
1283.3	5.78375
1286.68	7.71619
1290.05	3.11005
1293.43	4.9801
1296.8	2.3317
1300.18	0.701691
