Measurement: Raman, 780 nm, unoriented, Raman Data Processed
Mineral: Roedderite
Rruff sample: R141093
Ideal chemistry: KNaMg_2_(Mg_3_Si_12_)O_30_
Locality: Emmelberg, Üdersdorf, Eifel, Germany
Source: Ch. and H. Schäfer
Description: Short prismatic hexagonal colorless to pale yellow crystals.
Raman shift (cm-1)	intensity
91.5599	0
94.9347	118.964
98.3096	85.9531
101.684	64.2283
105.059	46.6438
108.434	47.1941
111.809	33.9926
115.184	39.5018
118.558	34.9878
121.933	12.6594
125.308	10.6925
128.683	0.068481
132.058	1.84302
135.433	4.17175
138.807	3.39844
142.182	0.631226
145.557	3.16357
148.932	1.68054
152.307	4.45532
155.681	4.94702
159.056	2.3512
162.431	3.83972
165.806	1.98694
169.181	1.19824
172.555	3.30603
175.93	6.52649
179.305	15.949
182.68	16.962
186.055	14.1471
189.43	13.1749
192.804	14.7784
196.179	13.8624
199.554	20.7845
202.929	18.7576
206.304	18.8361
209.678	13.887
213.053	10.5099
216.428	6.12354
219.803	8.53894
223.178	7.62695
226.553	3.08093
229.927	4.46668
233.302	3.59546
236.677	5.1001
240.052	5.953
243.427	14.0553
246.801	18.1047
250.176	30.7173
253.551	38.8777
256.926	46.8763
260.301	51.3363
263.675	58.5497
267.05	67.1583
270.425	91.9635
273.8	121.398
277.175	113.706
280.55	70.7118
283.924	40.244
287.299	22.5685
290.674	14.5161
294.049	6.93213
297.424	5.93189
300.798	0.429443
304.173	1.31689
307.548	2.14136
310.923	3.5708
314.298	4.92444
317.673	9.50464
321.047	12.088
324.422	19.3497
327.797	22.8029
331.172	22.6777
334.547	25.6254
337.921	26.3709
341.296	21.9248
344.671	23.2562
348.046	23.0377
351.421	17.2654
354.796	22.0941
358.17	24.9277
361.545	23.2549
364.92	27.7588
368.295	28.8712
371.67	27.473
375.044	27.1018
378.419	32.6009
381.794	42.493
385.169	38.4036
388.544	26.1434
391.918	17.9503
395.293	9.96777
398.668	7.35547
402.043	1.56665
405.418	0.532715
408.793	0.296875
412.167	2.8407
415.542	2.92297
418.917	0.958374
422.292	5.30505
425.667	3.73059
429.041	6.87476
432.416	11.5624
435.791	11.955
439.166	16.9106
442.541	23.7244
445.915	25.7339
449.29	34.5265
452.665	45.2377
456.04	58.0023
459.415	73.0927
462.789	88.6919
466.164	112.731
469.539	123.721
472.914	86.9087
476.289	44.5409
479.664	14.1406
483.038	3.62708
486.413	4.80078
489.788	1.3595
493.163	1.68054
496.538	6.69421
499.913	10.1265
503.287	18.4686
506.662	24.9963
510.037	30.6843
513.412	28.1631
516.787	20.8247
520.161	9.76502
523.536	2.93872
526.911	2.24805
530.286	3.89307
533.661	0.198608
537.035	4.14062
540.41	5.1554
543.785	4.74439
547.16	4.09485
550.535	7.20801
553.909	9.979
557.284	11.4293
560.659	15.8359
564.034	18.9905
567.409	27.7518
570.784	23.3619
574.158	13.0756
577.533	9.44226
580.908	7.12634
584.283	1.65601
587.658	1.74365
591.033	0.116211
594.407	1.45117
597.782	3.43616
601.157	6.15576
604.532	6.29907
607.907	3.70337
611.281	6.82141
614.656	3.80298
618.031	4.17419
621.406	5.22693
624.781	7.08362
628.155	6.57959
631.53	8.08166
634.905	12.0095
638.28	11.0221
641.655	14.2601
645.029	13.6819
648.404	8.60754
651.779	9.88269
655.154	5.7749
658.529	12.748
661.904	11.4438
665.278	14.9168
668.653	17.8175
672.028	17.8826
675.403	17.6361
678.778	12.498
682.153	8.63989
685.527	3.77783
688.902	3.74866
692.277	6.12439
695.652	1.172
699.027	3.97864
702.401	0.688599
705.776	1.48853
709.151	3.11743
712.526	5.58289
715.901	4.45227
719.275	3.66101
722.65	1.8811
726.025	1.07642
729.4	3.40723
732.775	7.55957
736.149	8.43372
739.524	5.3894
742.899	2.9137
746.274	4.88367
749.649	6.19348
753.024	8.01623
756.398	7.24451
759.773	0.499878
763.148	4.85754
766.523	5.46912
769.898	4.6875
773.273	2.76941
776.647	4.85327
780.022	1.82825
783.397	1.20789
786.772	0.727905
790.146	0.616577
793.521	0.973633
796.896	2.5061
800.271	0.364014
803.646	0.69397
807.021	7.16418
810.395	8.03674
813.77	0.184692
817.145	6.06958
820.52	9.62244
823.895	13.4563
827.269	9.52637
830.644	4.31738
834.019	5.17786
837.394	6.36426
840.769	3.5321
844.144	6.52832
847.518	5.65674
850.893	7.27954
854.268	7.59863
857.643	4.0708
861.018	5.94031
864.393	8.24072
867.767	7.79394
871.142	11.3683
874.517	9.79236
877.892	5.17786
881.266	5.6449
884.641	8.37195
888.016	4.28833
891.391	9.75024
894.766	6.69739
898.141	3.4187
901.515	2.38049
904.89	2.07165
908.265	2.98047
911.64	3.06238
915.015	0.765625
918.389	2.06091
921.764	2.18958
925.139	2.0697
928.514	1.74976
931.889	2.85461
935.264	2.59558
938.638	3.39099
942.013	3.54773
945.388	5.60791
948.763	3.04065
952.138	7.14233
955.512	12.4907
958.887	9.63293
962.262	9.41711
965.637	11.9434
969.012	7.5481
972.386	6.05713
975.761	3.86523
979.136	4.39356
982.511	4.89661
985.886	3.0354
989.261	3.55908
992.635	1.84753
996.01	1.40796
999.385	4.45496
1002.76	4.95654
1006.13	5.77112
1009.51	5.66785
1012.88	1.65002
1016.26	5.13635
1019.63	0.066895
1023.01	0.077393
1026.38	1.50012
1029.76	1.61768
1033.13	1.66797
1036.51	5.44482
1039.88	7.79382
1043.26	5.06873
1046.63	3.56653
1050.01	5.29199
1053.38	5.54431
1056.76	4.33447
1060.13	6.14844
1063.51	5.89392
1066.88	0.948364
1070.26	1.04797
1073.63	0.615845
1077.01	0.13916
1080.38	0.249878
1083.76	2.73779
1087.13	2.80518
1090.51	5.32385
1093.88	2.578
1097.26	0.210938
1100.63	5.51575
1104	11.6461
1107.38	18.4458
1110.75	25.396
1114.13	33.2701
1117.5	45.704
1120.88	56.6576
1124.25	57.8899
1127.63	43.2512
1131	32.9539
1134.38	24.6344
1137.75	18.7583
1141.13	18.9669
1144.5	18.7673
1147.88	18.9811
1151.25	18.6597
1154.63	22.6766
1158	19.7642
1161.38	21.9831
1164.75	23.7246
1168.13	30.3917
1171.5	29.0366
1174.88	31.8722
1178.25	35.5851
1181.62	39.1182
1185	35.3948
1188.38	34.5562
1191.75	38.2305
1195.12	39.4941
1198.5	40.6898
1201.87	35.2988
1205.25	36.9115
1208.62	28.1134
1212	26.3945
1215.37	20.1179
1218.75	11.4203
1222.12	3.96948
1225.5	0.864014
1228.87	1.80164
1232.25	3.4331
1235.62	3.58618
1239	1.52661
1242.37	1.30725
1245.75	7.51318
1249.12	12.2803
1252.5	12.7399
1255.87	25.2969
1259.25	20.9093
1262.62	19.7416
1265.99	19.8273
1269.37	13.868
1272.74	9.61304
1276.12	5.60034
1279.49	4.19873
1282.87	0.075073
