Measurement: Raman, 532 nm, unoriented, Raman Data Processed
Mineral: Roedderite
Rruff sample: R141093
Ideal chemistry: KNaMg_2_(Mg_3_Si_12_)O_30_
Locality: Emmelberg, Üdersdorf, Eifel, Germany
Source: Ch. and H. Schäfer
Description: Short prismatic hexagonal colorless to pale yellow crystals.
Raman shift (cm-1)	intensity
89.7832	0
93.158	35.8908
96.5328	57.4808
99.9077	48.1697
103.282	14.9851
106.657	0.697845
110.032	29.1642
113.407	37.3514
116.782	66.1714
120.157	59.6442
123.531	24.7088
126.906	17.8334
130.281	5.69284
133.656	5.95731
137.031	0.718155
140.405	0.382919
143.78	0.716721
147.155	4.22302
150.53	0.146866
153.905	5.34576
157.28	14.401
160.654	21.2742
164.029	19.867
167.404	12.945
170.779	13.9736
174.154	17.9361
177.528	24.1941
180.903	30.6814
184.278	18.8545
187.653	15.874
191.028	17.3209
194.403	17.4952
197.777	18.7154
201.152	23.7857
204.527	23.4586
207.902	19.2716
211.277	13.215
214.651	5.84479
218.026	5.30635
221.401	4.36562
224.776	4.70453
228.151	5.12718
231.525	3.00182
234.9	1.88319
238.275	6.78612
241.65	16.1777
245.025	28.175
248.4	42.1311
251.774	67.3737
255.149	99.3899
258.524	123.754
261.899	133.887
265.274	156.61
268.649	209.995
272.023	307.646
275.398	402.753
278.773	337.967
282.148	204.238
285.523	123.286
288.897	77.7284
292.272	50.9329
295.647	34.1699
299.022	23.1153
302.397	12.334
305.772	7.31406
309.146	2.34021
312.521	1.05978
315.896	0.751465
319.271	2.21469
322.646	0.384094
326.02	2.50714
329.395	3.40344
332.77	5.40375
336.145	7.32608
339.52	6.67154
342.894	5.87872
346.269	3.03989
349.644	0.071533
353.019	0.080139
356.394	1.88355
359.769	1.22778
363.143	2.64871
366.518	6.2619
369.893	12.2381
373.268	20.5961
376.643	35.5766
380.017	65.1615
383.392	97.5008
386.767	78.6293
390.142	33.6135
393.517	14.0074
396.892	6.62891
400.266	3.49875
403.641	4.22519
407.016	3.56415
410.391	0.678284
413.766	0.997681
417.14	0.694031
420.515	1.22436
423.89	2.13074
427.265	1.18283
430.64	8.35684
434.014	18.2134
437.389	27.407
440.764	42.28
444.139	46.2814
447.514	55.6349
450.889	75.1802
454.263	102.597
457.638	144.413
461.013	196.329
464.388	284.212
467.763	380.882
471.137	377.891
474.512	208.678
477.887	85.0093
481.262	32.3309
484.637	8.54459
488.012	0.014221
491.386	0.376465
494.761	3.52435
498.136	10.2967
501.511	23.2338
504.886	41.1331
508.26	64.6256
511.635	83.6299
515.01	73.5977
518.385	44.6186
521.76	26.2541
525.135	17.161
528.509	10.5574
531.884	10.5988
535.259	10.0131
538.634	10.2899
542.009	11.8229
545.384	12.88
548.758	12.6784
552.133	14.4104
555.508	19.9028
558.883	30.0642
562.258	49.1324
565.632	78.6934
569.007	96.5821
572.382	62.9332
575.757	25.143
579.132	10.1641
582.506	3.29797
585.881	0.52832
589.256	1.34387
592.631	0.661591
596.006	1.04974
599.381	1.9505
602.755	0.249298
606.13	1.7009
609.505	2.67123
612.88	2.88565
616.255	0.71286
619.63	0.229004
623.004	3.4726
626.379	5.23203
629.754	9.68365
633.129	13.5623
636.504	20.3112
639.878	26.5037
643.253	26.135
646.628	23.3292
650.003	21.1642
653.378	22.0216
656.752	22.6157
660.127	24.7873
663.502	24.4084
666.877	27.3981
670.252	27.3685
673.626	24.7132
677.001	19.7447
680.376	13.5089
683.751	10.8339
687.126	6.19672
690.501	5.77768
693.875	4.66312
697.25	2.99179
700.625	1.96448
704	0.151215
707.375	1.73975
710.75	0.207611
714.124	0.181519
717.499	0.709778
720.874	0.381134
724.249	1.53796
727.624	2.29834
730.998	0.497131
734.373	0.664307
737.748	1.69019
741.123	2.38818
744.498	3.96161
747.872	5.57324
751.247	10.5429
754.622	13.3182
757.997	14.269
761.372	16.4579
764.747	13.3665
768.121	10.8734
771.496	5.70306
774.871	4.85931
778.246	6.12189
781.621	0.111511
784.995	3.25061
788.37	0.727539
791.745	1.16827
795.12	0.940735
798.495	0.173828
801.87	3.21948
805.244	4.85413
808.619	4.69739
811.994	7.13806
815.369	8.58136
818.744	18.0604
822.119	26.6533
825.493	33.1203
828.868	19.1504
832.243	7.49872
835.618	1.42828
838.993	1.00818
842.367	3.45398
845.742	2.64362
849.117	2.66217
852.492	4.23883
855.867	4.92035
859.241	6.09467
862.616	7.98132
865.991	8.41321
869.366	7.0849
872.741	8.5141
876.115	5.27722
879.49	6.79584
882.865	4.53882
886.24	4.64148
889.615	17.5723
892.99	10.1501
896.364	5.92651
899.739	3.40613
903.114	0.583435
906.489	2.66254
909.864	3.16901
913.239	2.59601
916.613	2.86774
919.988	2.06055
923.363	1.62231
926.738	9.79108
930.113	3.24048
933.487	4.57233
936.862	1.36566
940.237	2.94769
943.612	6.12085
946.987	10.7841
950.361	9.48926
953.736	11.1487
957.111	10.17
960.486	13.0044
963.861	14.5342
967.236	18.1076
970.61	18.5002
973.985	17.9896
977.36	13.8283
980.735	13.3516
984.11	13.7238
987.485	13.1105
990.859	15.2266
994.234	8.61914
997.609	9.40674
1000.98	7.59387
1004.36	6.42737
1007.73	7.1803
1011.11	5.57837
1014.48	6.34729
1017.86	5.79065
1021.23	3.71863
1024.61	2.58154
1027.98	5.06189
1031.36	3.92773
1034.73	7.29627
1038.11	11.9354
1041.48	14.6774
1044.86	17.2849
1048.23	21.8507
1051.61	23.9659
1054.98	25.879
1058.36	22.6538
1061.73	13.8751
1065.11	10.2046
1068.48	3.60535
1071.86	1.07202
1075.23	2.1831
1078.6	2.92261
1081.98	0.499634
1085.35	1.0824
1088.73	4.38599
1092.1	11.6316
1095.48	10.9408
1098.85	20.4857
1102.23	25.1906
1105.6	48.5896
1108.98	64.2417
1112.35	101.638
1115.73	151.594
1119.1	226.851
1122.48	286.929
1125.85	251.05
1129.23	159.211
1132.6	88.5424
1135.98	50.176
1139.35	31.3009
1142.73	25.3384
1146.1	15.5142
1149.48	9.1311
1152.85	11.6022
1156.22	10.6845
1159.6	5.32312
1162.97	5.47534
1166.35	1.33704
1169.72	0.815552
1173.1	0.066284
1176.47	0.035645
1179.85	2.39465
1183.22	4.83923
1186.6	7.84387
1189.97	8.65405
1193.35	10.9109
1196.72	9.02588
1200.1	7.33447
1203.47	4.56506
1206.85	9.3706
1210.22	6.43689
1213.6	9.95508
1216.97	2.04321
1220.35	10.3513
1223.72	11.0581
1227.1	0.629639
1230.47	1.27661
1233.85	0.777588
1237.22	5.97168
1240.6	0.795654
1243.97	7.09985
1247.35	9.12256
1250.72	13.21
1254.1	6.43042
1257.47	17.7156
1260.85	10.0879
1264.22	8.9585
1267.59	6.71484
1270.97	4.09375
1274.34	11.9612
1277.72	8.07129
1281.09	10.6882
1284.47	4.53296
1287.84	1.94238
1291.22	6.17481
1294.59	8.58911
1297.97	4.09888
1301.34	1.39893
