Measurement: Raman, 780 nm, unoriented, Raman Data Processed
Mineral: Romanechite
Rruff sample: R060337
Ideal chemistry: (Ba,H_2_O)_2_(Mn^4+^,Mn^3+^)_5_O_10_
Locality: 6.5 miles south of Palo Verde, Imperial County, California, USA
Source: Michael Scott
Description: Black botyroidal massive
Raman shift (cm-1)	intensity
189.309	0
192.202	2.93945
195.094	0.168762
197.987	0.541016
200.88	2.01712
203.773	4.17319
206.665	0.925812
209.558	2.04953
212.451	1.24795
215.343	0.918671
218.236	0.090515
221.129	2.10706
224.021	3.20139
226.914	1.18024
229.807	4.37991
232.7	2.18704
235.592	2.16263
238.485	4.23492
241.378	3.72986
244.27	2.89923
247.163	3.51858
250.056	1.71594
252.948	0.314301
255.841	1.70728
258.734	0.94162
261.627	0.660217
264.519	3.93698
267.412	2.0639
270.305	0.498535
273.197	1.14496
276.09	0.777527
278.983	2.18091
281.875	1.77905
284.768	4.07523
287.661	5.34213
290.553	4.08655
293.446	2.53958
296.339	5.47208
299.232	4.25015
302.124	2.22144
305.017	3.5882
307.91	0.424469
310.802	0.874298
313.695	1.01068
316.588	1.9393
319.481	0.068634
322.373	1.7251
325.266	0.206573
328.159	2.35678
331.051	1.11511
333.944	2.15094
336.837	2.09567
339.729	0.944977
342.622	2.97821
345.515	2.68216
348.408	0.718445
351.3	1.71075
354.193	4.24136
357.086	2.5546
359.978	3.23972
362.871	4.18207
365.764	4.5856
368.656	5.43121
371.549	2.57837
374.442	1.90103
377.334	3.24002
380.227	3.73785
383.12	2.55591
386.013	1.75528
388.905	3.62277
391.798	2.46393
394.691	2.96896
397.583	1.0867
400.476	0.079987
403.369	1.76776
406.262	1.54874
409.154	0.369598
412.047	0.665039
414.94	0.888489
417.832	1.44412
420.725	0.548004
423.618	2.50302
426.51	1.58289
429.403	2.79831
432.296	0.265778
435.188	2.69281
438.081	0.493164
440.974	1.63419
443.867	2.83679
446.759	3.13333
449.652	3.77035
452.545	3.17642
455.437	2.49634
458.33	4.68118
461.223	3.51547
464.115	1.40515
467.008	2.86771
469.901	4.4932
472.794	6.06851
475.686	3.99292
478.579	4.82541
481.472	4.77564
484.364	2.26385
487.257	4.52301
490.15	4.19495
493.043	5.83936
495.935	4.07849
498.828	3.8298
501.721	3.45019
504.613	4.3161
507.506	4.7709
510.399	2.64764
513.291	4.04089
516.184	1.7301
519.077	1.44791
521.97	0.296326
524.862	1.63867
527.755	0.639343
530.648	0.285614
533.54	0.434357
536.433	0.450989
539.326	0.87619
542.218	0.560394
545.111	0.867737
548.004	1.55768
550.896	2.30261
553.789	2.1268
556.682	1.98135
559.575	4.15543
562.467	2.52072
565.36	4.19394
568.253	7.79501
571.145	4.87067
574.038	6.37915
576.931	8.36359
579.823	7.48633
582.716	8.19849
585.609	6.68704
588.502	5.54968
591.394	3.72839
594.287	4.52527
597.18	3.89474
600.072	5.28937
602.965	6.78229
605.858	4.68066
608.75	4.79025
611.643	6.28543
614.536	6.25357
617.429	6.01794
620.321	6.871
623.214	7.72171
626.107	9.99124
629	8.43213
631.892	10.7408
634.785	11.4186
637.678	9.66596
640.57	8.96542
643.463	7.05307
646.356	7.33301
649.248	6.96097
652.141	6.06287
655.034	4.24381
657.927	5.30069
660.819	4.41873
663.712	3.17593
666.605	1.7525
669.497	1.35666
672.39	0.885895
675.283	1.40228
678.175	0.220245
681.068	0.388641
683.961	0.132507
686.854	0.031708
689.746	0.714813
692.639	0.140625
695.532	0.05246
698.424	0.512268
701.317	0.46286
704.21	0.164459
707.102	0.455688
709.995	1.14511
712.888	1.5477
715.78	0.907867
718.673	2.67038
721.566	3.24097
724.459	1.63593
727.351	2.39181
730.244	1.17618
733.137	1.00278
736.029	0.604797
738.922	0.712341
741.815	1.61328
744.707	1.37219
747.6	0.617126
750.493	1.07996
753.386	0.199524
756.278	0.365814
759.171	1.02777
762.064	1.36325
764.956	0.842743
767.849	0.55542
770.742	0.246796
773.635	0.116852
776.527	1.45535
779.42	0.496857
782.313	1.58472
785.205	1.23535
788.098	2.73645
790.991	1.79276
793.883	2.64743
796.776	2.41782
799.669	1.40833
802.562	2.94504
805.454	3.51749
808.347	3.26315
811.24	3.12012
814.132	3.09933
817.025	4.40585
819.918	5.34009
822.81	4.48254
825.703	5.31274
828.596	4.18521
831.489	6.06061
834.381	3.96204
837.274	5.17395
840.167	5.28137
843.059	5.89151
845.952	4.91238
848.845	5.82492
851.737	8.12866
854.63	5.44006
857.523	5.93957
860.415	7.42835
863.308	4.82642
866.201	5.36411
869.094	5.05502
871.986	4.42239
874.879	4.52328
877.772	3.547
880.664	5.77158
883.557	3.99289
886.45	4.45355
889.342	2.69443
892.235	2.0578
895.128	0.902344
898.021	1.27417
900.913	0.594208
903.806	1.72623
906.699	1.14237
909.591	0.868195
912.484	0.210449
915.377	0.927338
918.269	2.12616
921.162	0.036316
924.055	1.27368
926.948	1.94666
929.84	1.75137
932.733	0.292542
935.626	1.64893
938.518	1.4126
941.411	0.137482
944.304	0.320068
947.197	1.26755
950.089	0.054688
952.982	1.38461
955.875	1.41193
958.767	1.00861
961.66	0.093018
964.553	1.89261
967.445	1.58618
970.338	0.480255
973.231	0.135071
976.124	0.230591
979.016	1.20627
981.909	1.05148
984.802	1.63159
987.694	0.957581
990.587	0.811066
993.48	1.92334
996.372	1.86939
999.265	3.19467
1002.16	0.112305
1005.05	2.45264
1007.94	1.96823
1010.84	3.90521
1013.73	2.69202
1016.62	2.04398
1019.51	1.64359
1022.41	2.50156
1025.3	2.22138
1028.19	4.40225
1031.09	2.72217
1033.98	2.11768
1036.87	2.56821
1039.76	1.76971
1042.66	3.00525
1045.55	2.27228
1048.44	2.25369
1051.33	2.69678
1054.23	3.72217
1057.12	2.42029
1060.01	2.18558
1062.9	3.92667
1065.8	3.43008
1068.69	3.04999
1071.58	1.78622
1074.47	0.829712
1077.37	0.575012
1080.26	2.595
1083.15	1.80408
1086.05	2.30319
1088.94	2.74231
1091.83	1.85068
1094.72	1.31317
1097.62	1.35028
1100.51	0.128662
1103.4	1.43256
1106.3	2.91708
1109.19	0.420563
1112.08	0.193115
1114.97	1.30948
1117.87	0.145508
1120.76	0.966583
1123.65	0.453766
1126.54	0.939667
1129.44	0.341949
1132.33	1.54215
1135.22	1.60925
1138.12	2.86044
1141.01	0.542389
1143.9	5.26932
1146.79	1.38605
1149.69	3.2717
1152.58	5.1232
1155.47	0.937714
1158.36	1.87558
1161.26	0.617767
1164.15	0.485962
1167.04	2.78876
1169.93	3.36191
1172.83	2.37927
1175.72	3.47772
1178.61	2.70941
1181.51	3.05322
1184.4	2.1098
1187.29	1.89529
1190.18	2.58331
1193.08	3.97513
1195.97	2.82239
1198.86	2.72717
1201.75	2.58575
1204.65	6.44553
1207.54	5.73346
1210.43	1.4173
1213.33	1.1434
1216.22	2.59051
1219.11	1.02899
1222	3.94946
1224.9	0.852844
1227.79	0.246857
1230.68	0.626648
1233.57	0.850739
1236.47	0.922058
1239.36	1.48144
1242.25	0.762024
1245.14	1.51038
1248.04	0.104248
1250.93	0.147278
1253.82	2.74365
1256.71	3.13199
1259.61	2.73016
1262.5	2.10028
1265.39	2.90411
1268.29	0.120239
1271.18	1.89786
1274.07	3.07889
1276.96	1.1268
1279.86	0.101196
