Measurement: Raman, 532 nm, unoriented, Raman Data Processed
Mineral: Romanechite
Rruff sample: R060337
Ideal chemistry: (Ba,H_2_O)_2_(Mn^4+^,Mn^3+^)_5_O_10_
Locality: 6.5 miles south of Palo Verde, Imperial County, California, USA
Source: Michael Scott
Description: Black botyroidal massive
Raman shift (cm-1)	intensity
189.381	0
192.274	0.055145
195.167	1.24359
198.059	2.70996
200.952	6.05331
203.845	7.69171
206.737	6.73733
209.63	6.88391
212.523	4.07129
215.416	4.59625
218.308	4.74091
221.201	4.4801
224.094	5.55618
226.986	4.77316
229.879	4.38736
232.772	6.10657
235.664	5.06723
238.557	3.11682
241.45	0.839752
244.343	0.704895
247.235	1.59573
250.128	1.26138
253.021	0.063202
255.913	1.63007
258.806	0.894623
261.699	4.32104
264.591	4.50586
267.484	5.14206
270.377	8.65506
273.27	9.95303
276.162	12.7301
279.055	16.696
281.948	16.6895
284.84	19.2988
287.733	22.2305
290.626	21.2423
293.519	20.4576
296.411	19.2022
299.304	17.3015
302.197	15.6724
305.089	11.8454
307.982	8.24972
310.875	4.92197
313.767	4.89536
316.66	4.3624
319.553	2.97092
322.445	4.67465
325.338	4.22119
328.231	3.4906
331.124	3.48892
334.016	3.19128
336.909	5.18127
339.802	5.62616
342.694	4.28024
345.587	4.71439
348.48	5.104
351.373	5.13452
354.265	5.70599
357.158	3.49063
360.051	5.11844
362.943	6.35407
365.836	5.62064
368.729	6.55161
371.621	5.38263
374.514	8.56009
377.407	8.72821
380.3	7.76932
383.192	10.5887
386.085	9.36545
388.978	8.83643
391.87	8.11301
394.763	6.37225
397.656	5.55908
400.548	3.87424
403.441	2.90537
406.334	2.74646
409.226	0.894592
412.119	1.32745
415.012	0.250031
417.905	0.247253
420.797	0.023651
423.69	0.341522
426.583	0.431305
429.475	0.933075
432.368	0.220154
435.261	0.033752
438.154	0.518951
441.046	1.10553
443.939	1.65808
446.832	2.35053
449.724	4.20999
452.617	4.95309
455.51	6.51553
458.402	6.67734
461.295	7.95786
464.188	8.1337
467.08	8.35889
469.973	7.79483
472.866	9.51135
475.759	8.95828
478.651	10.3552
481.544	9.27328
484.437	9.04614
487.329	12.5645
490.222	11.1099
493.115	13.08
496.007	14.9078
498.9	17.5022
501.793	20.8413
504.686	24.5131
507.578	24.7505
510.471	25.11
513.364	23.2748
516.256	19.3597
519.149	15.4233
522.042	10.7412
524.934	4.81317
527.827	2.1124
530.72	1.17502
533.613	0.240906
536.505	1.09998
539.398	1.70599
542.291	0.332886
545.183	0.421387
548.076	3.70395
550.969	5.40649
553.861	10.377
556.754	14.6801
559.647	19.0773
562.54	22.9845
565.432	33.3672
568.325	42.2574
571.218	54.7766
574.11	68.2769
577.003	78.3268
579.896	86.7125
582.788	80.6282
585.681	72.5539
588.574	57.1731
591.467	45.5302
594.359	33.8864
597.252	29.8766
600.145	24.3261
603.037	22.9871
605.93	24.0263
608.823	22.5467
611.716	24.6312
614.608	25.8087
617.501	23.589
620.394	27.0127
623.286	25.7838
626.179	25.8562
629.072	26.6049
631.964	27.6292
634.857	25.5015
637.75	22.3563
640.643	19.6715
643.535	16.5998
646.428	15.2529
649.321	11.3388
652.213	10.95
655.106	8.12875
657.999	6.74234
660.891	4.32083
663.784	2.75552
666.677	1.35571
669.569	0.53952
672.462	1.10879
675.355	0.177155
678.248	1.48486
681.14	0.233276
684.033	0.58374
686.926	0.392395
689.818	0.487549
692.711	0.490753
695.604	1.30917
698.496	1.22269
701.389	1.52988
704.282	2.46881
707.175	2.63477
710.067	4.45334
712.96	5.95331
715.853	5.5556
718.745	6.26996
721.638	7.00446
724.531	7.6257
727.423	7.75265
730.316	7.43762
733.209	6.70691
736.102	7.40018
738.994	5.52893
741.887	3.89676
744.78	3.03329
747.672	1.99091
750.565	1.68454
753.458	0.059418
756.351	0.243347
759.243	2.59445
762.136	0.383575
765.029	0.179718
767.921	1.48151
770.814	1.68195
773.707	0.724823
776.599	1.73355
779.492	2.44565
782.385	2.23633
785.278	1.92502
788.17	1.12933
791.063	1.8555
793.956	3.18747
796.848	6.71478
799.741	4.39838
802.634	3.80643
805.526	6.09122
808.419	7.81131
811.312	5.81586
814.205	8.63654
817.097	9.45712
819.99	11.0067
822.883	12.7684
825.775	9.94992
828.668	12.8685
831.561	12.6634
834.453	13.4982
837.346	14.0116
840.239	14.5402
843.132	15.2563
846.024	15.4351
848.917	14.5472
851.81	16.167
854.702	15.7579
857.595	15.0042
860.488	14.9416
863.38	15.9032
866.273	16.4883
869.166	15.2915
872.059	16.2443
874.951	12.0712
877.844	11.0078
880.737	10.4894
883.629	10.269
886.522	8.05072
889.415	6.18164
892.308	7.16983
895.2	3.67252
898.093	5.78522
900.986	2.81397
903.878	2.46555
906.771	1.91879
909.664	2.47604
912.556	1.60355
915.449	0.336548
918.342	0.222351
921.235	0.155304
924.127	0.044434
927.02	0.633575
929.913	0.465729
932.805	0.148834
935.698	1.27609
938.591	0.190491
941.483	1.71664
944.376	2.25864
947.269	0.169464
950.162	0.444824
953.054	0.001892
955.947	1.0975
958.84	2.10352
961.732	2.40311
964.625	1.24402
967.518	1.86832
970.41	2.33209
973.303	0.583496
976.196	1.41855
979.088	5.0975
981.981	0.394287
984.874	0.073456
987.767	1.96442
990.659	1.58615
993.552	1.58667
996.445	2.58725
999.337	2.04929
1002.23	2.30362
1005.12	1.05603
1008.02	2.6839
1010.91	2.74414
1013.8	3.09821
1016.69	4.6864
1019.59	4.23102
1022.48	3.52158
1025.37	4.54114
1028.26	4.55426
1031.16	3.86353
1034.05	5.72934
1036.94	6.65289
1039.84	6.80823
1042.73	7.25424
1045.62	4.98578
1048.51	5.53143
1051.41	4.6926
1054.3	3.95535
1057.19	3.98257
1060.08	5.40076
1062.98	3.98419
1065.87	2.04434
1068.76	1.28122
1071.65	2.68063
1074.55	3.24844
1077.44	2.32748
1080.33	2.54288
1083.23	1.30341
1086.12	1.72986
1089.01	3.04193
1091.9	1.29504
1094.8	3.25857
1097.69	3.07834
1100.58	1.81952
1103.47	2.15796
1106.37	1.19437
1109.26	1.08176
1112.15	0.067078
1115.05	1.21622
1117.94	1.1777
1120.83	0.726715
1123.72	0.007019
1126.62	0.559662
1129.51	0.810333
1132.4	0.201813
1135.29	0.169586
1138.19	0.671692
1141.08	1.63901
1143.97	1.52753
1146.87	0.376556
1149.76	0.052277
1152.65	0.509644
1155.54	0.875275
1158.44	0.1586
1161.33	2.79459
1164.22	1.27927
1167.11	1.48053
1170.01	2.04016
1172.9	1.92227
1175.79	1.39819
1178.68	1.20792
1181.58	1.76077
1184.47	2.93622
1187.36	2.70361
1190.26	3.88715
1193.15	6.39032
1196.04	4.39865
1198.93	3.42667
1201.83	4.34097
1204.72	5.89685
1207.61	2.78461
1210.51	3.21106
1213.4	3.25012
1216.29	3.22955
1219.18	3.72223
1222.08	3.87262
1224.97	4.22559
1227.86	3.22327
1230.75	3.99597
1233.65	2.59021
1236.54	2.7904
1239.43	4.35474
1242.32	2.77197
1245.22	2.01672
1248.11	1.91806
1251	2.16434
1253.89	2.56531
1256.79	2.62466
1259.68	2.0152
1262.57	1.29379
1265.47	1.11032
1268.36	1.81528
1271.25	2.46597
1274.14	2.28088
1277.04	1.38464
1279.93	2.65643
1282.82	2.35269
1285.71	2.0213
1288.61	2.34717
1291.5	0.470978
1294.39	2.02298
1297.29	0.679962
1300.18	0.8461
