Measurement: Raman, 532 nm, unoriented, Raman Data Processed
Mineral: Rongibbsite
Rruff sample: R100031
Ideal chemistry: Pb^2+^_2_(AlSi_4_)O_11_(OH)
Locality: A prospect near Evening Star mine, Bighorn Mountains, Maricopa County, Arizona
Source: Ron Gibbs
Description: Radiating, bladed to prismatic colorless crystals, type sample
Measured chemistry: Pb_2.05_(Al_1.11_Si_3.89_)_Î£=5.00_O_11_(OH)
Raman shift (cm-1)	intensity
162.871	0
165.763	2.146
168.656	48.2408
171.549	103.807
174.441	165.416
177.334	237.967
180.227	323.487
183.119	431.622
186.012	576.853
188.905	734.846
191.798	873.274
194.69	961.529
197.583	963.462
200.476	897.175
203.369	811.631
206.261	671.22
209.154	432.663
212.047	214.969
214.939	91.2409
217.832	30.3189
220.725	7.38483
223.617	7.26981
226.51	7.05655
229.403	5.98053
232.296	3.16412
235.188	17.2677
238.081	36.3875
240.974	47.1363
243.866	62.8287
246.759	78.6133
249.652	106.334
252.544	147.784
255.437	197.152
258.33	231.155
261.223	189.202
264.115	128.775
267.008	97.556
269.901	84.9263
272.793	84.1165
275.686	100.328
278.579	125.769
281.471	148.53
284.364	152.173
287.257	125.19
290.15	91.8605
293.042	61.1639
295.935	33.5572
298.828	16.5703
301.72	3.82958
304.613	4.25224
307.506	5.29851
310.399	4.58041
313.291	4.2377
316.184	2.50905
319.077	3.76889
321.969	7.63278
324.862	10.4093
327.755	16.1638
330.647	20.2994
333.54	24.5776
336.433	34.9148
339.325	41.3316
342.218	51.7432
345.111	65.405
348.004	82.8888
350.896	94.7912
353.789	115.949
356.682	137.014
359.574	160.305
362.467	178.227
365.36	194.419
368.253	212.286
371.145	221.074
374.038	215.608
376.931	184.089
379.823	140.66
382.716	92.0109
385.609	54.983
388.502	28.31
391.394	12.3542
394.287	2.0742
397.18	0.551788
400.072	1.32027
402.965	0.900528
405.858	7.71681
408.75	18.1888
411.643	31.4908
414.536	45.3407
417.428	57.7861
420.321	61.7925
423.214	60.412
426.107	57.8584
428.999	50.7294
431.892	41.7559
434.785	37.9207
437.677	29.8289
440.57	20.4193
443.463	17.0494
446.356	19.0116
449.248	27.9654
452.141	38.5225
455.034	60.1773
457.926	83.1064
460.819	98.1235
463.712	97.0384
466.604	74.3175
469.497	52.5305
472.39	39.8645
475.283	38.5939
478.175	46.4454
481.068	59.5754
483.961	88.7457
486.853	106.887
489.746	103.699
492.639	75.8165
495.531	49.1956
498.424	26.6948
501.317	12.0269
504.21	5.08679
507.102	0.514526
509.995	0.621155
512.888	0.496674
515.78	0.125641
518.673	1.49377
521.566	3.39333
524.458	2.15648
527.351	0.445267
530.244	2.67436
533.137	7.0247
536.029	16.764
538.922	23.3693
541.815	29.1339
544.707	17.6045
547.6	8.02683
550.493	5.67163
553.386	3.02368
556.278	1.35031
559.171	2.55827
562.064	0.052406
564.956	0.222099
567.849	1.67712
570.742	1.10334
573.635	3.31793
576.527	2.29781
579.42	4.42004
582.313	7.24403
585.205	12.3259
588.098	21.0485
590.991	29.6506
593.883	43.008
596.776	55.6942
599.669	64.9904
602.562	68.3712
605.454	64.1334
608.347	60.0783
611.24	53.3556
614.132	46.174
617.025	37.9303
619.918	32.4286
622.81	29.2624
625.703	30.5669
628.596	27.4572
631.489	28.75
634.381	28.9315
637.274	24.7372
640.167	21.9188
643.059	18.3909
645.952	12.5761
648.845	10.6425
651.737	6.73375
654.63	3.5725
657.523	5.17457
660.416	3.05983
663.308	2.68448
666.201	1.1965
669.094	0.077515
671.986	1.01001
674.879	0.546173
677.772	0.797562
680.664	0.167618
683.557	0.036064
686.45	1.59602
689.343	0.620583
692.235	0.527725
695.128	2.29493
698.021	1.90031
700.913	3.54545
703.806	3.54557
706.699	5.02888
709.592	4.31939
712.484	2.80115
715.377	1.85902
718.27	2.35248
721.162	1.86111
724.055	0.634315
726.948	0.025047
729.841	0.424553
732.733	0.163445
735.626	0.15889
738.519	0.335487
741.411	0.664253
744.304	1.27362
747.197	2.66167
750.089	1.25349
752.982	3.00129
755.875	4.45572
758.768	4.74537
761.66	6.8188
764.553	2.24744
767.446	2.66029
770.338	2.40073
773.231	2.99412
776.124	2.83123
779.016	4.06895
781.909	3.09338
784.802	6.53841
787.694	8.83991
790.587	9.62167
793.48	9.33429
796.373	8.58793
799.265	4.51071
802.158	4.00417
805.051	2.07295
807.943	2.34024
810.836	3.49957
813.729	1.81152
816.621	1.04064
819.514	1.51019
822.407	3.27524
825.3	2.0193
828.192	2.20068
831.085	2.39801
833.978	0.763329
836.87	0.660789
839.763	1.26516
842.656	1.28746
845.549	0.476723
848.441	0.848473
851.334	0.637291
854.227	0.304955
857.119	0.097916
860.012	0.145386
862.905	0.29071
865.798	1.03255
868.69	0.16494
871.583	0.663734
874.476	0.864281
877.368	1.26902
880.261	0.027725
883.154	0.844208
886.046	1.61
888.939	0.459236
891.832	0.311554
894.725	0.811249
897.617	2.32164
900.51	2.78484
903.403	5.2857
906.295	6.43195
909.188	8.7902
912.081	11.7123
914.973	14.1715
917.866	19.5319
920.759	26.1677
923.652	31.1854
926.544	37.245
929.437	41.7664
932.33	47.8839
935.222	50.2365
938.115	56.4511
941.008	66.3827
943.9	85.6321
946.793	109.564
949.686	137.529
952.579	167.983
955.471	193.927
958.364	212.655
961.257	222.554
964.149	219.162
967.042	200.695
969.935	171.649
972.827	138.834
975.72	110.28
978.613	87.4534
981.506	73.2886
984.398	61.3982
987.291	55.6207
990.184	51.3496
993.077	42.6016
995.969	36.1398
998.862	27.569
1001.75	19.6943
1004.65	14.3065
1007.54	8.51011
1010.43	4.6668
1013.33	2.4642
1016.22	1.9248
1019.11	0.108315
1022	0.331169
1024.9	0.207001
1027.79	0.444763
1030.68	1.13677
1033.57	0.972786
1036.47	1.40617
1039.36	1.91434
1042.25	2.71697
1045.14	6.68683
1048.04	7.98462
1050.93	12.2754
1053.82	14.8204
1056.72	17.5374
1059.61	18.7329
1062.5	18.2971
1065.39	22.8901
1068.29	24.1812
1071.18	24.1714
1074.07	22.3697
1076.96	25.0321
1079.86	24.5758
1082.75	24.804
1085.64	21.6932
1088.54	20.2782
1091.43	16.9158
1094.32	16.2797
1097.21	16.68
1100.11	15.2952
1103	14.2303
1105.89	17.0467
1108.79	16.714
1111.68	14.668
1114.57	11.5738
1117.46	11.5497
1120.36	10.003
1123.25	9.11912
1126.14	5.81394
1129.03	6.47276
1131.93	5.36446
1134.82	3.77445
1137.71	2.47616
1140.6	2.33384
1143.5	0.915161
1146.39	1.2202
1149.28	0.617409
1152.17	0.472328
1155.07	1.98418
1157.96	0.464058
1160.85	0.53167
1163.75	0.116173
1166.64	0.652794
1169.53	0.424179
1172.42	2.4688
1175.32	0.542053
1178.21	0.948006
1181.1	1.06033
1183.99	2.50861
1186.89	1.55518
1189.78	2.19576
1192.67	1.52546
1195.57	0.410065
1198.46	4.51211
1201.35	0.68454
1204.24	0.802139
1207.14	1.42358
1210.03	1.10663
1212.92	0.693115
1215.82	3.04342
1218.71	2.66828
1221.6	1.51747
1224.49	1.6685
1227.38	2.14631
1230.28	0.481339
1233.17	2.25902
1236.06	1.59148
1238.96	0.057289
1241.85	0.064034
1244.74	1.43001
1247.63	2.3657
1250.53	2.84258
1253.42	1.32511
1256.31	0.228012
1259.2	1.76818
1262.1	3.28816
1264.99	0.838417
1267.88	1.83866
1270.78	2.12139
1273.67	1.86962
1276.56	1.5222
1279.45	1.20981
1282.35	2.39099
1285.24	0.604584
1288.13	1.20115
1291.03	0.191528
1293.92	0.716805
1296.81	1.44975
1299.7	2.07433
1302.6	0
