Measurement: Raman, 780 nm, unoriented, Raman Data Processed
Mineral: Rongibbsite
Rruff sample: R100031
Ideal chemistry: Pb^2+^_2_(AlSi_4_)O_11_(OH)
Locality: A prospect near Evening Star mine, Bighorn Mountains, Maricopa County, Arizona
Source: Ron Gibbs
Description: Radiating, bladed to prismatic colorless crystals, type sample
Measured chemistry: Pb_2.05_(Al_1.11_Si_3.89_)_Î£=5.00_O_11_(OH)
Raman shift (cm-1)	intensity
158.102	0
160.994	0.832214
163.887	6.82031
166.78	31.4515
169.673	65.6351
172.565	118.861
175.458	182.554
178.351	270.154
181.243	374.978
184.136	519.638
187.029	698.613
189.921	899.456
192.814	1119.5
195.707	1271.88
198.6	1320.53
201.492	1329.9
204.385	1278.24
207.278	1002.57
210.17	604.636
213.063	339.45
215.956	203.111
218.848	125.338
221.741	78.8773
224.634	47.2637
227.526	30.6876
230.419	13.7214
233.312	4.4657
236.205	0.40625
239.097	1.57965
241.99	7.14346
244.883	2.04297
247.775	3.14548
250.668	2.18005
253.561	4.56912
256.454	9.67215
259.346	15.6044
262.239	18.1197
265.132	27.5636
268.024	36.73
270.917	58.1705
273.81	82.0739
276.702	123.276
279.595	169.229
282.488	203.078
285.38	202.831
288.273	171.846
291.166	133.356
294.059	94.2971
296.951	63.415
299.844	39.9724
302.737	22.4043
305.629	10.7507
308.522	3.96176
311.415	1.64969
314.308	2.27847
317.2	1.16653
320.093	1.14691
322.986	0.196503
325.878	0.791565
328.771	0.491272
331.664	0.095215
334.556	2.12759
337.449	6.87503
340.342	9.61728
343.234	14.1541
346.127	18.7821
349.02	24.0577
351.913	27.2174
354.805	32.7378
357.698	41.0813
360.591	50.589
363.483	58.7051
366.376	66.1779
369.269	70.9804
372.161	73.9371
375.054	72.6018
377.947	58.4975
380.839	42.8677
383.732	27.6448
386.625	15.0384
389.518	5.16266
392.41	1.20453
395.303	3.70218
398.196	1.33859
401.088	1.00278
403.981	2.18207
406.874	9.06665
409.767	19.6373
412.659	31.1303
415.552	45.0495
418.445	58.772
421.337	67.5292
424.23	70.2354
427.123	72.412
430.015	70.9466
432.908	65.2343
435.801	59.0216
438.693	53.4725
441.586	49.0402
444.479	45.7257
447.372	49.5719
450.264	61.5222
453.157	86.8723
456.05	121.264
458.942	161.874
461.835	182.185
464.728	167.435
467.62	126.387
470.513	94.3299
473.406	76.4567
476.299	62.8137
479.191	66.566
482.084	82.0885
484.977	104.935
487.869	122.828
490.762	109.941
493.655	82.5052
496.547	53.5118
499.44	30.1139
502.333	16.5068
505.226	7.87335
508.118	3.27362
511.011	0.637695
513.904	1.07828
516.796	2.1673
519.689	2.267
522.582	4.07028
525.474	0.604156
528.367	0.221527
531.26	4.40549
534.153	9.29614
537.045	14.7257
539.938	19.5272
542.831	20.2007
545.723	12.9897
548.616	9.10019
551.509	7.16284
554.401	7.71136
557.294	4.72281
560.187	3.85071
563.08	2.46957
565.972	2.95889
568.865	0.027557
571.758	1.43189
574.65	0.094452
577.543	4.52484
580.436	6.38107
583.328	11.5989
586.221	18.1265
589.114	37.0911
592.006	53.4751
594.899	77.7546
597.792	99.4176
600.685	112.82
603.577	112.4
606.47	104.086
609.363	95.416
612.255	80.6398
615.148	66.304
618.041	54.1054
620.933	48.9586
623.826	50.1262
626.719	51.0519
629.611	55.645
632.504	60.4459
635.397	60.2911
638.29	56.0801
641.182	49.5423
644.075	39.6437
646.968	29.8415
649.86	21.8843
652.753	16.5672
655.646	11.4577
658.538	11.1259
661.431	8.79379
664.324	4.01535
667.217	3.56101
670.109	3.5014
673.002	2.52115
675.895	1.22705
678.787	0.424591
681.68	1.31677
684.573	1.10135
687.466	1.10022
690.358	0.101105
693.251	0.601074
696.144	0.336945
699.036	0.610321
701.929	0.188477
704.822	2.01718
707.714	1.45728
710.607	1.18982
713.5	3.49716
716.393	5.0755
719.285	2.20715
722.178	3.66586
725.071	1.72861
727.963	2.3558
730.856	1.56094
733.749	2.54453
736.641	0.311127
739.534	2.72256
742.427	5.86951
745.319	5.2547
748.212	3.70117
751.105	3.43793
753.998	4.13446
756.89	5.27216
759.783	3.18216
762.676	2.55957
765.568	4.04132
768.461	2.40472
771.354	2.19943
774.246	1.30066
777.139	1.6283
780.032	4.01056
782.925	3.09668
785.817	3.58108
788.71	4.08984
791.603	4.85019
794.495	5.43805
797.388	2.01556
800.281	4.14139
803.173	1.69449
806.066	2.29089
808.959	1.27536
811.851	1.62491
814.744	0.887268
817.637	2.93542
820.53	0.118134
823.422	1.75626
826.315	1.33707
829.208	0.372925
832.1	0.641174
834.993	0.601746
837.886	1.75769
840.779	0.285126
843.671	2.04684
846.564	2.9726
849.457	0.536835
852.349	1.44803
855.242	2.26166
858.135	4.29443
861.027	3.7518
863.92	1.13321
866.813	5.51245
869.706	0.753754
872.598	2.61591
875.491	1.0275
878.384	1.91599
881.276	0.326294
884.169	1.64041
887.062	0.482208
889.954	1.9256
892.847	1.23776
895.74	1.13638
898.632	1.3663
901.525	0.703613
904.418	0.294281
907.311	0.973785
910.203	2.82278
913.096	0.668274
915.989	2.65448
918.881	5.40985
921.774	3.79239
924.667	5.85745
927.559	6.77527
930.452	8.63318
933.345	7.85065
936.237	10.3408
939.13	11.1065
942.023	12.9156
944.916	19.2943
947.808	25.4572
950.701	33.122
953.594	39.159
956.486	44.5737
959.379	51.3116
962.272	53.2221
965.164	49.2084
968.057	46.8327
970.95	38.9029
973.843	32.0175
976.735	30.5491
979.628	26.712
982.521	22.2971
985.413	25.8254
988.306	25.5588
991.199	27.3315
994.091	29.3373
996.984	24.6494
999.877	19.2072
1002.77	14.2234
1005.66	8.95999
1008.55	4.4866
1011.45	3.76282
1014.34	4.28394
1017.23	1.00876
1020.13	0.622498
1023.02	0.965668
1025.91	1.31149
1028.8	0.5672
1031.7	0.258087
1034.59	0.339722
1037.48	0.902008
1040.38	3.53598
1043.27	3.17868
1046.16	0.069824
1049.05	3.819
1051.94	2.90448
1054.84	5.87207
1057.73	5.1084
1060.62	5.53854
1063.52	4.24924
1066.41	9.07562
1069.3	9.42627
1072.19	13.6803
1075.09	13.1872
1077.98	12.5798
1080.87	14.6395
1083.77	15.2499
1086.66	15.0595
1089.55	12.9565
1092.44	11.5845
1095.34	11.6894
1098.23	9.31262
1101.12	8.46225
1104.01	9.56915
1106.91	8.89044
1109.8	8.93893
1112.69	6.46808
1115.59	6.94076
1118.48	6.86487
1121.37	3.54294
1124.26	4.71924
1127.16	2.70828
1130.05	4.74176
1132.94	2.50302
1135.83	3.9024
1138.73	2.5253
1141.62	0.928986
1144.51	1.10922
1147.4	3.30701
1150.3	0.153809
1153.19	4.19684
1156.08	1.55411
1158.97	1.49808
1161.87	0.66452
1164.76	1.41608
1167.65	2.70117
1170.55	0.327271
1173.44	0.179718
1176.33	2.42603
1179.22	0.099518
1182.12	2.7699
1185.01	1.01233
1187.9	0.10025
1190.8	3.02722
1193.69	1.93063
1196.58	4.21463
1199.47	1.18012
1202.37	2.81766
1205.26	3.41394
1208.15	2.88229
1211.04	2.6922
1213.94	1.94415
1216.83	3.48377
1219.72	3.15973
1222.62	2.89511
1225.51	1.70447
1228.4	2.14975
1231.29	1.80533
1234.18	1.33969
1237.08	2.83453
1239.97	1.33691
1242.86	3.4646
1245.76	3.10095
1248.65	2.05286
1251.54	2.96295
1254.43	1.63708
1257.33	2.04215
1260.22	0.938171
1263.11	3.98709
1266.01	3.92822
1268.9	4.39432
1271.79	3.58047
1274.68	2.909
1277.58	1.78662
1280.47	2.7652
1283.36	0.000946
