Measurement: Raman, 514 nm, unoriented, Raman Data RAW
Mineral: Rosasite
Rruff sample: X060013
Ideal chemistry: Cu^2+^Zn^2+^CO_3_(OH)_2_
Locality: Christmas mine, Christmas, Gila County, Arizona, USA
Source: University of Arizona Mineral Museum
Description: Single crystal
Raman shift (cm-1)	intensity
119.006	24307.7
124.061	24823.7
129.112	27556.7
134.159	42254.3
139.203	49598
144.243	46758.3
149.28	43654
154.313	31243.7
159.342	24512
164.367	21961
169.389	22436.7
174.408	25512.3
179.422	32715
184.434	42423.3
189.441	39762.7
194.445	30308.3
199.445	26487.7
204.442	24999.3
209.435	22409.3
214.425	21607
219.41	22508.3
224.393	24167
229.371	24332.7
234.346	21683.3
239.318	19405.3
244.286	17475.3
249.25	15646.3
254.211	14234
259.168	13424
264.121	13121.3
269.071	13101
274.018	13234
278.961	13747.3
283.9	14281.3
288.835	15299.7
293.768	16311
298.696	16991
303.621	17539.3
308.542	17898.3
313.46	18719.2
318.375	19689.3
323.285	21280
328.192	21792.3
333.096	20231.3
337.996	17903.7
342.893	15512.7
347.786	14072.7
352.675	13071
357.561	12466.7
362.443	12359.7
367.322	12448.3
372.197	13000.3
377.069	13944
381.937	15288
386.802	16798.7
391.663	19171.7
396.521	23411.7
401.375	28790
406.226	29041
411.073	24919.3
415.916	21725.9
420.756	20094
425.593	18992
430.426	17448.7
435.255	15781
440.081	14698
444.904	14141.3
449.723	14005.3
454.538	14244
459.351	14533
464.159	14838.3
468.964	15385.7
473.766	16469
478.564	17060.3
483.358	17423.3
488.149	17983.3
492.937	19718
497.721	23498
502.502	28059.7
507.279	27514.3
512.053	22662
516.823	19627.7
521.59	17421.3
526.353	15534
531.113	13905.3
535.869	12674
540.622	11902
545.372	11548
550.118	11249
554.86	11154.3
559.6	11137.7
564.335	10956.3
569.067	10682.3
573.796	10351
578.522	10149.7
583.243	10075.7
587.962	9881
592.677	9887.33
597.389	9798.33
602.097	9786
606.801	9762.67
611.503	9761
616.201	9762.67
620.895	9759
625.586	9768
630.274	9753.67
634.958	9676
639.639	9759
644.316	9768.67
648.99	9720
653.661	9740
658.328	9821.33
662.991	9939.33
667.652	10085
672.309	10270.7
676.962	10429.7
681.612	10677.7
686.259	11082.7
690.903	12122.7
695.543	14560.3
700.179	18935
704.812	16211.3
709.442	12766.3
714.069	11438
718.692	10904
723.311	10744.3
727.928	10839.7
732.541	11143
737.15	11296.7
741.756	11090.7
746.359	10743
750.959	10646
755.555	10566.3
760.147	10576.3
764.737	10455.3
769.323	10570
773.906	10584.3
778.485	10654.3
783.061	10693
787.633	10803.3
792.203	10856
796.769	10859
801.331	10901.3
805.89	11061
810.446	11046.7
814.999	11204.3
819.548	11278
824.094	11573.3
828.637	13213.3
833.176	12338
837.712	11703.3
842.245	11632.1
846.774	11836.5
851.3	11974.6
855.822	12081.1
860.342	12075.9
864.858	12179.1
869.37	12296
873.88	12364.5
878.386	12480.5
882.889	12613.5
887.388	12815.3
891.884	12974.4
896.377	13182.6
900.867	13368.8
905.353	13424.8
909.836	13469.2
914.316	13341.1
918.792	13237.3
923.266	13068.8
927.735	12880
932.202	12760.1
936.665	12637.2
941.125	12511.6
945.582	12433.4
950.035	12234.7
954.486	12129.2
958.933	12143.8
963.376	11987.1
967.817	11991.4
972.254	11971.9
976.688	11912.4
981.118	11900.5
985.546	11930.6
989.97	12021.5
994.391	12103.1
998.808	12150.1
1003.22	12250
1007.63	12354.8
1016.39	12453
1020.88	12627
1025.37	12865.3
1029.86	13099
1034.34	13366.3
1038.82	13710.7
1043.3	14344.7
1047.78	14580.3
1052.25	15101
1056.71	15289
1061.18	15423
1065.64	15973.7
1070.1	17618.7
1074.56	21807
1079.01	31393.3
1083.46	39667.7
1087.9	30077.3
1092.35	20717
1096.79	16177
1101.22	14377.3
1105.65	13453
1110.09	12728.3
1114.51	12514.3
1118.94	12352.1
1123.36	12152.7
1127.78	12104.3
1132.19	12052.7
1136.6	11941.3
1141.01	11948.3
1145.41	11882
1149.82	11878.7
1154.22	11909.2
1158.61	11835
1163	11858
1167.39	11864.7
1171.78	11849.3
1176.16	11943.7
1180.54	11903.3
1184.92	11969
1189.3	11957
1193.67	11994.3
1198.03	11931
1202.4	11994.3
1206.76	12073.3
1211.12	12058.7
1215.47	11919.7
1219.83	12043
1224.18	12073.3
1228.52	12111.3
1232.87	12046.7
1237.2	12063
1241.54	12108
1245.88	12133
1250.21	12117
1254.53	12140.3
1258.86	12169.3
1263.18	12188.3
1267.5	12238
1271.81	12157.3
1276.13	12220.3
1280.43	12230.3
1284.74	12334.3
1289.04	12272.3
1293.34	12316.3
1297.64	12400.3
1301.93	12392.3
1306.23	12390.7
1310.51	12593.7
1314.8	12595.7
1319.08	12738.3
1323.36	12692.7
1327.63	12740.7
1331.91	12861.3
1336.18	12928.6
1340.44	12891.3
1344.7	13107.7
1348.97	13341.7
1353.22	13532.7
1357.48	13751.3
1361.73	13628.3
1365.98	13539
1370.22	13317.7
1374.46	13408
1378.7	13285
1382.94	13300
1387.17	13350.7
1391.4	13293.3
1395.63	13408
1399.85	13395.7
1404.07	13349.3
1408.29	13409.7
1412.51	13463.7
1416.72	13511.3
1420.93	13612.3
1425.13	13648.3
1429.34	13795.7
1433.54	14017.3
1437.73	14300
1441.92	14718.3
1446.12	15429.3
1450.3	15929
1454.49	15935
1458.67	15627.3
1462.85	15358
1467.03	15206.7
1471.2	15184.7
1475.37	15181.3
1479.53	15373.7
1483.7	15719.3
1487.86	16259.3
1492.02	17069.7
1496.17	18488
1500.32	20133.7
1504.47	22289
1508.62	24531.5
1512.76	26162
1516.9	25139.3
1521.04	22395
1525.17	20210.7
1529.3	18661.7
1533.43	18187.3
1537.56	18206
1541.68	17938
1545.8	17065.7
1549.91	16121.3
1554.03	15375.3
1558.14	14919
1562.24	14563.7
1566.35	14403.7
1570.45	14282.3
1574.55	14186
1578.64	14185.7
1582.74	14108.7
1586.83	14073.7
1590.91	14028.3
1595	14039.7
1599.08	14082.3
1603.16	13962.3
1607.23	13920.7
1611.3	14008
1615.37	14051.7
1619.44	13920
1623.5	13924.7
1627.56	13893
1631.62	13874.7
1635.67	13953.7
1639.72	13890.3
1643.77	13870
1647.82	13920.3
1651.86	13969
1655.9	14091.3
1659.94	14209.7
