Measurement: Raman, 780 nm, unoriented, Raman Data Processed
Mineral: Rosasite
Rruff sample: R120007
Ideal chemistry: Cu^2+^Zn^2+^CO_3_(OH)_2_
Locality: Mina Ojuela, Mapimi, Durango, Mexico
Source: Marcus Origlieri
Description: Teal blue thick coating on gossan
Raman shift (cm-1)	intensity
92.5678	0
95.9426	7.22961
99.3174	3.0547
102.692	5.98828
106.067	14.4772
109.442	2.13275
112.817	1.89157
116.192	11.2898
119.566	30.7723
122.941	43.7258
126.316	46.248
129.691	55.1918
133.066	67.0031
136.44	88.9984
139.815	101.148
143.19	90.4671
146.565	77.058
149.94	59.1752
153.315	34.504
156.689	14.9843
160.064	3.05993
163.439	0.349976
166.814	0.26722
170.189	4.27036
173.563	8.50594
176.938	15.7935
180.313	24.7651
183.688	35.0629
187.063	41.724
190.437	36.608
193.812	25.3761
197.187	17.2871
200.562	13.5666
203.937	13.7131
207.311	11.1164
210.686	11.7497
214.061	11.788
217.436	12.9522
220.811	13.401
224.186	12.7099
227.56	15.6799
230.935	13.5843
234.31	11.7955
237.685	8.73779
241.06	6.15932
244.435	4.34514
247.809	2.87545
251.184	1.60077
254.559	1.91915
257.934	0.711784
261.309	0.099617
264.683	0.012878
268.058	0.407463
271.433	0.111294
274.808	1.8073
278.183	2.74713
281.558	5.68076
284.932	4.59267
288.307	6.24929
291.682	8.54002
295.057	8.74502
298.432	9.57522
301.806	12.4289
305.181	11.4666
308.556	13.372
311.931	15.9411
315.306	15.9359
318.68	17.3398
322.055	18.0568
325.43	18.366
328.805	16.8566
332.18	14.8935
335.555	12.158
338.929	7.66126
342.304	6.39798
345.679	2.50395
349.054	1.74372
352.429	1.18571
355.803	0.736759
359.178	0.019543
362.553	0.335651
365.928	0.6492
369.303	0.334591
372.678	0.771969
376.052	1.00019
379.427	2.99973
382.802	2.88219
386.177	6.40296
389.552	9.16174
392.926	11.8512
396.301	15.1454
399.676	18.8457
403.051	20.8242
406.426	21.2644
409.8	19.301
413.175	15.5877
416.55	12.4684
419.925	7.64463
423.3	6.56556
426.675	6.47781
430.049	3.30391
433.424	2.2047
436.799	2.51445
440.174	0.011101
443.549	1.07177
446.923	1.62623
450.298	0.135475
453.673	0.347004
457.048	0.798836
460.423	0.213211
463.798	1.18121
467.172	1.23394
470.547	3.41861
473.922	3.03334
477.297	3.81858
480.672	4.7673
484.046	5.26209
487.421	7.05274
490.796	8.00645
494.171	9.22288
497.546	13.0952
500.921	15.1557
504.295	15.0989
507.67	13.029
511.045	9.9252
514.42	7.37242
517.795	5.81639
521.169	4.82753
524.544	4.38337
527.919	2.45085
531.294	2.74873
534.669	0.87381
538.044	0.037125
541.418	0.090878
544.793	0.179043
548.168	0.156197
551.543	1.47144
554.918	1.89048
558.293	0.844486
561.667	2.42995
565.042	1.91741
568.417	2.04633
571.792	2.08329
575.167	2.20065
578.541	1.00873
581.916	0.218693
585.291	0.342266
588.666	1.06186
592.041	2.07382
595.415	1.54131
598.79	1.99927
602.165	0.21067
605.54	0.442173
608.915	0.690533
612.29	0.502754
615.664	0.230057
619.039	0.735008
622.414	1.18481
625.789	1.5121
629.164	0.134949
632.538	1.41568
635.913	1.15509
639.288	1.60354
642.663	0.107456
646.038	0.701351
649.413	0.167473
652.787	1.31177
656.162	1.14154
659.537	0.015732
662.912	0.855289
666.287	2.09914
669.661	1.28083
673.036	1.14428
676.411	0.332275
679.786	2.11896
683.161	1.40556
686.535	2.27455
689.91	3.44322
693.285	4.02572
696.66	5.94166
700.035	7.66344
703.41	5.48116
706.784	3.47981
710.159	1.49928
713.534	0.097858
716.909	0.069191
720.284	1.75634
723.659	1.23129
727.033	0.817631
730.408	1.22592
733.783	2.4227
737.158	2.63353
740.533	0.305962
743.907	0.629078
747.282	0.313564
750.657	0.590431
754.032	0.936234
757.407	0.738583
760.782	0.217133
764.156	1.186
767.531	0.648853
770.906	0.233437
774.281	1.08635
777.656	0.712986
781.03	1.5685
784.405	0.818691
787.78	0.865437
791.155	0.020336
794.53	0.030827
797.904	1.43788
801.279	0.101227
804.654	0.984753
808.029	0.983566
811.404	0.986519
814.779	2.00593
818.153	2.2393
821.528	2.20057
824.903	2.59627
828.278	4.42448
831.653	4.16418
835.028	3.54167
838.402	2.64585
841.777	3.02584
845.152	1.07606
848.527	2.15105
851.902	3.26587
855.276	2.41629
858.651	2.10706
862.026	3.38803
865.401	3.06359
868.776	2.64584
872.15	1.68387
875.525	0.80785
878.9	2.7735
882.275	1.07616
885.65	2.37303
889.024	0.955456
892.399	2.06376
895.774	1.76576
899.149	1.79607
902.524	2.5006
905.899	1.91786
909.273	1.16986
912.648	2.52421
916.023	3.04844
919.398	0.185028
922.773	0.569748
926.148	2.42447
929.522	1.70659
932.897	2.31276
936.272	0.889122
939.647	0.601704
943.022	0.655483
946.396	0.23674
949.771	1.76678
953.146	0.266113
956.521	0.789906
959.896	1.08224
963.27	0.136818
966.645	0.219707
970.02	0.013336
973.395	0.429218
976.77	0.220112
980.145	0.138573
983.519	0.537601
986.894	2.18732
990.269	1.74962
993.644	0.795677
997.019	1.25073
1000.39	0.601072
1003.77	1.72499
1007.14	0.561058
1010.52	0.651821
1013.89	0.036774
1017.27	0.765251
1020.64	1.81399
1024.02	2.8435
1027.39	2.14325
1030.77	3.05679
1034.14	1.57734
1037.52	1.82197
1040.89	2.21876
1044.27	4.37214
1047.64	5.29924
1051.02	5.45295
1054.39	4.24261
1057.77	5.94145
1061.14	7.1759
1064.52	8.50897
1067.89	9.02886
1071.27	15.1236
1074.64	22.4311
1078.01	32.4454
1081.39	42.4906
1084.76	38.0299
1088.14	23.6814
1091.51	14.1707
1094.89	7.52195
1098.26	5.14269
1101.64	2.7973
1105.01	2.03101
1108.39	0.401754
1111.76	1.13871
1115.14	1.80213
1118.51	1.6837
1121.89	1.29663
1125.26	0.86689
1128.64	0.214365
1132.01	0.861023
1135.39	0.304209
1138.76	0.617273
1142.14	0.659094
1145.51	0.456314
1148.88	0.47526
1152.26	0.122492
1155.63	0.542255
1159.01	0.419769
1162.38	0.768015
1165.76	2.2072
1169.13	1.8967
1172.51	0.449045
1175.88	1.64881
1179.26	2.80546
1182.63	0.754196
1186.01	2.00781
1189.38	1.48092
1192.76	1.43786
1196.13	0.006456
1199.51	1.47146
1202.88	2.48489
1206.26	1.15006
1209.63	1.44382
1213.01	1.81188
1216.38	0.023304
1219.76	0.978437
1223.13	1.21627
1226.51	0.003111
1229.88	3.7674
1233.26	0.272627
1236.63	1.04846
1240.01	1.04441
1243.38	1.86233
1246.76	0.528341
1250.13	0.946012
1253.51	0.206287
1256.88	0.573689
1260.25	0.06498
1263.63	2.76724
1267	0.737186
1270.38	1.11178
1273.75	0.504431
1277.13	1.37238
1280.5	0.362501
1283.88	1.2196
