Measurement: Raman, 532 nm, unoriented, Raman Data Processed
Mineral: Rosasite
Rruff sample: R120007
Ideal chemistry: Cu^2+^Zn^2+^CO_3_(OH)_2_
Locality: Mina Ojuela, Mapimi, Durango, Mexico
Source: Marcus Origlieri
Description: Teal blue thick coating on gossan
Raman shift (cm-1)	intensity
90.9743	0
94.3491	0.437805
97.7239	4.57249
101.099	14.4099
104.474	22.6265
107.848	35.1369
111.223	46.0893
114.598	52.2431
117.973	59.3284
121.348	89.401
124.722	108.261
128.097	91.15
131.472	73.4549
134.847	57.72
138.222	41.1876
141.597	24.2755
144.971	6.68747
148.346	10.5248
151.721	15.9582
155.096	10.9589
158.471	12.7648
161.845	60.6715
165.22	164.208
168.595	287.566
171.97	396.691
175.345	539.615
178.72	743.272
182.094	969.529
185.469	1234.54
188.844	1497.21
192.219	1522
195.594	1222.2
198.968	978.048
202.343	882.122
205.718	852.852
209.093	808.576
212.468	725.245
215.843	673.608
219.217	671.35
222.592	705.62
225.967	760.506
229.342	823.374
232.717	792.766
236.091	630.796
239.466	459.331
242.841	348.066
246.216	272.462
249.591	207.207
252.965	139.73
256.34	82.5588
259.715	46.5856
263.09	15.5423
266.465	0.405945
269.84	7.73712
273.214	5.16229
276.589	0.837402
279.964	13.5789
283.339	28.5684
286.714	51.4783
290.089	83.2856
293.463	122.651
296.838	155.013
300.213	195.184
303.588	230.739
306.963	277.368
310.337	320.833
313.712	373.136
317.087	421.513
320.462	462.59
323.837	513.719
327.212	560.632
330.586	570.839
333.961	520.914
337.336	417.336
340.711	292.923
344.086	188.169
347.46	111.51
350.835	58.5471
354.21	23.752
357.585	1.27978
360.96	10.6509
364.334	15.7426
367.709	11.4665
371.084	2.31781
374.459	26.6064
377.834	54.9006
381.209	97.4693
384.583	153.986
387.958	229.093
391.333	314.082
394.708	414.368
398.083	537.046
401.457	704.757
404.832	881.626
408.207	943.423
411.582	827.658
414.957	634.926
418.332	478.789
421.706	376.313
425.081	308.754
428.456	246.847
431.831	183.681
435.206	128.524
438.58	78.951
441.955	45.8176
445.33	22.5695
448.705	9.44092
452.08	0.906738
455.454	2.92682
458.829	11.7012
462.204	25.5449
465.579	44.881
468.954	70.6025
472.329	107.928
475.703	148.895
479.078	177.095
482.453	198.288
485.828	214.601
489.203	254.657
492.577	324.196
495.952	427.739
499.327	563.174
502.702	698.955
506.077	751.956
509.452	656.452
512.826	495.912
516.201	374.635
519.576	309.055
522.951	257.302
526.326	197.336
529.701	132.554
533.075	78.7215
536.45	39.7946
539.825	18.0008
543.2	2.21912
546.575	5.03864
549.949	2.73111
553.324	4.53857
556.699	1.065
560.074	6.77716
563.449	9.34235
566.823	8.76294
570.198	4.93607
573.573	0.321198
576.948	2.12009
580.323	2.37518
583.697	2.61572
587.072	0.948669
590.447	0.61911
593.822	3.42737
597.197	4.38138
600.572	6.5705
603.946	6.2988
607.321	6.53952
610.696	6.5368
614.071	8.66275
617.446	9.18088
620.821	10.7575
624.195	11.2128
627.57	11.0492
630.945	11.2935
634.32	13.6341
637.695	13.4806
641.069	10.3947
644.444	10.2602
647.819	9.36884
651.194	6.11411
654.569	8.79462
657.943	9.10025
661.318	9.62186
664.693	11.5349
668.068	13.0724
671.443	17.5523
674.818	22.4738
678.192	31.8814
681.567	46.7133
684.942	70.9919
688.317	118.631
691.692	187.253
695.067	278.77
698.441	397.292
701.816	443.926
705.191	283.307
708.566	125.296
711.941	61.7812
715.315	35.8734
718.69	24.0855
722.065	22.226
725.44	24.9922
728.815	32.8091
732.189	42.5069
735.564	51.1624
738.939	45.7712
742.314	26.5072
745.689	14.4482
749.063	8.2279
752.438	4.59824
755.813	3.87003
759.188	1.21137
762.563	0.561218
765.938	2.14322
769.312	2.06009
772.687	0.199738
776.062	3.28986
779.437	0.522919
782.812	0.060211
786.187	0.734192
789.561	1.19189
792.936	1.73557
796.311	0.870911
799.686	0.914185
803.061	0.07959
806.435	3.17963
809.81	2.75708
813.185	4.9505
816.56	10.5316
819.935	23.4894
823.309	29.9992
826.684	54.7288
830.059	86.8103
833.434	49.8347
836.809	8.58618
840.184	0.480042
843.558	2.09253
846.933	4.01468
850.308	4.0712
853.683	10.2157
857.058	14.7503
860.433	18.3664
863.807	22.5543
867.182	26.542
870.557	29.2842
873.932	36.6736
877.307	38.8761
880.681	45.8903
884.056	50.1281
887.431	57.4338
890.806	69.373
894.181	76.1856
897.556	83.7052
900.93	94.5062
904.305	99.8275
907.68	102.807
911.055	103.355
914.43	96.1688
917.804	92.7557
921.179	84.1394
924.554	75.5054
927.929	66.989
931.304	57.5874
934.678	50.2645
938.053	44.0316
941.428	39.741
944.803	34.7568
948.178	27.7822
951.553	23.375
954.927	18.5086
958.302	12.7655
961.677	9.85913
965.052	5.07471
968.427	4.26443
971.802	0.792664
975.176	1.42615
978.551	0.719574
981.926	3.04038
985.301	3.29547
988.676	2.03989
992.05	0.196259
995.425	0.916748
998.8	1.42123
1002.17	1.78696
1005.55	5.82849
1008.92	9.71072
1012.3	11.1724
1015.67	16.0027
1019.05	20.2623
1022.42	27.1352
1025.8	33.1184
1029.17	43.3502
1032.55	54.3757
1035.92	68.3689
1039.3	84.9575
1042.67	108.417
1046.05	134.285
1049.42	167.221
1052.8	199.441
1056.17	221.536
1059.55	229.874
1062.92	228.878
1066.3	226.744
1069.67	268.724
1073.05	384.212
1076.42	585.035
1079.8	870.454
1083.17	1144.23
1086.55	1088.97
1089.92	717.639
1093.3	397.518
1096.67	223.495
1100.04	132.313
1103.42	82.3325
1106.79	52.1178
1110.17	33.1822
1113.54	22.3477
1116.92	14.9875
1120.29	8.63492
1123.67	7.03131
1127.04	2.98508
1130.42	1.57752
1133.79	0.320099
1137.17	1.94925
1140.54	0.447601
1143.92	2.14435
1147.29	1.45782
1150.67	0.112396
1154.04	0.554504
1157.42	0.978027
1160.79	1.30472
1164.17	0.906281
1167.54	0.182037
1170.92	1.58496
1174.29	0.967133
1177.66	3.43076
1181.04	2.84518
1184.41	3.18835
1187.79	4.64929
1191.16	5.93954
1194.54	3.72058
1197.91	5.80276
1201.29	4.08164
1204.66	4.40411
1208.04	6.15613
1211.41	4.53751
1214.79	6.06699
1218.16	4.23557
1221.54	4.81076
1224.91	4.13068
1228.29	4.06104
1231.66	2.23041
1235.04	1.58994
1238.41	1.13788
1241.79	2.44821
1245.16	4.08758
1248.54	1.46417
1251.91	1.67743
1255.29	1.23138
1258.66	2.46835
1262.04	1.25412
1265.41	3.62708
1268.79	1.36975
1272.16	2.27887
1275.54	2.79816
1278.91	1.18829
1282.29	3.23114
1285.66	0.584839
1289.03	0.525452
1292.41	2.42407
1295.78	1.06488
1299.16	1.31851
1302.53	0.707184
