Measurement: Raman, 780 nm, unoriented, Raman Data Processed
Mineral: Rosemaryite
Rruff sample: R140519
Ideal chemistry: [box]NaMn^2+^(Fe^3+^Al)(PO_4_)_3_
Locality: Buranga pegmatite, Gatumba District, Western Province, Rwanda
Source: Rock Currier
Description: Vitreous-opaque dark brown irregularly shaped masses intergrown with vitreous light brown childrenite and blocky dark blue scorzalite in a grayish siliceous matrix.
Measured chemistry: (Na_0.49_Ca_0.05_Mn^2+^_0.29_[box]_0.17_)Mn^2+^_1.00_(Fe^3+^_0.82_Mg_0.10_Mn^2+^_0.08_)(Al^3+^_0.76_Fe^3+^_0.24_)(PO_4_)_3_
Raman shift (cm-1)	intensity
149.212	0
152.104	2.89655
154.997	5.8205
157.89	2.39062
160.782	6.35306
163.675	10.0366
166.568	10.598
169.46	12.1763
172.353	12.5817
175.246	9.79202
178.138	8.25452
181.031	5.21146
183.924	1.71612
186.817	2.09766
189.709	0.556396
192.602	0.26532
195.495	1.14145
198.387	1.57297
201.28	1.23019
204.173	4.63492
207.066	5.28827
209.958	7.62421
212.851	13.2681
215.744	16.3013
218.636	17.0936
221.529	20.6303
224.422	22.1621
227.315	26.3482
230.207	27.6776
233.1	26.6502
235.993	27.1331
238.885	27.5167
241.778	26.8006
244.671	25.176
247.563	21.9633
250.456	16.8367
253.349	12.995
256.241	12.1115
259.134	12.9109
262.027	16.0952
264.92	17.6308
267.812	18.9814
270.705	22.0577
273.598	24.9645
276.49	28.3052
279.383	31.6459
282.276	34.7777
285.168	35.5172
288.061	36.78
290.954	38.4758
293.847	37.4264
296.739	33.7522
299.632	29.9818
302.525	25.0361
305.417	19.3864
308.31	13.6623
311.203	10.4052
314.096	7.86993
316.988	3.35144
319.881	2.73735
322.774	0.487701
325.666	0.686035
328.559	0.420364
331.452	1.24138
334.344	0.351379
337.237	3.8172
340.13	2.48651
343.022	1.76244
345.915	1.95908
348.808	1.23375
351.701	1.33861
354.593	1.33028
357.486	2.49036
360.379	4.15677
363.271	4.25854
366.164	5.19208
369.057	6.22316
371.95	6.33095
374.842	7.30406
377.735	6.24272
380.628	4.04236
383.52	3.76736
386.413	1.21716
389.306	0.939865
392.198	0.454971
395.091	1.1991
397.984	1.91785
400.877	0.049606
403.769	3.70049
406.662	4.94273
409.555	4.38937
412.447	4.36925
415.34	1.44113
418.233	1.05011
421.125	2.90675
424.018	2.85419
426.911	3.50006
429.803	3.22192
432.696	3.14163
435.589	1.76337
438.482	1.01527
441.374	1.21782
444.267	0.819397
447.16	1.67143
450.052	3.3979
452.945	6.87743
455.838	10.0007
458.731	13.0811
461.623	17.5104
464.516	19.3303
467.409	22.1881
470.301	22.258
473.194	22.6002
476.087	25.8468
478.979	30.4226
481.872	33.4071
484.765	34.9316
487.658	35.284
490.55	35.7849
493.443	31.8835
496.336	30.8079
499.228	29.3429
502.121	25.4174
505.014	24.3732
507.906	20.8756
510.799	18.9313
513.692	18.0014
516.585	15.1349
519.477	12.2727
522.37	10.8663
525.263	5.88309
528.155	3.55121
531.048	0.257751
533.941	2.08102
536.833	2.27971
539.726	2.90218
542.619	1.02373
545.511	3.33987
548.404	9.26952
551.297	12.9417
554.19	17.3468
557.082	21.8645
559.975	25.2872
562.868	26.7024
565.76	29.6649
568.653	29.9448
571.546	30.8156
574.438	31.2496
577.331	36.6575
580.224	46.593
583.117	56.1047
586.009	73.4184
588.902	91.0323
591.795	106.518
594.687	117.845
597.58	118.952
600.473	109.922
603.365	98.4025
606.258	84.7118
609.151	76.5048
612.044	69.2068
614.936	65.5651
617.829	63.0413
620.722	57.8685
623.614	55.614
626.507	50.7356
629.4	44.9943
632.293	41.0725
635.185	35.6796
638.078	33.5299
640.971	29.7773
643.863	26.6317
646.756	22.2066
649.649	19.8189
652.541	17.05
655.434	14.949
658.327	10.514
661.22	9.02434
664.112	6.69046
667.005	5.10951
669.898	2.89961
672.79	2.13197
675.683	1.42734
678.576	1.62872
681.468	0.105621
684.361	0.834549
687.254	1.30176
690.146	0.29361
693.039	0.868149
695.932	1.00941
698.825	0.013092
701.717	0.459084
704.61	0.690453
707.503	0.281212
710.395	0.764107
713.288	1.57157
716.181	1.82175
719.073	3.03774
721.966	0.711845
724.859	1.28838
727.752	0.721504
730.644	0.44223
733.537	0.574379
736.43	0.304543
739.322	1.2169
742.215	0.46347
745.108	0.679893
748	0.239326
750.893	0.612579
753.786	0.932503
756.679	1.3588
759.571	0.945465
762.464	0.129768
765.357	0.507729
768.25	0.726509
771.142	1.20411
774.035	1.15701
776.928	1.24919
779.82	4.35897
782.713	2.63088
785.606	2.79835
788.498	3.63737
791.391	3.99669
794.284	5.14111
797.177	3.73901
800.069	4.72955
802.962	5.89499
805.855	5.79286
808.747	5.04825
811.64	5.20026
814.533	5.93455
817.425	6.45783
820.318	6.66244
823.211	6.90778
826.104	6.6215
828.996	7.03708
831.889	7.19279
834.782	8.41943
837.674	8.28635
840.567	8.49531
843.46	10.8985
846.352	10.8328
849.245	10.217
852.138	10.5868
855.03	10.2071
857.923	9.76724
860.816	9.58602
863.709	8.3254
866.601	7.5938
869.494	6.81344
872.387	5.52592
875.279	4.3828
878.172	4.08199
881.065	2.98218
883.957	2.09166
886.85	0.67131
889.743	0.394157
892.636	0.989471
895.528	0.604141
898.421	1.01533
901.314	1.35313
904.206	0.042679
907.099	0.65583
909.992	0.916641
912.885	1.62325
915.777	3.04897
918.67	5.33784
921.563	4.95209
924.455	6.65091
927.348	9.29797
930.241	8.25992
933.133	11.1374
936.026	11.3475
938.919	14.0969
941.812	14.7625
944.704	16.1662
947.597	18.5626
950.49	20.3199
953.382	23.2624
956.275	24.0661
959.168	26.1415
962.06	28.6202
964.953	33.7313
967.846	37.1788
970.739	41.6411
973.631	45.1679
976.524	52.6822
979.417	58.0648
982.309	65.9302
985.202	73.117
988.095	81.0663
990.987	87.8154
993.88	91.6276
996.773	93.6136
999.665	92.1254
1002.56	87.9325
1005.45	80.3812
1008.34	70.6568
1011.24	62.1657
1014.13	54.3945
1017.02	45.8525
1019.91	41.0662
1022.81	34.1548
1025.7	30.2118
1028.59	25.238
1031.48	22.3102
1034.38	20.3526
1037.27	16.1797
1040.16	13.8635
1043.06	8.65341
1045.95	6.47473
1048.84	4.24587
1051.73	1.77733
1054.63	0.117798
1057.52	1.62862
1060.41	2.02536
1063.31	3.51147
1066.2	2.51042
1069.09	0.546783
1071.98	1.0554
1074.88	3.21136
1077.77	6.47302
1080.66	9.95013
1083.55	13.5976
1086.45	16.9984
1089.34	20.6079
1092.23	24.0219
1095.12	28.3869
1098.02	31.2382
1100.91	36.2914
1103.8	40.6458
1106.69	44.8523
1109.59	50.744
1112.48	56.6593
1115.37	61.5226
1118.27	64.7657
1121.16	69.4185
1124.05	68.9636
1126.94	66.8286
1129.84	61.61
1132.73	57.1356
1135.62	51.4184
1138.52	45.9309
1141.41	40.9335
1144.3	34.3824
1147.19	29.8586
1150.09	24.5051
1152.98	21.7583
1155.87	19.7746
1158.76	16.6481
1161.66	15.6359
1164.55	14.2254
1167.44	14.9533
1170.34	14.161
1173.23	12.9829
1176.12	13.44
1179.01	13.5282
1181.91	11.948
1184.8	10.1274
1187.69	10.9931
1190.58	9.32742
1193.48	8.46359
1196.37	5.99151
1199.26	4.22378
1202.15	2.69684
1205.05	1.09717
1207.94	0.57122
1210.83	1.36857
1213.72	0.459694
1216.62	1.03395
1219.51	0.242996
1222.4	0.09507
1225.3	0.752609
1228.19	0.984032
1231.08	2.72903
1233.97	3.90634
1236.87	3.36035
1239.76	5.99029
1242.65	6.73493
1245.55	6.63044
1248.44	5.99105
1251.33	4.58554
1254.22	4.68256
1257.12	4.12339
1260.01	4.02497
1262.9	4.61021
1265.79	1.50543
1268.69	0.59523
1271.58	1.99368
1274.47	1.70924
1277.37	0.118729
1280.26	0.678574
