Measurement: Raman, 532 nm, unoriented, Raman Data Processed
Mineral: Rosemaryite
Rruff sample: R140519
Ideal chemistry: [box]NaMn^2+^(Fe^3+^Al)(PO_4_)_3_
Locality: Buranga pegmatite, Gatumba District, Western Province, Rwanda
Source: Rock Currier
Description: Vitreous-opaque dark brown irregularly shaped masses intergrown with vitreous light brown childrenite and blocky dark blue scorzalite in a grayish siliceous matrix.
Measured chemistry: (Na_0.49_Ca_0.05_Mn^2+^_0.29_[box]_0.17_)Mn^2+^_1.00_(Fe^3+^_0.82_Mg_0.10_Mn^2+^_0.08_)(Al^3+^_0.76_Fe^3+^_0.24_)(PO_4_)_3_
Raman shift (cm-1)	intensity
144.939	0
147.832	4.96053
150.725	0.21312
153.617	2.40124
156.51	9.3414
159.403	2.67761
162.295	3.98438
165.188	7.93195
168.081	7.76279
170.974	10.1127
173.866	8.21072
176.759	6.19052
179.652	6.34155
182.544	4.10413
185.437	3.60608
188.33	7.11557
191.222	4.65646
194.115	5.6481
197.008	4.70895
199.9	2.96069
202.793	3.95783
205.686	3.10883
208.579	1.51608
211.471	2.2569
214.364	3.96472
217.257	2.95596
220.149	2.2294
223.042	4.09351
225.935	2.8302
228.827	4.24017
231.72	3.59622
234.613	4.39597
237.506	2.96207
240.398	2.59787
243.291	0.96225
246.184	0.440704
249.076	0.831451
251.969	1.31012
254.862	1.7045
257.755	0.533142
260.647	1.39654
263.54	1.35257
266.433	2.40778
269.325	3.07306
272.218	3.66159
275.111	4.54694
278.003	6.00369
280.896	8.10263
283.789	7.74728
286.682	9.56982
289.574	9.21661
292.467	10.6356
295.36	9.93225
298.252	9.09418
301.145	8.92804
304.038	6.87192
306.93	5.7196
309.823	4.26042
312.716	2.21967
315.608	2.7863
318.501	0.23204
321.394	0.053604
324.287	2.23329
327.179	1.02138
330.072	2.1559
332.965	1.69171
335.857	2.28963
338.75	2.24864
341.643	3.68201
344.536	2.81984
347.428	4.08476
350.321	2.03308
353.214	5.55865
356.106	5.67357
358.999	7.05675
361.892	7.50784
364.784	8.37593
367.677	8.21332
370.57	10.8816
373.462	11.0378
376.355	11.7242
379.248	11.0812
382.141	8.37619
385.033	6.86462
387.926	3.22498
390.819	3.25107
393.711	1.37056
396.604	2.06947
399.497	3.52957
402.389	4.2478
405.282	5.64108
408.175	6.33931
411.068	4.69339
413.96	4.94324
416.853	3.8591
419.746	4.71225
422.638	3.30141
425.531	4.1182
428.424	3.36382
431.317	3.17676
434.209	1.96146
437.102	1.40718
439.995	0.678436
442.887	0.791122
445.78	1.63257
448.673	0.252548
451.565	0.337799
454.458	2.07936
457.351	5.50931
460.243	8.53932
463.136	11.6745
466.029	14.4452
468.922	18.1252
471.814	23.2374
474.707	26.5172
477.6	32.1345
480.492	40.3285
483.385	44.337
486.278	44.4488
489.171	44.424
492.063	41.1679
494.956	40.1656
497.849	37.9088
500.741	36.0348
503.634	32.5184
506.527	29.314
509.419	27.5692
512.312	24.9045
515.205	22.0097
518.097	20.7438
520.99	17.3929
523.883	13.3979
526.776	9.28082
529.668	4.96133
532.561	3.21225
535.454	3.53537
538.346	3.67099
541.239	3.02371
544.132	0.030746
547.024	4.53184
549.917	10.4067
552.81	15.7554
555.703	19.9773
558.595	27.4543
561.488	32.0609
564.381	33.8677
567.273	36.2307
570.166	36.5662
573.059	42.8269
575.952	48.7865
578.844	61.1632
581.737	79.1547
584.63	97.838
587.522	115.763
590.415	133.267
593.308	144.979
596.2	144.05
599.093	136.283
601.986	122.978
604.879	107.304
607.771	98.2857
610.664	88.8422
613.557	85.2034
616.449	79.2077
619.342	72.6774
622.235	69.7899
625.127	64.499
628.02	58.1638
630.913	53.6678
633.806	47.6803
636.698	42.1719
639.591	37.1945
642.484	33.0813
645.376	28.3465
648.269	24.7147
651.162	20.0343
654.054	17.2278
656.947	13.8106
659.84	12.063
662.732	8.98485
665.625	8.30251
668.518	6.42169
671.411	5.60966
674.303	5.25464
677.196	2.8856
680.089	2.63959
682.981	0.533188
685.874	0.178818
688.767	0.368027
691.659	0.296127
694.552	1.19521
697.445	0.848373
700.338	1.75147
703.23	1.07938
706.123	1.17682
709.016	0.713898
711.908	1.04321
714.801	0.219696
717.694	0.847336
720.587	0.356827
723.479	1.29791
726.372	1.76723
729.265	0.444427
732.157	1.11516
735.05	0.016037
737.943	1.87952
740.835	1.49191
743.728	1.39772
746.621	2.0202
749.514	2.61984
752.406	2.6669
755.299	1.32283
758.192	1.62619
761.084	2.90598
763.977	1.92284
766.87	1.69472
769.762	1.804
772.655	1.46068
775.548	2.97649
778.441	2.24425
781.333	2.97517
784.226	5.24403
787.119	4.43565
790.011	6.60344
792.904	6.18326
795.797	6.83409
798.689	8.37192
801.582	7.74057
804.475	10.6337
807.367	10.4266
810.26	9.28973
813.153	11.9907
816.046	11.9254
818.938	12.5919
821.831	13.8207
824.724	13.602
827.616	14.7037
830.509	14.6956
833.402	14.9488
836.294	16.2586
839.187	18.1072
842.08	17.8093
844.973	19.0238
847.865	19.3923
850.758	20.8395
853.651	20.4548
856.543	22.2425
859.436	20.7438
862.329	18.7181
865.221	18.477
868.114	14.1007
871.007	13.463
873.9	10.9207
876.792	10.5886
879.685	7.79746
882.578	5.18604
885.47	5.16132
888.363	3.29774
891.256	1.12115
894.149	0.580032
897.041	0.910477
899.934	1.87614
902.827	1.84189
905.719	0.322952
908.612	1.00775
911.505	0.77243
914.397	1.73633
917.29	2.13223
920.183	3.50623
923.076	4.65939
925.968	6.94304
928.861	7.22087
931.754	7.51602
934.646	8.91611
937.539	10.5082
940.432	11.4139
943.324	13.2782
946.217	15.3841
949.11	17.052
952.003	17.8319
954.895	17.6102
957.788	17.8816
960.681	21.0109
963.573	21.9766
966.466	26.1148
969.359	28.9179
972.251	33.7468
975.144	40.5985
978.037	46.9831
980.929	54.8086
983.822	62.1488
986.715	72.1457
989.608	79.9666
992.5	86.5693
995.393	92.8272
998.286	91.8742
1001.18	90.9392
1004.07	85.5313
1006.96	77.2172
1009.86	69.127
1012.75	58.4609
1015.64	49.7589
1018.53	43.4433
1021.43	37.045
1024.32	32.0148
1027.21	26.7253
1030.11	23.5356
1033	19.4318
1035.89	16.8794
1038.78	12.1717
1041.68	9.75493
1044.57	5.65007
1047.46	2.08882
1050.35	0.510635
1053.25	3.29581
1056.14	3.96275
1059.03	4.94466
1061.92	2.65063
1064.82	1.54901
1067.71	2.60906
1070.6	7.16843
1073.5	13.9756
1076.39	20.6495
1079.28	30.278
1082.17	36.9565
1085.07	47.1641
1087.96	56.141
1090.85	64.8556
1093.74	75.2316
1096.64	85.5162
1099.53	95.5876
1102.42	106.712
1105.32	119.572
1108.21	130.76
1111.1	144.076
1113.99	154.1
1116.89	162.869
1119.78	167.361
1122.67	167.105
1125.56	162.43
1128.46	154.567
1131.35	143.59
1134.24	131.941
1137.13	118.814
1140.03	106.323
1142.92	92.0045
1145.81	78.9778
1148.71	69.7033
1151.6	61.2964
1154.49	54.5548
1157.38	49.393
1160.28	45.4044
1163.17	41.81
1166.06	39.6929
1168.95	38.7245
1171.85	37.0607
1174.74	35.7764
1177.63	34.769
1180.53	32.5694
1183.42	32.1609
1186.31	28.2651
1189.2	25.3696
1192.1	21.4127
1194.99	17.6101
1197.88	13.1966
1200.78	6.88214
1203.67	3.3927
1206.56	1.07056
1209.45	0.911987
1212.35	1.18909
1215.24	2.76262
1218.13	1.76422
1221.02	1.7243
1223.92	1.10106
1226.81	0.035156
1229.7	0.306702
1232.59	1.94716
1235.49	1.60549
1238.38	2.75614
1241.27	3.21234
1244.16	4.46829
1247.06	4.35756
1249.95	7.14227
1252.84	8.05853
1255.74	9.70547
1258.63	10.1365
1261.52	7.02919
1264.41	7.89102
1267.31	5.43239
1270.2	5.32436
1273.09	4.84665
1275.98	5.43461
1278.88	4.37844
1281.77	3.89707
1284.66	1.6296
1287.56	3.93835
1290.45	1.79616
1293.34	1.77361
1296.23	0.633278
1299.13	1.02096
