Measurement: Raman, 780 nm, unoriented, Raman Data Processed
Mineral: Salammoniac
Rruff sample: R061022
Ideal chemistry: N^3-^H_4_Cl
Locality: Schoeller mine, Kladno, Bohemia, Czech Republic
Source: Michael Scott
Description: A crust of colorless tabular crystals
Measured chemistry: NH_4_Cl_1.00_ ; N, H not measured but estimated by stoichiometry
Raman shift (cm-1)	intensity
118.838	0
122.213	12.6352
125.588	153.747
128.963	444.558
132.338	785.915
135.712	1081.99
139.087	1237.49
142.462	1220.95
145.837	1127.47
149.212	1003.13
152.586	910.157
155.961	881.403
159.336	900.846
162.711	978.967
166.086	1041.7
169.46	1025.37
172.835	876.687
176.21	666.819
179.585	497.282
182.96	385.982
186.334	333.855
189.709	299.062
193.084	276.758
196.459	251.924
199.834	209.119
203.209	165.772
206.583	115.751
209.958	72.3632
213.333	38.4761
216.708	12.1592
220.083	1.09967
223.458	8.88538
226.832	14.1289
230.207	12.8846
233.582	16.5902
236.957	11.2225
240.332	6.24884
243.706	1.51562
247.081	7.02447
250.456	11.6157
253.831	21.5525
257.206	32.7272
260.58	43.0281
263.955	58.8946
267.33	70.6138
270.705	82.0078
274.08	89.5899
277.455	99.9766
280.829	105.141
284.204	109.365
287.579	107.736
290.954	105.657
294.329	101.339
297.704	99.4976
301.078	98.4849
304.453	93.2026
307.828	94.1809
311.203	89.1332
314.578	86.1398
317.952	84.2371
321.327	83.1552
324.702	80.2963
328.077	78.0284
331.452	74.9679
334.827	75.8218
338.201	73.1483
341.576	70.4483
344.951	64.6279
348.326	57.968
351.701	57.2293
355.075	56.6581
358.45	54.6401
361.825	48.4362
365.2	45.587
368.575	39.8602
371.95	34.4541
375.324	30.0265
378.699	23.6941
382.074	18.2831
385.449	11.9989
388.824	8.9469
392.198	6.11523
395.573	2.24518
398.948	0.36673
402.323	2.31021
405.698	3.13434
409.072	5.20831
412.447	2.28388
415.822	2.86859
419.197	1.67575
422.572	1.80951
425.947	6.08612
429.321	9.86688
432.696	10.3608
436.071	14.2593
439.446	17.7245
442.821	20.5395
446.195	23.7946
449.57	29.7055
452.945	30.7299
456.32	33.2276
459.695	35.6977
463.07	38.0471
466.444	38.7779
469.819	37.3137
473.194	39.576
476.569	39.203
479.944	40.0154
483.318	42.0235
486.693	43.4656
490.068	45.7676
493.443	45.6964
496.818	43.9633
500.192	43.4198
503.567	42.3891
506.942	41.9894
510.317	43.6931
513.692	42.9288
517.067	39.3424
520.441	34.1107
523.816	33.3727
527.191	30.2481
530.566	26.3034
533.941	24.4757
537.316	24.4436
540.69	24.3616
544.065	19.955
547.44	17.4675
550.815	14.4049
554.19	11.1997
557.564	9.21317
560.939	6.10635
564.314	4.42065
567.689	3.03467
571.064	1.35626
574.438	1.19434
577.813	0.228577
581.188	0.029327
584.563	2.36017
587.938	0.670166
591.313	0.933777
594.687	0.910767
598.062	0.523254
601.437	1.08548
604.812	1.16715
608.187	2.53412
611.562	3.01498
614.936	2.22247
618.311	3.08945
621.686	3.86963
625.061	6.51999
628.436	7.78568
631.81	9.32251
635.185	7.88684
638.56	10.2562
641.935	9.20267
645.31	9.07925
648.684	10.3395
652.059	9.30634
655.434	10.4269
658.809	9.95438
662.184	11.1208
665.559	9.67062
668.933	11.4163
672.308	10.1958
675.683	9.97315
679.058	12.3218
682.433	10.0347
685.808	12.1915
689.182	11.7718
692.557	10.5954
695.932	10.1793
699.307	10.3655
702.682	11.0283
706.056	10.4908
709.431	9.827
712.806	9.61334
716.181	9.43842
719.556	8.34274
722.931	7.83404
726.305	6.43869
729.68	8.66119
733.055	6.36136
736.43	6.80151
739.805	6.13562
743.179	4.65631
746.554	3.97433
749.929	4.21133
753.304	4.23846
756.679	2.65739
760.053	0.396393
763.428	1.55931
766.803	0.235809
770.178	0.171677
773.553	0.070511
776.928	0.488678
780.302	0.472015
783.677	0.077621
787.052	0.047562
790.427	0.188721
793.802	0.235367
797.177	0.41954
800.551	0.605133
803.926	2.50641
807.301	1.08897
810.676	1.95438
814.051	3.60379
817.425	1.84885
820.8	2.39755
824.175	3.62743
827.55	4.54858
830.925	4.32916
834.299	4.50838
837.674	6.14002
841.049	5.05339
844.424	5.64496
847.799	5.97777
851.173	7.1505
854.548	7.38515
857.923	5.19389
861.298	7.85635
864.673	6.79744
868.048	6.90674
871.422	7.30676
874.797	5.64799
878.172	3.9892
881.547	5.06586
884.922	4.09502
888.297	2.91725
891.671	4.34155
895.046	2.96869
898.421	1.89966
901.796	2.64397
905.171	1.6537
908.545	0.776535
911.92	2.38937
915.295	0.845825
918.67	1.95679
922.045	1.30087
925.419	1.38135
928.794	0.242767
932.169	1.31541
935.544	2.74115
938.919	0.468658
942.294	1.46362
945.668	1.58612
949.043	1.38051
952.418	2.11006
955.793	0.958801
959.168	0.125854
962.543	1.2383
965.917	0.014435
969.292	1.58452
972.667	0.817978
976.042	0.592148
979.417	0.240936
982.791	0.595016
986.166	0.752869
989.541	0.405197
992.916	1.59338
996.291	0.222961
999.665	0.69812
1003.04	0.389038
1006.41	0.669022
1009.79	0.585907
1013.16	0.918655
1016.54	0.713028
1019.91	2.75877
1023.29	3.30838
1026.66	4.56081
1030.04	8.90158
1033.41	9.12322
1036.79	6.78288
1040.16	10.8653
1043.54	10.5292
1046.91	11.3235
1050.29	12.3484
1053.66	13.0152
1057.04	13.9484
1060.41	14.4496
1063.79	14.5809
1067.16	12.3623
1070.54	13.7951
1073.91	14.6366
1077.29	14.0257
1080.66	14.3534
1084.04	13.2051
1087.41	14.5636
1090.79	13.2796
1094.16	11.7359
1097.54	11.0298
1100.91	10.2983
1104.29	9.14246
1107.66	8.00619
1111.03	8.35523
1114.41	5.81438
1117.78	5.73203
1121.16	6.86671
1124.53	3.42897
1127.91	2.16109
1131.28	2.54217
1134.66	1.6787
1138.03	2.04898
1141.41	1.42979
1144.78	2.45126
1148.16	0.159851
1151.53	0.12587
1154.91	1.01289
1158.28	0.324661
1161.66	1.06441
1165.03	1.03157
1168.41	0.764618
1171.78	1.63484
1175.16	1.42026
1178.53	1.46831
1181.91	1.37422
1185.28	0.005447
1188.65	0.36615
1192.03	2.23334
1195.4	1.12247
1198.78	1.68755
1202.15	0.918655
1205.53	1.10402
1208.9	1.19733
1212.28	1.91937
1215.65	0.779129
1219.03	0.167892
1222.4	0.637405
1225.78	0.465271
1229.15	0.061676
1232.53	1.17255
1235.9	2.36047
1239.28	0.612137
1242.65	2.25198
1246.03	1.97159
1249.4	1.48256
1252.78	1.42006
1256.15	0.858826
1259.53	0.797211
1262.9	2.5007
1266.28	1.7657
1269.65	1.21611
1273.03	0.762833
1276.4	0.724625
1279.78	1.15179
