Measurement: Raman, 532 nm, unoriented, Raman Data Processed
Mineral: Salammoniac
Rruff sample: R060521
Ideal chemistry: N^3-^H_4_Cl
Locality: Tien-Shan Mountains, Tadzhikistan, U.S.S.R
Source: Michael Scott
Description: White dendritic
Measured chemistry: NH_4_Cl_1.00_ ; N, H not measured but estimated by stoichiometry
Raman shift (cm-1)	intensity
107.621	0
110.996	3.0415
114.371	80.64
117.746	119.011
121.121	211.464
124.496	449.292
127.87	767.604
131.245	1199.3
134.62	1632.7
137.995	1926.9
141.37	2032.47
144.744	1943.2
148.119	1768.43
151.494	1594.09
154.869	1473.15
158.244	1416.38
161.619	1421.84
164.993	1467.25
168.368	1469.32
171.743	1362.93
175.118	1127.53
178.493	880.605
181.868	699.447
185.242	594.232
188.617	531.864
191.992	491.537
195.367	446.728
198.742	399.917
202.116	339.007
205.491	268.118
208.866	198.53
212.241	136.916
215.616	90.4669
218.99	54.6005
222.365	26.9868
225.74	8.50781
229.115	4.13178
232.49	10.2449
235.865	15.8054
239.239	15.7812
242.614	14.7187
245.989	14.1442
249.364	8.46277
252.739	0.052185
256.113	12.0209
259.488	24.8056
262.863	39.3639
266.238	47.7493
269.613	64.4678
272.988	77.345
276.362	90.6863
279.737	103.078
283.112	112.173
286.487	123.483
289.862	131.659
293.236	135.92
296.611	132.367
299.986	127.948
303.361	121.649
306.736	117.701
310.111	112.258
313.485	105.229
316.86	104.781
320.235	101.188
323.61	100.133
326.985	98.7257
330.359	96.5696
333.734	95.8871
337.109	94.5442
340.484	90.2666
343.859	86.7304
347.233	84.1322
350.608	80.4119
353.983	76.7563
357.358	73.9827
360.733	67.1698
364.108	63.611
367.482	57.0281
370.857	48.5253
374.232	41.5303
377.607	35.9661
380.982	29.5768
384.356	22.8007
387.731	17.8705
391.106	12.0184
394.481	5.38324
397.856	2.67911
401.231	0.179443
404.605	0.75177
407.98	3.43445
411.355	4.95441
414.73	3.93335
418.105	1.55435
421.479	0.91568
424.854	1.68524
428.229	3.7421
431.604	7.98682
434.979	11.3423
438.354	15.8943
441.728	20.1944
445.103	23.7675
448.478	29.1767
451.853	32.1841
455.228	37.1505
458.603	38.1322
461.977	40.9947
465.352	45.145
468.727	46.7535
472.102	49.436
475.477	49.7495
478.851	54.1062
482.226	54.1764
485.601	55.6938
488.976	56.8576
492.351	56.077
495.726	55.7814
499.1	55.4605
502.475	56.4712
505.85	54.6059
509.225	52.7089
512.6	52.5438
515.974	49.9824
519.349	47.5282
522.724	44.0935
526.099	42.1024
529.474	37.5791
532.848	36.4622
536.223	32.118
539.598	28.8883
542.973	26.2781
546.348	25.1069
549.722	19.0647
553.097	16.1718
556.472	12.656
559.847	8.36032
563.222	7.49925
566.597	5.05255
569.971	3.12132
573.346	0.018127
576.721	0.047913
580.096	0.393845
583.471	0.590714
586.846	0.594543
590.22	0.41452
593.595	1.63885
596.97	2.05391
600.345	0.538727
603.72	0.713745
607.094	1.4998
610.469	3.77341
613.844	4.13051
617.219	5.73769
620.594	5.17024
623.968	7.41223
627.343	8.51685
630.718	7.79018
634.093	9.92242
637.468	11.8995
640.843	12.4295
644.217	12.7242
647.592	13.9244
650.967	14.6917
654.342	14.6494
657.717	13.6938
661.091	13.995
664.466	15.2596
667.841	16.4795
671.216	16.5637
674.591	19.1733
677.966	17.2075
681.34	20.2872
684.715	18.9285
688.09	19.3937
691.465	19.8886
694.84	19.674
698.215	19.8395
701.589	18.544
704.964	18.1437
708.339	18.1716
711.714	17.4068
715.089	15.9753
718.463	15.0716
721.838	13.7761
725.213	14.3566
728.588	12.555
731.963	11.6916
735.337	11.1243
738.712	10.3032
742.087	9.83421
745.462	8.01793
748.837	7.84804
752.212	6.69511
755.586	5.78793
758.961	4.9263
762.336	1.74141
765.711	1.25926
769.086	0.78212
772.46	0.81459
775.835	0.395309
779.21	1.03349
782.585	0.327057
785.96	0.348663
789.335	1.17288
792.709	0.133011
796.084	1.40677
799.459	0.640427
802.834	1.89995
806.209	3.51679
809.583	3.55684
812.958	3.28682
816.333	4.8676
819.708	5.487
823.083	8.21097
826.457	10.9798
829.832	9.46288
833.207	9.37244
836.582	10.3813
839.957	12.8077
843.332	12.7881
846.706	14.3583
850.081	14.7093
853.456	14.0998
856.831	14.5014
860.206	15.3812
863.581	15.054
866.955	14.3254
870.33	15.17
873.705	13.8417
877.08	11.7947
880.455	11.8147
883.829	10.7408
887.204	7.9221
890.579	9.31177
893.954	7.71909
897.329	5.74583
900.703	6.1696
904.078	4.21924
907.453	7.77559
910.828	2.24934
914.203	1.48668
917.578	0.457596
920.952	0.109573
924.327	0.957428
927.702	0.322891
931.077	0.677551
934.452	0.14888
937.827	0.680435
941.201	1.14354
944.576	0.609741
947.951	2.45044
951.326	2.18103
954.701	2.4319
958.075	2.26465
961.45	3.39572
964.825	3.57347
968.2	4.03363
971.575	2.8455
974.949	3.84952
978.324	2.76332
981.699	2.69704
985.074	2.1294
988.449	2.17278
991.823	0.623947
995.198	1.28372
998.573	0.191299
1001.95	1.1219
1005.32	0.648224
1008.7	0.259186
1012.07	0.724319
1015.45	0.597733
1018.82	2.02058
1022.2	4.72186
1025.57	6.58232
1028.95	9.19702
1032.32	11.2225
1035.7	12.3242
1039.07	15.0568
1042.45	18.0863
1045.82	21.6189
1049.19	20.6875
1052.57	21.4554
1055.94	23.8777
1059.32	22.1565
1062.69	23.7766
1066.07	24.4163
1069.44	24.31
1072.82	24.0032
1076.19	24.2734
1079.57	23.638
1082.94	23.481
1086.32	22.7995
1089.69	22.8968
1093.07	20.4906
1096.44	19.776
1099.82	20.0861
1103.19	17.7706
1106.57	16.2749
1109.94	14.5883
1113.32	12.23
1116.69	10.6522
1120.07	10.5555
1123.44	7.85541
1126.82	6.56513
1130.19	4.6747
1133.57	3.64549
1136.94	3.04665
1140.32	2.17172
1143.69	2.03322
1147.07	1.5993
1150.44	0.810577
1153.82	0.37323
1157.19	1.01204
1160.56	0.561432
1163.94	0.059158
1167.31	1.10971
1170.69	0.126984
1174.06	0.543442
1177.44	0.768646
1180.81	0.128296
1184.19	0.78717
1187.56	1.12878
1190.94	0.178009
1194.31	0.192917
1197.69	0.100616
1201.06	6.22359
1204.44	1.50378
1207.81	0.602982
1211.19	0.279663
1214.56	1.18118
1217.94	0.615768
1221.31	0.239807
1224.69	0.019577
1228.06	1.95387
1231.44	0.566528
1234.81	2.05135
1238.18	6.40031
1241.56	0.169846
1244.93	1.64914
1248.31	1.89426
1251.68	3.3071
1255.06	2.86095
1258.43	2.65776
1261.81	2.69927
1265.18	0.964493
1268.56	1.27637
1271.93	0.153046
1275.31	1.634
1278.68	0.447525
1282.06	0.846664
1285.43	2.45244
1288.81	1.70035
1292.18	2.10471
1295.56	0.128586
1298.93	0.61113
