Measurement: Raman, 532 nm, unoriented, Raman Data Processed
Mineral: Salammoniac
Rruff sample: R061022
Ideal chemistry: N^3-^H_4_Cl
Locality: Schoeller mine, Kladno, Bohemia, Czech Republic
Source: Michael Scott
Description: A crust of colorless tabular crystals
Measured chemistry: NH_4_Cl_1.00_ ; N, H not measured but estimated by stoichiometry
Raman shift (cm-1)	intensity
117.941	0
121.316	1.26269
124.69	280.525
128.065	739.967
131.44	1423.73
134.815	2088.2
138.19	2557.26
141.564	2710.47
144.939	2577.6
148.314	2344.3
151.689	2122.21
155.064	1986.23
158.439	1962.06
161.813	2060
165.188	2210.41
168.563	2271.23
171.938	2116.02
175.313	1718.69
178.687	1299.29
182.062	1020.53
185.437	869.543
188.812	796.739
192.187	750.253
195.561	703.589
198.936	618.382
202.311	522.769
205.686	405.85
209.061	293.483
212.435	198.866
215.81	131.326
219.185	73.8456
222.56	34.9764
225.935	13.0134
229.31	12.1426
232.684	21.951
236.059	26.167
239.434	25.6792
242.809	27.1959
246.184	18.4232
249.559	12.7236
252.933	4.08374
256.308	27.9648
259.683	49.04
263.058	75.3594
266.433	94.7295
269.807	122.96
273.182	150.238
276.557	176.376
279.932	189.736
283.307	208.306
286.682	225.41
290.056	229.07
293.431	226.598
296.806	225.453
300.181	212.972
303.556	206.362
306.93	197.481
310.305	191.608
313.68	183.587
317.055	181.122
320.43	173.905
323.805	175.295
327.179	170.609
330.554	167.31
333.929	167.137
337.304	164.761
340.679	155.215
344.053	152.009
347.428	147.479
350.803	137.791
354.178	135.431
357.553	126.599
360.928	122.008
364.302	111.102
367.677	102.386
371.052	81.4226
374.427	70.1969
377.801	65.0362
381.176	53.4518
384.551	39.1466
387.926	28.6946
391.301	13.1614
394.676	5.83923
398.05	1.47278
401.425	3.1687
404.8	7.35278
408.175	2.20715
411.55	10.1107
414.925	4.68298
418.299	2.06189
421.674	5.28992
425.049	6.2782
428.424	11.7487
431.799	16.7291
435.173	23.5902
438.548	31.9972
441.923	42.9114
445.298	48.155
448.673	55.6924
452.048	61.7106
455.422	70.67
458.797	79.6195
462.172	82.9134
465.547	88.0493
468.922	91.1178
472.296	93.2947
475.671	96.6882
479.046	101.907
482.421	111.623
485.796	120.445
489.171	116.564
492.545	117.057
495.92	113.231
499.295	114.874
502.67	111.746
506.045	111.954
509.419	112.061
512.794	108.348
516.169	103.597
519.544	97.3306
522.919	90.2314
526.293	86.9598
529.668	76.9927
533.043	71.2361
536.418	61.8698
539.793	56.9348
543.168	53.7145
546.542	50.6642
549.917	43.8063
553.292	35.0365
556.667	27.514
560.042	21.7886
563.417	18.1139
566.791	9.11182
570.166	7.5553
573.541	5.18579
576.916	1.23132
580.291	0.479736
583.665	3.23328
587.04	3.43616
590.415	1.43848
593.79	5.50256
597.165	1.10913
600.539	0.602173
603.914	2.07227
607.289	2.5968
610.664	3.03186
614.039	3.92297
617.413	4.36389
620.788	7.83643
624.163	7.72949
627.538	9.06396
630.913	12.0305
634.288	15.4082
637.662	19.5371
641.037	20.1234
644.412	25.3581
647.787	26.7068
651.162	28.7159
654.537	25.3908
657.911	23.2092
661.286	25.3171
664.661	24.8071
668.036	32.7223
671.411	28.6279
674.785	31.7313
678.16	31.724
681.535	34.979
684.91	35.2022
688.285	35.3818
691.659	35.8218
695.034	32.3567
698.409	38.731
701.784	30.7482
705.159	37.0858
708.534	36.796
711.908	31.4717
715.283	32.4659
718.658	32.4067
722.033	32.6221
725.408	31.5122
728.783	29.5064
732.157	30.6942
735.532	23.9137
738.907	23.4551
742.282	24.6932
745.657	20.538
749.031	20.7047
752.406	19.6975
755.781	12.3121
759.156	8.82104
762.531	5.78394
765.905	9.0918
769.28	3.70874
772.655	3.10779
776.03	0.94812
779.405	1.66419
782.779	0.229248
786.154	2.0686
789.529	3.78552
792.904	2.55408
796.279	3.08179
799.654	1.4353
803.028	2.57886
806.403	9.92285
809.778	4.78174
813.153	8.12915
816.528	11.551
819.903	11.4114
823.277	10.8016
826.652	11.0223
830.027	14.0112
833.402	13.7705
836.777	16.1873
840.151	24.4582
843.526	24.9575
846.901	26.7133
850.276	21.2531
853.651	22.998
857.025	27.0956
860.4	28.1328
863.775	25.6034
867.15	24.0456
870.525	22.9386
873.9	19.6352
877.274	23.1826
880.649	19.0095
884.024	19.1417
887.399	13.391
890.774	14.3357
894.149	11.8243
897.523	5.50806
900.898	8.80249
904.273	8.83374
907.648	6.91003
911.023	3.328
914.397	2.34216
917.772	0.036621
921.147	1.38208
924.522	3.75915
927.897	1.87854
931.271	1.61658
934.646	1.74915
938.021	0.999023
941.396	2.41101
944.771	6.81836
948.146	3.53638
951.52	3.08643
954.895	0.375122
958.27	0.763794
961.645	3.42688
965.02	3.78796
968.394	6.99841
971.769	6.34619
975.144	2.62488
978.519	2.17102
981.894	5.96069
985.269	2.93384
988.643	1.76746
992.018	1.40332
995.393	1.61206
998.768	0.512207
1002.14	0.72522
1005.52	0.512817
1008.89	3.97217
1012.27	4.56494
1015.64	8.24963
1019.02	11.0826
1022.39	8.03381
1025.77	12.3152
1029.14	19.2484
1032.52	21.235
1035.89	32.8103
1039.27	40.5781
1042.64	41.8129
1046.02	41.7737
1049.39	42.199
1052.77	45.1028
1056.14	41.1965
1059.52	39.0665
1062.89	45.6243
1066.26	47.5022
1069.64	50.2693
1073.01	46.3807
1076.39	42.4325
1079.76	43.4451
1083.14	45.5337
1086.51	40.3911
1089.89	41.9679
1093.26	39.0685
1096.64	33.8973
1100.01	34.4161
1103.39	30.4041
1106.76	27.9443
1110.14	28.8123
1113.51	24.4731
1116.89	19.9087
1120.26	23.0923
1123.64	12.8522
1127.01	11.0411
1130.39	8.67578
1133.76	7.4447
1137.13	6.38208
1140.51	3.9906
1143.88	1.05432
1147.26	2.14832
1150.63	0.006104
1154.01	1.03845
1157.38	4.25098
1160.76	1.66699
1164.13	0.304443
1167.51	2.22095
1170.88	0.021729
1174.26	2.80896
1177.63	2.21057
1181.01	2.2489
1184.38	7.39893
1187.76	12.2894
1191.13	10.2357
1194.51	7.54272
1197.88	7.63354
1201.26	4.57458
1204.63	7.96582
1208.01	12.7076
1211.38	3.20764
1214.76	7.74304
1218.13	9.23889
1221.51	5.00488
1224.88	5.42029
1228.26	2.04895
1231.63	2.50488
1235.01	3.74939
1238.38	3.42529
1241.76	1.00989
1245.13	3.93347
1248.5	7.19336
1251.88	10.7183
1255.25	9.41077
1258.63	12.0504
1262	6.32373
1265.38	7.19946
1268.75	1.91321
1272.13	2.26819
1275.5	6.88428
1278.88	3.96106
1282.25	5.25391
1285.63	5.28735
1289	5.7843
1292.38	4.03052
1295.75	0.858398
1299.13	0.937134
