Measurement: Raman, 780 nm, unoriented, Raman Data Processed
Mineral: Salammoniac
Rruff sample: R060521
Ideal chemistry: N^3-^H_4_Cl
Locality: Tien-Shan Mountains, Tadzhikistan, U.S.S.R
Source: Michael Scott
Description: White dendritic
Measured chemistry: NH_4_Cl_1.00_ ; N, H not measured but estimated by stoichiometry
Raman shift (cm-1)	intensity
120.969	0
124.344	15.2129
127.719	193.015
131.094	493.443
134.468	826.981
137.843	1115.34
141.218	1257.88
144.593	1253.54
147.968	1168.34
151.342	1060.55
154.717	979.259
158.092	956.214
161.467	975.742
164.842	1035.23
168.216	1070.99
171.591	1029.93
174.966	874.173
178.341	677.076
181.716	516.811
185.09	416.747
188.465	359.731
191.84	324.175
195.215	302.854
198.59	272.017
201.965	229.198
205.339	178.633
208.714	125.618
212.089	79.5439
215.464	41.497
218.839	17.218
222.214	1.51074
225.588	11.9909
228.963	17.3212
232.338	17.9788
235.713	13.5465
239.088	11.4498
242.462	4.53686
245.837	0.628235
249.212	9.54492
252.587	18.2371
255.962	25.3569
259.336	36.6546
262.711	50.1649
266.086	61.803
269.461	72.4273
272.836	81.3952
276.211	94.4397
279.585	100.586
282.96	107.313
286.335	110.246
289.71	107.284
293.085	105.755
296.459	101.21
299.834	95.4506
303.209	91.3084
306.584	87.9486
309.959	88.513
313.334	86.9149
316.708	84.5708
320.083	81.9919
323.458	81.4336
326.833	77.0341
330.207	76.5556
333.582	72.7434
336.957	72.4033
340.332	69.77
343.707	65.5658
347.082	61.0413
350.456	56.5411
353.831	53.8165
357.206	52.9733
360.581	48.6063
363.956	43.7017
367.33	39.3059
370.705	34.3011
374.08	30.1799
377.455	22.598
380.83	18.9248
384.205	12.0534
387.579	10.6088
390.954	4.43115
394.329	3.03479
397.704	1.03235
401.079	2.2544
404.453	2.44688
407.828	3.78117
411.203	3.14378
414.578	1.78091
417.953	0.968826
421.327	2.38722
424.702	3.2869
428.077	6.14067
431.452	9.59096
434.827	11.8279
438.202	16.0099
441.576	19.896
444.951	22.8978
448.326	25.168
451.701	28.7272
455.076	32.37
458.45	35.4428
461.825	35.4082
465.2	39.8232
468.575	38.8013
471.95	39.6942
475.325	41.4045
478.699	41.1324
482.074	42.9362
485.449	44.1193
488.824	45.2307
492.199	48.6735
495.573	47.029
498.948	46.7219
502.323	44.8068
505.698	43.8762
509.073	44.0919
512.447	42.3597
515.822	39.1852
519.197	36.3496
522.572	34.0533
525.947	31.6639
529.322	29.4067
532.696	26.8934
536.071	23.9553
539.446	22.3919
542.821	19.6918
546.196	18.4126
549.57	14.4429
552.945	12.9859
556.32	9.2668
559.695	6.492
563.07	3.80859
566.444	1.89334
569.819	0.457916
573.194	0.274323
576.569	0.025375
579.944	2.13573
583.319	0.734138
586.693	1.27238
590.068	1.02537
593.443	0.564667
596.818	0.331894
600.193	0.849869
603.567	0.325134
606.942	1.97903
610.317	3.5792
613.692	4.69009
617.067	6.05759
620.442	6.27914
623.816	6.59355
627.191	7.28901
630.566	8.09301
633.941	8.5359
637.316	9.27581
640.69	9.11849
644.065	9.16717
647.44	8.73914
650.815	8.67581
654.19	8.97881
657.564	8.71181
660.939	8.04527
664.314	8.53096
667.689	10.7267
671.064	9.71152
674.439	10.4368
677.813	9.9578
681.188	9.46244
684.563	9.74386
687.938	10.0748
691.313	9.98073
694.688	9.14045
698.062	8.20534
701.437	9.33884
704.812	8.30831
708.187	8.59606
711.562	8.08539
714.936	8.20473
718.311	6.91202
721.686	6.26717
725.061	5.80599
728.436	6.21303
731.81	6.3473
735.185	5.85802
738.56	3.82082
741.935	3.68479
745.31	3.62725
748.684	3.51013
752.059	2.08012
755.434	2.15472
758.809	1.40337
762.184	0.308075
765.559	0.827026
768.933	0.384819
772.308	0.509857
775.683	0.661583
779.058	0.384743
782.433	0.808968
785.808	0.266403
789.182	3.02869
792.557	1.00589
795.932	0.031815
799.307	0.419769
802.682	0.55764
806.056	1.02589
809.431	1.26631
812.806	1.5784
816.181	2.88754
819.556	2.38173
822.93	2.46603
826.305	3.84664
829.68	3.15101
833.055	4.64276
836.43	4.31007
839.804	4.5368
843.179	4.69577
846.554	6.18102
849.929	5.58124
853.304	6.60107
856.679	6.55034
860.053	6.78947
863.428	6.86824
866.803	6.68398
870.178	5.87906
873.553	4.94637
876.927	4.98943
880.302	4.6366
883.677	4.47462
887.052	4.29696
890.427	3.72349
893.802	3.92675
897.176	3.12538
900.551	1.91587
903.926	1.86194
907.301	1.36554
910.676	1.2351
914.05	1.6018
917.425	1.41618
920.8	0.297363
924.175	0.811653
927.55	0.194771
930.924	0.21563
934.299	0.354393
937.674	0.345116
941.049	0.055313
944.424	0.980904
947.799	1.31813
951.173	0.37167
954.548	1.3115
957.923	0.584625
961.298	1.24474
964.673	3.09107
968.047	2.28763
971.422	2.68684
974.797	3.23183
978.172	1.91343
981.547	1.51425
984.922	1.02077
988.296	0.325844
991.671	0.877396
995.046	0.27203
998.421	0.539215
1001.8	0.112152
1005.17	0.190598
1008.54	0.26149
1011.92	1.00831
1015.29	1.61459
1018.67	2.61092
1022.04	2.86891
1025.42	3.96554
1028.79	4.87704
1032.17	6.6401
1035.54	8.00117
1038.92	8.8203
1042.29	10.4576
1045.67	11.8312
1049.04	12.2436
1052.42	13.2844
1055.79	14.5522
1059.17	13.9443
1062.54	14.7153
1065.92	15.2535
1069.29	15.5388
1072.67	15.0473
1076.04	15.2455
1079.42	15.6396
1082.79	14.7002
1086.17	14.9384
1089.54	14.4884
1092.92	13.3816
1096.29	13.0174
1099.66	12.1304
1103.04	11.3594
1106.41	10.335
1109.79	9.90835
1113.16	7.94475
1116.54	7.41613
1119.91	6.0565
1123.29	5.66318
1126.66	4.54859
1130.04	3.47467
1133.41	2.0645
1136.79	2.75488
1140.16	1.98886
1143.54	0.050816
1146.91	0.977894
1150.29	0.636559
1153.66	0.676739
1157.04	0.636646
1160.41	0.291573
1163.79	0.406971
1167.16	0.014626
1170.54	0.034077
1173.91	0.176388
1177.29	0.222614
1180.66	0.471722
1184.04	0.658157
1187.41	0.351273
1190.79	0.774036
1194.16	1.06103
1197.54	0.9422
1200.91	1.23141
1204.28	0.46347
1207.66	0.30571
1211.03	1.00066
1214.41	0.738174
1217.78	0.537498
1221.16	0.083004
1224.53	0.05962
1227.91	0.181816
1231.28	0.82465
1234.66	0.773067
1238.03	1.80319
1241.41	1.71565
1244.78	1.38837
1248.16	1.89086
1251.53	1.44749
1254.91	1.47661
1258.28	1.4173
1261.66	1.12491
1265.03	1.7458
1268.41	2.26641
1271.78	0.490463
1275.16	0.755211
1278.53	0.798981
1281.9	0.162361
