Measurement: Raman, 785 nm, unoriented, Raman Data RAW
Mineral: Samarskite-(Y)
Rruff sample: R070540
Ideal chemistry: YFe^3+^Nb^5+^_2_O_8_
Locality: Fremont County, Colorado, USA
Source: James Shigley
Description: Black metamict fragment
Measured chemistry: (Y_0.36_Dy_0.04_Gd_0.04_Nd_0.02_Sm_0.02_Er_0.01_Tb_0.01_Ce_0.01_Ho_0.01_Nb_0.21_Ca_0.08_Fe_0.07_Th_0.05_U_0.04_Mn_0.01_Pb_0.01_)_∑=1.00_(Ti_0.88_Ta_0.09_Nb_0.04_)_∑=1.01_(O_3.99_Cl_0.01_)_∑=4.00_
Raman shift (cm-1)	intensity
152.255	13826.9
155.148	13903.7
158.041	13907.4
160.933	14226.6
163.826	14464
166.719	14590.9
169.611	14373.7
172.504	14253.5
175.397	14123.8
178.29	14019.9
181.182	14169.1
184.075	14239.5
186.968	14260.7
189.86	14267.8
192.753	14147.2
195.646	14194.1
198.538	14226.1
201.431	14238.8
204.324	14257.1
207.216	14337.7
210.109	14221.4
213.002	14319.8
215.895	14171.4
218.787	14254.5
221.68	14300.4
224.573	14343.8
227.465	14329.3
230.358	14316.4
233.251	14277
236.143	14305.2
239.036	14471.7
241.929	14391.9
244.822	14343.9
247.714	14241.3
250.607	14327.7
253.5	14278.8
256.392	14283.5
259.285	14255
262.178	14340.6
265.07	14270.4
267.963	14294
270.856	14365.1
273.749	14276.2
276.641	14297.4
279.534	14351.7
282.427	14399.3
285.319	14334.1
288.212	14397.8
291.105	14322.5
293.998	14374.1
296.89	14370.7
299.783	14299
302.676	14426.4
305.568	14487.3
308.461	14375.9
311.354	14322.7
314.246	14395.9
317.139	14411.4
320.032	14393
322.925	14474.8
325.817	14367
328.71	14436.2
331.603	14348.5
334.495	14338
337.388	14268
340.281	14243.3
343.173	14312.3
346.066	14214.2
348.959	14212.4
351.852	14097.9
354.744	14070.5
357.637	13961.6
360.53	13911.3
363.422	13785.2
366.315	13791.8
369.208	13778
372.101	13646.6
374.993	13474.7
377.886	13508
380.779	13330.9
383.671	13272.2
386.564	13146.8
389.457	13100
392.349	12967.7
395.242	12926.4
398.135	12775.8
401.027	12659.3
403.92	12521
406.813	12433.9
409.706	12292.2
412.598	12187.1
415.491	12077.6
418.384	11981.2
421.276	11837
424.169	11752.3
427.062	11653.5
429.954	11491.4
432.847	11409.3
435.74	11242.9
438.633	11208.7
441.525	11078.4
444.418	10980.3
447.311	10915.5
450.203	10750.7
453.096	10662.6
455.989	10613.4
458.882	10430.8
461.774	10406
464.667	10221.3
467.56	10144
470.452	10056
473.345	9949.02
476.238	9908.87
479.13	9750.71
482.023	9681.77
484.916	9583.54
487.808	9417.29
490.701	9390.19
493.594	9303.93
496.487	9209.23
499.379	9083.87
502.272	9011.33
505.165	8915.14
508.057	8839.96
510.95	8822.75
513.843	8755.98
516.736	8607.96
519.628	8510.58
522.521	8445.69
525.414	8465.54
528.306	8382.93
531.199	8313.58
534.092	8223.95
536.984	8244.89
539.877	8112.47
542.77	8124.83
545.663	7993.79
548.555	7956.38
551.448	7948.05
554.341	7903.44
557.233	7883.77
560.126	7810.35
563.019	7787.92
565.911	7764.74
568.804	7710.16
571.697	7626.97
574.59	7650.47
577.482	7710.97
580.375	7562.84
583.268	7534.22
586.16	7537.79
589.053	7409.59
591.946	7415.08
594.838	7437.36
597.731	7375.02
600.624	7333.02
603.516	7320.1
606.409	7255.31
609.302	7197.09
612.195	7189.99
615.087	7102.59
617.98	7066.8
620.873	7032.94
623.765	6975.12
626.658	6970.66
629.551	6885.77
632.443	6839.05
635.336	6814.37
638.229	6776.61
641.122	6703.54
644.014	6672.97
646.907	6613.32
649.8	6545.03
652.692	6549.31
655.585	6484.97
658.478	6427.8
661.37	6387.82
664.263	6403.18
667.156	6322.15
670.049	6263.5
672.941	6236.54
675.834	6208.69
678.727	6198.96
681.619	6196.14
684.512	6242.67
687.405	6211.75
690.298	6158.36
693.19	6193.91
696.083	6216.92
698.976	6159.55
701.868	6121.4
704.761	6118.24
707.654	6154.03
710.546	6170.84
713.439	6188.52
716.332	6160.21
719.225	6223.04
722.117	6197.56
725.01	6197.88
727.903	6170.61
730.795	6190.2
733.688	6206.93
736.581	6180.89
739.473	6187.12
742.366	6175.21
745.259	6168.31
748.152	6137.65
751.044	6144.41
753.937	6108.06
756.83	6131.73
759.722	6090.46
762.615	6038.95
765.508	5983.4
768.4	5959.37
771.293	6000.52
774.186	5905.98
777.079	5893.36
779.971	5856.75
782.864	5807.06
785.757	5750.85
788.649	5670.94
791.542	5661.04
794.435	5590.79
797.327	5525.25
800.22	5520.07
803.113	5391.93
806.006	5379.36
808.898	5295.3
811.791	5249.13
814.684	5182.66
817.576	5100.49
820.469	5044.98
823.362	4968.55
826.255	4925.22
829.147	4838.76
832.04	4730.19
834.933	4711.67
837.825	4583.56
840.718	4504.79
843.611	4445.39
846.503	4289.98
849.396	4248.08
852.289	4153.61
855.182	4095.2
858.074	3995.42
860.967	3937.72
863.86	3823.44
866.752	3739.91
869.645	3673.36
872.538	3563.79
875.43	3443.79
878.323	3387.53
881.216	3291.09
884.109	3210.27
887.001	3136.99
889.894	3072.33
892.787	2972.53
895.679	2894.82
898.572	2817.45
901.465	2772.88
904.357	2702.71
907.25	2621.71
910.143	2598.1
913.035	2499.84
915.928	2442.55
918.821	2395.34
921.714	2347
924.606	2272.84
927.499	2250.05
930.392	2131.82
933.284	2110.37
936.177	2075.96
939.07	2026.62
941.962	1986.39
944.855	1937.41
947.748	1879.54
950.641	1835.46
953.533	1786.13
956.426	1770.48
959.319	1713.21
962.211	1686.86
965.104	1675.73
967.997	1645.88
970.889	1625.72
973.782	1622.47
976.675	1604.13
979.568	1571.21
982.46	1566.63
985.353	1583.94
988.246	1571.28
991.138	1546.7
994.031	1574.92
996.924	1555.16
999.817	1558.72
1002.71	1525.1
1005.6	1624.66
1008.5	1580.04
1011.39	1612.47
1014.28	1637.29
1017.17	1641.73
1020.07	1638.65
1022.96	1642.78
1025.85	1673.55
1028.74	1836.22
1031.64	1749.91
1034.53	1757.6
1037.42	1771.88
1040.31	1805.54
1043.21	1843.47
1046.1	1894.84
1048.99	1919.46
1051.88	1964.48
1054.78	2004.73
1057.67	2053.84
1060.56	2083.55
1063.46	2128.54
1066.35	2189.05
1069.24	2310.5
1072.13	2349.89
1075.03	2423.12
1077.92	2476.25
1080.81	2557.47
1083.7	2650.07
1086.6	2756.83
1089.49	2870.28
1092.38	2986.66
1095.28	3102.76
1098.17	3222.84
1101.06	3325.3
1103.95	3439.68
1106.85	3581.47
1109.74	3739.39
1112.63	3915.41
1115.53	4075.72
1118.42	4237.14
1121.31	4393.17
1124.2	4607.06
1127.1	4791.49
1129.99	4938.3
1132.88	5089.94
1135.77	5347.26
1138.67	5480.89
1141.56	5774.76
1144.45	5987.42
1147.34	6246.36
1150.24	6468.81
1153.13	6664.74
1156.02	6965.07
1158.91	7230.52
1161.81	7490.33
1164.7	7775.53
1167.59	8077.56
1170.49	8346.35
1173.38	8576.1
1176.27	8930.23
1179.16	9164.16
1182.06	9436.03
1184.95	9630.12
1187.84	9939.67
1190.73	10265
1193.63	10694
1196.52	10706.3
1199.41	10938.4
1202.31	11208.3
1205.2	11329.2
1208.09	11497.1
1210.98	11648.3
1213.88	11853.6
1216.77	11976.2
1219.66	12186.1
1222.55	12322
1225.45	12379.3
1228.34	12663.9
1231.23	12689.9
1234.12	12801
1237.02	12831.7
1239.91	12810.2
1242.8	12985
1245.7	13074.5
1248.59	13210.5
1251.48	13172.9
1254.37	13259.1
