Measurement: Raman, 532 nm, unoriented, Raman Data RAW
Mineral: Samarskite-(Y)
Rruff sample: R070540
Ideal chemistry: YFe^3+^Nb^5+^_2_O_8_
Locality: Fremont County, Colorado, USA
Source: James Shigley
Description: Black metamict fragment
Measured chemistry: (Y_0.36_Dy_0.04_Gd_0.04_Nd_0.02_Sm_0.02_Er_0.01_Tb_0.01_Ce_0.01_Ho_0.01_Nb_0.21_Ca_0.08_Fe_0.07_Th_0.05_U_0.04_Mn_0.01_Pb_0.01_)_∑=1.00_(Ti_0.88_Ta_0.09_Nb_0.04_)_∑=1.01_(O_3.99_Cl_0.01_)_∑=4.00_
Raman shift (cm-1)	intensity
154.494	4905.25
157.387	5184.89
160.28	5193.77
163.173	5151.19
166.065	5068.03
168.958	5046.82
171.851	5062.97
174.743	4997.69
177.636	5068.85
180.529	5003.09
183.421	4971.32
186.314	4986.61
189.207	4962.33
192.1	4903.79
194.992	4952.9
197.885	4917.49
200.778	4878.6
203.67	4897.32
206.563	4871.54
209.456	4899.03
212.348	4874.34
215.241	4885.9
218.134	4863.57
221.026	4850.06
223.919	4851.56
226.812	4881.36
229.705	4858.6
232.597	4816.76
235.49	4784.2
238.383	4783.43
241.275	4820.6
244.168	4847.38
247.061	4828.9
249.954	4811.92
252.846	4819.56
255.739	4825.5
258.632	4811.84
261.524	4825.52
264.417	4817.43
267.31	4817.47
270.202	4829.96
273.095	4889.02
275.988	4886.45
278.881	4888.68
281.773	4846.68
284.666	4899.12
287.559	4845.2
290.451	4888.21
293.344	4873.05
296.237	4850.8
299.13	4835.61
302.022	4881.29
304.915	4901.37
307.808	4901.65
310.7	4930.47
313.593	4960.84
316.486	4927.37
319.378	4966.16
322.271	4971.21
325.164	4964.78
328.057	4968.27
330.949	4967.07
333.842	4977.65
336.735	4968.37
339.627	5011.59
342.52	5012.19
345.413	4978.88
348.305	4955.83
351.198	5027.69
354.091	5029.44
356.983	5073.31
359.876	5027.38
362.769	4980.69
365.662	4948.79
368.554	4981.93
371.447	4994.21
374.34	4956.64
377.232	4991.39
380.125	4971.13
383.018	4891.1
385.911	4968.61
388.803	4974.9
391.696	4956.8
394.589	4874.59
397.481	4921.03
400.374	4905.32
403.267	4899.83
406.159	4848.86
409.052	4885.13
411.945	4879.69
414.837	4825.82
417.73	4848.52
420.623	4795.07
423.516	4782.99
426.408	4800.53
429.301	4778.6
432.194	4761.75
435.086	4765.89
437.979	4793.07
440.872	4827.48
443.764	4737.95
446.657	4785.66
449.55	4751.46
452.443	4771.94
455.335	4698.3
458.228	4738.84
461.121	4758.46
464.014	4708.84
466.906	4718.69
469.799	4707.76
472.692	4666.27
475.584	4695.36
478.477	4607.07
481.37	4674.79
484.262	4673.25
487.155	4642.46
490.048	4653.19
492.94	4603.92
495.833	4578.18
498.726	4597.9
501.619	4580.62
504.511	4531.92
507.404	4539.5
510.297	4601.48
513.189	4542.42
516.082	4563.6
518.975	4538.79
521.867	4534.17
524.76	4518.69
527.653	4478.93
530.546	4497.32
533.438	4477.2
536.331	4493.1
539.224	4498.42
542.116	4485.6
545.009	4468.32
547.902	4464.96
550.794	4435.41
553.687	4440.69
556.58	4383.7
559.473	4402.79
562.365	4381.43
565.258	4380.94
568.151	4384.03
571.043	4379.35
573.936	4377.74
576.829	4377.88
579.721	4356.91
582.614	4335.49
585.507	4283.57
588.4	4319.29
591.292	4334.89
594.185	4339.61
597.078	4298.75
599.97	4271.16
602.863	4260.57
605.756	4262.44
608.649	4310.72
611.541	4258.46
614.434	4273.9
617.327	4231.82
620.219	4184.56
623.112	4168.17
626.005	4177.69
628.897	4179.07
631.79	4157.17
634.683	4095.74
637.576	4076.07
640.468	4090.82
643.361	4069.34
646.254	4054.58
649.146	4034.61
652.039	3997.75
654.932	3976.05
657.824	3968.01
660.717	3986.45
663.61	3993.28
666.503	3963.82
669.395	3955.86
672.288	3968.94
675.181	3933.54
678.073	3976.22
680.966	3950.64
683.859	3989.38
686.751	3930.87
689.644	3941.82
692.537	3975.16
695.43	3996.01
698.322	3982.72
701.215	3998.26
704.108	4009.36
707	4022.54
709.893	4036.57
712.786	4055.57
715.678	4051.64
718.571	4077.87
721.464	4090.26
724.357	4102.37
727.249	4105.09
730.142	4115.49
733.035	4117.58
735.927	4094.67
738.82	4119.57
741.713	4104.18
744.606	4113.12
747.498	4103.38
750.391	4134.63
753.284	4106.18
756.176	4095.48
759.069	4111.72
761.962	4091.43
764.854	4091.97
767.747	4106.71
770.64	4055.48
773.533	4018.29
776.425	4016.75
779.318	3966.09
782.211	4008.14
785.103	4002.51
787.996	3969.85
790.889	3913.54
793.781	3851.55
796.674	3834.53
799.567	3816.53
802.46	3813.86
805.352	3775.81
808.245	3737.85
811.138	3691.06
814.03	3671.6
816.923	3657.19
819.816	3573.51
822.708	3584.07
825.601	3510.8
828.494	3469.41
831.386	3473.77
834.279	3424.47
837.172	3392.43
840.065	3309.96
842.957	3286.04
845.85	3231.62
848.743	3195.96
851.635	3127.82
854.528	3082.83
857.421	3036.14
860.313	3030.23
863.206	2973.37
866.099	2916.78
868.992	2834.39
871.884	2801.95
874.777	2749.14
877.67	2716.57
880.562	2649.97
883.455	2577.78
886.348	2525.13
889.24	2485.49
892.133	2440.68
895.026	2419.12
897.919	2312.81
900.811	2284.39
903.704	2233.84
906.597	2249.82
909.489	2164.34
912.382	2116.15
915.275	2082.1
918.168	2030.72
921.06	1984.65
923.953	1954.35
926.846	1926.87
929.738	1889.48
932.631	1810.71
935.524	1811.59
938.416	1759.45
941.309	1728.49
944.202	1720.62
947.095	1659.06
949.987	1652.75
952.88	1593.03
955.773	1586.97
958.665	1555.99
961.558	1523.79
964.451	1486.96
967.343	1477.81
970.236	1449.09
973.129	1431.53
976.021	1394.73
978.914	1378.42
981.807	1393.5
984.7	1336.84
987.592	1327.97
990.485	1332.99
993.378	1305.01
996.27	1272.36
999.163	1273.81
1002.06	1258.2
1004.95	1272.72
1007.84	1274.38
1010.73	1245.71
1013.63	1223.57
1016.52	1217.82
1019.41	1197.59
1022.3	1189
1025.2	1201.67
1028.09	1186.98
1030.98	1195.17
1033.88	1201.7
1036.77	1179.14
1039.66	1155.49
1042.55	1153.54
1045.45	1140.85
1048.34	1145.73
1051.23	1144.49
1054.12	1143.78
1057.02	1151.93
1059.91	1133.39
1062.8	1137.83
1065.69	1126.7
1068.59	1137.49
1071.48	1125.48
1074.37	1117.04
1077.27	1112.91
1080.16	1126.95
1083.05	1100.24
1085.94	1110.83
1088.84	1070.96
1091.73	1113.24
1094.62	1085.28
1097.52	1094.06
1100.41	1106
1103.3	1091.42
1106.19	1077.15
1109.09	1067.31
1111.98	1058.16
1114.87	1081.92
1117.76	1072.03
1120.66	1078.17
1123.55	1052.1
1126.44	1054.42
1129.34	1052.05
1132.23	1081.06
1135.12	1073.92
1138.01	1040.04
1140.91	1061.07
1143.8	1050.45
1146.69	1049.09
1149.58	1038.88
1152.48	1047.79
1155.37	1040.73
1158.26	1039.08
1161.15	1045.32
1164.05	1025.15
1166.94	1032.51
1169.83	1034.17
1172.72	1043.1
1175.62	1041.02
1178.51	1051
1181.4	1044.9
1184.3	1012.99
1187.19	1043.11
1190.08	1040.46
1192.97	1038.78
1195.87	1027.3
1198.76	1024.4
1201.65	1035.58
1204.55	1052.67
1207.44	1031.02
1210.33	1019.91
1213.22	1034.32
1216.12	1020.92
1219.01	1019.16
1221.9	1034.84
1224.79	1025.89
1227.69	1017.94
1230.58	1013.7
1233.47	1009.65
1236.37	1029.78
1239.26	1038.65
1242.15	1034.6
1245.04	1031.24
1247.94	1030.58
1250.83	1032.81
1253.72	1041
1256.61	1043.63
1259.51	1047.75
1262.4	1067.05
1265.29	1046.17
1268.18	1056.93
