Measurement: Raman, 780 nm, unoriented, Raman Data RAW
Mineral: Sampleite
Rruff sample: R050572
Ideal chemistry: NaCaCu^2+^_5_(P^5+^O_4_)_4_Cl5H_2_O
Locality: Chuquicamata pit, Chuquicamata, Chile
Source: University of Arizona Mineral Museum
Description: Blue massive crust, associated with green atacamite
Measured chemistry: (Na_0.95_K_0.05_)_Σ=1_Ca_1.00_Cu_5.00_(P_1.00_O_4_)_4_Cl_1.00_·5H_2_O
Raman shift (cm-1)	intensity
92.0654	91.2229
95.4403	80.1258
98.8151	69.1272
102.19	51.6222
105.565	49.4851
108.939	46.7663
112.314	36.9674
115.689	33.0913
119.064	31.3481
122.439	34.8961
125.814	31.1461
129.188	30.9493
132.563	30.3642
135.938	28.2134
139.313	27.0296
142.688	26.3383
146.062	26.6795
149.437	24.8004
152.812	24.063
156.187	23.7346
159.562	21.6663
162.936	21.9438
166.311	21.9713
169.686	22.2138
173.061	21.2434
176.436	23.0278
179.811	20.7578
183.185	20.9218
186.56	21.2698
189.935	20.1158
193.31	20.5824
196.685	20.877
200.06	20.0286
203.434	17.67
206.809	19.3082
210.184	19.754
213.559	19.7873
216.934	20.1182
220.308	20.9488
223.683	19.2408
227.058	18.1729
230.433	19.723
233.808	20.4493
237.182	20.0853
240.557	19.3782
243.932	19.4926
247.307	19.1295
250.682	18.7091
254.056	17.7277
257.431	18.1365
260.806	16.7897
264.181	17.8679
267.556	17.2645
270.931	16.1822
274.305	17.3455
277.68	15.1075
281.055	18.962
284.43	18.1539
287.805	15.7889
291.18	15.5965
294.554	17.0039
297.929	16.5582
301.304	17.1301
304.679	15.933
308.054	16.3514
311.428	15.9969
314.803	16.0702
318.178	15.5124
321.553	15.2497
324.928	15.4454
328.302	15.4183
331.677	16.2419
335.052	16.0275
338.427	16.3903
341.802	14.1764
345.176	16.4211
348.551	15.7814
351.926	15.0202
355.301	13.9721
358.676	14.362
362.051	15.2438
365.425	15.1845
368.8	14.7526
372.175	16.1356
375.55	14.0033
378.925	13.9925
382.3	14.25
385.674	14.1863
389.049	14.6053
392.424	13.5469
395.799	14.5123
399.174	13.3031
402.548	14.6375
405.923	14.0974
409.298	14.6853
412.673	13.7082
416.048	13.9992
419.422	13.1148
422.797	13.8796
426.172	14.4042
429.547	13.1009
432.922	13.4803
436.296	13.464
439.671	12.8183
443.046	15.1165
446.421	14.269
449.796	13.1943
453.171	12.5876
456.545	13.8137
459.92	13.0925
463.295	12.445
466.67	12.9997
470.045	11.5384
473.42	12.2819
476.794	11.9551
480.169	12.6967
483.544	12.3637
486.919	12.262
490.293	12.5244
493.668	11.3443
497.043	11.6567
500.418	11.5379
503.793	12.2273
507.168	12.4504
510.542	12.2764
513.917	12.0539
517.292	11.7831
520.667	12.3722
524.042	11.0247
527.417	12.2653
530.791	11.8811
534.166	12.0568
537.541	12.0986
540.916	11.7591
544.291	11.9191
547.665	12.1309
551.04	13.166
554.415	12.004
557.79	12.3997
561.165	11.3577
564.539	11.1238
567.914	12.0992
571.289	11.9478
574.664	11.5509
578.039	11.0319
581.413	11.3845
584.788	11.7928
588.163	12.0354
591.538	11.2721
594.913	12.2836
598.288	11.6113
601.662	11.7333
605.037	12.2421
608.412	11.3014
611.787	12.3293
615.162	11.9078
618.537	11.8152
621.911	12.3735
625.286	12.0115
628.661	13.662
632.036	12.164
635.41	11.4792
638.785	12.366
642.16	11.5771
645.535	11.5268
648.91	12.3594
652.285	10.8325
655.659	11.5876
659.034	11.9607
662.409	12.0968
665.784	11.5564
669.159	12.0293
672.534	11.2916
675.908	11.812
679.283	11.8254
682.658	12.3159
686.033	13.3218
689.408	11.6835
692.782	11.3933
696.157	11.3364
699.532	11.4897
702.907	11.6091
706.282	12.2696
709.656	12.4438
713.031	11.691
716.406	11.2489
719.781	11.6224
723.156	11.6273
726.53	12.2467
729.905	13.2028
733.28	11.7381
736.655	11.3259
740.03	12.4385
743.405	12.1766
746.779	9.63471
750.154	11.5246
753.529	13.2559
756.904	11.3424
760.279	11.8792
763.654	11.7087
767.028	11.9436
770.403	12.2447
773.778	12.6101
777.153	10.3826
780.528	11.8227
783.902	12.1796
787.277	10.8844
790.652	12.4679
794.027	11.6348
797.402	12.3262
800.776	11.7136
804.151	11.4442
807.526	11.2512
810.901	11.762
814.276	12.2895
817.65	10.5396
821.025	11.4627
824.4	11.6617
827.775	11.1797
831.15	11.0443
834.525	10.7332
837.899	13.0625
841.274	12.5286
844.649	11.0514
848.024	11.7369
851.399	12.4554
854.774	11.5055
858.148	11.7941
861.523	12.805
864.898	11.9627
868.273	11.6084
871.648	12.4666
875.022	11.2273
878.397	11.1555
881.772	12.0181
885.147	12.1258
888.522	11.0419
891.896	10.6748
895.271	11.5723
898.646	11.2016
902.021	11.6224
905.396	10.7304
908.77	11.5213
912.145	11.7283
915.52	10.9713
918.895	10.6118
922.27	10.5286
925.645	11.5235
929.019	12.4066
932.394	10.2638
935.769	12.0739
939.144	10.7517
942.519	10.1965
945.894	12.085
949.268	10.9296
952.643	12.2705
956.018	10.8427
959.393	11.0768
962.768	10.7158
966.142	10.4917
969.517	12.1716
972.892	11.5338
976.267	11.5462
979.642	12.0927
983.016	10.6159
986.391	10.6563
989.766	12.6435
993.141	11.4801
996.516	12.3988
999.89	11.6316
1003.26	11.8877
1006.64	11.773
1010.01	11.6746
1013.39	11.9964
1016.76	11.6761
1020.14	11.4305
1023.51	11.5205
1026.89	11.4736
1030.26	11.1777
1033.64	10.6943
1037.01	11.8132
1040.39	11.8415
1043.76	11.8855
1047.14	12.793
1050.51	11.7717
1053.89	12.2881
1057.26	12.2684
1060.64	13.1568
1064.01	11.0494
1067.39	10.9216
1070.76	12.5393
1074.14	13.6184
1077.51	12.3874
1080.89	13.0638
1084.26	12.4724
1087.64	12.311
1091.01	12.8257
1094.38	12.7528
1097.76	12.4982
1101.13	13.8587
1104.51	12.6661
1107.88	12.1816
1111.26	12.5769
1114.63	12.8287
1118.01	12.5635
1121.38	13.3606
1124.76	12.4268
1128.13	12.891
1131.51	14.027
1134.88	14.3398
1138.26	14.1491
1141.63	13.9561
1145.01	12.4389
1148.38	13.6313
1151.76	12.9266
1155.13	14.5539
1158.51	14.5386
1161.88	14.206
1165.26	12.9658
1168.63	13.9938
1172.01	13.7181
1175.38	14.857
1178.76	13.688
1182.13	13.3993
1185.51	15.2186
1188.88	13.8314
1192.26	15.1778
1195.63	13.2331
1199.01	14.5787
1202.38	15.2214
1205.75	15.243
1209.13	15.3581
1212.5	14.5658
1215.88	15.0627
1219.25	15.5654
1222.63	16.317
1226	14.23
1229.38	15.1768
1232.75	15.0372
1236.13	16.3064
1239.5	15.0598
1242.88	16.3108
1246.25	15.985
1249.63	16.7564
1253	16.1186
1256.38	16.2105
1259.75	16.2694
1263.13	17.1164
1266.5	16.9725
1269.88	16.6639
1273.25	18.8287
1276.62	16.6876
1280	18.0934
1283.38	18.1847
