Measurement: Raman, 532 nm, unoriented, Raman Data Processed
Mineral: Sassolite
Rruff sample: R060496
Ideal chemistry: B(OH)_3_
Locality: Upper Biddy mine, near Ryan, Death Valley, Inyo County, California, USA
Source: Michael Scott
Description: Colorless thin pseudohexagonal single crystals
Raman shift (cm-1)	intensity
111.478	0
114.853	76.6294
118.228	253.552
121.603	357.001
124.978	345.66
128.352	290.19
131.727	331.055
135.102	353.524
138.477	281.144
141.852	189.984
145.227	92.9228
148.601	36.3623
151.976	6.30713
155.351	5.36621
158.726	20.9902
162.101	17.4673
165.476	11.9629
168.85	18.7314
172.225	27.3271
175.6	50.1406
178.975	78.9141
182.35	114.391
185.724	163.232
189.099	184.03
192.474	202.005
195.849	262.691
199.224	352.209
202.599	461.79
205.973	640.263
209.348	823.622
212.723	836.668
216.098	572.285
219.473	292.375
222.847	170.789
226.222	126.907
229.597	92.7876
232.972	38.644
236.347	34.4907
239.721	38.0933
243.096	45.1309
246.471	34.126
249.846	9.14404
253.221	4.08301
256.596	9.43457
259.97	17.3379
263.345	15.2598
266.72	2.03809
270.095	18.1152
273.47	39.0088
276.844	33.6397
280.219	35.1631
283.594	18.2939
286.969	31.333
290.344	28.1191
293.719	21.4795
297.093	13.2393
300.468	7.70996
303.843	11.0068
307.218	9.89355
310.593	33.0732
313.967	30.8145
317.342	21.1377
320.717	16.6182
324.092	18.2959
327.467	33.6895
330.842	12.6729
334.216	9.67578
337.591	30.9404
340.966	41.4883
344.341	30.6455
347.716	28.6758
351.091	14.3037
354.465	23.0479
357.84	28.6074
361.215	26.5752
364.59	27.124
367.964	34.9414
371.339	13.1514
374.714	11.0137
378.089	41.2295
381.464	46.7197
384.839	39.3603
388.213	35.0137
391.588	12.7549
394.963	7.33789
398.338	8.1748
401.713	32.3223
405.087	42.4853
408.462	18.9297
411.837	15.2646
415.212	39.5635
418.587	62.2188
421.962	77.3379
425.336	30.5371
428.711	29.999
432.086	7.13379
435.461	0.526367
438.836	0.225586
442.211	21.9688
445.585	11.9971
448.96	10.1201
452.335	3.49805
455.71	12.165
459.085	40.5967
462.459	42.3652
465.834	48.5459
469.209	56.627
472.584	52.206
475.959	29.0469
479.334	18.1807
482.708	75.8477
486.083	242.74
489.458	382.779
492.833	493.133
496.208	838.44
499.582	1362.61
502.957	1243.59
506.332	392.368
509.707	176.038
513.082	98.9629
516.457	65.9043
519.831	38.5225
523.206	31.1504
526.581	34.3457
529.956	9.56934
533.331	18.5693
536.705	4.06348
540.08	3.08789
543.455	12.7725
546.83	37.9072
550.205	35.9258
553.58	17.8125
556.954	6.875
560.329	26.0811
563.704	29.4482
567.079	13.1387
570.454	5.12402
573.828	20.4902
577.203	22.0459
580.578	25.4482
583.953	12.54
587.328	27.834
590.702	52.6748
594.077	24.5234
597.452	9.79102
600.827	0.217773
604.202	9.25391
607.577	22.3916
610.951	35.7266
614.326	34.377
617.701	8.61133
621.076	27.2793
624.451	31.6279
627.825	25.9404
631.2	22.0674
634.575	33.4258
637.95	35.3506
641.325	35.1562
644.699	37.4971
648.074	38.3213
651.449	34.6348
654.824	28.7637
658.199	3.66602
661.574	5.71777
664.948	14.9521
668.323	28.9521
671.698	12.6904
675.073	2.83594
678.448	10.2031
681.822	13.4727
685.197	3.98047
688.572	14.8691
691.947	23.6455
695.322	7.1543
698.697	2.46973
702.071	24.6084
705.446	37.0518
708.821	41.6475
712.196	44.9609
715.571	55.0244
718.946	52.0801
722.32	67.9404
725.695	97.0488
729.07	76.6973
732.445	68.1074
735.82	54.9092
739.194	86.0166
742.569	67.9326
745.944	92.2461
749.319	99.2002
752.694	102.599
756.068	62.998
759.443	55.2822
762.818	59.2637
766.193	37.8008
769.568	28.2529
772.943	42.7725
776.317	23.6523
779.692	15.6162
783.067	16.9805
786.442	24.832
789.817	25.0498
793.192	20.0332
796.566	0.209961
799.941	8.29785
803.316	18.4531
806.691	51.8447
810.066	42.4805
813.44	38.2656
816.815	38.7734
820.19	85.1992
823.565	39.9795
826.94	10.957
830.314	1.24121
833.689	10.5283
837.064	4.63965
840.439	40.5127
843.814	64.2715
847.188	93.3594
850.563	81.7344
853.938	114.409
857.313	181.276
860.688	282.674
864.063	426.156
867.437	683.96
870.812	1363.04
874.187	2205.69
877.562	3500.05
880.937	5298.42
884.312	4631.66
887.686	1838.12
891.061	732.778
894.436	373.088
897.811	222.304
901.186	134.441
904.56	99.7637
907.935	69.4053
911.31	36.3438
914.685	27.249
918.06	11.5908
921.434	11.7979
924.809	30.6875
928.184	23.4678
931.559	1.29199
934.934	14.6963
938.309	1.26758
941.683	12.419
945.058	53.9727
948.433	34.1934
951.808	40.6416
955.183	24.0156
958.558	7.57519
961.932	8.97168
965.307	46.0557
968.682	73.9268
972.057	69.0918
975.432	70.1416
978.806	74.5469
982.181	76.7734
985.556	94.7891
988.931	97.3643
992.306	92.2227
995.681	85.1523
999.055	84.1719
1002.43	83.0635
1005.8	88.0967
1009.18	95.6133
1012.55	96.2383
1015.93	80.6055
1019.3	62.4746
1022.68	41.4473
1026.05	47.0508
1029.43	48.5742
1032.8	18.2061
1036.18	44.4619
1039.55	63.4453
1042.93	66.7012
1046.3	43.0645
1049.68	34.208
1053.05	36.2315
1056.43	29.2988
1059.8	19.748
1063.18	12.3574
1066.55	27.9639
1069.93	29.2949
1073.3	13.7227
1076.68	11.792
1080.05	20.668
1083.43	28.9531
1086.8	15.627
1090.17	30.6816
1093.55	20.8926
1096.92	20.0566
1100.3	36.1641
1103.67	4.43066
1107.05	5.7959
1110.42	35.2637
1113.8	32.668
1117.17	24.6836
1120.55	30.957
1123.92	21.918
1127.3	10.457
1130.67	22.1797
1134.05	12.1543
1137.42	32.8184
1140.8	42.4971
1144.17	48.751
1147.55	44.1465
1150.92	58.2051
1154.3	128.442
1157.67	156.231
1161.05	180.37
1164.42	235.914
1167.8	302.891
1171.17	304.856
1174.55	187.58
1177.92	122.936
1181.3	95.7969
1184.67	94.0488
1188.05	105.25
1191.42	98.1621
1194.8	101.664
1198.17	80.5312
1201.54	45.8633
1204.92	83.6992
1208.29	75.2559
1211.67	67.7578
1215.04	41.1777
1218.42	56.8965
1221.79	48.7363
1225.17	24.0723
1228.54	23.4746
1231.92	20.0078
1235.29	8.29297
1238.67	9.7832
1242.04	23.4863
1245.42	41.8105
1248.79	42.8184
1252.17	46.9004
1255.54	49.7129
1258.92	58.4316
1262.29	47.2969
1265.67	3.13672
1269.04	1.68359
1272.42	16.3145
1275.79	14.9121
1279.16	16.998
1282.54	28.6465
1285.91	28.4922
1289.29	29.9023
1292.66	31.3555
1296.04	6.37891
1299.41	0.466797
