Measurement: Raman, 780 nm, unoriented, Raman Data Processed
Mineral: Sassolite
Rruff sample: R060496
Ideal chemistry: B(OH)_3_
Locality: Upper Biddy mine, near Ryan, Death Valley, Inyo County, California, USA
Source: Michael Scott
Description: Colorless thin pseudohexagonal single crystals
Raman shift (cm-1)	intensity
111.809	0
115.184	35.1272
118.558	117.872
121.933	160.661
125.308	131.408
128.683	121.075
132.058	176.345
135.433	204.587
138.807	158.678
142.182	98.58
145.557	49.2772
148.932	23.7573
152.307	4.70514
155.681	0.644714
159.056	7.72296
162.431	4.81451
165.806	5.86493
169.181	2.62292
172.555	16.472
175.93	36.7689
179.305	62.5784
182.68	93.6393
186.055	121.805
189.43	134.153
192.804	157.409
196.179	196.925
199.554	251.211
202.929	332.973
206.304	433.112
209.678	516.518
213.053	478.737
216.428	312.247
219.803	179.707
223.178	124.677
226.553	94.7991
229.927	77.1045
233.302	60.217
236.677	48.46
240.052	44.9687
243.427	38.1022
246.801	33.6279
250.176	25.6868
253.551	23.0719
256.926	17.6206
260.301	16.6464
263.675	19.3622
267.05	12.9538
270.425	9.69946
273.8	4.00284
277.175	2.36786
280.55	1.41492
283.924	0.489655
287.299	1.26065
290.674	0.107391
294.049	0.327179
297.424	0.914001
300.798	1.04483
304.173	0.528503
307.548	1.92401
310.923	0.550629
314.298	0.480408
317.673	1.21881
321.047	0.146637
324.422	3.06946
327.797	0.426147
331.172	0.545959
334.547	1.03738
337.921	1.0607
341.296	1.78928
344.671	1.15122
348.046	3.28565
351.421	0.26123
354.796	1.25159
358.17	0.143738
361.545	0.095032
364.92	0.790039
368.295	1.6496
371.67	0.787933
375.044	1.92209
378.419	0.896851
381.794	1.36624
385.169	0.163422
388.544	0.408722
391.918	2.56381
395.293	1.32736
398.668	2.04825
402.043	1.67636
405.418	3.01831
408.793	4.79813
412.167	4.23471
415.542	5.14475
418.917	2.71072
422.292	3.28479
425.667	3.84366
429.041	1.14179
432.416	2.31943
435.791	0.906128
439.166	0.759399
442.541	2.1973
445.915	2.63321
449.29	1.11551
452.665	3.12176
456.04	2.5528
459.415	5.05432
462.789	5.94977
466.164	4.19434
469.539	8.11054
472.914	7.25702
476.289	10.118
479.664	16.5239
483.038	45.9915
486.413	89.8204
489.788	119.106
493.163	191.231
496.538	329.893
499.913	563.95
503.287	408.177
506.662	130.265
510.037	49.8729
513.412	26.1047
516.787	14.7187
520.161	9.00732
523.536	5.95038
526.911	4.33814
530.286	1.71957
533.661	2.41043
537.035	0.941711
540.41	2.05823
543.785	1.27542
547.16	2.83215
550.535	1.41214
553.909	1.20105
557.284	0.864105
560.659	1.93091
564.034	0.388062
567.409	0.54837
570.784	0.381104
574.158	0.690186
577.533	0.639954
580.908	0.706177
584.283	0.963074
587.658	0.481049
591.033	0.714996
594.407	0.802979
597.782	3.2937
601.157	1.54401
604.532	2.32687
607.907	2.33163
611.281	2.9859
614.656	4.6044
618.031	3.7721
621.406	3.71252
624.781	3.73767
628.155	4.42792
631.53	4.1247
634.905	7.57144
638.28	7.51749
641.655	8.86218
645.029	5.54568
648.404	5.51685
651.779	3.65689
655.154	2.85349
658.529	4.73398
661.904	2.52539
665.278	2.77023
668.653	2.51013
672.028	3.23425
675.403	1.52576
678.778	1.62552
682.153	0.796997
685.527	0.230774
688.902	0.043427
692.277	0.489471
695.652	0.726685
699.027	0.269653
702.401	0.469971
705.776	2.07968
709.151	2.92764
712.526	3.41739
715.901	5.78381
719.275	4.58398
722.65	5.37402
726.025	4.92853
729.4	2.91559
732.775	4.95502
736.149	4.52606
739.524	3.20789
742.899	2.77188
746.274	1.26367
749.649	2.91299
753.024	1.29379
756.398	2.03671
759.773	0.008606
763.148	0.470398
766.523	0.612946
769.898	1.97043
773.273	0.663818
776.647	0.295746
780.022	0.322021
783.397	1.36685
786.772	1.40051
790.146	2.51444
793.521	4.26837
796.896	5.82339
800.271	6.92862
803.646	7.41303
807.021	10.0302
810.395	8.47171
813.77	8.58756
817.145	7.33612
820.52	7.41855
823.895	7.93796
827.269	6.3085
830.644	9.97403
834.019	10.8717
837.394	11.9762
840.769	15.0042
844.144	19.7385
847.518	25.4053
850.893	30.9033
854.268	40.2507
857.643	54.7918
861.018	76.2352
864.393	123.523
867.767	219.179
871.142	365.303
874.517	565.132
877.892	942.792
881.266	1461.8
884.641	1152.42
888.016	461.239
891.391	176.805
894.766	82.9849
898.141	45.5824
901.515	27.4376
904.89	17.0103
908.265	10.7947
911.64	6.67584
915.015	4.68845
918.389	1.16327
921.764	1.02258
925.139	0.652588
928.514	0.227783
931.889	0.420532
935.264	0.300934
938.638	0.560516
942.013	2.20798
945.388	1.05395
948.763	0.625732
952.138	1.3262
955.512	0.726959
958.887	0.241592
962.262	0.568878
965.637	0.037338
969.012	1.82079
972.386	0.162567
975.761	1.17188
979.136	3.5244
982.511	3.54242
985.886	5.22109
989.261	6.97836
992.635	12.7598
996.01	15.7783
999.385	14.0196
1002.76	11.4637
1006.13	16.6023
1009.51	22.7189
1012.88	16.1455
1016.26	7.71635
1019.63	5.05196
1023.01	3.9214
1026.38	2.90805
1029.76	2.04053
1033.13	3.8033
1036.51	5.01552
1039.88	4.7534
1043.26	3.49417
1046.63	4.21028
1050.01	3.59699
1053.38	3.14523
1056.76	2.03616
1060.13	3.63399
1063.51	2.12202
1066.88	2.78647
1070.26	3.24025
1073.63	3.14659
1077.01	2.27704
1080.38	2.88429
1083.76	0.364029
1087.13	1.09338
1090.51	0.336624
1093.88	1.18468
1097.26	0.518631
1100.63	0.292206
1104	0.375351
1107.38	1.25822
1110.75	0.056915
1114.13	0.49147
1117.5	0.70784
1120.88	1.49635
1124.25	0.640533
1127.63	0.754593
1131	1.51186
1134.38	2.66884
1137.75	4.36441
1141.13	5.45547
1144.5	4.65144
1147.88	6.34776
1151.25	10.943
1154.63	15.0017
1158	23.568
1161.38	34.1081
1164.75	51.3516
1168.13	66.8169
1171.5	56.4035
1174.88	31.2723
1178.25	13.6673
1181.62	8.07771
1185	5.8506
1188.38	3.3529
1191.75	2.75192
1195.12	4.84975
1198.5	2.67491
1201.87	2.22307
1205.25	2.77751
1208.62	1.84782
1212	2.10545
1215.37	1.67461
1218.75	1.76791
1222.12	0.116669
1225.5	0.246414
1228.87	2.67197
1232.25	2.7059
1235.62	2.00702
1239	1.48813
1242.37	1.41324
1245.75	0.42778
1249.12	0.251343
1252.5	1.31021
1255.87	1.26677
1259.25	2.24599
1262.62	2.39088
1265.99	2.75558
1269.37	2.07143
1272.74	1.46433
1276.12	1.24834
1279.49	1.03628
1282.87	0.945633
