Measurement: Raman, 532 nm, unoriented, Raman Data Processed
Mineral: Scheelite
Rruff sample: R060417
Ideal chemistry: CaW^6+^O_4_
Locality: Karmang Valley, near Khapalu, Baltistan, Pakistan
Source: Herb Obodda
Description: Orange-yellow fragment
Measured chemistry: Ca_1.00_W_1.00_O_4_
Raman shift (cm-1)	intensity
88.1367	0
91.5115	1421.98
94.8863	1011.41
98.2612	133.41
101.636	296.891
105.011	872.617
108.386	3905
111.76	10900.4
115.135	28014.5
118.51	25026.2
121.885	10951.9
125.26	8258.35
128.635	7666.81
132.009	7948.91
135.384	8631.66
138.759	8917.44
142.134	8367.84
145.509	6658.23
148.883	5149.41
152.258	3814.13
155.633	2686.64
159.008	2268.89
162.383	2861.93
165.757	3490.46
169.132	5478.58
172.507	7630.14
175.882	10912.6
179.257	14495.1
182.632	19548.3
186.006	24844.2
189.381	29447.4
192.756	33680.9
196.131	36714.7
199.506	34664.1
202.881	30597.3
206.255	27466.9
209.63	27895.1
213.005	24348.2
216.38	14609.1
219.755	10132
223.129	8186.35
226.504	8391.53
229.879	9949.34
233.254	12870.3
236.629	16667.4
240.004	21173.9
243.378	25661.8
246.753	28514.4
250.128	30084.2
253.503	32047.4
256.878	35218
260.252	37047.3
263.627	37687.3
267.002	36810.9
270.377	34301.8
273.752	29890.3
277.127	23328.6
280.501	16194.1
283.876	10408.7
287.251	5839.68
290.626	1740.03
294.001	2639
297.375	5412.47
300.75	6085.56
304.125	4835.06
307.5	4075.34
310.875	4014.67
314.25	2659.62
317.624	1707.92
320.999	8396.81
324.374	17388.4
327.749	33308.2
331.124	63220.7
334.498	69465.2
337.873	34982.2
341.248	23418.5
344.623	32584.4
347.998	59052.4
351.373	107421
354.747	189130
358.122	312452
361.497	487930
364.872	716284
368.247	961516
371.621	1.13744e+06
374.996	1.14241e+06
378.371	963081
381.746	758385
385.121	672518
388.495	678712
391.87	665856
395.245	586394
398.62	469029
401.995	301741
405.37	132524
408.744	31109.9
412.119	1545.28
415.494	27131.4
418.869	92088.2
422.244	172527
425.618	250651
428.993	354813
432.368	530130
435.743	699023
439.118	686541
442.493	514454
445.867	428008
449.242	478242
452.617	554156
455.992	500202
459.367	385477
462.741	284064
466.116	151972
469.491	56914.6
472.866	12110
476.241	926.062
479.615	10713.8
482.99	34030.3
486.365	50906.2
489.74	43779.7
493.115	24143.9
496.49	8570.66
499.864	9.82812
503.239	4297.53
506.614	5673.44
509.989	5041.5
513.364	3472.08
516.739	793.844
520.113	2941.77
523.488	7193.88
526.863	8692.89
530.238	9976.33
533.613	13941.9
536.987	21521.7
540.362	31522
543.737	40231.1
547.112	45785.9
550.487	47402.7
553.861	46713.2
557.236	45964.1
560.611	42785.2
563.986	35994.5
567.361	27548.2
570.736	18333
574.11	10979.8
577.485	8324.53
580.86	9704.31
584.235	11279.2
587.61	4583.41
590.985	5959.59
594.359	15206.9
597.734	20637.3
601.109	21581.7
604.484	17018.1
607.859	4519.47
611.233	17539.1
614.608	48974.4
617.983	87814.1
621.358	131476
624.733	184631
628.107	243446
631.482	300301
634.857	348974
638.232	384531
641.607	410217
644.982	438637
648.356	483273
651.731	542327
655.106	602521
658.481	660978
661.856	700757
665.231	730512
668.605	770226
671.98	818136
675.355	867410
678.73	927966
682.105	1.00071e+06
685.479	1.08494e+06
688.854	1.19463e+06
692.229	1.3583e+06
695.604	1.55941e+06
698.979	1.69103e+06
702.354	1.67126e+06
705.728	1.49715e+06
709.103	1.23654e+06
712.478	971467
715.853	746287
719.227	574573
722.602	445758
725.977	346623
729.352	268282
732.727	213646
736.102	175706
739.476	151174
742.851	136928
746.226	124436
749.601	107966
752.976	83678.6
756.351	57111.2
759.725	32875.3
763.1	12133.9
766.475	3719.41
769.85	12289.2
773.225	16800.4
776.599	17805.3
779.974	16502.4
783.349	11864.6
786.724	6785.94
790.099	1123.44
793.473	15024.2
796.848	35445.8
800.223	24432.8
803.598	14584.2
806.973	15361.3
810.348	19332.2
813.722	23276.6
817.097	27144.5
820.472	30975.7
823.847	34197.3
827.222	37099.8
830.597	39543.7
833.971	40773.2
837.346	41406.5
840.721	39225.6
844.096	36241.5
847.471	34075.8
850.846	34623.1
854.22	35918.1
857.595	36801.3
860.97	36126.9
864.345	33930
867.72	31709
871.094	29359.1
874.469	26801.2
877.844	24901.5
881.219	22536.1
884.594	20589.1
887.968	19326.9
891.343	19065.4
894.718	21192.3
898.093	27261.5
901.468	39930
904.842	64436.9
908.217	112608
911.592	160394
914.967	97157.7
918.342	39445.6
921.717	19680.3
925.091	11622.5
928.466	7994.75
931.841	6188.43
935.216	4411.48
938.591	3131.82
941.966	1878.57
945.34	834.941
948.715	74.9258
952.09	264.394
955.465	518.867
958.84	655.18
962.214	662.809
965.589	737.652
968.964	588.832
972.339	434.727
975.714	80.8047
979.088	233.246
982.463	483.199
985.838	918.66
989.213	1276.41
992.588	1736.93
995.963	2447.98
999.337	3021.96
1002.71	3699.55
1006.09	4292.01
1009.46	4875.65
1012.84	5948.79
1016.21	6856.43
1019.59	8451.24
1022.96	9884.25
1026.34	11611.6
1029.71	12638.8
1033.09	13402.4
1036.46	13735.9
1039.84	13902.5
1043.21	13421
1046.59	12632.9
1049.96	11718.6
1053.33	10469.8
1056.71	9126.73
1060.08	7634.62
1063.46	5617.14
1066.83	4112.8
1070.21	2737.47
1073.58	1638.35
1076.96	723.246
1080.33	79.1836
1083.71	117.961
1087.08	282.473
1090.46	168.144
1093.83	146.578
1097.21	638.262
1100.58	1052.15
1103.96	1357.85
1107.33	1312.08
1110.71	1022.55
1114.08	1154.81
1117.46	1290.81
1120.83	1662.11
1124.21	1599.42
1127.58	1607.07
1130.95	1715.16
1134.33	1980.18
1137.7	2341.64
1141.08	2863.33
1144.45	3258.43
1147.83	3488.73
1151.2	3515.8
1154.58	3276
1157.95	3129.56
1161.33	2457.44
1164.7	2074.65
1168.08	1201.15
1171.45	769.734
1174.83	606.191
1178.2	303.578
1181.58	52.6914
1184.95	98.8164
1188.33	51.3691
1191.7	146.744
1195.08	455.07
1198.45	993.981
1201.83	1927.59
1205.2	2812.95
1208.58	3320.1
1211.95	3325.96
1215.33	2903.21
1218.7	2440.17
1222.08	2098.08
1225.45	1940.18
1228.83	1936.21
1232.2	1891.1
1235.58	1993.81
1238.95	1905.99
1242.32	1334.92
1245.7	752.59
1249.07	399.699
1252.45	98.916
1255.82	188.875
1259.2	419.301
1262.57	273.838
1265.95	343.129
1269.32	298.623
1272.7	317.103
1276.07	392.342
1279.45	241.377
1282.82	253.856
1286.2	153.713
1289.57	115.508
1292.95	3.17481
1296.32	28.5439
1299.7	5.82324
