Measurement: Raman, 785 nm, unoriented, Raman Data RAW
Mineral: Scheelite
Rruff sample: R040173
Ideal chemistry: CaW^6+^O_4_
Locality: Santa Cruz, Sonora, Mexico
Source: University of Arizona Mineral Museum
Description: Yellow crystal fragments
Measured chemistry: Ca_1.00_W_1.00_O_4_
Raman shift (cm-1)	intensity
117.162	985.547
120.055	1402.25
122.948	2145.04
125.841	3416.49
128.733	5074.69
131.626	6957.21
134.519	8868.26
137.411	10800.4
140.304	13776.9
143.197	18720.1
146.089	25745
148.982	33396.3
151.875	38919.5
154.768	41877.2
157.66	42971.1
160.553	44344.7
163.446	47222.7
166.338	50124.8
169.231	52421.6
172.124	53163.6
175.017	52695.7
177.909	51221.2
180.802	48866.8
183.695	45970.3
186.587	42989.2
189.48	40073.1
192.373	37537.5
195.265	35378.5
198.158	33239.2
201.051	31378.3
203.944	29572.8
206.836	28073.6
209.729	26775.9
212.622	25301.1
215.514	23998.2
218.407	23012.6
221.3	22345
224.192	21754
227.085	21313.3
229.978	20652
232.87	20283.6
235.763	20022.1
238.656	19671.2
241.549	19783.1
244.441	19581.8
247.334	19514.5
250.227	19318.9
253.119	19380
256.012	19430
258.905	19604.9
261.798	19756.7
264.69	19888.4
267.583	20070.8
270.476	20270.6
273.368	20535.1
276.261	20792.9
279.154	21461.6
282.046	21758.9
284.939	22385.8
287.832	22483.5
290.724	22482.5
293.617	22287
296.51	21951.1
299.403	21820.5
302.295	21915.6
305.188	22067.5
308.081	22458
310.973	23098.1
313.866	23763.2
316.759	24338.8
319.651	24958.9
322.544	25257
325.437	25470.1
328.33	25446.8
331.222	25628.7
334.115	25071.7
337.008	24042.2
339.9	23149.6
342.793	22671
345.686	22442.6
348.579	22310.3
351.471	22419.7
354.364	22311
357.257	22145.8
360.149	22092.9
363.042	21838.9
365.935	21840.1
368.827	21959.7
371.72	22014.6
374.613	21959.5
377.505	22235.7
380.398	22322.6
383.291	22503.2
386.184	22637.3
389.076	22807
391.969	23110
394.862	23546.7
397.754	23982.2
400.647	24121.2
403.54	23889.5
406.433	23680.6
409.325	23695.5
412.218	24055.3
415.111	24132.4
418.003	24621.8
420.896	24877
423.789	25121
426.681	25548.1
429.574	25552.1
432.467	25877.9
435.36	26098.6
438.252	26198.4
441.145	26256.4
444.038	26323.3
446.93	26021.5
449.823	25874.7
452.716	25596.5
455.608	25365.4
458.501	24998.4
461.394	25107.8
464.286	25117
467.179	25176.7
470.072	25526.2
472.965	25869
475.857	26437
478.75	27018.8
481.643	27464.6
484.535	27373.2
487.428	26756.4
490.321	25785.2
493.214	24193.9
496.106	22742.8
498.999	21208.4
501.892	19777.4
504.784	18555.2
507.677	17526.9
510.57	16728.7
513.462	15976.8
516.355	15091.1
519.248	14288.1
522.14	13652.2
525.033	12853.6
527.926	12304.2
530.819	11694.7
533.711	11152.8
536.604	10698.7
539.497	10222.5
542.389	9747.17
545.282	9368.8
548.175	9026.06
551.067	8655.29
553.96	8343.34
556.853	8048.68
559.745	7799.89
562.638	7496.35
565.531	7260.5
568.424	7019.02
571.316	6766.34
574.209	6507.99
577.102	6270.75
579.994	6076.47
582.887	5818.11
585.78	5675.61
588.673	5439.27
591.565	5146.97
594.458	4996.96
597.351	4763.27
600.243	4609.27
603.136	4414.13
606.029	4186.25
608.921	4042.66
611.814	3850.97
614.707	3747.01
617.6	3625.83
620.492	3474.38
623.385	3325.36
626.278	3254.15
629.17	3190.58
632.063	3098.78
634.956	3046.03
637.848	2962.14
640.741	2892.48
643.634	2863.29
646.527	2826.55
649.419	2817.28
652.312	2795.48
655.205	2762.99
658.097	2722.82
660.99	2724.4
663.883	2773.92
666.775	2804.26
669.668	2855.65
672.561	2889.77
675.454	3001.48
678.346	3057.21
681.239	3162.81
684.132	3319.29
687.024	3453.5
689.917	3510.99
692.81	3566.35
695.702	3503.19
698.595	3353.93
701.488	3134.21
704.381	2962.41
707.273	2792.01
710.166	2617.48
713.059	2488.7
715.951	2447.88
718.844	2389.33
721.737	2379.28
724.63	2401.16
727.522	2401.89
730.415	2400.26
733.308	2450.13
736.2	2435.53
739.093	2507.35
741.986	2568.63
744.878	2706.77
747.771	2841.28
750.664	3027.46
753.557	3130.6
756.449	3164.38
759.342	3053.89
762.235	2828.14
765.127	2600.74
768.02	2378.35
770.913	2186.77
773.805	2058.8
776.698	1998.76
779.591	1926.27
782.484	1858.71
785.376	1859.32
788.269	1771.6
791.162	1697.17
794.054	1616.26
796.947	1499.56
799.84	1385.5
802.732	1328.7
805.625	1250.71
808.518	1220.14
811.41	1179.39
814.303	1147.36
817.196	1162.25
820.089	1152.28
822.981	1148.99
825.874	1196.17
828.767	1237.41
831.659	1317.04
834.552	1421.35
837.445	1526.63
840.337	1407.63
843.23	1221.66
846.123	1127.32
849.016	1069.97
851.908	1031.11
854.801	1028.85
857.694	1028.47
860.586	1017.99
863.479	1014.77
866.372	1016.03
869.264	1042.11
872.157	1056.75
875.05	1074.54
877.943	1133.92
880.835	1202.42
883.728	1265.45
886.621	1193.75
889.513	1156.94
892.406	1203.71
895.299	1308.36
898.192	1495.03
901.084	1840.13
903.977	2486.68
906.87	3474.79
909.762	4596.94
912.655	4216.45
915.548	2674.88
918.44	1791.09
921.333	1424.26
924.226	1287.95
927.119	1196.81
930.011	1188.5
932.904	1151.75
935.797	1115.11
938.689	1102.27
941.582	1080.71
944.475	1068.92
947.367	1071.61
950.26	1046.24
953.153	1078.52
956.045	1069.36
958.938	1037.17
961.831	1060.26
964.724	1025.68
967.616	1031.16
970.509	1016.21
973.402	1044.2
976.294	1060.63
979.187	1062.96
982.08	1068.13
984.972	1101.25
987.865	1094.22
990.758	1132.86
993.651	1150.41
996.543	1164.03
999.436	1204.76
1002.33	1239.8
1005.22	1263.84
1008.11	1269.49
1011.01	1342.87
1013.9	1332.96
1016.79	1379.96
1019.68	1398.04
1022.58	1446.57
1025.47	1437.4
1028.36	1469.88
1031.26	1499.91
1034.15	1508.65
1037.04	1522.88
1039.93	1582.78
1042.83	1571.39
1045.72	1614.37
1048.61	1623.43
1051.51	1654.26
1054.4	1703.54
1057.29	1772.19
1060.18	1781.39
1063.08	1832.11
1065.97	1905.43
1068.86	1965.61
1071.75	2027.77
1074.65	2084.62
1077.54	2158.82
1080.43	2225.41
1083.32	2296.56
1086.22	2333.47
1089.11	2399.59
1092	2497.18
1094.89	2573.95
1097.79	2678.53
1100.68	2753.99
1103.57	2845.78
1106.47	2960.97
1109.36	3034.45
1112.25	3167.95
1115.14	3220.65
1118.04	3450.99
1120.93	3609.46
1123.82	3825.09
1126.71	4033.79
1129.61	4277.07
1132.5	4426.26
1135.39	4526.07
1138.29	4695.23
1141.18	4727.95
1144.07	4768.6
1146.96	4743.41
1149.86	4842.85
1152.75	4934.64
1155.64	5030.32
1158.53	5169.35
1161.43	5336.03
1164.32	5557.34
1167.21	5735.94
1170.11	6114.2
1173	6256.4
1175.89	6523.7
