Measurement: Raman, 780 nm, unoriented, Raman Data Processed
Mineral: Scheelite
Rruff sample: R060417
Ideal chemistry: CaW^6+^O_4_
Locality: Karmang Valley, near Khapalu, Baltistan, Pakistan
Source: Herb Obodda
Description: Orange-yellow fragment
Measured chemistry: Ca_1.00_W_1.00_O_4_
Raman shift (cm-1)	intensity
87.582	0
90.9569	54190.8
94.3317	94736.4
97.7065	70629.7
101.081	62586.5
104.456	62424.4
107.831	63300.2
111.206	78428.9
114.581	104160
117.955	90403.4
121.33	63962.2
124.705	42476.9
128.08	23120.8
131.455	6737.94
134.829	7028.22
138.204	16207.7
141.579	22013.7
144.954	24285.1
148.329	14003.9
151.704	3113.69
155.078	27594.9
158.453	61385.9
161.828	108229
165.203	169002
168.578	243655
171.952	332213
175.327	431779
178.702	539389
182.077	643750
185.452	733079
188.827	796252
192.201	834750
195.576	862333
198.951	893261
202.326	936977
205.701	988128
209.076	1.03329e+06
212.45	1.05557e+06
215.825	1.07159e+06
219.2	1.09394e+06
222.575	1.12907e+06
225.95	1.16822e+06
229.324	1.19684e+06
232.699	1.20331e+06
236.074	1.18467e+06
239.449	1.14096e+06
242.824	1.09045e+06
246.198	1.02471e+06
249.573	936142
252.948	821186
256.323	695640
259.698	573450
263.073	465280
266.447	373844
269.822	292105
273.197	229648
276.572	184855
279.947	149677
283.322	117859
286.696	95716.5
290.071	82234
293.446	75061.2
296.821	66914.1
300.196	52761.6
303.57	32586.9
306.945	11814.4
310.32	7106.38
313.695	19485.4
317.07	26971.9
320.445	27719
323.819	16788
327.194	8152.12
330.569	41148
333.944	45198.5
337.319	42312.5
340.693	66403.9
344.068	110979
347.443	165844
350.818	229777
354.193	303898
357.567	376180
360.942	433364
364.317	457948
367.692	451982
371.067	420083
374.442	387128
377.816	359701
381.191	333256
384.566	311951
387.941	293624
391.316	272153
394.69	240733
398.065	199880
401.44	158437
404.815	116328
408.19	80793.2
411.565	50407
414.939	25479.8
418.314	11338
421.689	2696.12
425.064	10866.9
428.439	12013.8
431.813	14485.4
435.188	11317.2
438.563	4963.62
441.938	3750.88
445.313	16737.2
448.688	32220.5
452.062	50271.8
455.437	74383
458.812	100767
462.187	125724
465.562	152244
468.937	177223
472.311	202821
475.686	228235
479.061	254982
482.436	274884
485.81	296532
489.185	316337
492.56	339743
495.935	364501
499.31	389629
502.685	411163
506.059	426939
509.434	439159
512.809	446920
516.184	449762
519.559	450439
522.933	444454
526.308	432362
529.683	417793
533.058	408985
536.433	405446
539.808	397155
543.182	394203
546.557	393995
549.932	395696
553.307	388083
556.682	371202
560.057	340818
563.431	299080
566.806	253395
570.181	208306
573.556	170940
576.931	139209
580.305	113430
583.68	91156.1
587.055	69937.1
590.43	51826.3
593.805	38375.2
597.18	24192
600.554	12132.6
603.929	1721.5
607.304	4560.38
610.679	8732.94
614.054	10538.1
617.428	10676.4
620.803	8290.81
624.178	6359.06
627.553	3680.75
630.928	226.969
634.303	3476.75
637.677	7202.5
641.052	10234.8
644.427	13804
647.802	16730.4
651.177	19206.2
654.552	21792
657.926	23410.6
661.301	24636.9
664.676	25644.6
668.051	24965.1
671.426	23302
674.8	20121.4
678.175	17120.7
681.55	14204.5
684.925	12124.8
688.3	9587.97
691.674	8142.16
695.049	7560.48
698.424	8137.75
701.799	8387.03
705.174	9355.7
708.548	9980.85
711.923	11230
715.298	12396.1
718.673	13908.1
722.048	15901.8
725.423	18091.8
728.797	21277.3
732.172	24712.5
735.547	29200.3
738.922	34172.5
742.297	39578.2
745.672	43405.2
749.046	44409.1
752.421	43105.6
755.796	40966.9
759.171	38998.3
762.546	36563.3
765.92	33181.5
769.295	28141.6
772.67	21112.7
776.045	14397
779.42	7893.5
782.795	3295.61
786.169	588.633
789.544	64.3672
792.919	3269.19
796.294	5934.48
799.669	1355.88
803.043	756.961
806.418	2565.49
809.793	6412.75
813.168	11942.7
816.543	18655.9
819.918	25946.3
823.292	32476.1
826.667	36881.7
830.042	37818.5
833.417	34824.2
836.792	28534.4
840.166	20488.8
843.541	13586.7
846.916	8931.96
850.291	6202
853.666	4707.39
857.04	3870.1
860.415	3054.3
863.79	1765.03
867.165	433.59
870.54	541.367
873.915	1275.8
877.289	1439.93
880.664	984.625
884.039	114.598
887.414	934.816
890.789	3240.68
894.163	6939.91
897.538	13938.4
900.913	24061.6
904.288	43132.6
907.663	73368.6
911.038	84426
914.412	40260.7
917.787	16083.1
921.162	8051.24
924.537	5137.4
927.912	3947.39
931.287	3207.99
934.661	2447.75
938.036	1645.9
941.411	1069.75
944.786	1036.86
948.161	1062.62
951.535	1224.47
954.91	1781.16
958.285	2550.54
961.66	3354.9
965.035	3846.5
968.409	4458.25
971.784	4814.14
975.159	5309.79
978.534	6250.68
981.909	7148.6
985.284	7452.82
988.658	7666.47
992.033	7680.57
995.408	7157.39
998.783	6602.27
1002.16	5668.6
1005.53	4930.58
1008.91	4170.34
1012.28	3181.12
1015.66	2534.75
1019.03	1581.12
1022.41	898.309
1025.78	313.344
1029.16	256.746
1032.53	665.746
1035.91	1014.51
1039.28	1005.54
1042.66	994.34
1046.03	571.305
1049.4	344.676
1052.78	158.973
1056.15	750.254
1059.53	1687.34
1062.9	2008.35
1066.28	2273.8
1069.65	2919.18
1073.03	3501.97
1076.4	4192.9
1079.78	4678.88
1083.15	5295.66
1086.53	5473.02
1089.9	5671.62
1093.28	5717.71
1096.65	5730.16
1100.03	5820.94
1103.4	5781.09
1106.78	6289
1110.15	6753.71
1113.53	7401.53
1116.9	8462.07
1120.28	9708.12
1123.65	10874.7
1127.03	12676.8
1130.4	14587.6
1133.78	16996.5
1137.15	19281.9
1140.53	21510.8
1143.9	23669.7
1147.28	25758.4
1150.65	28447.9
1154.03	30478.8
1157.4	32351.8
1160.77	33907.5
1164.15	35602.9
1167.52	39304.2
1170.9	43795.1
1174.27	46464.4
1177.65	47254.8
1181.02	46871
1184.4	46614.8
1187.77	45648.3
1191.15	44183.4
1194.52	42417.3
1197.9	39693.9
1201.27	36447.1
1204.65	32861.3
1208.02	28686.3
1211.4	23707.6
1214.77	17329.4
1218.15	10705.8
1221.52	2893.58
1224.9	6681.62
1228.27	3259.11
1231.64	1507.8
1235.02	7508.55
1238.39	11117.7
1241.77	14774.2
1245.14	17581.7
1248.52	19798.4
1251.89	21346.7
1255.27	11800
1258.64	7051.38
1262.02	9132.19
1265.39	11582.9
1268.77	11271.7
1272.14	7415.38
1275.52	6604.5
1278.89	2278.81
1282.27	0
