Measurement: Raman, 532 nm, unoriented, Raman Data Processed
Mineral: Schieffelinite
Rruff sample: R140572
Ideal chemistry: Pb^2+^_10_Te^6+^_6_O_20_(OH)_14_(S^6+^O_4_)5H_2_O
Locality: Joe mine, Tombstone District, Tombstone Hills, Cochise County, Arizona, USA
Source: Rock Currier
Description: Colorless thin platy or scaly crystals, associated with clusters of acicular ottoite crystals.
Raman shift (cm-1)	intensity
88.1367	0
91.5115	70.7468
94.8863	72.9931
98.2612	2.56622
101.636	9.36511
105.011	15.0593
108.386	67.6881
111.76	112.599
115.135	169.201
118.51	251.508
121.885	418.92
125.26	677.255
128.635	1098.96
132.009	1776.47
135.384	2910.89
138.759	4591.39
142.134	5872.41
145.509	5178.16
148.883	4052.28
152.258	3240.65
155.633	2403.82
159.008	1813.52
162.383	1502.64
165.757	1398.51
169.132	1460.2
172.507	1568.83
175.882	1753.49
179.257	1902.89
182.632	1951.08
186.006	1875.01
189.381	1645.85
192.756	1232.66
196.131	756.848
199.506	401.576
202.881	223.675
206.255	134.612
209.63	119.897
213.005	152.084
216.38	183.917
219.755	200.258
223.129	215.994
226.504	203.674
229.879	170.154
233.254	135.571
236.629	97.1047
240.004	76.2512
243.378	49.8191
246.753	27.7966
250.128	4.3811
253.503	15.669
256.878	26.0111
260.252	26.8903
263.627	30.1244
267.002	23.2128
270.377	8.52838
273.752	8.69153
277.127	30.9322
280.501	43.6445
283.876	81.1902
287.251	118.754
290.626	168.981
294.001	195.545
297.375	244.03
300.75	260.983
304.125	253.274
307.5	208.022
310.875	150.757
314.25	104.541
317.624	77.1014
320.999	70.4446
324.374	85.4233
327.749	152.619
331.124	252.246
334.498	441.649
337.873	659.507
341.248	862.979
344.623	1000.15
347.998	1175.09
351.373	1345.72
354.747	1389.5
358.122	1247.58
361.497	1055.17
364.872	991.443
368.247	1004.38
371.621	930.691
374.996	724.912
378.371	527.503
381.746	412.187
385.121	361.916
388.495	322.67
391.87	254.19
395.245	149.886
398.62	66.1327
401.995	10.5394
405.37	20.6229
408.744	20.9992
412.119	5.2746
415.494	51.606
418.869	114.343
422.244	183.352
425.618	264.79
428.993	336.354
432.368	416.602
435.743	477.74
439.118	479.852
442.493	451.751
445.867	416.771
449.242	419.598
452.617	442.705
455.992	473.83
459.367	473.339
462.741	399.062
466.116	289.878
469.491	190.732
472.866	131.813
476.241	95.4327
479.615	79.7207
482.99	58.6117
486.365	53.1767
489.74	51.7065
493.115	46.4222
496.49	45.8194
499.864	42.894
503.239	42.4975
506.614	35.8056
509.989	27.9936
513.364	21.6645
516.739	6.20798
520.113	4.3114
523.488	0.14978
526.863	6.19665
530.238	11.8658
533.613	11.0484
536.987	16.9108
540.362	11.8357
543.737	8.02472
547.112	11.6444
550.487	4.32806
553.861	1.54535
557.236	3.23749
560.611	12.7762
563.986	13.77
567.361	19.709
570.736	30.5505
574.11	47.0559
577.485	72.0251
580.86	109.619
584.235	153.777
587.61	216.702
590.985	272.601
594.359	331.19
597.734	392.339
601.109	457.738
604.484	544.368
607.859	622.303
611.233	712.628
614.608	794.262
617.983	858.693
621.358	901.806
624.733	918.092
628.107	931.394
631.482	915.357
634.857	855.645
638.232	738.604
641.607	562.592
644.982	368.132
648.356	209.934
651.731	99.7916
655.106	31.2771
658.481	28.3806
661.856	70.1454
665.231	150.846
668.605	300.623
671.98	509.351
675.355	791.044
678.73	1128.35
682.105	1549.19
685.479	1994.2
688.854	2493.59
692.229	3221.19
695.604	4450.13
698.979	6090.15
702.354	7602.64
705.728	8251.15
709.103	7430.38
712.478	5519.98
715.853	3612.89
719.227	2238.3
722.602	1343.74
725.977	781.318
729.352	442.396
732.727	246.561
736.102	124.406
739.476	63.0891
742.851	23.0503
746.226	3.39191
749.601	12.611
752.976	21.1961
756.351	18.2501
759.725	17.4492
763.1	17.2664
766.475	8.81213
769.85	4.12204
773.225	11.9324
776.599	18.4168
779.974	37.1938
783.349	53.8394
786.724	66.351
790.099	77.135
793.473	97.9677
796.848	119.564
800.223	130.536
803.598	151.124
806.973	157.767
810.348	167.925
813.722	171.309
817.097	169.991
820.472	164.993
823.847	154.821
827.222	137.06
830.597	127.361
833.971	115.235
837.346	98.3598
840.721	93.2445
844.096	86.251
847.471	73.3037
850.846	71.9155
854.22	66.3471
857.595	66.6544
860.97	70.5789
864.345	76.6934
867.72	89.1775
871.094	116.815
874.469	164.455
877.844	257.519
881.219	450.371
884.594	691.71
887.968	670.989
891.343	411.6
894.718	229.995
898.093	129.918
901.468	70.5726
904.842	42.8197
908.217	25.7454
911.592	21.2862
914.967	17.0167
918.342	37.4782
921.717	78.1368
925.091	90.8651
928.466	42.926
931.841	5.66696
935.216	3.78888
938.591	8.8515
941.966	5.46033
945.34	3.21716
948.715	22.3568
952.09	57.1363
955.465	139.642
958.84	265.043
962.214	373.104
965.589	374.236
968.964	297.876
972.339	167.89
975.714	70.3088
979.088	33.0425
982.463	15.1338
985.838	3.90875
989.213	4.23138
992.588	2.00848
995.963	1.83304
999.337	3.02988
1002.71	1.41473
1006.09	0.670258
1009.46	0.359894
1012.84	2.03037
1016.21	0.514038
1019.59	2.18811
1022.96	2.7688
1026.34	1.60501
1029.71	0.439758
1033.09	2.93805
1036.46	1.5072
1039.84	2.07666
1043.21	6.78998
1046.59	9.69669
1049.96	12.9861
1053.33	23.9971
1056.71	28.925
1060.08	19.7029
1063.46	19.0064
1066.83	14.3956
1070.21	19.1066
1073.58	22.4664
1076.96	22.0799
1080.33	22.0151
1083.71	17.9171
1087.08	18.1676
1090.46	16.4531
1093.83	17.3193
1097.21	21.0301
1100.58	20.453
1103.96	18.1507
1107.33	16.9363
1110.71	17.1816
1114.08	9.41635
1117.46	13.2234
1120.83	16.0177
1124.21	12.1338
1127.58	6.96249
1130.95	3.78879
1134.33	7.79739
1137.7	8.87103
1141.08	6.57129
1144.45	2.91605
1147.83	1.8811
1151.2	7.88104
1154.58	0.578674
1157.95	4.72931
1161.33	1.18887
1164.7	5.99799
1168.08	0.340851
1171.45	2.83167
1174.83	2.70343
1178.2	9.84119
1181.58	3.10562
1184.95	2.16138
1188.33	2.16443
1191.7	3.82867
1195.08	5.29392
1198.45	4.20175
1201.83	4.21347
1205.2	2.57431
1208.58	4.35352
1211.95	2.66556
1215.33	0.71814
1218.7	2.76117
1222.08	3.6471
1225.45	0.302765
1228.83	3.53708
1232.2	4.82327
1235.58	3.16065
1238.95	6.05359
1242.32	2.00882
1245.7	4.64197
1249.07	7.34009
1252.45	3.66382
1255.82	3.18912
1259.2	5.34757
1262.57	3.70569
1265.95	2.62158
1269.32	3.78238
1272.7	2.52722
1276.07	1.94663
1279.45	4.65637
1282.82	2.06604
1286.2	0.703278
1289.57	3.9585
1292.95	0.770142
1296.32	1.88223
1299.7	2.38382
