Measurement: Raman, 780 nm, unoriented, Raman Data Processed
Mineral: Schieffelinite
Rruff sample: R140572
Ideal chemistry: Pb^2+^_10_Te^6+^_6_O_20_(OH)_14_(S^6+^O_4_)5H_2_O
Locality: Joe mine, Tombstone District, Tombstone Hills, Cochise County, Arizona, USA
Source: Rock Currier
Description: Colorless thin platy or scaly crystals, associated with clusters of acicular ottoite crystals.
Raman shift (cm-1)	intensity
93.3674	0
96.7422	84.2881
100.117	105.217
103.492	243.871
106.867	556.929
110.242	316.573
113.616	72.3667
116.991	39.7573
120.366	4.59375
123.741	283.731
127.116	827.261
130.49	1814.2
133.865	3420.47
137.24	5774.46
140.615	7613.03
143.99	6898.99
147.364	5264.38
150.739	4105.19
154.114	3116.85
157.489	2340.98
160.864	1966.68
164.239	1890.8
167.613	2023.64
170.988	2305.09
174.363	2661.02
177.738	3149.31
181.113	3645.89
184.488	3886.26
187.862	3738.25
191.237	2911.41
194.612	1645.72
197.987	722.988
201.362	264.346
204.736	63.6709
208.111	24.3765
211.486	96.8149
214.861	242.226
218.236	401.45
221.611	530.086
224.985	611.355
228.36	619.929
231.735	609.819
235.11	527.633
238.485	418.859
241.859	315.245
245.234	221.188
248.609	82.9277
251.984	9.05664
255.359	36.4658
258.733	58.9541
262.108	34.5708
265.483	25.8071
268.858	7.73633
272.233	4.68945
275.608	35.3511
278.982	89.4653
282.357	154.342
285.732	232.492
289.107	333.057
292.482	479.095
295.856	597.532
299.231	720.163
302.606	779.532
305.981	713.639
309.356	536.778
312.731	376.363
316.105	237.84
319.48	179.429
322.855	234.054
326.23	395.648
329.605	674.583
332.979	1193.76
336.354	1793.16
339.729	2142.01
343.104	2262.91
346.479	2305.98
349.854	2388.83
353.228	2314.27
356.603	1981.68
359.978	1671.45
363.353	1554.19
366.728	1661.58
370.103	1663.78
373.477	1440.59
376.852	1150.45
380.227	964.79
383.602	870.725
386.977	753.402
390.351	599.23
393.726	362.187
397.101	160.687
400.476	13.6357
403.851	44.9331
407.226	50.2212
410.6	1.75684
413.975	66.8174
417.35	191.492
420.725	356.178
424.1	505.295
427.474	671.023
430.849	796.213
434.224	875.249
437.599	885.339
440.974	789.348
444.349	713.223
447.723	622.948
451.098	621.468
454.473	659.79
457.848	633.659
461.223	541.456
464.597	369.496
467.972	228.44
471.347	153.313
474.722	89.844
478.097	67.1841
481.471	54.0425
484.846	51.7019
488.221	55.8328
491.596	58.1411
494.971	51.6668
498.346	61.4907
501.72	79.3757
505.095	48.5981
508.47	52.7905
511.845	26.9766
515.22	2.70239
518.595	1.44482
521.969	4.86621
525.344	1.05103
528.719	40.6043
532.094	33.0859
535.469	19.3501
538.843	11.8271
542.218	32.6514
545.593	22.3215
548.968	4.27515
552.343	27.9597
555.717	35.1472
559.092	41.156
562.467	54.3667
565.842	60.915
569.217	52.2522
572.592	83.6035
575.966	124.269
579.341	191.678
582.716	227.43
586.091	279.101
589.466	308.095
592.841	384.646
596.215	455.023
599.59	554.944
602.965	681.845
606.34	820.715
609.715	970.67
613.089	1104.61
616.464	1223.27
619.839	1362.55
623.214	1412.17
626.589	1482.17
629.963	1507.32
633.338	1472.02
636.713	1339.3
640.088	1094.86
643.463	802.707
646.838	527.333
650.212	285.96
653.587	155.209
656.962	81.6084
660.337	82.2217
663.712	147.227
667.087	304.629
670.461	527.446
673.836	863.799
677.211	1318.8
680.586	1810.07
683.961	2333.39
687.335	2849
690.71	3621.3
694.085	4950.92
697.46	6987.96
700.835	9118.6
704.21	10409.1
707.584	9846.79
710.959	7631.9
714.334	5105.96
717.709	3187.53
721.084	1907.38
724.458	1097.68
727.833	626.02
731.208	317.756
734.583	141.894
737.958	48.3467
741.332	7.94336
744.707	23.4187
748.082	27.3528
751.457	35.0747
754.832	35.1384
758.207	35.2913
761.581	10.967
764.956	3.9187
768.331	7.7146
771.706	23.5308
775.081	48.2537
778.455	64.4785
781.83	84.3472
785.205	119.118
788.58	139.74
791.955	173.192
795.33	210.773
798.704	236.127
802.079	250.81
805.454	277.029
808.829	271.013
812.204	271.795
815.578	286.832
818.953	281.032
822.328	277.027
825.703	250.198
829.078	219.147
832.453	213.406
835.827	192.474
839.202	177.683
842.577	158.3
845.952	138.435
849.327	122.509
852.702	101.092
856.076	109.098
859.451	106.206
862.826	119.137
866.201	113.27
869.576	142.47
872.95	185.509
876.325	280.69
879.7	494.627
883.075	793.716
886.45	898.184
889.824	654.273
893.199	378.529
896.574	204.161
899.949	107.684
903.324	61.219
906.698	28.2051
910.073	10.5801
913.448	0.083252
916.823	27.2004
920.198	78.3606
923.573	109.226
926.947	69.3166
930.322	4.2356
933.697	2.40405
937.072	4.09399
940.447	4.70996
943.822	8.86572
947.196	23.2903
950.571	69.3865
953.946	197.108
957.321	393.422
960.696	595.43
964.07	658.325
967.445	544.912
970.82	319.353
974.195	145.468
977.57	67.5603
980.945	41.0801
984.319	13.3943
987.694	11.2576
991.069	2.76514
994.444	2.57007
997.819	3.04517
1001.19	8.10034
1004.57	3.99438
1007.94	5.76465
1011.32	7.47266
1014.69	8.61963
1018.07	14.2134
1021.44	13.9893
1024.82	1.92578
1028.19	0.759033
1031.57	0.643555
1034.94	7.67798
1038.32	12.8623
1041.69	18.9927
1045.07	15.5349
1048.44	17.8923
1051.82	53.9368
1055.19	279.85
1058.57	59.0947
1061.94	24.0334
1065.32	20.2366
1068.69	29.2344
1072.07	22.7983
1075.44	33.6995
1078.81	31.5493
1082.19	38.9961
1085.56	41.1182
1088.94	29.3269
1092.31	26.9636
1095.69	29.5217
1099.06	20.3196
1102.44	29.7361
1105.81	16.2324
1109.19	22.4573
1112.56	17.8486
1115.94	11.7622
1119.31	29.4819
1122.69	12.4058
1126.06	7.69238
1129.44	0.27124
1132.81	10.3008
1136.19	7.04248
1139.56	4.75415
1142.94	11.2385
1146.31	0.267578
1149.68	6.354
1153.06	6.8396
1156.43	5.54102
1159.81	7.45898
1163.18	6.97852
1166.56	14.0718
1169.93	10.7219
1173.31	20.5855
1176.68	12.9473
1180.06	2.47876
1183.43	11.1306
1186.81	33.029
1190.18	31.8379
1193.56	29.1882
1196.93	41.9966
1200.31	40.8176
1203.68	60.3464
1207.06	75.3064
1210.43	93.7812
1213.81	113.61
1217.18	147.8
1220.56	147.174
1223.93	185.657
1227.31	180.697
1230.68	188.899
1234.06	191.823
1237.43	193.488
1240.81	196.114
1244.18	181.155
1247.56	146.041
1250.93	126.877
1254.31	107.981
1257.68	84.5979
1261.05	61.2097
1264.43	47.8174
1267.8	28.623
1271.18	7.61279
1274.55	7.25879
1277.93	8.0061
1281.3	0.789795
