Measurement: Raman, 532 nm, unoriented, Raman Data Processed
Mineral: Schizolite
Rruff sample: R120109
Ideal chemistry: NaCaMn^2+^Si_3_O_8_(OH)
Locality: Wessels mine, Kalahari Manganese Field, Northern Cape Province, South Africa
Source: Marcus Origlieri
Description: Pink bladed crystals, with epitactic serandite and calcite, type sample
Raman shift (cm-1)	intensity
205.07	0
207.962	16.0585
210.855	2.47742
213.748	2.28803
216.64	19.481
219.533	48.8016
222.426	75.0679
225.319	79.163
228.211	73.3151
231.104	46.7075
233.997	22.0886
236.889	13.7098
239.782	0.034668
242.675	3.67792
245.567	2.10053
248.46	6.86182
251.353	4.55829
254.245	1.64575
257.138	4.97607
260.031	6.77844
262.924	20.7642
265.816	39.202
268.709	72.428
271.602	79.1759
274.494	66.7794
277.387	48.0382
280.28	56.657
283.173	72.464
286.065	112.305
288.958	155.508
291.851	211.264
294.743	271.685
297.636	344.415
300.529	429.141
303.421	469.534
306.314	418.882
309.207	304.971
312.099	185.459
314.992	107.007
317.885	73.9872
320.778	58.0602
323.67	66.4523
326.563	67.6754
329.456	56.389
332.348	29.4967
335.241	29.8298
338.134	38.9315
341.027	74.5284
343.919	122.87
346.812	166.607
349.705	165.267
352.597	142.553
355.49	135.716
358.383	143.168
361.276	179.904
364.168	235.788
367.061	316.785
369.954	388.44
372.846	398.452
375.739	307.546
378.632	192.705
381.524	92.5875
384.417	26.355
387.31	2.05444
390.202	10.9791
393.095	5.97766
395.988	5.625
398.881	35.5469
401.773	63.5527
404.666	122.944
407.559	200.707
410.451	272.225
413.344	331.031
416.237	376.327
419.13	397.315
422.022	392.899
424.915	341.227
427.808	253.114
430.7	161.548
433.593	94.2522
436.486	47.2737
439.378	18.9955
442.271	9.63464
445.164	4.15125
448.057	2.16589
450.949	7.5221
453.842	1.95471
456.735	9.57251
459.627	17.3554
462.52	48.002
465.413	47.2651
468.305	29.1329
471.198	14.8179
474.091	1.39404
476.983	0.195679
479.876	1.09912
482.769	7.70056
485.662	13.5142
488.554	25.8447
491.447	60.3018
494.34	86.6875
497.232	77.0493
500.125	35.1912
503.018	31.2087
505.911	36.8665
508.803	52.8994
511.696	50.6094
514.589	50.0376
517.481	25.1423
520.374	32.0869
523.267	39.667
526.159	40.4895
529.052	43.1116
531.945	45.0283
534.837	51.6528
537.73	45.1804
540.623	38.5588
543.516	30.5273
546.408	14.4097
549.301	15.3887
552.194	13.9082
555.086	11.7017
557.979	13.1506
560.872	10.0217
563.764	5.65576
566.657	7.98877
569.55	2.7876
572.443	6.90649
575.335	2.88403
578.228	4.21069
581.121	6.96265
584.013	0.151611
586.906	13.8064
589.799	1.3728
592.692	1.91602
595.584	0.609131
598.477	1.96484
601.37	0.253662
604.262	0.393555
607.155	4.05249
610.048	4.36743
612.94	4.52954
615.833	2.74316
618.726	18.9204
621.619	26.377
624.511	32.4026
627.404	42.8267
630.297	61.4846
633.189	95.7986
636.082	129.999
638.975	196.952
641.867	288.406
644.76	449.427
647.653	700.676
650.545	1033.83
653.438	1498.92
656.331	2053.85
659.224	2409.12
662.116	2059.14
665.009	1280.81
667.902	720.361
670.794	416.855
673.687	269.615
676.58	183.909
679.472	138.6
682.365	107.293
685.258	90.7527
688.151	86.3679
691.043	103.97
693.936	96.4368
696.829	118.262
699.721	103.972
702.614	89.8574
705.507	73.2412
708.399	71.3201
711.292	75.7925
714.185	89.2485
717.078	60.3455
719.97	22.7852
722.863	9.00684
725.756	0.387451
728.648	3.95606
731.541	2.65674
734.434	8.23438
737.327	6.9165
740.219	9.77246
743.112	6.73682
746.005	22.2197
748.897	21.0352
751.79	17.1802
754.683	5.42578
757.575	9.55957
760.468	18.0732
763.361	21.3301
766.254	17.1626
769.146	18.1675
772.039	19.1523
774.932	19.7012
777.824	8.96533
780.717	10.8247
783.61	3.14404
786.502	4.64502
789.395	0.050293
792.288	13.3643
795.181	27.9995
798.073	15.3296
800.966	22.1333
803.859	19.0166
806.751	23.5957
809.644	45.4614
812.537	23.6509
815.429	30.4023
818.322	30.1709
821.215	49.5488
824.107	47.0981
827	31.8862
829.893	12.8081
832.786	5.04297
835.678	2.84424
838.571	7.08984
841.464	11.1636
844.356	9.14062
847.249	1.78174
850.142	0.248535
853.034	10.6367
855.927	4.08252
858.82	6.19336
861.713	21.0381
864.605	21.7617
867.498	2.01269
870.391	9.6582
873.283	11.8755
876.176	11.1724
879.069	14.0215
881.962	14.877
884.854	14.9131
887.747	49.6191
890.64	71.2129
893.532	108.835
896.425	143.05
899.318	189.107
902.21	187.862
905.103	157.109
907.996	112.937
910.889	77.8838
913.781	52.6299
916.674	60.0664
919.567	61.8198
922.459	64.0908
925.352	68.7251
928.245	60.5698
931.137	45.9951
934.03	54.3999
936.923	16.5718
939.816	10.1133
942.708	30.4038
945.601	11.0371
948.494	34.9185
951.386	23.563
954.279	22.2148
957.172	55.0669
960.064	88.1255
962.957	146.405
965.85	206.302
968.742	297.242
971.635	355.955
974.528	431.315
977.421	490.516
980.313	490.768
983.206	489.402
986.099	517.025
988.991	518.231
991.884	535.367
994.777	506.231
997.669	431.971
1000.56	347.844
1003.46	274.31
1006.35	283.603
1009.24	351.308
1012.13	461.714
1015.03	602.934
1017.92	776.496
1020.81	923.06
1023.7	963.383
1026.6	868.592
1029.49	686.436
1032.38	478.442
1035.28	360.132
1038.17	258.67
1041.06	192.416
1043.95	155.374
1046.85	127.552
1049.74	98.709
1052.63	79.5703
1055.52	46.5781
1058.42	28.1572
1061.31	6.34766
1064.2	4.07812
1067.09	4.19727
1069.99	8.43555
1072.88	7.47168
1075.77	2.00391
1078.66	7.49805
1081.56	29.4336
1084.45	54.7363
1087.34	37.5693
1090.24	39.6523
1093.13	63.3398
1096.02	59.0684
1098.91	71.4756
1101.81	78.2324
1104.7	63.8955
1107.59	38.9932
1110.48	53.2383
1113.38	61.8086
1116.27	55.6211
1119.16	51.206
1122.06	47.1602
1124.95	28.2607
1127.84	24.3281
1130.73	27.6348
1133.63	57.6338
1136.52	53.8477
1139.41	31.6787
1142.3	7.80469
1145.2	41.5957
1148.09	46.4961
1150.98	58.8818
1153.88	34.6123
1156.77	48.5752
1159.66	42.3145
1162.55	51.5185
1165.45	69.3272
1168.34	62.6934
1171.23	92.0215
1174.12	92.0625
1177.02	69.3623
1179.91	63.2334
1182.8	45.8633
1185.69	23.8223
1188.59	1.62891
1191.48	6.43262
1194.37	28.5703
1197.27	51.1699
1200.16	65.0166
1203.05	60.1103
1205.94	109.054
1208.84	109.431
1211.73	117.429
1214.62	128.023
1217.52	82.7695
1220.41	106.188
1223.3	97.5127
1226.19	69.959
1229.09	62.4717
1231.98	64.0459
1234.87	19.1221
1237.76	28.1895
1240.66	5.43848
1243.55	18.2832
1246.44	23.7812
1249.33	25.7285
1252.23	0.931641
1255.12	2.90234
1258.01	40.1504
1260.9	70.7969
1263.8	77.6768
1266.69	75.4258
1269.58	93.8018
1272.48	59.3447
1275.37	54.0654
1278.26	58.3584
1281.15	71.709
1284.05	74.415
1286.94	63.8184
1289.83	35.1328
1292.72	24.6396
1295.62	37.9688
1298.51	12.2725
1301.4	7.06738
