Measurement: Raman, 780 nm, unoriented, Raman Data Processed
Mineral: Schizolite
Rruff sample: R120109
Ideal chemistry: NaCaMn^2+^Si_3_O_8_(OH)
Locality: Wessels mine, Kalahari Manganese Field, Northern Cape Province, South Africa
Source: Marcus Origlieri
Description: Pink bladed crystals, with epitactic serandite and calcite, type sample
Raman shift (cm-1)	intensity
91.1996	0
94.5744	12.5467
97.9492	4.97946
101.324	42.3854
104.699	44.7808
108.074	0.505615
111.448	25.5708
114.823	135.336
118.198	138.418
121.573	118.75
124.948	112.834
128.322	62.763
131.697	0.309845
135.072	0.045288
138.447	27.3539
141.822	70.0087
145.197	84.2555
148.571	82.1138
151.946	125.068
155.321	144.533
158.696	142.788
162.071	161.791
165.446	147.53
168.82	96.8519
172.195	40.3245
175.57	7.89441
178.945	2.76248
182.32	6.49844
185.694	22.4761
189.069	36.533
192.444	54.1839
195.819	93.8756
199.194	133.634
202.569	155.206
205.943	163.953
209.318	179.335
212.693	192.69
216.068	202.53
219.442	207.967
222.817	198.507
226.192	140.02
229.567	64.8023
232.942	19.372
236.317	4.0928
239.691	5.26076
243.066	9.85848
246.441	6.03244
249.816	1.85338
253.191	21.9671
256.565	35.0415
259.94	30.8068
263.315	26.5152
266.69	40.2925
270.065	57.6207
273.44	54.7337
276.814	40.4292
280.189	38.3108
283.564	45.6831
286.939	71.3116
290.314	103.553
293.688	157.159
297.063	234.167
300.438	330.987
303.813	383.282
307.188	333.288
310.562	227.148
313.937	139.694
317.312	103.134
320.687	106.882
324.062	133.988
327.437	127.807
330.811	80.9563
334.186	48.6739
337.561	46.662
340.936	63.5515
344.311	101.441
347.685	124.488
351.06	106.079
354.435	79.0156
357.81	69.1831
361.185	79.1346
364.56	107.062
367.934	156.101
371.309	189.358
374.684	162.58
378.059	94.3611
381.434	38.2377
384.808	4.1297
388.183	6.57986
391.558	8.34299
394.933	8.08928
398.308	9.87996
401.683	34.9042
405.057	77.7352
408.432	129.002
411.807	165.695
415.182	184.286
418.557	196.43
421.931	207.698
425.306	187.387
428.681	133.88
432.056	87.5977
435.431	56.581
438.805	36.1485
442.18	24.599
445.555	17.4187
448.93	10.6181
452.305	9.52223
455.68	16.4591
459.054	35.3879
462.429	58.667
465.804	47.3462
469.179	19.6322
472.554	4.9687
475.928	0.294556
479.303	4.17779
482.678	0.727966
486.053	6.046
489.428	18.814
492.803	46.8751
496.177	59.3654
499.552	36.5958
502.927	30.0624
506.302	40.5934
509.677	55.861
513.051	51.7379
516.426	39.1523
519.801	32.1743
523.176	33.4507
526.551	31.5785
529.926	31.5531
533.3	28.4536
536.675	20.4731
540.05	12.1068
543.425	6.28391
546.799	6.30129
550.174	1.79266
553.549	2.06213
556.924	0.520172
560.299	0.287956
563.674	1.15329
567.048	0.417305
570.423	0.835503
573.798	0.660324
577.173	3.23523
580.548	0.24173
583.923	0.438965
587.297	1.14268
590.672	0.810928
594.047	0.369949
597.422	0.950157
600.797	2.58353
604.171	5.7924
607.546	5.11076
610.921	7.85812
614.296	9.70773
617.671	15.6879
621.045	21.9838
624.42	29.7678
627.795	43.6194
631.17	60.6432
634.545	84.2773
637.919	121.782
641.294	178.981
644.669	276.346
648.044	446.955
651.419	752.916
654.794	1275.31
658.168	1875.9
661.543	1730.88
664.918	993.377
668.293	502.26
671.668	275.565
675.043	170.693
678.417	119.471
681.792	90.2077
685.167	77.0195
688.542	80.5167
691.917	109.214
695.291	158.953
698.666	205.346
702.041	170.76
705.416	109.608
708.791	84.8684
712.165	92.553
715.54	80.143
718.915	41.6806
722.29	19.1095
725.665	7.8834
729.039	3.34697
732.414	1.73861
735.789	0.841339
739.164	1.60414
742.539	1.22581
745.914	1.80887
749.288	3.12664
752.663	1.53799
756.038	2.25073
759.413	0.80851
762.788	1.87214
766.163	1.64893
769.537	2.47684
772.912	4.54462
776.287	4.67716
779.662	6.69021
783.037	5.74411
786.411	7.22832
789.786	6.37727
793.161	5.26938
796.536	8.71027
799.911	9.19756
803.285	7.77359
806.66	7.33709
810.035	8.2676
813.41	7.08802
816.785	9.65491
820.159	10.0808
823.534	6.45128
826.909	7.05337
830.284	9.43914
833.659	7.10604
837.034	5.79641
840.408	7.47953
843.783	6.59929
847.158	3.65349
850.533	4.54367
853.908	3.32701
857.283	2.71509
860.657	0.189243
864.032	1.04567
867.407	0.961868
870.782	0.859455
874.157	0.053284
877.531	0.120064
880.906	1.39825
884.281	5.68364
887.656	9.88974
891.031	23.3207
894.405	42.8475
897.78	76.2755
901.155	102.976
904.53	85.0194
907.905	54.7322
911.279	37.786
914.654	30.5922
918.029	18.5305
921.404	14.0441
924.779	7.26983
928.154	3.92071
931.528	0.542168
934.903	2.0541
938.278	1.0758
941.653	1.32867
945.028	1.39438
948.403	6.31737
951.777	15.7775
955.152	29.2123
958.527	44.5512
961.902	63.5985
965.277	88.2622
968.651	116.616
972.026	147.194
975.401	173.944
978.776	185.535
982.151	188.327
985.525	183.617
988.9	195.96
992.275	210.97
995.65	213.985
999.025	165.991
1002.4	119.036
1005.77	114.524
1009.15	136.715
1012.52	189.828
1015.9	272.78
1019.27	392.244
1022.65	480.101
1026.02	454.966
1029.4	345.413
1032.77	234.33
1036.15	156.132
1039.52	102.368
1042.9	71.7845
1046.27	45.2338
1049.65	29.6949
1053.02	20.6094
1056.4	11.3787
1059.77	4.63345
1063.15	5.26957
1066.52	2.95799
1069.9	0.965172
1073.27	1.40117
1076.64	0.438972
1080.02	0.399044
1083.39	1.93306
1086.77	2.63697
1090.14	0.516903
1093.52	1.28155
1096.89	2.04215
1100.27	4.37925
1103.64	1.63031
1107.02	0.624313
1110.39	1.00721
1113.77	3.36704
1117.14	2.05713
1120.52	3.04487
1123.89	3.57329
1127.27	5.05333
1130.64	6.09647
1134.02	6.12818
1137.39	4.50056
1140.77	5.8971
1144.14	1.87418
1147.52	2.66519
1150.89	2.30637
1154.27	3.20128
1157.64	4.1863
1161.02	4.08711
1164.39	3.35856
1167.77	3.17584
1171.14	2.11409
1174.52	3.18065
1177.89	3.24096
1181.27	3.08735
1184.64	3.74074
1188.01	1.91202
1191.39	2.00624
1194.76	3.13182
1198.14	1.21176
1201.51	0.823174
1204.89	4.05081
1208.26	3.15123
1211.64	1.85497
1215.01	1.81751
1218.39	1.59132
1221.76	1.79453
1225.14	1.65836
1228.51	0.676285
1231.89	0.869232
1235.26	2.86716
1238.64	1.41708
1242.01	2.99246
1245.39	0.446095
1248.76	1.25566
1252.14	3.2119
1255.51	1.61854
1258.88	2.70861
1262.26	1.3189
1265.63	0.882694
1269.01	1.33423
1272.38	2.12711
1275.76	1.74008
1279.13	1.72184
1282.51	2.52684
