Measurement: Raman, 532 nm, unoriented, Raman Data Processed
Mineral: Schmitterite
Rruff sample: R060524
Ideal chemistry: (U^6+^O_2_)Te^4+^O_3_
Locality: Moctezuma mine, Moctezuma, Sonora, Mexico
Source: Michael Scott
Description: Pale yellow rosette associated with green emmonsite, R060802
Raman shift (cm-1)	intensity
134.42	0
137.795	387.619
141.17	734.305
144.544	569.766
147.919	309.984
151.294	152.391
154.669	130.68
158.044	136.844
161.418	401.574
164.793	697.644
168.168	1123.89
171.543	1789.96
174.918	2598.2
178.293	3577.52
181.667	4852.95
185.042	5721.26
188.417	5695.41
191.792	5010.31
195.167	4334.68
198.542	3690.3
201.916	2533.58
205.291	1452.09
208.666	761
212.041	365.918
215.416	203.625
218.79	4.94531
222.165	48.2812
225.54	105.859
228.915	1.625
232.29	247.59
235.664	354.172
239.039	273.562
242.414	103.231
245.789	131.141
249.164	234.703
252.538	354.008
255.913	404.18
259.288	371.039
262.663	352.961
266.038	376.898
269.413	294.016
272.787	345.129
276.162	320.481
279.537	313.41
282.912	254.777
286.287	298.246
289.661	229.012
293.036	79.7539
296.411	110.727
299.786	137.969
303.161	199.738
306.536	168.777
309.91	78.6758
313.285	29.9258
316.66	7.60938
320.035	15.75
323.41	13.7891
326.784	25.0977
330.159	15.3438
333.534	24.4141
336.909	56.1367
340.284	22.5234
343.659	16.0781
347.033	33.1992
350.408	140.488
353.783	184.492
357.158	176.469
360.533	239.57
363.908	363.426
367.282	543.867
370.657	780.148
374.032	976.742
377.407	1341.95
380.782	1693.26
384.156	2216.31
387.531	2814.23
390.906	3316.61
394.281	3505.32
397.656	3424.51
401.031	3059.62
404.405	2576.37
407.78	2255.43
411.155	2242.3
414.53	2222.16
417.905	2114.45
421.279	2010.65
424.654	1830.66
428.029	1803.42
431.404	1581.87
434.779	1193.59
438.154	911.906
441.528	681.535
444.903	502.406
448.278	409.762
451.653	253.727
455.028	226.402
458.402	157.371
461.777	67.7344
465.152	34.2891
468.527	11.9258
471.902	84.8711
475.276	103.398
478.651	95.1406
482.026	94.4453
485.401	172.496
488.776	343.09
492.151	350.117
495.525	288.539
498.9	277.906
502.275	281.242
505.65	243.5
509.025	148.527
512.399	54.3945
515.774	91.1328
519.149	8.59375
522.524	77.3516
525.899	24.2344
529.274	29.7227
532.648	133.059
536.023	89.7539
539.398	33.3516
542.773	57.875
546.148	69.0508
549.523	44.9688
552.897	100.602
556.272	157.988
559.647	119.672
563.022	100.273
566.396	124.465
569.771	207.047
573.146	282.207
576.521	282.246
579.896	243.426
583.271	274.699
586.645	268.922
590.02	248.754
593.395	176.019
596.77	154.316
600.145	159.133
603.519	164.203
606.894	114.887
610.269	135.703
613.644	67.5664
617.019	49.8086
620.394	38.1445
623.768	72.5508
627.143	31.0859
630.518	33.2539
633.893	50.1914
637.268	72.3828
640.643	118.441
644.017	29.8086
647.392	30.3125
650.767	143.863
654.142	146.359
657.517	217.496
660.891	190.125
664.266	205.598
667.641	480.184
671.016	561.75
674.391	740.852
677.765	879.422
681.14	1183.16
684.515	1508.92
687.89	1978.06
691.265	2502.76
694.64	3221.78
698.014	4190.73
701.389	5234.02
704.764	6893.79
708.139	8845.64
711.514	11081.6
714.889	13315.5
718.263	14858
721.638	15098.6
725.013	13770.8
728.388	11426.9
731.763	8991.84
735.137	6852.65
738.512	5233.84
741.887	3901.76
745.262	2919.09
748.637	2162.77
752.011	1614.77
755.386	1205.12
758.761	765.625
762.136	626.711
765.511	433.34
768.886	214.336
772.26	218.547
775.635	128.156
779.01	94.1406
782.385	2.89844
785.76	149.125
789.135	104.434
792.509	15.7539
795.884	14.1367
799.259	182.82
802.634	311.664
806.009	634.812
809.383	906.953
812.758	1445.63
816.133	2017.47
819.508	2969.54
822.883	3977.02
826.257	5392.6
829.632	6921.62
833.007	8089.41
836.382	7435.77
839.757	5241.27
843.132	2981.78
846.506	1570.48
849.881	834.617
853.256	435.984
856.631	221.981
860.006	342.809
863.38	646.734
866.755	993.426
870.13	1319.91
873.505	1012.65
876.88	379.297
880.255	131.391
883.629	45.2812
887.004	3.92188
890.379	89.0664
893.754	4.76953
897.129	90.707
900.504	67.4688
903.878	119.477
907.253	143.961
910.628	90.0391
914.003	66.7305
917.378	103.527
920.752	138.965
924.127	216.539
927.502	263.977
930.877	219.551
934.252	163.691
937.626	183.777
941.001	263.391
944.376	285.543
947.751	122.285
951.126	85.0781
954.5	59.5
957.875	153.434
961.25	209.367
964.625	110.133
968	11.9688
971.375	36.4766
974.75	141.266
978.124	215.363
981.499	100.082
984.874	144.766
988.249	40.0273
991.624	113.82
994.998	113.141
998.373	34.5039
1001.75	19.5039
1005.12	63.7734
1008.5	114.281
1011.87	71.8164
1015.25	160.621
1018.62	107.512
1022	9.625
1025.37	97.5273
1028.75	119.547
1032.12	70.8828
1035.5	52.6016
1038.87	58.043
1042.25	155.969
1045.62	138.637
1048.99	171.582
1052.37	219.84
1055.74	177.906
1059.12	157.926
1062.49	208.004
1065.87	131.023
1069.24	201.211
1072.62	129.504
1075.99	226.152
1079.37	118.953
1082.74	131.875
1086.12	168.731
1089.49	208.004
1092.87	198.109
1096.24	94.4023
1099.62	152.41
1102.99	110.242
1106.37	70.0938
1109.74	113.477
1113.12	94.1875
1116.49	83.1758
1119.87	22.082
1123.24	67.4648
1126.62	40.7617
1129.99	68.9805
1133.37	13.8359
1136.74	117.871
1140.12	180.438
1143.49	164.484
1146.87	152.922
1150.24	119.812
1153.62	171.723
1156.99	137.84
1160.36	222.637
1163.74	250.754
1167.11	211.609
1170.49	271.742
1173.86	172.938
1177.24	143.344
1180.61	225.121
1183.99	195.269
1187.36	224.305
1190.74	326.715
1194.11	325.918
1197.49	298.375
1200.86	233.637
1204.24	246.93
1207.61	203.734
1210.99	313.844
1214.36	246.09
1217.74	248.785
1221.11	274.309
1224.49	235.234
1227.86	139.461
1231.24	111.168
1234.61	68.8359
1237.98	13.8789
1241.36	27.2109
1244.73	60.8516
1248.11	129.984
1251.48	136.312
1254.86	99.5859
1258.23	174.621
1261.61	82.3281
1264.98	10.8906
1268.36	139.613
1271.73	101.856
1275.11	23.0938
1278.48	34.3477
1281.86	38.3789
1285.23	118.769
1288.61	227.301
1291.98	167.781
1295.36	5.52734
1298.73	8.29688
