Measurement: Raman, 780 nm, unoriented, Raman Data Processed
Mineral: Schmitterite
Rruff sample: R060524
Ideal chemistry: (U^6+^O_2_)Te^4+^O_3_
Locality: Moctezuma mine, Moctezuma, Sonora, Mexico
Source: Michael Scott
Description: Pale yellow rosette associated with green emmonsite, R060802
Raman shift (cm-1)	intensity
102.528	0
105.903	3655.81
109.278	12144.3
112.652	21073.4
116.027	24758.2
119.402	17142.4
122.777	7912.88
126.152	2961
129.526	347.938
132.901	33.8125
136.276	417.5
139.651	272.688
143.026	145.938
146.401	216.5
149.775	645.125
153.15	202.625
156.525	836.688
159.9	1330.06
163.275	2878.81
166.649	4938.81
170.024	7557.12
173.399	11403.8
176.774	15682.2
180.149	21198.7
183.524	27191.2
186.898	31074.1
190.273	29321.8
193.648	24575.1
197.023	21146.4
200.398	17749.6
203.773	11673.1
207.147	6054.38
210.522	3564.88
213.897	2457.69
217.272	1458.12
220.647	991.125
224.021	590.688
227.396	768.938
230.771	878.75
234.146	1646.88
237.521	1629.5
240.895	480.562
244.27	874.625
247.645	978.312
251.02	1291.19
254.395	1783.62
257.769	2215
261.144	1679
264.519	1200.5
267.894	1944.75
271.269	1026.41
274.644	1080.25
278.018	1106.91
281.393	991.75
284.768	786.938
288.143	795.094
291.518	170.438
294.892	546.844
298.267	761.688
301.642	1326.28
305.017	1104.59
308.392	635.188
311.767	527.438
315.141	69.9375
318.516	333.25
321.891	143.531
325.266	349.219
328.641	222.344
332.015	290.344
335.39	30.5938
338.765	465.125
342.14	552.375
345.515	177.906
348.89	80.9688
352.264	57.9688
355.639	44.0625
359.014	80.4375
362.389	290
365.764	1433.84
369.139	1671.28
372.513	1696.69
375.888	1903.66
379.263	2943.62
382.638	4187.09
386.013	5500.41
389.387	7325.19
392.762	9115
396.137	10494.4
399.512	9369.69
402.887	8150.72
406.262	6970.53
409.636	6327.91
413.011	5962.62
416.386	5535.94
419.761	6902.47
423.136	7002.34
426.51	6733.91
429.885	5790.72
433.26	4615.62
436.635	3881.78
440.01	4100.06
443.385	2340.06
446.759	1435.03
450.134	775.188
453.509	988.344
456.884	1390.41
460.259	1048.69
463.633	329.281
467.008	726.5
470.383	710.25
473.758	1344.19
477.133	1175.06
480.507	1386.84
483.882	1212.84
487.257	1443.88
490.632	2425
494.007	2729.59
497.382	2075.66
500.756	1606.88
504.131	1400.44
507.506	1317.03
510.881	674.438
514.256	936.594
517.63	758.062
521.005	258.5
524.38	824.062
527.755	520.406
531.13	125.125
534.505	179
537.879	552.125
541.254	336.656
544.629	526.719
548.004	879.5
551.379	370.25
554.753	43.3438
558.128	416.281
561.503	435.094
564.878	351.375
568.253	1091.09
571.628	1103.97
575.002	1720.81
578.377	2091.78
581.752	2329.41
585.127	2557.09
588.502	2817.09
591.876	2002.06
595.251	2986.06
598.626	2525.56
602.001	2899.59
605.376	2900.88
608.75	2568.16
612.125	1737.34
615.5	1028.78
618.875	896.875
622.25	1199.91
625.625	964.594
629	690.969
632.374	1523.78
635.749	1902.41
639.124	1241.97
642.499	403
645.874	88.875
649.248	140.25
652.623	359.375
655.998	674.344
659.373	342.719
662.748	564.188
666.122	1114.38
669.497	1130.56
672.872	1480.78
676.247	1997.78
679.622	2122.97
682.996	2794.5
686.371	3606.19
689.746	5429.16
693.121	6821.19
696.496	8190.62
699.871	10323.8
703.245	14123.3
706.62	19540.7
709.995	25279.7
713.37	32767.1
716.745	39580
720.12	44137.8
723.494	44780.5
726.869	39195.5
730.244	31228.1
733.619	23950
736.994	17308.1
740.368	12998.1
743.743	9151.91
747.118	7263.06
750.493	5182.75
753.868	3800.16
757.242	2818.25
760.617	2686.41
763.992	2130.75
767.367	790.5
770.742	730.281
774.117	317.781
777.491	163.75
780.866	546.219
784.241	170.562
787.616	230.969
790.991	63.8438
794.365	440.125
797.74	298.188
801.115	420.531
804.49	2351.09
807.865	2894.91
811.24	3552.19
814.614	4636.03
817.989	6082.69
821.364	8299.59
824.739	10964.9
828.114	14011.6
831.489	17794
834.863	21724.5
838.238	19502.5
841.613	12841.5
844.988	7899.69
848.362	4828.25
851.737	3160.72
855.112	2357.5
858.487	1702.66
861.862	1516.78
865.237	1446.12
868.611	2768.41
871.986	3206.94
875.361	2328.94
878.736	1230.38
882.111	1478.16
885.486	750.375
888.86	758.719
892.235	373.25
895.61	113.688
898.985	336.031
902.36	633.625
905.734	691.062
909.109	869.562
912.484	377.844
915.859	531.562
919.234	25.0312
922.609	94.6875
925.983	843.094
929.358	1286.31
932.733	543.438
936.108	303.156
939.483	462.281
942.857	310.906
946.232	541.969
949.607	433.531
952.982	672.344
956.357	38.9375
959.731	76.4688
963.106	279.031
966.481	268.406
969.856	463.281
973.231	175.812
976.606	149.562
979.98	357.969
983.355	216.469
986.73	864.281
990.105	493.344
993.48	990.688
996.855	818.219
1000.23	707.719
1003.6	577.406
1006.98	523.75
1010.35	427.25
1013.73	847.969
1017.1	903.438
1020.48	237.719
1023.85	741.281
1027.23	952.469
1030.6	982.625
1033.98	1194.31
1037.35	196
1040.73	350.281
1044.1	271.125
1047.48	965.125
1050.85	675.906
1054.23	1072.31
1057.6	1411.91
1060.98	1457.59
1064.35	1338.12
1067.73	661.281
1071.1	1096.84
1074.47	1071.28
1077.85	1789.09
1081.22	1217.84
1084.6	1266.5
1087.97	883.906
1091.35	638
1094.72	679.656
1098.1	495.594
1101.47	729.781
1104.85	753.906
1108.22	1102.28
1111.6	167.281
1114.97	175.469
1118.35	372.25
1121.72	451.781
1125.1	675.156
1128.47	891.125
1131.85	1489.56
1135.22	969.969
1138.6	1306.06
1141.97	970.344
1145.35	1496.25
1148.72	1388.16
1152.1	1371.28
1155.47	1822.16
1158.85	2105.81
1162.22	2040.59
1165.6	2203.62
1168.97	2168.91
1172.35	2594.34
1175.72	2085.19
1179.1	2154.44
1182.47	1834.94
1185.84	1382.41
1189.22	1677.62
1192.59	1635.34
1195.97	1382.16
1199.34	2104.91
1202.72	1553.22
1206.09	1511.97
1209.47	1511.28
1212.84	1130.97
1216.22	576.438
1219.59	684.781
1222.97	523.75
1226.34	427.844
1229.72	576.938
1233.09	983.469
1236.47	194.281
1239.84	311.562
1243.22	726.75
1246.59	187.781
1249.97	177.812
1253.34	199.438
1256.71	740.625
1260.09	594.219
1263.46	725.656
1266.84	794.5
1270.21	1176.81
1273.59	851.531
1276.96	287.312
1280.34	24.4062
