Measurement: Raman, 514 nm, unoriented, Raman Data RAW
Mineral: Schorl
Rruff sample: X050142
Ideal chemistry: NaFe^2+^_3_Al_6_(Si_6_O_18_)(BO_3_)_3_(OH)_3_OH
Locality: Blue Lady mine, Chihuahua Valley, San Diego County, California, USA
Source: G.R. Rossman
Raman shift (cm-1)	intensity
97.5	479
108.3	1917.22
119.1	5045.91
130	9504.43
140.8	14368.9
151.6	17784.7
162.5	19841
173.3	20586.5
184.1	20267.2
195	19805.2
205.8	21239.9
216.6	22890.6
227.5	24460
238.3	24085.1
249.1	20548.6
260	18945.4
270.8	17913.2
281.6	16449.2
292.5	15565.3
303.3	15508.6
314.1	16415.4
325	16997.9
335.8	18271.6
346.6	19515.8
357.5	21932.8
368.3	31614.3
379.1	24741.1
390	20045.7
400.8	18857.2
411.6	18436
422.5	16209.7
433.3	15353.4
444.1	15315.6
455	15194.2
465.8	15098.5
476.6	15340.1
487.5	16434.7
498.3	16513.7
509.1	15976.9
520	15503.3
530.8	15406.2
541.6	15685.7
552.5	15426.8
563.3	15321.9
574.1	15041.1
585	14757.1
595.8	14701.2
606.6	14501.5
617.5	14931.5
628.3	18121.8
639.1	18546.6
650	17265.5
660.8	16614.3
671.6	16886.8
682.5	17261.2
693.3	19777.7
704.1	20130.5
715	15928.7
725.8	14854.5
736.6	15211.6
747.5	17163.2
758.3	16307.6
769.1	15359.6
780	15474.7
790.8	14658.4
801.6	13935.7
812.5	13931.4
823.3	13612.9
834.1	14014.7
845	13998.4
855.8	13914.5
866.6	13816.8
877.5	13747.9
888.3	13670.8
899.1	13834.5
910	14033.7
920.8	14482.5
931.6	14776.9
942.5	15202.3
953.3	15883.3
964.1	16455.5
975	16811.5
985.8	17080
996.6	17247.7
1007.5	17780
1018.3	18405.3
1029.1	18492.2
1040	19282.1
1050.8	22236.3
1061.6	21254.5
1072.5	18279.9
1083.3	16649.2
1094.1	16004.5
1105	15572.1
1115.8	15306
1126.6	14991.1
1137.5	14756.1
1148.3	14838.8
1159.1	14553
1170	14665.7
1180.8	14833.1
1191.6	14817.4
1202.5	14980.3
1213.3	14973.8
1224.1	15006.1
1235	15126.4
1245.8	15301.5
1256.6	15420.5
1267.5	15589.8
1278.3	15787.9
1289.1	15846
1300	15940.1
1310.8	15978.5
1321.6	16104.3
1332.5	16300
1343.3	16231.2
1354.1	16477.3
1365	16662.7
1375.8	16627.4
1386.6	16527.8
1397.5	16516.9
1408.3	16223
1419.1	16349.1
1430	16050.2
1440.8	15959.9
1451.6	16180.8
1462.5	16055.1
1473.3	15981.8
1484.1	16178.7
1495	16163.8
1505.8	16159.8
1516.6	16251.5
1527.5	16178.2
1538.3	16207.6
1549.1	16286
1560	16205.1
1570.8	16269.9
1581.6	16352
1592.5	16326
1603.3	16315.1
1614.1	16376.2
1625	16409.1
1635.8	16210.4
1646.6	16318.5
1657.5	16309
1668.3	16263.9
1679.1	16221.4
1690	16259.4
1700.8	16258.5
1711.6	16263.2
1722.5	16425.7
1733.3	16287.6
1744.1	16270.6
1755	16347.8
1765.8	16277
1776.6	16355.8
1787.5	16193.4
1798.3	16341.4
1809.1	16316.6
1820	16286.7
1830.8	16304.7
1841.6	16415.7
1852.5	16302.6
1863.3	16396.2
1874.1	16423.4
1885	16578.5
1895.8	16490.4
1906.6	16624.3
1917.5	16473.6
1928.3	16466.9
1939.1	16748.4
1950	16525.9
1960.8	16659.6
1971.6	16621.4
1982.5	16652
1993.3	16685.1
2004.1	16638
2015	16657.7
2025.8	16529.2
2036.6	16485.4
2047.5	16763
2058.3	16558.9
2069.1	16545.7
2080	16601.7
2090.8	16478.9
2101.6	16491.8
2112.5	16553.7
2123.3	16408.8
2134.1	16263.6
2145	16430
2155.8	16449
2166.6	16398.9
2177.5	16441.4
2188.3	16333.2
2199.1	16384.5
2210	16513.7
2220.8	16380.7
2231.6	16446.8
2242.5	16313.1
2253.3	16244.9
2264.1	16455.4
2275	16164.3
2285.8	16157.2
2296.6	16238.6
2307.5	16259.4
2318.3	16249.9
2329.1	16552.7
2340	16217.8
2350.8	16211.4
2361.6	16190.9
2372.5	16204.7
2383.3	16118.1
2394.1	16056.5
2405	16105.3
2415.8	16059.9
2426.6	16076.6
2437.5	16064.9
2448.3	16001.5
2459.1	16075.9
2470	16142.4
2480.8	16040.3
2491.6	16045.5
2502.5	15912.4
2513.3	15974.8
2524.1	15965.9
2535	16046.9
2545.8	15928.4
2556.6	15972.9
2567.5	15884
2578.3	15827.3
2589.1	15841.8
2600	15792.7
2610.8	15829.8
2621.6	15911.4
2632.5	15967.5
2643.3	15957.9
2654.1	15936.3
2665	15755.6
2675.8	15785.6
2686.6	15776.2
2697.5	15754.8
2708.3	15747.7
2719.1	15794.8
2730	15650.6
2740.8	15681.5
2751.6	15656.8
2762.5	15789.8
2773.3	15613.7
2784.1	15790.8
2795	15724
2805.8	15606.8
2816.6	15706
2827.5	15667.1
2838.3	15714.8
2849.1	15803
2860	15818.8
2870.8	15798
2881.6	15843.8
2892.5	15789.9
2903.3	15808.6
2914.1	15735.9
2925	15818.5
2935.8	15807.3
2946.6	15761.5
2957.5	15758.3
2968.3	15652.4
2979.1	15710.3
2990	15616.7
3000.8	15581.5
3011.6	15726.2
3022.5	15753
3033.3	15757.3
3044.1	15681.1
3055	15629.8
3065.8	15532
3076.6	15735.2
3087.5	15667.7
3098.3	15718.7
3109.1	15594.1
3120	15670
3130.8	15640.3
3141.6	15839.3
3152.5	15775.5
3163.3	15778.6
3174.1	15611.2
3185	15727.5
3195.8	15698
3206.6	15706.9
3217.5	15886.5
3228.3	15797.3
3239.1	15699.7
3250	15769.1
3260.8	15794.5
3271.6	15866.9
3282.5	15749.2
3293.3	15817.3
3304.1	15888.7
3315	15958.6
3325.8	16089.9
3336.6	16256
3347.5	16307.5
3358.3	16327.2
3369.1	16335.6
3380	16338
3390.8	16147.2
3401.6	16326.6
3412.5	16343.2
3423.3	16494.4
3434.1	17005.4
3445	17770.1
3455.8	19829
3466.6	23249.3
3477.5	27423.6
3488.3	30488.9
3499.1	32337.6
3510	32475
3520.8	30062
3531.6	30934.5
3542.5	40437.6
3553.3	52087.4
3564.1	56007
3575	43986.2
3585.8	28993.2
3596.6	26516.6
3607.5	25208
3618.3	18775
3629.1	21888.7
3640	18806.6
3650.8	17406.4
3661.6	15911.2
3672.5	16356.6
3683.3	15968.9
3694.1	15833.5
3704.9	15902.6
3715.8	15845.8
3726.6	15968.5
3737.4	15605.2
3748.3	15391.8
3759.1	15441.6
3769.9	15428.5
3780.8	15364.8
3791.6	15386.2
3802.4	15379.8
3813.3	15178.5
3824.1	15179.7
3834.9	15198.4
3845.8	15221
3856.6	15179.4
3867.4	15141.8
3878.3	15118.6
3889.1	15012.9
3899.9	15139.4
3910.8	14971.8
3921.6	15007.2
3932.4	14984.7
3943.3	14998.4
3954.1	15029.7
3964.9	14999.4
3975.8	14839
3986.6	14927
3997.4	14947.4
