Measurement: Raman, 780 nm, unoriented, Raman Data Processed
Mineral: Scorzalite
Rruff sample: R140558
Ideal chemistry: Fe^2+^Al_2_(PO_4_)_2_(OH)_2_
Locality: Hålsjöberg, Torsby, Värmland, Sweden
Source: Dr. Jürgen Wachsmuth
Description: Blue granular crystals
Raman shift (cm-1)	intensity
93.9705	0
97.3453	52.481
100.72	29.1953
104.095	14.5796
107.47	24.2398
110.845	28.7158
114.219	20.2827
117.594	12.498
120.969	4.08887
124.344	1.91455
127.719	2.58887
131.094	4.68604
134.468	7.45703
137.843	23.8491
141.218	44.6538
144.593	45.7739
147.968	35.0283
151.342	15.812
154.717	13.0913
158.092	5.74805
161.467	5.47217
164.842	4.47705
168.216	1.97119
171.591	1.99658
174.966	0.945801
178.341	15.0869
181.716	33.1089
185.09	40.1562
188.465	53.1377
191.84	45.6079
195.215	28.5288
198.59	16.4263
201.965	2.16162
205.339	5.61719
208.714	1.79443
212.089	1.82031
215.464	10.3481
218.839	27.6148
222.214	28.0845
225.588	33.1562
228.963	19.4439
232.338	26.9541
235.713	25.4477
239.088	36.6074
242.462	37.2022
245.837	49.4756
249.212	45.8281
252.587	36.3745
255.962	10.8462
259.336	7.02344
262.711	1.3042
266.086	2.2417
269.461	4.19873
272.836	7.28711
276.211	0.166504
279.585	6.28027
282.96	15.4858
286.335	19.5796
289.71	29.9629
293.085	45.3115
296.459	60.2339
299.834	78.0293
303.209	103.258
306.584	122.524
309.959	162.9
313.334	193.392
316.708	217.725
320.083	235.511
323.458	273.88
326.833	292.58
330.207	306.881
333.582	311.265
336.957	333.771
340.332	324.658
343.707	313.847
347.082	300.853
350.456	292.373
353.831	275.644
357.206	262.581
360.581	235.107
363.956	199.492
367.33	166.154
370.705	147.109
374.08	116.362
377.455	113.746
380.83	112.227
384.205	115.124
387.579	121.876
390.954	120.262
394.329	104.24
397.704	83.3889
401.079	53.9409
404.453	44.7424
407.828	36.2112
411.203	27.8066
414.578	19.3201
417.953	11.5244
421.327	1.99512
424.702	4.04736
428.077	1.80005
431.452	14.0762
434.827	5.64087
438.202	9.74487
441.576	9.22119
444.951	9.02588
448.326	11.1038
451.701	8.32373
455.076	3.04688
458.45	7.13428
461.825	9.6958
465.2	27.9932
468.575	43.8921
471.95	59.0686
475.325	55.7058
478.699	52.6938
482.074	54.1155
485.449	61.8953
488.824	85.1038
492.199	96.1631
495.573	113.827
498.948	133.871
502.323	156.644
505.698	175.037
509.073	209.283
512.447	227.848
515.822	229.865
519.197	226.636
522.572	189.027
525.947	162.53
529.322	136.674
532.696	113.315
536.071	97.5833
539.446	81.02
542.821	61.8276
546.196	59.0784
549.57	54.0395
552.945	58.1711
556.32	55.9663
559.695	55.1204
563.07	62.99
566.444	52.6177
569.819	42.0088
573.194	32.6704
576.569	22.8616
579.944	10.5608
583.319	2.60327
586.693	9.86401
590.068	9.69995
593.443	2.6792
596.818	29.135
600.193	33.4661
603.567	51.5649
606.942	51.6206
610.317	59.1555
613.692	55.9517
617.067	58.2319
620.442	59.0112
623.816	55.8386
627.191	56.2156
630.566	51.3577
633.941	51.2598
637.316	57.7478
640.69	59.1274
644.065	65.3503
647.44	54.6311
650.815	47.5278
654.19	46.563
657.564	54.1018
660.939	53.1877
664.314	43.0315
667.689	36.1968
671.064	22.9915
674.439	18.272
677.813	9.02002
681.188	1.31177
684.563	5.75928
687.938	0.329834
691.313	6.43994
694.688	15.5493
698.062	14.8381
701.437	23.5327
704.812	35.0759
708.187	36.7993
711.562	41.2795
714.936	45.4285
718.311	32.0859
721.686	22.5027
725.061	18.8538
728.436	11.9753
731.81	6.38769
735.185	11.9788
738.56	10.9004
741.935	1.83716
745.31	2.57812
748.684	1.79468
752.059	4.09985
755.434	10.2263
758.809	5.33398
762.184	0.606445
765.559	2.89014
768.933	3.33765
772.308	11.1558
775.683	13.9307
779.058	13.0657
782.433	16.249
785.808	16.9705
789.182	20.6165
792.557	18.5452
795.932	25.353
799.307	23.0054
802.682	22.0918
806.056	27.7266
809.431	15.7793
812.806	14.262
816.181	16.9487
819.556	13.3862
822.93	16.7954
826.305	16.3604
829.68	12.2268
833.055	4.75635
836.43	10.3682
839.804	13.7339
843.179	18.7991
846.554	16.5361
849.929	15.5977
853.304	24.3909
856.679	13.0308
860.053	11.2571
863.428	18.55
866.803	11.9219
870.178	8.23755
873.553	11.1299
876.927	10.7122
880.302	6.11939
883.677	8.5769
887.052	10.813
890.427	7.11304
893.802	16.0837
897.176	5.06616
900.551	13.3635
903.926	3.25171
907.301	6.03076
910.676	9.35229
914.05	5.2561
917.425	2.05566
920.8	13.0771
924.175	0.212158
927.55	8.45117
930.924	1.24097
934.299	1.42505
937.674	4.89917
941.049	3.78052
944.424	1.54639
947.799	3.09131
951.173	0.96875
954.548	4.93481
957.923	4.86304
961.298	2.79541
964.673	0.746338
968.047	4.00708
971.422	5.36694
974.797	0.133545
978.172	0.621094
981.547	1.56421
984.922	8.37109
988.296	12.1707
991.671	16.8811
995.046	23.7544
998.421	34.6223
1001.8	38.5029
1005.17	42.217
1008.54	45.231
1011.92	43.4043
1015.29	50.7952
1018.67	49.5947
1022.04	47.0122
1025.42	32.1797
1028.79	25.3477
1032.17	18.6533
1035.54	36.4812
1038.92	48.1211
1042.29	76.4082
1045.67	111.314
1049.04	146.409
1052.42	173.734
1055.79	166.765
1059.17	131.264
1062.54	91.3923
1065.92	70.9624
1069.29	47.8726
1072.67	30.7979
1076.04	21.2146
1079.42	13.9512
1082.79	1.81567
1086.17	0.927246
1089.54	0.647705
1092.92	0.961914
1096.29	4.32031
1099.66	4.26758
1103.04	10.134
1106.41	16.7666
1109.79	24.6299
1113.16	23.199
1116.54	16.3438
1119.91	21.3271
1123.29	28.9465
1126.66	27.2974
1130.04	36.7507
1133.41	35.7957
1136.79	41.6055
1140.16	49.7124
1143.54	45.9124
1146.91	52.8523
1150.29	51.2583
1153.66	45.2554
1157.04	38.3528
1160.41	38.1248
1163.79	28.853
1167.16	21.093
1170.54	17.5073
1173.91	13.3008
1177.29	9.67065
1180.66	17.104
1184.04	25.6626
1187.41	27.7534
1190.79	35.5166
1194.16	37.7
1197.54	41.6653
1200.91	48.0481
1204.28	50.3308
1207.66	47.6938
1211.03	48.2048
1214.41	39.281
1217.78	25.1829
1221.16	11.0713
1224.53	9.94531
1227.91	7.91724
1231.28	9.18604
1234.66	6.14771
1238.03	3.2605
1241.41	3.58521
1244.78	0.695068
1248.16	3.44214
1251.53	7.59033
1254.91	12.3008
1258.28	19.6191
1261.66	28.1956
1265.03	16.6343
1268.41	17.8994
1271.78	14.4424
1275.16	1.84668
1278.53	12.2058
1281.9	5.15137
