Measurement: Raman, 514 nm, unoriented, Raman Data RAW
Mineral: Scorodite
Rruff sample: X060014
Ideal chemistry: Fe^3+^As^5+^O_4_2H_2_O
Locality: Trincheras, Sonora, Mexico
Source: University of Arizona Mineral Museum
Description: Single crystal
Raman shift (cm-1)	intensity
142.732	3152.33
147.769	3036.33
152.803	3416.33
157.833	3381.33
162.86	6198.67
167.883	9788.67
172.903	18566.7
177.918	32783
182.931	20596.7
187.939	8504
192.944	5092.67
197.946	4236.33
202.943	3496.33
207.938	3378.67
212.928	4025.67
217.915	3160.67
222.898	3532.33
227.878	4810
232.854	6582.33
237.827	5567.33
242.796	5869
247.761	7580.33
252.723	5500
257.681	4038.33
262.636	4697.67
267.587	6926.33
272.534	9833.33
277.478	8253
282.418	8466
287.355	11441.7
292.288	11896
297.218	7941
302.144	6465.33
307.066	6915.67
311.985	7360
316.901	6472.67
321.812	6528
326.721	9020
331.625	15116.7
336.526	18687.3
341.424	14434.3
346.318	9766.67
351.209	7199.33
356.096	6110
360.979	5916.33
365.859	6339.33
370.735	7780
375.608	10637.3
380.477	12474.3
385.343	11207.3
390.205	9353.33
395.064	8543
399.919	9036
404.771	10908
409.619	13670.7
414.464	15572.3
419.305	16547.3
424.142	16529
428.976	14889
433.807	12657.7
438.634	11196
443.458	10369.7
448.278	10300.7
453.094	10372
457.907	10505.7
462.717	10446.3
467.523	9938.67
472.326	9601
477.125	10372.3
481.92	11795.7
486.712	11563.3
491.501	9714.67
496.286	7813.33
501.068	6215.67
505.846	4969
510.621	4093.67
515.392	3527
520.16	3148.67
524.925	2894.67
529.685	2698.67
534.443	2560.67
539.197	2500.67
543.947	2402.67
548.694	2335.67
553.438	2254.33
558.178	2224.33
562.915	2177.67
567.648	2160.67
572.378	2165.33
577.104	2135.67
581.827	2132
586.547	2165.33
591.263	2169.67
595.975	2157.67
600.685	2223.67
605.39	2250.67
610.093	2297.67
614.792	2356.67
619.487	2366.67
624.179	2385.67
628.868	2343.67
633.553	2313
638.235	2259.33
642.913	2227.67
647.588	2211
652.26	2205.67
656.928	2204.33
661.593	2228.67
666.254	2218.33
670.912	2271
675.567	2301.67
680.218	2379.67
684.866	2383.33
689.51	2427
694.151	2503.67
698.788	2565.33
703.423	2706.67
708.054	2775
712.681	2905.33
717.305	3032
721.926	3163.67
726.543	3279.33
731.157	3430.67
735.768	3530.67
740.375	3680
744.979	3869.33
749.579	4080.67
754.176	4463.33
758.77	5302
763.36	5534.67
767.947	6604.33
772.531	7530.33
777.111	9050
781.688	11367.3
786.262	15273
790.832	23883.7
795.399	43520
799.963	59382.7
804.523	55600
809.08	53950
813.634	38550
818.184	23202.7
822.731	16477.3
827.274	16909.7
831.815	18697.7
836.351	12077.8
840.885	8311.39
845.415	6951.93
849.942	6697.63
854.466	6976.33
858.986	7875.67
863.503	9671.84
868.017	11426.4
872.527	11946.9
877.035	12249
881.538	13575.4
886.039	16985.8
890.536	20102.4
895.03	18121.5
899.52	13070.6
904.008	10065
908.492	8139.65
912.972	5958.39
917.45	4583.02
921.924	3767.7
926.395	3357.47
930.862	3053.63
935.327	2821.11
939.788	2699.73
944.245	2599.01
948.7	2489.15
953.151	2403.34
957.599	2360.58
962.044	2287.1
966.485	2243.95
970.923	2246.2
975.358	2206.63
979.789	2174.41
984.218	2157.9
988.643	2142.7
993.065	2138.94
997.483	2128.06
1001.9	2122.78
1006.31	2134.27
1015.13	2115.33
1019.63	2175
1024.12	2092.67
1028.61	2085.33
1033.09	2066
1037.58	2068
1042.06	2075
1046.53	2054
1051	2086
1055.47	2059.33
1059.94	2047.66
1064.4	2022.33
1068.87	2013.66
1073.32	2003
1077.78	1985
1082.23	1975
1086.68	1964.66
1091.12	1962.33
1095.56	1930
1100	1935
1104.44	1926.66
1108.87	1933.66
1113.3	1915.33
1117.72	1903
1122.15	1916.66
1126.57	1925.33
1130.98	1915.33
1135.4	1866.66
1139.81	1903
1144.21	1882.33
1148.62	1866.33
1153.02	1855.66
1157.42	1880.33
1161.81	1851.33
1166.2	1851
1170.59	1863
1174.98	1832.66
1179.36	1843.33
1183.74	1869.66
1188.11	1848
1192.49	1860.33
1196.86	1870.33
1201.22	1884.33
1205.59	1848.66
1209.95	1871
1214.3	1893
1218.66	1862.33
1223.01	1849.33
1227.36	1848.33
1231.7	1835.66
1236.04	1837.33
1240.38	1835.33
1244.72	1828
1249.05	1836.66
1253.38	1827.33
1257.71	1803.66
1262.03	1823
1266.35	1840
1270.67	1792
1274.98	1803
1279.29	1819.33
1283.6	1795.33
1287.91	1812.33
1292.21	1826
1296.51	1839
1300.8	1831
1305.1	1834.66
1309.38	1823
1313.67	1831.66
1317.95	1823.66
1322.23	1832
1326.51	1826.66
1330.79	1833.66
1335.06	1838.66
1339.33	1819.33
1343.59	1833
1347.85	1830
1352.11	1831.66
1356.37	1804.33
1360.62	1836.66
1364.87	1828
1369.12	1846.66
1373.36	1826.33
1377.6	1819.33
1381.84	1815.66
1386.08	1803.66
1390.31	1799.33
1394.54	1803.66
1398.76	1817.33
1402.99	1830.33
1407.2	1809.66
1411.42	1818.33
1415.64	1812.66
1419.85	1809.33
1424.05	1831.33
1428.26	1836.66
1432.46	1829.66
1436.66	1826.33
1440.86	1843
1445.05	1817.33
1449.24	1851
1453.42	1863
1457.61	1853.33
1461.79	1877.33
1465.96	1881.33
1470.14	1881
1474.31	1860.33
1478.48	1892.33
1482.65	1902.66
1486.81	1918
1490.97	1933
1495.12	1943.66
1499.28	1962.33
1503.43	1956.33
1507.58	1970
1511.72	1984.66
1515.86	1973.66
1520	2023
1524.14	2004.33
1528.27	2021
1532.4	2004.33
1536.53	2034.33
1540.65	2042.66
1544.77	2119.33
1548.89	2106.33
1553.01	2114.67
1557.12	2133.33
1561.23	2169.33
1565.33	2174.33
1569.44	2193.33
1573.54	2167.33
1577.63	2185.67
1581.73	2206.67
1585.82	2209
1589.91	2191
1593.99	2174.67
1598.08	2184.33
1602.16	2198
1606.23	2169
1610.31	2160.33
1614.38	2126.33
1618.45	2071.67
1622.51	2056.33
1626.57	2052.33
1630.63	2015.66
1634.69	1980.33
1638.74	1971.66
1642.79	1967.66
1646.84	1948.66
1650.88	1937
1654.93	1917
1658.29	1925.66
