Measurement: Raman, 532 nm, unoriented, Raman Data Processed
Mineral: Scorzalite
Rruff sample: R140558
Ideal chemistry: Fe^2+^Al_2_(PO_4_)_2_(OH)_2_
Locality: Hålsjöberg, Torsby, Värmland, Sweden
Source: Dr. Jürgen Wachsmuth
Description: Blue granular crystals
Raman shift (cm-1)	intensity
89.7832	0
93.158	59.1077
96.5328	70.1242
99.9077	74.1328
103.282	18.2085
106.657	10.2036
110.032	43.9156
113.407	48.1567
116.782	83.8086
120.157	108.289
123.531	115.903
126.906	150.431
130.281	161.363
133.656	175.833
137.031	178.396
140.405	208.795
143.78	232.491
147.155	221.925
150.53	204.525
153.905	179.749
157.28	157.191
160.654	135.155
164.029	120.757
167.404	120.582
170.779	135.869
174.154	142.707
177.528	135.02
180.903	138.714
184.278	153.286
187.653	174.498
191.028	205.574
194.403	164.729
197.777	124.262
201.152	110.253
204.527	99.9557
207.902	82.2567
211.277	72.8213
214.651	67.3742
218.026	65.5996
221.401	43.5637
224.776	18.8344
228.151	2.65124
231.525	1.48816
234.9	11.2781
238.275	26.1469
241.65	41.144
245.025	46.6663
248.4	68.8629
251.774	100.754
255.149	98.911
258.524	70.8146
261.899	57.553
265.274	48.4401
268.649	36.6809
272.023	21.1883
275.398	17.5864
278.773	19.8633
282.148	1.61316
285.523	6.5448
288.897	10.4746
292.272	2.953
295.647	9.41724
299.022	0.552124
302.397	11.6461
305.772	11.2928
309.146	26.9541
312.521	48.979
315.896	62.0649
319.271	79.2015
322.646	103.46
326.02	134.496
329.395	162.696
332.77	166.822
336.145	189.954
339.52	198.999
342.894	205.775
346.269	201.404
349.644	183.046
353.019	175.76
356.394	169.063
359.769	161.496
363.143	149.805
366.518	123.674
369.893	100.746
373.268	86.1698
376.643	76.0635
380.017	74.0757
383.392	76.4737
386.767	84.4343
390.142	82.4547
393.517	77.3154
396.892	70.098
400.266	59.8517
403.641	66.6721
407.016	73.6514
410.391	88.4161
413.766	90.8713
417.14	23.4313
420.515	8.58362
423.89	0.532959
427.265	0.092407
430.64	0.603394
434.014	6.24341
437.389	9.16479
440.764	15.1748
444.139	4.29956
447.514	1.13574
450.889	8.34229
454.263	3.91406
457.638	2.82275
461.013	24.7773
464.388	56.4009
467.763	76.0769
471.137	96.8831
474.512	117.39
477.887	111.508
481.262	82.9414
484.637	66.0178
488.012	62.0215
491.386	40.8628
494.761	38.0168
498.136	47.4375
501.511	63.7512
504.886	87.6875
508.26	114.02
511.635	138.724
515.01	152.831
518.385	153.126
521.76	139.247
525.135	117.193
528.509	90.7612
531.884	69.6562
535.259	57.4951
538.634	35.9697
542.009	26.7097
545.384	24.5964
548.758	23.9329
552.133	19.1409
555.508	26.8164
558.883	31.0645
562.258	48.1912
565.632	48.5667
569.007	40.4695
572.382	36.2151
575.757	38.5044
579.132	21.3108
582.506	8.86206
585.881	5.15918
589.256	8.83325
592.631	0.990234
596.006	23.469
599.381	43.2627
602.755	81.0835
606.13	89.6843
609.505	81.1357
612.88	73.9819
616.255	65.1748
619.63	59.2647
623.004	53.5688
626.379	55.8762
629.754	62.8816
633.129	72.3591
636.504	83.2319
639.878	93.6826
643.253	97.9905
646.628	93.9619
650.003	86.4717
653.378	84.5478
656.752	69.7961
660.127	65.6843
663.502	66.6956
666.877	58.2344
670.252	47.5015
673.626	31.5349
677.001	14.717
680.376	2.2168
683.751	1.47852
687.126	6.05127
690.501	2.19604
693.875	2.01782
697.25	1.5542
700.625	16.2659
704	26.9324
707.375	43.6687
710.75	49.2249
714.124	50.8613
717.499	48.5635
720.874	38.2659
724.249	36.2295
727.624	36.1467
730.998	30.6091
734.373	28.239
737.748	35.6287
741.123	31.5066
744.498	31.3381
747.872	27.4148
751.247	24.0664
754.622	10.1643
757.997	2.14722
761.372	0.960205
764.747	0.139893
768.121	0.636719
771.496	6.80615
774.871	10.5527
778.246	9.19653
781.621	12.731
784.995	16.4793
788.37	16.0456
791.745	12.115
795.12	11.3362
798.495	12.4543
801.87	12.4822
805.244	15.4287
808.619	13.8313
811.994	18.3298
815.369	17.0928
818.744	19.2317
822.119	20.1553
825.493	18.823
828.868	7.18189
832.243	17.71
835.618	14.9082
838.993	21.4351
842.367	24.0889
845.742	22.915
849.117	16.7551
852.492	12.4563
855.867	14.9983
859.241	15.5749
862.616	13.7127
865.991	6.45776
869.366	1.47388
872.741	4.5061
876.115	6.1521
879.49	0.748291
882.865	1.32056
886.24	1.72974
889.615	8.33813
892.99	11.377
896.364	5.98267
899.739	9.68823
903.114	8.10815
906.489	5.73535
909.864	5.29565
913.239	3.92407
916.613	1.59302
919.988	0.654053
923.363	1.34692
926.738	2.41479
930.113	3.60767
933.487	2.07983
936.862	0.355469
940.237	1.396
943.612	7.92749
946.987	17.9434
950.361	15.6663
953.736	16.1631
957.111	8.73145
960.486	0.601074
963.861	4.01685
967.236	1.50732
970.61	0.689453
973.985	0.409424
977.36	0.949219
980.735	1.53613
984.11	6.27026
987.485	9.74805
990.859	17.2344
994.234	23.0503
997.609	32.397
1000.98	45.6995
1004.36	54.5361
1007.73	64.2971
1011.11	66.2825
1014.48	78.0837
1017.86	79.855
1021.23	81.5833
1024.61	79.4944
1027.98	63.3848
1031.36	41.396
1034.73	39.7634
1038.11	56.4302
1041.48	103.015
1044.86	177.046
1048.23	270.71
1051.61	368.173
1054.98	383.185
1058.36	300.756
1061.73	185.804
1065.11	114.135
1068.48	63.5544
1071.86	36.0427
1075.23	20.1802
1078.6	6.17603
1081.98	3.01904
1085.35	7.65747
1088.73	6.42358
1092.1	6.05664
1095.48	26.2153
1098.85	33.7332
1102.23	30.4802
1105.6	23.4404
1108.98	33.0205
1112.35	38.1057
1115.73	37.8784
1119.1	43.981
1122.48	51.7612
1125.85	40.0034
1129.23	44.3355
1132.6	54.51
1135.98	61.0117
1139.35	67.3213
1142.73	68.3845
1146.1	65.2766
1149.48	60.2288
1152.85	56.4314
1156.22	57.5762
1159.6	49.1792
1162.97	35.0603
1166.35	29.5671
1169.72	14.375
1173.1	15.4504
1176.47	12.3406
1179.85	17.9783
1183.22	22.0664
1186.6	28.0169
1189.97	33.1089
1193.35	29.1738
1196.72	32.615
1200.1	36.6145
1203.47	49.6665
1206.85	65.3499
1210.22	71.2114
1213.6	66.1218
1216.97	55.6292
1220.35	51.8518
1223.72	37.4067
1227.1	21.0378
1230.47	15.0645
1233.85	8.50024
1237.22	3.4436
1240.6	3.24414
1243.97	4.29614
1247.35	0.10791
1250.72	10.4221
1254.1	6.23389
1257.47	17.5359
1260.85	10.71
1264.22	19.6218
1267.59	18.1272
1270.97	20.7134
1274.34	16.1555
1277.72	16.6201
1281.09	16.585
1284.47	12.9207
1287.84	9.30981
1291.22	11.9153
1294.59	7.44946
1297.97	2.56299
1301.34	1.36206
