Measurement: Raman, 532 nm, unoriented, Raman Data Processed
Mineral: Segnitite
Rruff sample: R060342
Ideal chemistry: Pb^2+^Fe^3+^_3_(As^5+^O_4_)(As^5+^O_3_OH)(OH)_6_
Locality: Kintore Opencut, Broken Hill, New South Wales, Australia
Source: Michael Scott
Description: Yellowish-brown blebs
Raman shift (cm-1)	intensity
123.813	0
127.188	0.084906
130.563	0.316927
133.938	1.70376
137.313	3.96788
140.687	5.35845
144.062	6.12181
147.437	7.64408
150.812	10.942
154.187	14.3248
157.561	17.7628
160.936	15.9322
164.311	8.25187
167.686	2.18832
171.061	0.100468
174.436	0.490952
177.81	0.720816
181.185	0.98575
184.56	2.6987
187.935	5.61752
191.31	9.78763
194.685	14.4905
198.059	21.3024
201.434	27.7989
204.809	32.4941
208.184	32.6363
211.559	27.9338
214.933	21.1668
218.308	14.5732
221.683	9.58004
225.058	7.87053
228.433	7.1055
231.808	7.23787
235.182	6.83796
238.557	5.02092
241.932	3.08996
245.307	2.99548
248.682	3.75851
252.056	5.70964
255.431	7.88049
258.806	9.79201
262.181	10.5375
265.556	9.79122
268.93	6.07647
272.305	3.83693
275.68	1.94573
279.055	0.904007
282.43	0.004213
285.805	0.054188
289.179	0.318775
292.554	0.69521
295.929	1.17996
299.304	1.23795
302.679	1.95117
306.053	1.93389
309.428	2.25663
312.803	2.33786
316.178	4.30179
319.553	6.0404
322.928	9.34305
326.302	12.2727
329.677	15.6687
333.052	17.3444
336.427	17.2366
339.802	15.5706
343.176	13.1863
346.551	11.3557
349.926	8.6343
353.301	7.11174
356.676	4.77368
360.051	2.63205
363.425	1.89511
366.8	0.515587
370.175	0.025072
373.55	0.284657
376.925	0.365732
380.3	0.352478
383.674	0.247229
387.049	0.210855
390.424	0.346464
393.799	0.077204
397.174	0.54129
400.548	1.28876
403.923	1.47784
407.298	2.38644
410.673	4.17384
414.048	5.28387
417.423	6.4604
420.797	8.93358
424.172	10.9661
427.547	12.2022
430.922	12.1224
434.296	10.8793
437.671	10.2147
441.046	7.98266
444.421	6.94634
447.796	5.54899
451.171	4.96551
454.545	4.33637
457.92	5.03692
461.295	4.84928
464.67	5.77539
468.045	6.35234
471.42	7.78421
474.794	8.70603
478.169	9.70074
481.544	8.66621
484.919	7.07749
488.294	5.08805
491.668	3.65194
495.043	3.30219
498.418	3.71077
501.793	4.70665
505.168	6.04145
508.543	8.41788
511.917	11.6019
515.292	15.7627
518.667	21.1207
522.042	26.0653
525.417	30.9058
528.791	29.8646
532.166	22.5498
535.541	13.4828
538.916	7.18419
542.291	3.68914
545.665	1.45794
549.04	0.339705
552.415	0.198835
555.79	0.317327
559.165	0.648031
562.54	0.259666
565.914	0.118311
569.289	0.609772
572.664	1.52794
576.039	1.987
579.414	2.565
582.788	3.27142
586.163	4.42489
589.538	5.3555
592.913	5.45553
596.288	5.82283
599.663	4.96485
603.037	5.64328
606.412	5.72352
609.787	5.9245
613.162	6.43071
616.537	6.83018
619.912	6.8664
623.286	6.64509
626.661	6.97185
630.036	7.96426
633.411	8.37735
636.786	9.20408
640.16	10.0293
643.535	10.046
646.91	10.08
650.285	8.88147
653.66	7.49054
657.034	5.22036
660.409	3.29153
663.784	1.57386
667.159	0.859352
670.534	0.662951
673.909	0.172741
677.283	0.288595
680.658	0.13732
684.033	0.057911
687.408	0.493584
690.783	0.842426
694.158	0.479931
697.532	0.711632
700.907	0.39221
704.282	1.04876
707.657	1.18835
711.032	0.978786
714.406	0.869902
717.781	0.394924
721.156	0.531534
724.531	0.880575
727.906	0.351828
731.28	0.09272
734.655	0.149364
738.03	0.461212
741.405	0.234158
744.78	0.097208
748.154	0.195255
751.529	0.307579
754.904	0.041945
758.279	0.812183
761.654	0.770298
765.029	0.787884
768.403	1.00799
771.778	1.15379
775.153	0.83313
778.528	0.246311
781.903	0.123667
785.278	0.009535
788.652	0.201483
792.027	0.731598
795.402	0.313107
798.777	0.286261
802.152	0.110683
805.526	0.004847
808.901	0.826649
812.276	2.36287
815.651	4.28066
819.026	6.11913
822.4	9.08567
825.775	11.8506
829.15	16.0148
832.525	20.7319
835.9	24.7129
839.275	29.9659
842.649	35.2792
846.024	40.0074
849.399	44.0585
852.774	49.5717
856.149	53.7698
859.524	58.2364
862.898	61.9571
866.273	68.4134
869.648	73.8717
873.023	78.4542
876.398	79.7425
879.773	77.6968
883.147	70.9154
886.522	59.7664
889.897	48.8161
893.272	39.2616
896.646	31.2459
900.021	24.8732
903.396	19.7088
906.771	15.5735
910.146	11.7983
913.521	9.40469
916.895	7.37303
920.27	5.89471
923.645	4.62277
927.02	2.94452
930.395	1.55847
933.769	1.37892
937.144	0.393795
940.519	0.055332
943.894	0.399965
947.269	0.638977
950.644	0.124538
954.018	0.389042
957.393	0.41293
960.768	0.485519
964.143	0.248955
967.518	0.676441
970.893	0.880934
974.267	0.997328
977.642	1.49734
981.017	2.52243
984.392	4.03794
987.767	5.33247
991.141	7.01446
994.516	10.7737
997.891	14.4278
1001.27	20.6465
1004.64	28.5316
1008.02	36.9464
1011.39	43.0842
1014.76	40.0455
1018.14	27.1893
1021.51	14.4196
1024.89	6.22769
1028.26	1.36052
1031.64	0.392561
1035.01	0.050009
1038.39	0.016657
1041.76	0.840082
1045.14	0.54883
1048.51	1.11074
1051.89	0.854286
1055.26	1.48801
1058.64	1.79228
1062.01	1.9189
1065.39	2.03459
1068.76	2.65256
1072.14	2.95135
1075.51	3.56025
1078.89	3.44548
1082.26	3.65242
1085.64	2.93098
1089.01	2.73531
1092.39	2.54852
1095.76	2.06842
1099.14	1.45126
1102.51	1.4508
1105.88	1.13838
1109.26	0.858782
1112.63	1.0389
1116.01	1.08457
1119.38	0.933138
1122.76	2.28303
1126.13	1.24144
1129.51	0.49641
1132.88	0.895081
1136.26	0.959288
1139.63	0.932358
1143.01	0.706581
1146.38	0.686686
1149.76	0.655762
1153.13	0.096298
1156.51	0.035961
1159.88	0.252951
1163.26	0.098156
1166.63	0.465054
1170.01	0.014254
1173.38	0.563526
1176.76	0.271378
1180.13	0.902628
1183.51	0.705914
1186.88	1.5229
1190.26	1.12408
1193.63	0.928558
1197.01	1.18256
1200.38	1.06441
1203.76	1.28508
1207.13	1.10932
1210.51	1.23414
1213.88	0.874702
1217.25	0.865763
1220.63	1.11984
1224	0.359699
1227.38	0.363079
1230.75	0.39731
1234.13	0.341883
1237.5	0.478058
1240.88	0.036346
1244.25	0.298193
1247.63	0.244862
1251	0.654022
1254.38	0.033648
1257.75	0.678917
1261.13	0.635725
1264.5	0.331636
1267.88	0.359825
1271.25	0.675234
1274.63	0.428785
1278	0.209953
1281.38	0.127655
1284.75	0.300638
1288.12	0.439552
1291.5	0.553764
1294.88	0.280983
1298.25	0.493546
