Measurement: Raman, 780 nm, unoriented, Raman Data Processed
Mineral: Segnitite
Rruff sample: R060342
Ideal chemistry: Pb^2+^Fe^3+^_3_(As^5+^O_4_)(As^5+^O_3_OH)(OH)_6_
Locality: Kintore Opencut, Broken Hill, New South Wales, Australia
Source: Michael Scott
Description: Yellowish-brown blebs
Raman shift (cm-1)	intensity
126.633	0
129.526	0.019573
132.419	1.18785
135.312	2.22619
138.204	2.73452
141.097	3.21029
143.99	3.44473
146.882	4.44729
149.775	6.99869
152.668	9.62916
155.56	11.3881
158.453	10.5195
161.346	6.44551
164.239	2.61967
167.131	1.01728
170.024	0.068096
172.917	0.726944
175.809	0.455683
178.702	0.098984
181.595	1.23978
184.488	1.85318
187.38	3.8972
190.273	6.10873
193.166	9.2779
196.058	11.7605
198.951	15.3009
201.844	18.1799
204.736	18.0252
207.629	17.4551
210.522	14.0574
213.415	11.4888
216.307	8.70156
219.2	7.10021
222.093	6.12104
224.985	5.38504
227.878	4.20465
230.771	2.96062
233.663	3.11245
236.556	1.5677
239.449	1.11728
242.341	0.827978
245.234	1.5933
248.127	1.82037
251.02	3.3652
253.912	4.37141
256.805	5.66564
259.698	6.36461
262.591	6.10409
265.483	5.04716
268.376	2.96153
271.269	1.91705
274.161	1.32203
277.054	0.609518
279.947	0.971523
282.839	1.22449
285.732	2.77683
288.625	4.27798
291.517	4.48946
294.41	4.13832
297.303	2.98892
300.196	1.74142
303.088	1.13404
305.981	0.281488
308.874	0.572165
311.766	1.49224
314.659	2.19955
317.552	2.9902
320.445	4.02733
323.337	5.2239
326.23	6.82867
329.123	7.5259
332.015	7.83325
334.908	7.54904
337.801	6.88386
340.693	5.50838
343.586	4.69501
346.479	4.08163
349.372	2.83061
352.264	2.16471
355.157	1.09788
358.05	0.799444
360.942	0.107213
363.835	0.159858
366.728	0.048911
369.62	0.365875
372.513	0.261574
375.406	0.264437
378.298	0.22827
381.191	0.339642
384.084	0.191655
386.977	0.462784
389.869	0.584567
392.762	1.11365
395.655	1.26169
398.547	2.43565
401.44	3.62603
404.333	4.30176
407.226	4.83193
410.118	5.38391
413.011	4.61557
415.904	4.86489
418.796	4.72792
421.689	5.24985
424.582	5.57314
427.474	5.51183
430.367	5.14656
433.26	4.43224
436.152	3.61295
439.045	3.03749
441.938	2.34867
444.831	2.51613
447.723	1.68376
450.616	1.23151
453.509	1.30942
456.401	1.16239
459.294	1.26645
462.187	1.63947
465.079	2.17068
467.972	2.44017
470.865	2.8042
473.758	3.36111
476.65	3.46188
479.543	3.29879
482.436	3.08143
485.328	1.93418
488.221	1.26973
491.114	1.49437
494.007	1.11267
496.899	1.30829
499.792	2.05434
502.685	2.57219
505.577	3.53468
508.47	4.1548
511.363	5.93261
514.255	8.19139
517.148	9.4894
520.041	11.8653
522.933	14.2846
525.826	14.97
528.719	12.9751
531.612	9.08819
534.504	5.54751
537.397	2.99611
540.29	1.64353
543.182	0.761353
546.075	0.401116
548.968	0.010131
551.861	0.311555
554.753	0.174437
557.646	0.078808
560.539	0.373639
563.431	0.268392
566.324	0.041661
569.217	0.889284
572.109	0.629457
575.002	0.822162
577.895	1.42556
580.788	1.38293
583.68	1.78181
586.573	1.93519
589.466	2.26945
592.358	1.99967
595.251	2.36674
598.144	2.61344
601.037	2.59619
603.929	3.13311
606.822	3.06946
609.715	3.4612
612.607	3.20762
615.5	2.91824
618.393	2.50582
621.285	2.81695
624.178	2.45035
627.071	2.41718
629.963	2.55362
632.856	3.04271
635.749	2.8928
638.642	2.88531
641.534	3.48872
644.427	3.17401
647.32	3.18961
650.212	2.78383
653.105	2.00315
655.998	1.82537
658.89	0.87723
661.783	0.511744
664.676	0.119411
667.569	0.153558
670.461	0.380627
673.354	0.222832
676.247	0.041618
679.139	0.093716
682.032	0.184257
684.925	0.031289
687.817	0.37091
690.71	0.709125
693.603	0.447503
696.496	0.384586
699.388	0.550716
702.281	0.534809
705.174	0.52295
708.066	0.662771
710.959	0.278839
713.852	0.49181
716.745	0.371625
719.637	0.521841
722.53	0.729445
725.423	0.187014
728.315	0.526976
731.208	0.466666
734.101	0.193353
736.993	0.175866
739.886	0.174649
742.779	0.215797
745.672	0.295382
748.564	0.021173
751.457	0.186046
754.35	0.433023
757.242	0.515165
760.135	0.41001
763.028	0.1543
765.92	0.270244
768.813	0.56237
771.706	0.277063
774.598	0.143439
777.491	0.349594
780.384	0.147928
783.277	0.259063
786.169	0.39003
789.062	0.013596
791.955	0.132249
794.847	0.089222
797.74	0.208263
800.633	0.328926
803.526	0.419972
806.418	1.04901
809.311	1.05215
812.204	1.98415
815.096	1.69716
817.989	2.51435
820.882	3.51449
823.774	4.40453
826.667	5.27777
829.56	6.50904
832.453	7.49463
835.345	9.14936
838.238	10.6584
841.131	11.895
844.023	13.2794
846.916	14.6102
849.809	15.7565
852.702	17.2517
855.594	18.4405
858.487	20.6956
861.38	21.7182
864.272	23.0104
867.165	24.6663
870.058	26.2712
872.95	27.0725
875.843	26.4278
878.736	25.3609
881.629	23.0148
884.521	19.7737
887.414	16.7615
890.307	14.2374
893.199	11.1066
896.092	9.11896
898.985	7.15795
901.877	5.80607
904.77	5.09221
907.663	4.01585
910.556	3.99406
913.448	2.61406
916.341	2.11203
919.234	1.55419
922.126	1.4347
925.019	0.887092
927.912	0.665169
930.804	0.823382
933.697	0.484289
936.59	0.25983
939.482	0.212232
942.375	0.160572
945.268	0.093868
948.161	0.141804
951.053	0.029465
953.946	0.058647
956.839	0.482881
959.731	0.177222
962.624	0.140988
965.517	0.204426
968.409	0.366371
971.302	0.208314
974.195	0.49683
977.088	0.65244
979.98	1.12504
982.873	1.44777
985.766	2.06983
988.658	2.17787
991.551	3.43288
994.444	4.60455
997.337	6.00521
1000.23	7.36371
1003.12	9.44237
1006.01	10.9501
1008.91	12.6233
1011.8	13.4411
1014.69	11.1044
1017.59	7.12799
1020.48	3.87654
1023.37	1.7529
1026.26	0.91765
1029.16	0.369122
1032.05	0.140027
1034.94	0.02428
1037.83	0.247366
1040.73	0.48265
1043.62	0.75081
1046.51	0.419529
1049.4	0.537282
1052.3	0.320709
1055.19	0.351842
1058.08	0.103127
1060.98	0.581047
1063.87	0.369431
1066.76	0.680304
1069.65	0.725368
1072.55	0.627415
1075.44	0.953205
1078.33	1.16827
1081.22	1.3779
1084.12	0.928646
1087.01	1.05198
1089.9	0.661049
1092.8	0.598449
1095.69	0.459014
1098.58	0.51019
1101.47	0.712601
1104.37	0.450661
1107.26	0.383033
1110.15	0.394993
1113.05	0.070292
1115.94	0.345098
1118.83	0.01564
1121.72	0.518842
1124.62	0.036299
1127.51	0.246579
1130.4	0.514518
1133.29	0.233443
1136.19	0.561244
1139.08	0.139193
1141.97	0.218442
1144.86	0.341959
1147.76	0.005269
1150.65	0.357455
1153.54	0.404909
1156.43	0.323466
1159.33	0.281943
1162.22	0.341525
1165.11	0.072547
1168.01	0.452398
1170.9	0.01547
1173.79	0.003352
1176.68	0.264374
1179.58	0.313744
1182.47	0.028485
1185.36	0.46294
1188.26	0.570704
1191.15	0.339262
1194.04	0.504325
1196.93	0.389827
1199.83	0.432101
1202.72	0.113169
1205.61	0.301332
1208.5	0.186491
1211.4	0.12823
1214.29	0.270823
1217.18	0.11674
1220.07	0.554003
1222.97	0.187621
1225.86	0.745298
1228.75	0.399413
1231.64	0.229258
1234.54	0.705514
1237.43	0.367114
1240.32	0.550299
1243.22	0.231443
1246.11	0.38622
1249	0.562638
1251.89	0.33666
1254.79	0.390338
1257.68	0.135307
1260.57	0.354606
1263.46	0.182107
1266.36	0.319879
1269.25	0.033805
1272.14	0.487653
1275.04	0.127654
1277.93	0.133643
1280.82	0.391515
