Measurement: Raman, 780 nm, unoriented, Raman Data RAW
Mineral: Serendibite
Rruff sample: R070633
Ideal chemistry: Ca_4_(Mg_6_Al_6_)O_4_[Si_6_B_3_Al_3_O_36_]
Locality: Burma
Source: www.multicolour.com
Description: Black, dark blue under strong light, polished gemstone
Measured chemistry: (Ca_1.91_Na_0.09_)_Σ=2_(Mg_2.59_Al_0.18_Fe^2+^_0.11_Fe^3+^_0.11_)_Σ=3_Al_4.50_B_1.50_(Si_2.78_Al_0.22_)_Σ=3_O_20_ ; B_2_O_3_ estimated by charge balance; Fe^2+^ and Fe^3+^ splitted by charge balance
Raman shift (cm-1)	intensity
181.663	0
184.555	92.2275
187.448	118.876
190.341	143.694
193.233	331.976
196.126	510.344
199.019	608.334
201.911	545.909
204.804	653.394
207.697	571.517
210.59	500.411
213.482	444.831
216.375	307.648
219.268	262.08
222.16	176.444
225.053	75.9185
227.946	3.79102
230.839	14.5562
233.731	32.6392
236.624	30.104
239.517	3.64551
242.409	9.66748
245.302	52.481
248.195	115.937
251.087	108.875
253.98	73.981
256.873	117.9
259.765	41.4512
262.658	71.7852
265.551	135.556
268.444	198.993
271.336	205.351
274.229	210.238
277.122	225.818
280.014	245.65
282.907	250.178
285.8	274.511
288.692	291.299
291.585	299.353
294.478	306.81
297.371	470.521
300.263	461.565
303.156	475.773
306.049	586.849
308.941	573.467
311.834	526.975
314.727	511.146
317.62	473.643
320.512	365.259
323.405	380.711
326.298	323.594
329.19	318.946
332.083	301.249
334.976	284.976
337.868	280.688
340.761	259.303
343.654	270.907
346.546	188.202
349.439	209.068
352.332	211.685
355.225	135.7
358.117	177.39
361.01	127.435
363.903	111.869
366.795	109.485
369.688	81.6748
372.581	1.13672
375.474	105.765
378.366	21.8555
381.259	57.5928
384.152	32.2617
387.044	1.74316
389.937	27.3232
392.83	10.042
395.723	76.3955
398.615	99.0644
401.508	127.725
404.401	163.495
407.293	136.708
410.186	105.249
413.079	85
415.971	101.661
418.864	66.0947
421.757	62.7783
424.649	89.8457
427.542	153.028
430.435	144.305
433.328	146.7
436.22	241.657
439.113	299.917
442.006	259.647
444.898	345.553
447.791	451.485
450.684	494.376
453.577	526.043
456.469	619.697
459.362	623.968
462.255	733.659
465.147	744.731
468.04	782.422
470.933	723.828
473.825	702.692
476.718	723.501
479.611	644.788
482.503	653.034
485.396	548.406
488.289	560.935
491.182	571.285
494.074	493.03
496.967	453.696
499.86	358.383
502.752	320.808
505.645	310.381
508.538	250.662
511.43	216.731
514.323	177.311
517.216	140.611
520.109	85.1479
523.001	83.9849
525.894	67.3398
528.787	16.6914
531.679	37.7983
534.572	35.4492
537.465	6.63379
540.357	9.2666
543.25	8.24463
546.143	29.2798
549.036	123.725
551.928	110.006
554.821	145.089
557.714	244.153
560.606	252.018
563.499	274.41
566.392	301.49
569.284	364.78
572.177	366.374
575.07	400.352
577.963	373.373
580.855	396.608
583.748	385.851
586.641	420.502
589.533	407.871
592.426	381.497
595.319	305.728
598.212	277.198
601.104	228.506
603.997	218.392
606.89	206.667
609.782	218.333
612.675	205.714
615.568	218.627
618.46	245.277
621.353	268.18
624.246	233.992
627.139	222.069
630.031	185.667
632.924	129.028
635.817	134.987
638.709	62.0054
641.602	4.35938
644.495	27.3921
647.388	9.30273
650.28	0.998535
653.173	25.7324
656.066	5.19385
658.958	34.5679
661.851	28.5669
664.744	18.2983
667.636	85.9546
670.529	31.3535
673.422	62.2212
676.314	75.4365
679.207	82.9707
682.1	67.2524
684.993	36.9605
687.885	38.8462
690.778	34.3384
693.671	56.0185
696.563	0.981934
699.456	23.1372
702.349	35.3657
705.241	49.8423
708.134	63.1704
711.027	28.1948
713.92	73.7031
716.812	131.777
719.705	84.4394
722.598	167.859
725.49	99.2686
728.383	125.803
731.276	90.4673
734.168	164.517
737.061	208.545
739.954	212.114
742.847	195.927
745.739	169.377
748.632	159.009
751.525	230.996
754.417	178.315
757.31	211.617
760.203	178.831
763.096	160.632
765.988	152.289
768.881	50.7456
771.774	57.6489
774.666	130.075
777.559	140.478
780.452	26.1592
783.344	102.199
786.237	65.9302
789.13	9.05518
792.023	15.7588
794.915	57.1582
797.808	24.1406
800.701	55.6304
803.593	23.2012
806.486	22.8921
809.379	76.6611
812.271	14.4253
815.164	40.6587
818.057	72.1958
820.949	43.1758
823.842	3.95068
826.735	54.4292
829.628	8.98193
832.52	88.2041
835.413	69.8677
838.306	3.85791
841.198	91.6538
844.091	29.9932
846.984	47.125
849.877	20.9087
852.769	20.707
855.662	0.111328
858.555	28.106
861.447	36.7554
864.34	98.5024
867.233	125.357
870.125	103.689
873.018	146.031
875.911	116.941
878.804	114.961
881.696	194.203
884.589	86.8174
887.482	89.8921
890.374	85.1782
893.267	118.339
896.16	41.2847
899.053	108.978
901.945	61.5815
904.838	8.66113
907.731	56.1152
910.623	20.0083
913.516	39.0947
916.409	42.6958
919.301	18.7129
922.194	31.6284
925.087	34.7227
927.98	12.6333
930.872	5.55713
933.765	30.978
936.658	39.2222
939.55	36.7388
942.443	2.72559
945.336	23.2646
948.228	10.1343
951.121	56.5386
954.014	17.8706
956.907	75.6397
959.799	44.4917
962.692	84.2856
965.585	85.5078
968.477	106.707
971.37	113.309
974.263	163.957
977.155	194.415
980.048	184.886
982.941	186.857
985.833	170.292
988.726	220.942
991.619	178.565
994.512	186.11
997.404	188.537
1000.3	95.5752
1003.19	135.314
1006.08	153.714
1008.98	81.8438
1011.87	125.378
1014.76	121.234
1017.65	114.916
1020.55	102.54
1023.44	107.265
1026.33	74.2861
1029.22	25.1787
1032.12	98.478
1035.01	87.0552
1037.9	71.7114
1040.8	63.4468
1043.69	94.25
1046.58	71.1558
1049.47	65.0688
1052.37	61.8662
1055.26	84.5117
1058.15	61.7105
1061.04	46.8765
1063.94	39.4053
1066.83	34.7446
1069.72	50.25
1072.62	19.7627
1075.51	33.5859
1078.4	3.08106
1081.29	2.48535
1084.18	5.021
1087.08	38.916
1089.97	9.49365
1092.86	6.75684
1095.76	42.9922
1098.65	32.7261
1101.54	15.6172
1104.43	13.5669
1107.33	55.0894
1110.22	84.0923
1113.11	108.982
1116.01	47.9165
1118.9	64.0508
1121.79	71.7549
1124.68	85.0366
1127.58	100.192
1130.47	100.023
1133.36	81.2256
1136.25	67.207
1139.15	42.5107
1142.04	57.3506
1144.93	41.8638
1147.83	86.7261
1150.72	46.4438
1153.61	84.1436
1156.5	86.3071
1159.4	66.71
1162.29	69.7144
1165.18	29.2998
1168.07	45.6934
1170.97	36.7637
1173.86	58.1162
1176.75	60.6519
1179.64	68.6602
1182.54	22.9487
1185.43	28.6406
1188.32	43.0566
1191.21	47.8911
1194.11	59.7261
1197	70.2842
1199.89	70.4785
1202.79	49.5615
1205.68	38.5884
1208.57	15.6753
1211.46	53.3223
1214.36	64.916
1217.25	49.52
1220.14	0.299805
1223.04	27.1245
1225.93	24.833
1228.82	18.1875
1231.71	93.6201
1234.61	72.0483
1237.5	91.2383
1240.39	89.8755
1243.28	109.28
1246.18	68.8545
1249.07	98.9053
1251.96	62.7808
1254.86	86.8691
1257.75	96.1211
1260.64	106.578
