Measurement: Raman, 780 nm, unoriented, Raman Data RAW
Mineral: Sewardite
Rruff sample: R060720
Ideal chemistry: CaFe^3+^_2_(As^5+^O_4_)_2_(OH)_2_
Locality: Las Animas mine, La Mur, Sonora, Mexico
Source: Bob Jenkins
Description: Aggregates of bright red granular or prismatic crystals, associated with dark red platy arseniosiderite (R150061).
Measured chemistry: Ca_1.00_(Fe^3+^_1.83_Ca_0.17_)_Σ=2_(As_1.00_O_4_)_2_((OH)_1.83_(H_2_O)_0.17_)_Σ=2_
Raman shift (cm-1)	intensity
91.5599	2166.79
94.9347	2441.2
98.3096	2296.26
101.684	2195.59
105.059	2148.21
108.434	2156.94
111.809	2160.7
115.184	2211.67
118.558	2275.47
121.933	2228.16
125.308	2223.82
128.683	2284.26
132.058	2408.78
135.433	2499.54
138.807	2380.46
142.182	2224.94
145.557	2276.33
148.932	2406.1
152.307	2523.13
155.681	2535.29
159.056	2553.8
162.431	2605.22
165.806	2700.93
169.181	2623.83
172.555	2217.2
175.93	2030.39
179.305	2087.45
182.68	2098.53
186.055	2003.58
189.43	1901.27
192.804	1847.33
196.179	1884.04
199.554	2025.44
202.929	2208.52
206.304	2293.23
209.678	2233.48
213.053	2159.19
216.428	2167.59
219.803	2210.71
223.178	2305.32
226.553	2347.19
229.927	2262.65
233.302	2217.68
236.677	2178.08
240.052	2130.3
243.427	2151.26
246.801	2200.75
250.176	2264.1
253.551	2335.9
256.926	2442.96
260.301	2549.54
263.675	2585.71
267.05	2537.61
270.425	2387.31
273.8	2216.97
277.175	2098.25
280.55	2030.35
283.924	2011.94
287.299	2006.09
290.674	2002.94
294.049	1919.52
297.424	1800.5
300.798	1678.58
304.173	1555.79
307.548	1455.14
310.923	1381.66
314.298	1327.04
317.673	1274.21
321.047	1231.91
324.422	1210.38
327.797	1203.18
331.172	1189.07
334.547	1209.94
337.921	1228.59
341.296	1259.92
344.671	1313.43
348.046	1394.99
351.421	1496.2
354.796	1582.84
358.17	1637.64
361.545	1697.25
364.92	1757.88
368.295	1781.69
371.67	1735.43
375.044	1686.67
378.419	1699.7
381.794	1751.76
385.169	1823
388.544	1901.96
391.918	1922.89
395.293	1882.59
398.668	1811.86
402.043	1754.28
405.418	1713.76
408.793	1639.34
412.167	1547.11
415.542	1450.41
418.917	1403.32
422.292	1390.37
425.667	1385.05
429.041	1372.41
432.416	1349.97
435.791	1337.95
439.166	1331.48
442.541	1354.49
445.915	1383.74
449.29	1429.92
452.665	1471.79
456.04	1520.26
459.415	1590.29
462.789	1680.49
466.164	1747.06
469.539	1745.2
472.914	1690.74
476.289	1609.39
479.664	1522.65
483.038	1460.17
486.413	1414.42
489.788	1379.77
493.163	1371.64
496.538	1386.34
499.913	1417.6
503.287	1470.16
506.662	1525.62
510.037	1560.87
513.412	1505.12
516.787	1372.73
520.161	1233.37
523.536	1133.11
526.911	1078.87
530.286	1050.17
533.661	1040.8
537.035	1047.14
540.41	1067.45
543.785	1088.42
547.16	1109.89
550.535	1123.65
553.909	1134
557.284	1133.09
560.659	1148.9
564.034	1168.32
567.409	1187.61
570.784	1203.68
574.158	1213.02
577.533	1216
580.908	1208.32
584.283	1197.61
587.658	1169.06
591.033	1152.74
594.407	1128.66
597.782	1110.35
601.157	1098.7
604.532	1089.35
607.907	1068.37
611.281	1048.68
614.656	1014.99
618.031	976.645
621.406	945.488
624.781	916.177
628.155	893.351
631.53	877.241
634.905	862.913
638.28	857.955
641.655	844.095
645.029	839.471
648.404	833.467
651.779	824.881
655.154	824.474
658.529	818.268
661.904	812.933
665.278	802.349
668.653	794.182
672.028	793.463
675.403	783.701
678.778	784.064
682.153	777.586
685.527	773.189
688.902	767.709
692.277	766.532
695.652	772.112
699.027	762.117
702.401	766.208
705.776	767.472
709.151	770.117
712.526	769.917
715.901	776.192
719.275	782.794
722.65	789.58
726.025	796.617
729.4	810.005
732.775	828.811
736.149	852.709
739.524	872.485
742.899	889.12
746.274	908.392
749.649	919.717
753.024	928.37
756.398	929.327
759.773	934.415
763.148	919.389
766.523	902.149
769.898	887.407
773.273	871.625
776.647	873.852
780.022	894.129
783.397	919.351
786.772	959.826
790.146	1021.86
793.521	1092.41
796.896	1182.99
800.271	1297.55
803.646	1419.33
807.021	1544.18
810.395	1643.13
813.77	1634.76
817.145	1526.89
820.52	1373.49
823.895	1234.32
827.269	1133.74
830.644	1089.96
834.019	1093.46
837.394	1133.89
840.769	1175.86
844.144	1235.28
847.518	1322
850.893	1478.76
854.268	1698.87
857.643	1935.09
861.018	2094.18
864.393	2323.27
867.767	2678.83
871.142	2940.2
874.517	2777.32
877.892	2264.96
881.266	1800.87
884.641	1519.61
888.016	1328.18
891.391	1219.75
894.766	1144.46
898.141	1065.99
901.515	972.371
904.89	890.341
908.265	830.616
911.64	782.408
915.015	742.851
918.389	724.431
921.764	692.402
925.139	677.598
928.514	665.285
931.889	657.511
935.264	647.675
938.638	638.929
942.013	633.878
945.388	627.112
948.763	621.7
952.138	617.599
955.512	613.221
958.887	611.105
962.262	607.21
965.637	606.03
969.012	602.055
972.386	603.117
975.761	601.274
979.136	602.765
982.511	596.971
985.886	595.246
989.261	592.166
992.635	591.415
996.01	590.451
999.385	589.245
1002.76	587.306
1006.13	585.004
1009.51	579.916
1012.88	578.955
1016.26	576.738
1019.63	578.425
1023.01	575.373
1026.38	573.71
1029.76	575.058
1033.13	570.628
1036.51	574.219
1039.88	572.15
1043.26	576.861
1046.63	568.543
1050.01	567.338
1053.38	565.72
1056.76	568.194
1060.13	568.009
1063.51	566.085
1066.88	565.012
1070.26	559.132
1073.63	562.36
1077.01	563.501
1080.38	560.5
1083.76	559.903
1087.13	561.249
1090.51	556.332
1093.88	557.202
1097.26	550.222
1100.63	551.798
1104	548.273
1107.38	556.081
1110.75	551.801
1114.13	549.667
1117.5	545.984
1120.88	545.449
1124.25	544.964
1127.63	545.925
1131	544.57
1134.38	546.329
1137.75	544.176
1141.13	544.375
1144.5	544.612
1147.88	546.843
1151.25	541.65
1154.63	542.741
1158	542.528
1161.38	545.726
1164.75	543.577
1168.13	539.093
1171.5	544.655
1174.88	541.636
1178.25	543.367
1181.62	540.914
1185	540.528
1188.38	541.007
1191.75	533.938
1195.12	536.987
1198.5	538.326
1201.87	541
1205.25	535.797
1208.62	534.583
1212	533.012
1215.37	534.718
1218.75	529.207
1222.12	529.408
1225.5	534.094
1228.87	527.791
1232.25	529.537
1235.62	529.422
1239	526.12
1242.37	529.742
1245.75	526.418
1249.12	529.478
1252.5	526.941
1255.87	526.826
1259.25	528.336
1262.62	528.073
1265.99	532.233
1269.37	527.627
1272.74	530.34
1276.12	533.157
1279.49	527.484
1282.87	532.49
