Measurement: Raman, 514 nm, unoriented, Raman Data RAW
Mineral: Shattuckite
Rruff sample: X060019
Ideal chemistry: Cu^2+^_5_(SiO_3_)_4_(OH)_2_
Locality: Clifton, Arizona, USA
Source: University of Arizona Mineral Museum
Description: Single crystal
Raman shift (cm-1)	intensity
179.172	25270.3
183.348	25633.3
187.522	27136.3
191.693	27596.7
195.862	26694.3
200.028	26156
204.192	25785.3
208.354	26067.7
212.512	26281
216.669	26075
220.822	25917.3
224.974	25733
229.122	25816.7
233.269	25664
237.413	25727.7
241.554	25776
245.693	25845.3
249.829	26220.3
253.963	26208.3
258.094	26183
262.223	26174.3
266.349	25918.7
270.473	25774.3
274.595	25839.5
278.714	25790
282.83	25874.7
286.944	25746.3
291.055	25853
295.164	25812.7
299.271	26047
303.375	26123.7
307.476	26133.7
311.576	26235.3
315.672	26272.7
319.766	26604
323.858	26976
327.947	27549.7
332.034	28148.7
336.118	27888.7
340.2	27289.3
344.279	27109.7
348.356	26928.7
352.431	26830
356.503	26689.7
360.572	26705.1
364.639	26878.7
368.704	26885.7
372.766	26835.7
376.826	26694.7
380.883	26945
384.938	27170.7
388.99	27653.7
393.04	28181.3
397.087	28892.7
401.132	28656.7
405.175	28051
409.215	27706.3
413.253	27473
417.288	27349.7
421.321	27484
425.351	27636.7
429.379	27934.7
433.404	28234.7
437.428	28762
441.448	28954
445.466	29093
449.482	29199.7
453.495	28983.7
457.506	28594.7
461.515	28459.7
465.521	28447.7
469.524	28500
473.526	28727.7
477.524	28716.7
481.521	28525.3
485.515	28260.7
489.506	28365
493.495	28449.3
497.482	28772.3
501.466	29585
505.448	30620
509.428	31215.7
513.405	30950.3
517.379	30055.7
521.352	29124
525.321	28771.3
529.289	28563.3
533.254	28333.7
537.216	28138.7
541.177	28134.3
545.134	28069
549.09	28074.3
553.043	28113.7
556.993	28278
560.942	28396
564.887	28379.7
568.831	27947.3
572.772	27943.3
576.711	27688.3
580.647	27552.3
584.581	27645
588.512	27575
592.441	27422
596.368	27671.7
600.292	27421.7
604.214	27391
608.134	27425.7
612.051	27545.3
615.966	27465
619.878	27297.3
623.788	27513.3
627.696	27400
631.601	27433.3
635.504	27444.3
639.405	27517.3
643.303	27628
647.199	27547.3
651.092	27613
654.983	27847.3
658.872	27845
662.758	28085.3
666.642	27991
670.524	27954
674.403	27986.7
678.28	27869.3
682.155	27789
686.027	27577
689.897	27571.7
693.764	27650.7
697.629	27668.7
701.492	27704.3
705.353	27697.3
709.211	27695.3
713.066	27571
716.92	27686
720.771	27567.7
724.62	27588.7
728.466	27764
732.31	27583.7
736.152	27719
739.991	27689
743.828	27694.7
747.663	27558.3
751.495	27888.7
755.325	27953.7
759.153	27928.7
762.978	28277.3
766.801	28216.5
770.622	28326.7
774.44	28510.7
778.256	28669
782.07	28837
785.881	28881.3
789.69	28458.7
793.497	28476.3
797.301	28236.7
801.103	28340
804.903	27973.3
808.7	28038
812.495	28161.7
816.288	28099.7
820.079	28291
823.867	28138.3
827.653	28275.7
831.436	28246.3
835.218	28330.3
838.996	28364.6
842.773	28706.9
846.547	28741.7
850.319	28686
854.089	28658.3
857.857	28583
861.622	28553.1
865.384	28550.9
869.145	28572.9
872.903	28586.1
876.659	28527
880.413	28573.2
884.164	28523.3
887.913	28565.2
891.66	28807.3
895.404	28619.8
899.146	28766.9
902.886	28797.8
906.624	28917.1
910.359	28916.1
914.092	29028.9
917.823	28984
921.551	29085.8
925.277	29273.9
929.001	29390.5
932.723	29279.8
936.442	29588.1
940.159	29471.6
943.874	29485.4
947.587	29766.8
951.297	29631
955.005	29637.2
958.71	29575.3
962.414	29660
966.115	29472.6
969.814	29431.3
973.51	29482.8
977.205	29372.5
980.897	29335
984.587	29376.5
988.274	29336
991.96	29242.4
995.643	29237.2
999.323	29107.5
1003	29502.1
1006.68	28960.2
1010.35	28849.4
1018.43	28739.7
1022.17	28861.7
1025.91	29026.7
1029.65	28804.3
1033.39	28965
1037.12	29013.3
1040.86	28924.7
1044.58	28980.7
1048.31	29012.7
1052.04	29105
1055.76	28978.7
1059.48	28997
1063.2	29269.3
1066.91	29421.7
1070.63	29335
1074.34	29143.7
1078.05	29286.7
1081.76	29202.7
1085.46	28986.3
1089.17	29091.7
1092.87	28942
1096.57	29154
1100.26	28958.3
1103.96	28985.3
1107.65	29086.7
1111.34	29159.3
1115.03	29142.3
1118.71	28991
1122.4	29317.7
1126.08	29203
1129.76	29275
1133.43	29184.7
1137.11	29123.7
1140.78	29065
1144.45	29255
1148.12	29327.7
1151.79	29199.3
1155.45	29396
1159.11	29453.3
1162.77	29169.3
1166.43	29310.7
1170.09	29158.7
1173.74	29149.7
1177.39	29507
1181.04	29525.3
1184.68	29277.3
1188.33	29347.3
1191.97	29487
1195.61	29280.7
1199.25	29241.7
1202.88	29401.7
1206.52	29190.3
1210.15	29279
1213.78	29417.3
1217.41	29253.7
1221.03	29420
1224.65	29265.3
1228.28	29430
1231.89	29439.3
1235.51	29506
1239.13	29484
1242.74	29469
1246.35	29410.7
1249.96	29471
1253.56	29525.3
1257.17	29471.7
1260.77	29619.7
1264.37	29564.3
1267.96	29612.3
1271.56	29633.5
1275.15	29544.7
1278.74	29674
1282.33	29714.7
1285.92	29799.3
1289.5	29650.7
1293.09	29651
1296.66	29695
1300.24	29630
1303.82	30011.7
1307.39	29886
1310.96	29993.7
1314.53	29911.3
1318.1	29886
1321.67	29912
1325.23	29759
1328.79	29859
1332.35	29908.7
1335.91	29755.3
1339.46	29955.3
1343.02	30009
1346.57	30002
1350.11	30189
1353.66	30034.3
1357.2	30054
1360.75	30101.3
1364.29	30215
1367.82	30181
1371.36	29940.3
1374.89	30008.7
1378.42	30127.3
1381.95	30064
1385.48	30168.3
1389.01	30021.7
1392.53	30095
1396.05	29946.7
1399.57	30012.3
1403.09	29970.4
1406.6	29866.7
1410.12	29800.3
1413.63	29845.7
1417.13	29783.7
1420.64	29989.3
1424.14	29708.7
1427.65	29576.7
1431.15	29755.3
1434.64	29851.3
1438.14	29920
1441.63	29903.3
1445.13	30072.3
1448.62	29962.7
1452.1	29804
1455.59	29846.7
1459.07	30156.7
1462.55	30045
1466.03	29967.3
1469.51	29821.7
1472.99	30146.3
1476.46	30027.3
1479.93	29964.3
1483.4	30034.3
1486.87	30072
1490.33	30067.3
1493.79	29820
1497.25	30014.7
1500.71	29890.7
1504.17	30266
1507.62	30415
1511.08	30452.3
1514.53	30310
1517.97	30415.3
1521.42	30432
1524.86	30469.3
1528.31	30379
1531.75	30608.7
1535.18	30557.7
1538.62	30628.7
1542.05	30605.7
1545.49	30711.3
1548.91	30881
1552.34	30692
1555.77	30859.3
1559.19	30790.7
1562.61	30922.7
1566.03	30825
1569.45	30891.7
1572.87	30942
1576.28	31018.7
1579.69	30976.7
1583.1	30923
1586.51	30822
1589.91	30994.9
1593.31	30820.3
1596.71	30822.7
1600.11	30580
1603.51	30627.7
1606.91	30368.7
1610.3	30467.3
1613.69	30287.7
1617.08	30332.7
1620.46	30099
1623.85	29929
1627.23	29762.3
1630.61	29676.3
1633.99	29651.7
1637.37	29328.5
1640.74	29203
1644.12	29230.7
1647.49	29228.3
1650.85	28944.3
1654.22	29016.7
1657.59	28981.7
1660.95	28830.3
