Measurement: Raman, 532 nm, unoriented, Raman Data RAW
Mineral: Shuiskite-(Mg)
Rruff sample: R070109
Ideal chemistry: Ca_2_MgCr^3+^_2_(SiO_4_)(Si_2_O_7_)(OH)_2_H_2_O
Locality: Sarnay, Ural, Russia
Source: Bob Jenkins
Description: Aggregates of brownish-gray fibrous prismatic crystals associated with uvarovite
Raman shift (cm-1)	intensity
124.63	1367.73
128.005	1999.14
131.379	2665.85
134.754	2154.33
138.129	1884.85
141.504	1929.91
144.879	2035.65
148.253	2249.03
151.628	2432.21
155.003	2428.05
158.378	2265.37
161.753	2349.25
165.127	2439.19
168.502	2506.4
171.877	2457.51
175.252	2253.11
178.627	2181.98
182.002	2238.76
185.376	2286.67
188.751	1906.9
192.126	1759.16
195.501	1836.14
198.876	2025.75
202.25	2276.57
205.625	2681.71
209	3251.95
212.375	3642.86
215.75	3711.2
219.125	3892.39
222.499	4114.95
225.874	4328.31
229.249	4505.83
232.624	4392.06
235.999	4276.96
239.373	3957.99
242.748	3615.61
246.123	3318.62
249.498	3031.03
252.873	2824.41
256.247	2756.2
259.622	2708.44
262.997	2732.41
266.372	2786.84
269.747	2864.34
273.122	3052.36
276.496	2923.63
279.871	2765.67
283.246	2650
286.621	2590.5
289.996	2559.05
293.37	2553.51
296.745	2701.63
300.12	2806.89
303.495	2964.86
306.87	3151.72
310.244	3294.4
313.619	3484.8
316.994	3580.38
320.369	3583.53
323.744	3560.07
327.118	3436.53
330.493	3355
333.868	3436.12
337.243	3617.66
340.618	3949.91
343.993	4421.59
347.367	4952.37
350.742	5457.81
354.117	5582.43
357.492	5359.3
360.867	5289.66
364.241	5391.25
367.616	5602.11
370.991	5506.72
374.366	5070.15
377.741	4573.31
381.115	4206.75
384.49	3815.99
387.865	3489.28
391.24	3193.59
394.615	3012.04
397.99	2925.32
401.364	2896.19
404.739	2956.7
408.114	3095.76
411.489	3293.08
414.864	3542.26
418.238	3811.25
421.613	3949.18
424.988	4040.56
428.363	3919.92
431.738	3628.07
435.113	3409.39
438.487	3246.53
441.862	3148.13
445.237	2993.89
448.612	2950.64
451.987	2916.62
455.361	2898.96
458.736	2898.19
462.111	3009.78
465.486	3113.64
468.861	3259.85
472.236	3458.29
475.61	3768.16
478.985	4195.87
482.36	4707.35
485.735	5291.06
489.11	5894.93
492.484	6054.85
495.859	5896.76
499.234	5460.18
502.609	5276.11
505.984	5425.53
509.358	5616.49
512.733	5855.53
516.108	6050.83
519.483	6234.8
522.858	6315.89
526.232	6288.15
529.607	6169.85
532.982	6068.06
536.357	5801.86
539.732	5468.42
543.107	5056.32
546.481	4578.95
549.856	4201.95
553.231	3994.45
556.606	3862.52
559.981	3786.61
563.355	3902.22
566.73	4050.33
570.105	4206
573.48	4368.31
576.855	4286.2
580.23	4229.24
583.604	4240.18
586.979	4325.79
590.354	4601.98
593.729	5024.57
597.104	5490.94
600.478	5656.17
603.853	5319.69
607.228	4488.34
610.603	3595.65
613.978	3077.35
617.352	2824.7
620.727	2772.45
624.102	2802.42
627.477	2767.83
630.852	2726.99
634.226	2713.6
637.601	2592.1
640.976	2426.78
644.351	2239.75
647.726	2073.62
651.101	1927.4
654.475	1857.75
657.85	1679.39
661.225	1638.19
664.6	1633.4
667.975	1757.67
671.349	1945.13
674.724	2166.32
678.099	2614.66
681.474	3169.17
684.849	3854.38
688.223	4664.22
691.598	5139.85
694.973	5079.63
698.348	4416.95
701.723	3322.13
705.097	2455.64
708.472	1970.32
711.847	1725.77
715.222	1607.02
718.597	1541.74
721.972	1498.79
725.346	1430.64
728.721	1424.21
732.096	1423.93
735.471	1396.16
738.846	1402.24
742.221	1368.17
745.595	1365.38
748.97	1383.52
752.345	1402.77
755.72	1422.49
759.095	1459.57
762.469	1448.31
765.844	1463.76
769.219	1478.91
772.594	1437.45
775.969	1433.14
779.343	1415.75
782.718	1439.15
786.093	1451.82
789.468	1490.82
792.843	1484.13
796.217	1589.88
799.592	1717.42
802.967	1946.96
806.342	2110.24
809.717	2283.5
813.092	2315.31
816.466	2205.76
819.841	2051.55
823.216	1927.16
826.591	1847.77
829.966	1828.82
833.341	1855.32
836.715	1909.85
840.09	2045.23
843.465	2217.09
846.84	2426.5
850.215	2670.04
853.589	2950.71
856.964	3134.48
860.339	3273.66
863.714	3350.82
867.089	3344.36
870.463	3256.54
873.838	3159.25
877.213	3082.09
880.588	2949.27
883.963	2832.79
887.337	2764.74
890.712	2675
894.087	2607.99
897.462	2536.01
900.837	2525.14
904.212	2545.6
907.586	2568.61
910.961	2585.72
914.336	2570.07
917.711	2556.3
921.086	2599.91
924.46	2610.45
927.835	2638.46
931.21	2580.82
934.585	2640.31
937.96	2615.62
941.335	2611.15
944.709	2645.11
948.084	2602.18
951.459	2604.72
954.834	2606.13
958.209	2651.13
961.583	2679.64
964.958	2802.38
968.333	2941.22
971.708	3274.4
975.083	3610.91
978.457	3911.36
981.832	4031.32
985.207	3874.93
988.582	3617.32
991.957	3351.46
995.332	3123.38
998.706	3049.8
1002.08	3091.89
1005.46	3185.06
1008.83	3297.8
1012.21	3113.7
1015.58	2866.15
1018.96	2628.55
1022.33	2328.07
1025.7	2152.23
1029.08	2030.73
1032.45	1934.99
1035.83	1824.52
1039.2	1803.42
1042.58	1778.56
1045.95	1743.33
1049.33	1697.47
1052.7	1736.49
1056.08	1690.68
1059.45	1661.11
1062.83	1669.12
1066.2	1624.28
1069.58	1559.3
1072.95	1488.32
1076.33	1388.69
1079.7	1293.04
1083.08	1232.43
1086.45	1178.77
1089.83	1136.64
1093.2	1081.75
1096.58	1039.94
1099.95	1063.21
1103.33	1048.81
1106.7	1026.99
1110.08	1079.37
1113.45	1031.35
1116.83	1007.8
1120.2	1012.1
1123.57	1001.54
1126.95	971.106
1130.32	955.108
1133.7	930.205
1137.07	930.186
1140.45	912.278
1143.82	864.264
1147.2	858.007
1150.57	845.903
1153.95	874.526
1157.32	835.951
1160.7	861.116
1164.07	867.382
1167.45	851.201
1170.82	874.79
1174.2	894.489
1177.57	851.843
1180.95	904.943
1184.32	846.147
1187.7	838.853
1191.07	849.672
1194.44	867.389
1197.82	854.895
1201.19	833.883
1204.57	857.652
1207.94	825.037
1211.32	834.549
1214.69	830.62
1218.07	837.711
1221.44	860.367
1224.82	809.623
1228.19	802.283
1231.57	814.241
1234.94	808.29
1238.32	797.041
1241.69	801.452
1245.07	775.841
1248.44	802.571
1251.82	797.063
1255.19	828.052
1258.57	799.245
1261.94	823.844
1265.32	785.759
1268.69	783.885
1272.07	779.319
1275.44	780.08
1278.82	778.145
1282.19	810.26
1285.57	782.238
1288.94	784.288
1292.32	826.149
1295.69	790.624
1299.07	796.323
1302.44	785.596
1305.81	793.879
1309.19	800.406
1312.56	791.252
