Measurement: Raman, 514 nm, unoriented, Raman Data RAW
Mineral: Siderite
Rruff sample: X050145
Ideal chemistry: Fe^2+^CO_3_
Source: Caltech
Raman shift (cm-1)	intensity
101.1	131
106	165.023
110.9	263.995
115.9	485.483
120.8	738.3
125.7	1169.8
130.6	1579.76
135.5	2062.58
140.4	2593.36
145.3	3162.05
150.2	3697.07
155.1	4021.9
160	4421.68
164.9	4775.07
169.8	5125.05
174.7	5303.84
179.7	5638.55
184.6	5835.19
189.5	6168.44
194.4	6558.88
199.3	6605.52
204.2	6460.17
209.1	6320.98
214	6287.59
218.9	6243.52
223.8	6313.7
228.7	6422.28
233.6	6492.52
238.5	6570.81
243.5	6650.81
248.4	6771.73
253.3	6923.46
258.2	7073.92
263.1	7220.41
268	7409.5
272.9	7720.3
277.8	7958.99
282.7	8626.06
287.6	9881.31
292.5	12327.4
297.4	15990.9
302.3	18749.6
307.3	18309.7
312.2	15089.8
317.1	11862.8
322	9979.56
326.9	9193.17
331.8	8689.03
336.7	8444.96
341.6	8387.58
346.5	8310.24
351.4	8305.36
356.3	8275.09
361.2	8312.8
366.1	8293.83
371	8324.13
376	8288.24
380.9	8433.79
385.8	8379.25
390.7	8439.1
395.6	8436.99
400.5	8532.5
405.4	8514.03
410.3	8477.57
415.2	8653.77
420.1	8706.5
425	8701.22
429.9	8607.84
434.8	8781.59
439.8	8861.96
444.7	8897.4
449.6	9022.75
454.5	9007.36
459.4	9097.25
464.3	9215.49
469.2	9256.22
474.1	9336.87
479	9559.01
483.9	9559
488.8	9758.79
493.7	9793.45
498.6	9885.2
503.6	9921.48
508.5	9946.27
513.4	10000.9
518.3	10097.3
523.2	10172.7
528.1	10093.3
533	10110.7
537.9	10103.1
542.8	10122.8
547.7	10097.6
552.6	10160
557.5	10237.1
562.4	10165.2
567.4	10225.5
572.3	10177.8
577.2	10088.2
582.1	10107
587	10305.4
591.9	10259.6
596.8	10194
601.7	10276.8
606.6	10356.4
611.5	10384
616.4	10432.9
621.3	10474.1
626.2	10353.9
631.2	10591.6
636.1	10545.6
641	10620.1
645.9	10678.7
650.8	10814.2
655.7	10728.7
660.6	10812.3
665.5	10754
670.4	10785.3
675.3	10756.2
680.2	10755.6
685.1	10848.4
690	10982.5
695	11043.5
699.9	11086.6
704.8	11117.5
709.7	11167.8
714.6	11172.3
719.5	11451.2
724.4	11553.5
729.3	11734.9
734.2	11783.7
739.1	12006.9
744	12053.9
748.9	12121.9
753.8	11956.9
758.8	11773.3
763.7	11694.3
768.6	11660.8
773.5	11710.2
778.4	11699.2
783.3	11742.1
788.2	11774.9
793.1	11801
798	11912.1
802.9	11883.8
807.8	11924.2
812.7	12048.8
817.6	12013.5
822.5	12168.9
827.5	11982.1
832.4	12155.5
837.3	12177.3
842.2	12305
847.1	12208.1
852	12334.1
856.9	12329.5
861.8	12351.3
866.7	12519.4
871.6	12581.8
876.5	12587.1
881.4	12680.7
886.3	12577.8
891.3	12591.1
896.2	12613.6
901.1	12515.1
906	12619.2
910.9	12623.9
915.8	12695
920.7	12638.8
925.6	12763.4
930.5	12894
935.4	12757
940.3	12984.3
945.2	12824
950.1	12904.5
955.1	13013.2
960	12985.8
964.9	13152.1
969.8	13106.5
974.7	13232.6
979.6	13343.2
984.5	13250.4
989.4	13200.6
994.3	13372
999.2	13404.7
1004.1	13407.8
1009	13520.5
1013.9	13550.7
1018.9	13687.6
1023.8	13630
1028.7	13834.8
1033.6	13971.6
1038.5	14106.5
1043.4	14345.7
1048.3	14325
1053.2	14617.6
1058.1	14766.4
1063	15265.8
1067.9	15936.8
1072.8	17147.3
1077.7	19508.4
1082.7	24809.6
1087.6	34029.8
1092.5	38342.7
1097.4	31596.7
1102.3	22222.1
1107.2	17545.6
1112.1	15876.6
1117	15269.4
1121.9	15020.7
1126.8	14884.2
1131.7	14781.7
1136.6	14764.3
1141.5	14701.3
1146.5	14822.8
1151.4	14786.5
1156.3	14840.3
1161.2	14818.8
1166.1	14932
1171	14942.2
1175.9	15075.7
1180.8	14990.9
1185.7	15048.6
1190.6	15031.4
1195.5	15164.8
1200.4	15190.3
1205.3	15217.6
1210.3	15247.9
1215.2	15300.8
1220.1	15198.7
1225	15402.1
1229.9	15394.2
1234.8	15535.4
1239.7	15525.3
1244.6	15556.5
1249.5	15817.5
1254.4	15644.2
1259.3	15685.2
1264.2	15879.3
1269.1	15827
1274.1	16050.3
1279	16054.7
1283.9	16064.4
1288.8	16169.4
1293.7	16218.7
1298.6	16369.2
1303.5	16225.4
1308.4	16392.8
1313.3	16353.3
1318.2	16376.2
1323.1	16393.7
1328	16542.6
1332.9	16459.6
1337.8	16492.4
1342.8	16706
1347.7	16580.9
1352.6	16619.8
1357.5	16733.4
1362.4	16721.3
1367.3	16780.3
1372.2	16866.6
1377.1	17026
1382	16982.5
1386.9	17014.6
1391.8	16915.4
1396.7	17317.2
1401.6	17189.9
1406.6	17299
1411.5	17460.7
1416.4	17448.2
1421.3	17597.6
1426.2	17685.3
1431.1	17854.7
1436	17921
1440.9	17984.7
1445.8	17985.1
1450.7	17993.2
1455.6	18176.5
1460.5	18142
1465.4	17901.1
1470.4	18021.5
1475.3	18134.2
1480.2	18211.6
1485.1	18156.2
1490	18102.9
1494.9	18299.3
1499.8	18277.4
1504.7	18246.4
1509.6	18480.2
1514.5	18390
1519.4	18568.2
1524.3	18490
1529.2	18713.4
1534.2	18627.7
1539.1	18700.3
1544	18805.3
1548.9	18743.2
1553.8	18998.7
1558.7	18936.6
1563.6	18896.6
1568.5	19006.3
1573.4	19082.9
1578.3	19290.5
1583.2	19241.8
1588.1	19402
1593	19400.2
1598	19542.2
1602.9	19518
1607.8	19535.8
1612.7	19461.2
1617.6	19430.4
1622.5	19539.6
1627.4	19578.2
1632.3	19675.3
1637.2	19672.8
1642.1	19721.5
1647	19767.4
1651.9	19750.9
1656.8	19851.6
1661.8	19859.1
1666.7	20005.1
1671.6	20172.3
1676.5	20021
1681.4	20174.8
1686.3	20309.9
1691.2	20501.6
1696.1	20404
1701	20341.4
1705.9	20545
1710.8	20581.2
1715.7	20905.8
1720.6	21025.4
1725.6	21527.4
1730.5	21873.6
1735.4	22233.8
1740.3	22042.2
1745.2	22170.2
1750.1	22054.8
1755	21505.1
1759.9	21288.1
1764.8	21286.3
1769.7	21317.1
1774.6	21231.3
1779.5	21207.6
1784.4	21339.7
1789.4	21279.8
1794.3	21288.7
1799.2	21391.5
1804.1	21679.6
1809	21597.3
1813.9	21481.6
1818.8	21558.8
1823.7	21583.9
1828.6	21781.2
1833.5	21899
1838.4	21722.5
1843.3	21750.4
1848.2	21766.9
1853.1	21973.3
1858.1	21912.3
1863	22059.7
1867.9	21942.2
1872.8	21953.8
1877.7	22107.7
1882.6	22135.3
1887.5	22131.9
1892.4	22091.9
1897.3	22161.6
1902.2	22362.1
1907.1	22214.1
1912	22261.7
1916.9	22401.8
1921.9	22461.2
1926.8	22357.1
1931.7	22460.5
1936.6	22483.9
1941.5	22525.6
1946.4	22521.4
1951.3	22499.7
1956.2	22673.7
1961.1	22728.8
1966	22563.2
1970.9	22740.3
1975.8	22622.6
1980.7	22757.6
1985.7	22763.3
1990.6	22797.4
1995.5	22732
2000.4	22848.5
