Measurement: Raman, 780 nm, unoriented, Raman Data RAW
Mineral: Silver
Rruff sample: R070754
Ideal chemistry: Ag
Locality: Capitol Mine, Haultain Township, Miller Lake area, Cobalt-Gowganda region, Timiskaming District, Ontario, Canada
Source: Michael Scott
Description: Metallic silver grains
Raman shift (cm-1)	intensity
87.9606	13753.1
91.3354	16913.1
94.7103	13012.3
98.0851	7990.68
101.46	5456.71
104.835	5544.4
108.21	5135.89
111.584	4611.24
114.959	3966.53
118.334	3128.6
121.709	3205.86
125.084	3110.52
128.458	3175.47
131.833	2805.7
135.208	2267.94
138.583	2203.89
141.958	2026.71
145.333	1838.99
148.707	1694.47
152.082	1565.23
155.457	1544.21
158.832	1441.95
162.207	1376.17
165.581	1288.14
168.956	1306.34
172.331	1283.47
175.706	1252.8
179.081	1231.29
182.456	1166.95
185.83	1134.32
189.205	1128.91
192.58	1049.01
195.955	1079.07
199.33	1004
202.704	992.014
206.079	963.274
209.454	966.56
212.829	917.005
216.204	914.091
219.578	866.688
222.953	868.153
226.328	861.685
229.703	850.56
233.078	845.829
236.453	828.067
239.827	798.35
243.202	795.458
246.577	775.228
249.952	781.192
253.327	734.835
256.701	729.934
260.076	706.502
263.451	719.903
266.826	692.107
270.201	680.209
273.575	666.099
276.95	698.408
280.325	682.845
283.7	646.315
287.075	688.603
290.45	648.883
293.824	633.068
297.199	661.684
300.574	632.833
303.949	655.281
307.324	626.049
310.699	620.463
314.073	625.834
317.448	593.185
320.823	591.072
324.198	590.898
327.573	607.657
330.947	601.307
334.322	592.282
337.697	597.885
341.072	590.412
344.447	573.057
347.822	567.032
351.196	583.663
354.571	580.264
357.946	542.364
361.321	556.328
364.696	529.195
368.07	551.326
371.445	554.377
374.82	554.802
378.195	557.96
381.57	549.813
384.945	541.135
388.319	585.986
391.694	557.992
395.069	517.942
398.444	534.968
401.819	525.262
405.193	521.184
408.568	539.619
411.943	513.52
415.318	543.356
418.693	541.948
422.067	532.751
425.442	526.346
428.817	523.537
432.192	537.049
435.567	509.796
438.942	529.8
442.316	532.528
445.691	500.894
449.066	558.345
452.441	531.391
455.816	533.983
459.19	524.076
462.565	500.657
465.94	541.094
469.315	546.54
472.69	527.722
476.065	533.367
479.439	523.015
482.814	542.431
486.189	541.878
489.564	524.856
492.939	530.14
496.313	535.927
499.688	530.315
503.063	516.575
506.438	538.794
509.813	525.484
513.188	548.32
516.562	548.937
519.937	513.225
523.312	520.438
526.687	538.23
530.062	516.245
533.436	514.786
536.811	517.918
540.186	541.284
543.561	576.195
546.936	586.239
550.311	645.86
553.685	667.437
557.06	587.754
560.435	573.696
563.81	522.439
567.185	528.716
570.559	523.414
573.934	521.123
577.309	513.073
580.684	503.025
584.059	491.222
587.433	517.423
590.808	519.852
594.183	498.11
597.558	518.048
600.933	504.04
604.308	502.661
607.682	504.423
611.057	528.786
614.432	502.983
617.807	571.939
621.182	491.369
624.557	502.404
627.931	498.22
631.306	509.555
634.681	516.575
638.056	520.898
641.431	512.797
644.805	501.515
648.18	503.063
651.555	509.58
654.93	541.736
658.305	508.154
661.679	518.069
665.054	522.52
668.429	530.975
671.804	505.18
675.179	521.422
678.553	523.116
681.928	538.066
685.303	515.506
688.678	518.013
692.053	521.968
695.428	520.347
698.802	509.961
702.177	529.716
705.552	526.165
708.927	505.028
712.302	507.621
715.677	520.415
719.051	519.172
722.426	529.115
725.801	520.897
729.176	526.004
732.551	522.04
735.925	505.556
739.3	522.445
742.675	536.339
746.05	528.179
749.425	527.413
752.799	539.879
756.174	529.637
759.549	532.642
762.924	508.305
766.299	529.31
769.674	532.887
773.048	525.381
776.423	516.113
779.798	502.236
783.173	544.528
786.548	527.919
789.923	532.774
793.297	534.214
796.672	525.443
800.047	510.975
803.422	522.895
806.797	527.311
810.171	532.522
813.546	528.862
816.921	518.556
820.296	524.576
823.671	528.635
827.045	535.119
830.42	537.06
833.795	536.288
837.17	551.312
840.545	519.523
843.919	529.657
847.294	536.015
850.669	547.108
854.044	546.114
857.419	543.384
860.794	557.903
864.168	538.741
867.543	545.98
870.918	559.237
874.293	531.67
877.668	526.931
881.043	549.431
884.417	562.97
887.792	571.68
891.167	537.243
894.542	548.522
897.917	534.899
901.291	533.192
904.666	562.585
908.041	532.856
911.416	545.12
914.791	560.221
918.165	564.488
921.54	563.488
924.915	555.287
928.29	556.924
931.665	562.81
935.04	580.41
938.414	568.36
941.789	557.12
945.164	545.903
948.539	564.311
951.914	562.79
955.288	568.724
958.663	579.282
962.038	570.617
965.413	567.36
968.788	552.569
972.163	575.124
975.537	553.208
978.912	582.402
982.287	561.757
985.662	597.701
989.037	580.505
992.411	587.997
995.786	575.075
999.161	585.748
1002.54	582.286
1005.91	604.206
1009.29	584.055
1012.66	593.625
1016.03	592.033
1019.41	591.081
1022.78	613.132
1026.16	591.405
1029.53	585.262
1032.91	598.215
1036.28	612.622
1039.66	588.592
1043.03	615.6
1046.41	607.125
1049.78	596.569
1053.16	626.198
1056.53	626.595
1059.91	609.01
1063.28	585.745
1066.66	620.689
1070.03	612.817
1073.41	627.643
1076.78	604.59
1080.16	622.087
1083.53	603.103
1086.91	608.646
1090.28	613.607
1093.66	611.081
1097.03	591.854
1100.41	614.728
1103.78	593.95
1107.15	634.319
1110.53	620.234
1113.9	607.292
1117.28	618.587
1120.65	618.728
1124.03	603.82
1127.4	618.549
1130.78	611.45
1134.15	632.393
1137.53	631.916
1140.9	617.032
1144.28	644.503
1147.65	622.105
1151.03	644.493
1154.4	641.864
1157.78	624.386
1161.15	632.126
1164.53	641.632
1167.9	612.718
1171.28	642.244
1174.65	652.294
1178.03	632.757
1181.4	638.978
1184.78	627.595
1188.15	645.413
1191.53	638.102
1194.9	642.748
1198.28	653.803
1201.65	627.687
1205.03	640.71
1208.4	656.335
1211.78	672.242
1215.15	660.118
1218.52	663.139
1221.9	677.78
1225.27	648.154
1228.65	656.273
1232.02	652.813
1235.4	676.12
1238.77	666.841
1242.15	657.595
1245.52	692.251
1248.9	675.744
1252.27	661.409
1255.65	673.663
1259.02	688.902
1262.4	666.749
1265.77	673.684
1269.15	677.229
1272.52	702.024
1275.9	700.834
1279.27	688.287
1282.65	681.27
1286.02	692.257
