Measurement: Raman, 785 nm, unoriented, Raman Data RAW
Mineral: Silver
Rruff sample: R070416
Ideal chemistry: Ag
Locality: Frontier mine, South Lorrain, Timiskaming District, Ontario, Canada
Source: Royal Ontario Museum
Description: Silver-white metallic wires with grey to bronze colored tarnished surface
Measured chemistry: Ag
Raman shift (cm-1)	intensity
97.8778	131.988
100.77	139.867
103.663	170.84
106.556	218.405
109.449	335.166
112.341	474.717
115.234	682.222
118.127	950.56
121.019	1274.34
123.912	1778.48
126.805	2748.97
129.697	3712.84
132.59	4666.33
135.483	4314.73
138.376	3308.34
141.268	2848.48
144.161	3395.89
147.054	4120.95
149.946	4206.28
152.839	3519.9
155.732	2680.77
158.625	2258.34
161.517	2249.05
164.41	2044.35
167.303	1700.04
170.195	1518.95
173.088	1310.15
175.981	1168.99
178.873	1037.32
181.766	995.25
184.659	984.563
187.552	895.912
190.444	817.537
193.337	760.005
196.23	750.393
199.122	643.092
202.015	625.075
204.908	604.237
207.8	571.982
210.693	540.126
213.586	492.009
216.478	486.519
219.371	458.555
222.264	443.649
225.157	399.46
228.049	376.959
230.942	348.255
233.835	342.854
236.727	337.593
239.62	334.701
242.513	330.784
245.405	313.26
248.298	327.283
251.191	326.95
254.084	333.116
256.976	297.961
259.869	284.295
262.762	286.177
265.654	271.102
268.547	272.834
271.44	267.795
274.332	260.151
277.225	258.494
280.118	239.869
283.011	243.281
285.903	228.705
288.796	228.68
291.689	225.662
294.581	214.518
297.474	218.128
300.367	225.354
303.26	228.874
306.152	230.74
309.045	223.057
311.938	222.415
314.83	213.504
317.723	210.839
320.616	203.361
323.508	203.999
326.401	199.52
329.294	198.894
332.187	192.87
335.079	201.658
337.972	204.271
340.865	197.854
343.757	199.673
346.65	201.297
349.543	186.811
352.435	186.427
355.328	182.184
358.221	175.51
361.113	160.292
364.006	164.794
366.899	175.479
369.792	173.927
372.684	169.27
375.577	173.061
378.47	176.42
381.362	173.081
384.255	165.167
387.148	162.185
390.041	161.618
392.933	157.811
395.826	156.596
398.719	151.273
401.611	147.278
404.504	153.159
407.397	151.077
410.289	155.329
413.182	142.002
416.075	152.228
418.967	152.613
421.86	146.509
424.753	145.735
427.646	135.947
430.538	136.294
433.431	132.412
436.324	134.289
439.216	129.013
442.109	129.492
445.002	133.982
447.894	139.472
450.787	140.529
453.68	141.849
456.573	134.258
459.465	136.163
462.358	125.794
465.251	141.807
468.143	124.516
471.036	128.844
473.929	125.066
476.822	116.768
479.714	119.468
482.607	124.761
485.5	124.696
488.392	116.907
491.285	131.029
494.178	130.356
497.07	128.21
499.963	124.563
502.856	117.79
505.748	124.18
508.641	119.801
511.534	116.741
514.427	123.097
517.319	112.44
520.212	115.76
523.105	114.355
525.997	116.998
528.89	119.396
531.783	122.201
534.676	110.109
537.568	118.668
540.461	108.151
543.354	121.243
546.246	116.765
549.139	115.531
552.032	109.467
554.924	116.614
557.817	118.509
560.71	111.765
563.602	122.012
566.495	117.116
569.388	108.57
572.281	116.456
575.173	111.181
578.066	106.621
580.959	118.728
583.851	110.72
586.744	118.774
589.637	112.601
592.529	117.69
595.422	110.886
598.315	104.945
601.208	112.922
604.1	115.412
606.993	105.07
609.886	114.301
612.778	101.844
615.671	117.947
618.564	112.49
621.457	110.473
624.349	108.112
627.242	109.827
630.135	104.615
633.027	102.045
635.92	108.009
638.813	105.043
641.705	102.296
644.598	112.26
647.491	104.845
650.384	112.761
653.276	105.114
656.169	109.028
659.062	112.173
661.954	115.053
664.847	113.466
667.74	111.357
670.632	112.848
673.525	102.573
676.418	107.472
679.311	112.344
682.203	108.724
685.096	92.3716
687.989	111.817
690.881	110.17
693.774	105.633
696.667	111.912
699.559	110.18
702.452	110.443
705.345	113.893
708.237	110.594
711.13	108.716
714.023	108.91
716.916	114.268
719.808	110.326
722.701	110.729
725.594	104.16
728.486	107.641
731.379	117.89
734.272	117.08
737.164	114.252
740.057	111.544
742.95	109.933
745.843	115.632
748.735	114.157
751.628	115.796
754.521	115.075
757.413	118.245
760.306	111.126
763.199	113.743
766.091	112.823
768.984	110.621
771.877	110.645
774.77	104.096
777.662	114.521
780.555	119.583
783.448	107.108
786.34	116.07
789.233	109.379
792.126	109.029
795.019	104.226
797.911	106.06
800.804	108.957
803.697	104.453
806.589	103.668
809.482	111.45
812.375	106.587
815.267	116.396
818.16	114.402
821.053	115
823.946	109.114
826.838	105.391
829.731	108.374
832.624	106.262
835.516	116.763
838.409	104.634
841.302	112.162
844.194	106.564
847.087	114.933
849.98	115.158
852.872	117.749
855.765	113.665
858.658	112.464
861.551	109.426
864.443	115.385
867.336	121.093
870.229	106.701
873.121	109.325
876.014	112.498
878.907	110.361
881.799	115.243
884.692	103.81
887.585	123.79
890.478	106.262
893.37	105.517
896.263	106.533
899.156	110.172
902.048	113.782
904.941	106.883
907.834	111.926
910.726	111.16
913.619	107.766
916.512	111.866
919.405	119.801
922.297	107.928
925.19	109.668
928.083	111.898
930.975	110.604
933.868	116.409
936.761	117.102
939.654	117.19
942.546	114.057
945.439	115.058
948.332	113.268
951.224	113.835
954.117	111.674
957.01	120.09
959.902	107.73
962.795	109.091
965.688	117.905
968.581	111.016
971.473	101.88
974.366	113.355
977.259	111.49
980.151	116.304
983.044	112.922
985.937	109.353
988.829	117.303
991.722	118.324
994.615	111.668
997.508	120.506
1000.4	111.761
1003.29	105.987
1006.19	123.863
1009.08	120.574
1011.97	119.418
1014.86	119.165
1017.76	126.665
1020.65	130.642
1023.54	115.723
1026.43	134.133
1029.33	121.395
1032.22	113.027
1035.11	115.135
1038.01	119.644
1040.9	121.892
1043.79	122.274
1046.68	124.525
1049.58	127.444
1052.47	124.711
1055.36	118.672
1058.25	122.438
1061.15	117.269
1064.04	121.582
1066.93	128.37
1069.83	123.641
1072.72	130.877
1075.61	122.518
1078.5	122.139
1081.4	123.006
1084.29	121.716
1087.18	125.604
1090.07	125.392
1092.97	113.029
1095.86	121.231
1098.75	126.994
1101.64	122.649
1104.54	123.752
1107.43	113.822
1110.32	123.79
1113.21	123.534
1116.11	121.686
1119	122.51
1121.89	133.425
1124.79	130.453
1127.68	111.198
1130.57	118.033
1133.46	119.686
1136.36	125.26
1139.25	122.131
1142.14	123.174
1145.04	126.939
1147.93	115.809
1150.82	129.823
1153.71	129.475
1156.61	123.03
1159.5	117.998
1162.39	127.805
1165.28	129.144
1168.18	124.649
1171.07	134.151
1173.96	126.44
1176.86	128.04
1179.75	127.162
1182.64	127.033
1185.53	127.221
1188.43	125.369
1191.32	134.245
1194.21	125.233
1197.1	123.078
1200	135.233
1202.89	129.409
1205.78	131.001
1208.67	125.934
1211.57	119.888
1214.46	128.251
1217.35	125.361
1220.24	122.171
1223.14	134.449
1226.03	132.96
1228.92	127.912
1231.82	134.724
