Measurement: Raman, 532 nm, unoriented, Raman Data RAW
Mineral: Silver
Rruff sample: R070754
Ideal chemistry: Ag
Locality: Capitol Mine, Haultain Township, Miller Lake area, Cobalt-Gowganda region, Timiskaming District, Ontario, Canada
Source: Michael Scott
Description: Metallic silver grains
Raman shift (cm-1)	intensity
80.1426	1043.95
83.5174	1002.44
86.8922	954.405
90.267	903.067
93.6418	879.172
97.0166	843.058
100.391	821.121
103.766	900.614
107.141	923.214
110.516	1044.9
113.891	1285.3
117.266	1548.02
120.64	1626.34
124.015	1736.69
127.39	1634.92
130.765	1678.44
134.14	1524.34
137.514	1751.97
140.889	1579.9
144.264	1425.47
147.639	1455.31
151.014	1385.25
154.388	1461.51
157.763	1321.6
161.138	1302.83
164.513	1193.42
167.888	1228.84
171.263	1140.45
174.637	1133.45
178.012	1079.36
181.387	1090.03
184.762	1126.18
188.137	1038.26
191.512	1025.03
194.886	1052.28
198.261	1009.67
201.636	997.694
205.011	956.781
208.386	970.29
211.76	944.636
215.135	922.665
218.51	895.761
221.885	916.757
225.26	905.188
228.635	858.78
232.009	904.176
235.384	929.239
238.759	849.219
242.134	865.541
245.508	807.723
248.883	841.951
252.258	818.24
255.633	845.251
259.008	778.388
262.383	821.347
265.757	785.047
269.132	802.647
272.507	833.683
275.882	783.418
279.257	803.487
282.632	813.44
286.006	796.54
289.381	783.865
292.756	761.766
296.131	772.242
299.506	760.642
302.88	769.275
306.255	749.191
309.63	764.037
313.005	750.977
316.38	790.662
319.755	788.379
323.129	724.854
326.504	703.104
329.879	773.941
333.254	730.87
336.629	749.656
340.003	764.39
343.378	740.194
346.753	774.56
350.128	766.67
353.503	795.514
356.877	764.284
360.252	736.379
363.627	713.51
367.002	754.176
370.377	737.95
373.752	699.132
377.126	732.699
380.501	706.309
383.876	733.108
387.251	698.544
390.626	696.589
394	731.199
397.375	662.615
400.75	709.494
404.125	687.031
407.5	655.891
410.875	706.063
414.249	790.042
417.624	795.414
420.999	711.528
424.374	676.707
427.749	726.736
431.123	678.277
434.498	668.365
437.873	732.471
441.248	692.633
444.623	686.108
447.998	676.823
451.372	700.37
454.747	676.969
458.122	660.079
461.497	710.166
464.872	707.817
468.246	704.579
471.621	710.893
474.996	691.228
478.371	712.374
481.746	701.494
485.12	708.606
488.495	674.737
491.87	678.532
495.245	697.233
498.62	669.364
501.995	658.089
505.369	663.268
508.744	657.48
512.119	666.927
515.494	694.573
518.869	635.318
522.243	693.634
525.618	641.388
528.993	661.051
532.368	658.293
535.743	659.843
539.117	686.574
542.492	672.014
545.867	672.638
549.242	649.586
552.617	610.925
555.992	636.91
559.366	655.247
562.741	650.305
566.116	660.891
569.491	661.414
572.866	634.012
576.24	651.439
579.615	606.639
582.99	669.638
586.365	618.111
589.74	646.003
593.115	635.486
596.489	642.699
599.864	641.167
603.239	614.115
606.614	633.939
609.989	612.508
613.364	650.646
616.738	645.654
620.113	681.052
623.488	675.6
626.863	634.46
630.237	637.521
633.612	624.239
636.987	635.354
640.362	641.369
643.737	622.159
647.112	622.739
650.486	642.227
653.861	636.02
657.236	629.422
660.611	631.397
663.986	637.366
667.361	623.58
670.735	591.305
674.11	601.132
677.485	633.608
680.86	668.956
684.235	612.532
687.609	649.661
690.984	629.971
694.359	605.553
697.734	631.042
701.109	628.992
704.484	623.082
707.858	625.119
711.233	629.948
714.608	634.043
717.983	640.026
721.357	663.578
724.732	638.347
728.107	623.437
731.482	671.196
734.857	623.121
738.232	634.522
741.606	623.658
744.981	617.781
748.356	666.509
751.731	632.721
755.106	607.074
758.481	606.826
761.855	617.217
765.23	595.605
768.605	616.314
771.98	577.386
775.355	599.596
778.729	590.081
782.104	604.73
785.479	584.251
788.854	595.302
792.229	576.146
795.604	564.159
798.978	569.602
802.353	586.228
805.728	590.236
809.103	604.919
812.478	565.709
815.852	558.864
819.227	574.529
822.602	572.714
825.977	579.348
829.352	593.678
832.726	580.007
836.101	586.803
839.476	598.717
842.851	597.727
846.226	551.039
849.601	614.731
852.975	594.83
856.35	591.128
859.725	611.946
863.1	594.036
866.475	610.942
869.849	593.073
873.224	593.134
876.599	562.01
879.974	583.763
883.349	552.99
886.723	600.836
890.098	614.616
893.473	617.666
896.848	610.135
900.223	563.887
903.598	599.937
906.972	608.69
910.347	571.151
913.722	598.731
917.097	597.277
920.472	639.673
923.846	614.228
927.221	640.91
930.596	601.596
933.971	574.326
937.346	642.133
940.721	607.747
944.095	619.082
947.47	623.141
950.845	623.874
954.22	620.602
957.595	663.913
960.97	625.837
964.344	617.363
967.719	631.784
971.094	662.737
974.469	659.369
977.844	647.719
981.218	647.396
984.593	664.878
987.968	640.234
991.343	681.972
994.718	666.361
998.092	670.777
1001.47	679.166
1004.84	714.817
1008.22	701.337
1011.59	700.148
1014.97	662.107
1018.34	721.116
1021.72	695.635
1025.09	685.142
1028.47	725.523
1031.84	706.236
1035.21	739.691
1038.59	730.629
1041.96	760.031
1045.34	696.735
1048.71	732.972
1052.09	685.435
1055.46	713.054
1058.84	721.028
1062.21	694.944
1065.59	679.345
1068.96	682.764
1072.34	746.587
1075.71	731.983
1079.09	697.699
1082.46	700.753
1085.84	671.874
1089.21	686.641
1092.59	668.474
1095.96	703.98
1099.34	712.135
1102.71	712.719
1106.09	682.178
1109.46	662.894
1112.84	672.852
1116.21	679.733
1119.59	638.774
1122.96	683.97
1126.34	649.891
1129.71	656.02
1133.09	638.633
1136.46	646.029
1139.84	625.49
1143.21	659.164
1146.58	634.607
1149.96	618.03
1153.33	642.736
1156.71	627.717
1160.08	635.728
1163.46	665.765
1166.83	641.499
1170.21	633.054
1173.58	653.181
1176.96	638.821
1180.33	647.113
1183.71	636.096
1187.08	656.391
1190.46	658.367
1193.83	628.548
1197.21	643.969
1200.58	632.766
1203.96	647.223
1207.33	679.678
1210.71	637.896
1214.08	664.327
1217.45	645.206
1220.83	647.022
1224.2	642.931
1227.58	683.009
1230.95	654.334
1234.33	694.558
1237.7	665.343
1241.08	680.456
1244.45	670.277
1247.83	675.534
1251.2	646.143
1254.58	675.532
1257.95	669.369
1261.33	643.865
1264.7	676.636
1268.08	638.667
1271.45	665.093
1274.83	670.673
1278.2	691.106
1281.58	673.261
1284.95	691.454
1288.33	710.971
1291.7	702.2
1295.08	702.444
1298.45	697.068
