Measurement: Raman, 514 nm, unoriented, Raman Data RAW
Mineral: Sodalite
Rruff sample: X050146
Ideal chemistry: Na_4_Si_3_Al_3_O_12_Cl
Locality: Canada
Source: G.R. Rossman
Raman shift (cm-1)	intensity
101.1	18
106.2	20.8981
111.2	25.8063
116.2	26.1508
121.2	31.1132
126.2	22.1388
131.3	57.4451
136.3	81.5252
141.3	139.435
146.3	217.194
151.4	303.437
156.4	515.816
161.4	925.988
166.4	1413.01
171.5	1551.49
176.5	1189.38
181.5	1034.45
186.5	948.432
191.5	887.449
196.6	820.448
201.6	849.497
206.6	860.742
211.6	903.085
216.7	969.004
221.7	1014.95
226.7	1159.26
231.7	1261.22
236.7	1394.26
241.8	1472.51
246.8	1677.82
251.8	2135.28
256.8	2937.39
261.9	3851.9
266.9	4237.36
271.9	3693.78
276.9	2822.4
281.9	2381.58
287	2383.04
292	2796.27
297	3139.41
302	2818.59
307.1	2144.42
312.1	2001.75
317.1	2011.34
322.1	2074.93
327.1	2062.87
332.2	2099.98
337.2	2157.08
342.2	2071.87
347.2	2089.78
352.3	1992.05
357.3	1999.36
362.3	1915.32
367.3	1913.51
372.3	1896.56
377.4	1873.3
382.4	1751
387.4	1710.1
392.4	1700.22
397.5	1700.51
402.5	1782.84
407.5	1941.56
412.5	2085.9
417.5	1977.55
422.6	1824.99
427.6	1885.95
432.6	1984.52
437.6	2160
442.7	2514.67
447.7	3218.45
452.7	5076.04
457.7	9441.65
462.7	15103.3
467.8	17595.4
472.8	11702.4
477.8	5673.71
482.8	3562.93
487.9	2776.87
492.9	2452.49
497.9	2215.58
502.9	1976.03
507.9	1621.93
513	1466.41
518	1385.34
523	1363.31
528	1277.41
533.1	1223.79
538.1	1210.65
543.1	1184.98
548.1	1161.57
553.1	1095.75
558.2	1101.62
563.2	1056.81
568.2	1037.17
573.2	1025.91
578.3	1006.48
583.3	1035.91
588.3	1040.9
593.3	1029.99
598.3	1066.16
603.4	1086.38
608.4	1137.71
613.4	1126.09
618.4	1075.65
623.5	1090.76
628.5	1080.5
633.5	1114.61
638.5	1120.59
643.5	1152.12
648.6	1145.69
653.6	1227.21
658.6	1227.61
663.6	1277.32
668.7	1328.17
673.7	1334.41
678.7	1343.31
683.7	1355.16
688.7	1318.12
693.8	1323.81
698.8	1370.36
703.8	1359.23
708.8	1361.81
713.9	1386.9
718.9	1406.61
723.9	1388.71
728.9	1364.72
733.9	1425.21
739	1431.57
744	1411.91
749	1365.53
754	1255.98
759.1	1209.84
764.1	1201.43
769.1	1164.39
774.1	1175.83
779.1	1133.77
784.2	1162
789.2	1137.01
794.2	1144.56
799.2	1121.13
804.3	1126.1
809.3	1059.34
814.3	1101
819.3	1064.07
824.3	1114.71
829.4	1074.02
834.4	1070.21
839.4	1068.86
844.4	1056.53
849.5	1087.16
854.5	1037.47
859.5	1084.2
864.5	1092.97
869.6	1115.71
874.6	1104.99
879.6	1101.09
884.6	1092.21
889.6	1039.9
894.7	1041.21
899.7	1039.46
904.7	1057.63
909.7	1051.63
914.8	1021.29
919.8	1041.91
924.8	1082.87
929.8	1092.07
934.8	1105.05
939.9	1155.67
944.9	1210.13
949.9	1234.59
954.9	1317.18
960	1508.25
965	1715.77
970	1987.64
975	2255.52
980	3448.12
985.1	5288.11
990.1	6270.65
995.1	3676.14
1000.1	2002.95
1005.2	1654
1010.2	1642.27
1015.2	1631
1020.2	1516.54
1025.2	1392.46
1030.3	1353.31
1035.3	1436.07
1040.3	1475.54
1045.3	1687.02
1050.4	2100.58
1055.4	2898.59
1060.4	3639.44
1065.4	3756.55
1070.4	3181.6
1075.5	2486.36
1080.5	2044.24
1085.5	1766.57
1090.5	1727.49
1095.6	1618.39
1100.6	1540.52
1105.6	1518.35
1110.6	1445.19
1115.6	1454.56
1120.7	1433.24
1125.7	1424.45
1130.7	1408.87
1135.7	1418.12
1140.8	1383.2
1145.8	1405.44
1150.8	1404.43
1155.8	1384.02
1160.8	1393.6
1165.9	1354.36
1170.9	1369.7
1175.9	1315.79
1180.9	1343.1
1186	1286.27
1191	1310.79
1196	1265.62
1201	1283.45
1206	1286.28
1211.1	1246.11
1216.1	1267.56
1221.1	1239.46
1226.1	1243.14
1231.2	1199.38
1236.2	1200.03
1241.2	1214.72
1246.2	1197.76
1251.2	1187.99
1256.3	1212.43
1261.3	1190.52
1266.3	1191.89
1271.3	1213.9
1276.4	1208.42
1281.4	1201.03
1286.4	1209.08
1291.4	1198.57
1296.4	1190.83
1301.5	1198.6
1306.5	1215.76
1311.5	1240.41
1316.5	1235.9
1321.6	1205.74
1326.6	1245.75
1331.6	1309.19
1336.6	1352.07
1341.6	1309.48
1346.7	1335.6
1351.7	1292.72
1356.7	1327.71
1361.7	1341.5
1366.8	1375.96
1371.8	1406.5
1376.8	1398.87
1381.8	1445.47
1386.8	1421.82
1391.9	1432.57
1396.9	1458.12
1401.9	1497.96
1406.9	1474.27
1412	1499.22
1417	1503.11
1422	1514.54
1427	1502.59
1432	1472.43
1437.1	1479.96
1442.1	1544.11
1447.1	1494.97
1452.1	1507.67
1457.2	1512.9
1462.2	1500.31
1467.2	1480.17
1472.2	1506.4
1477.2	1455.21
1482.3	1506.87
1487.3	1471.55
1492.3	1467.09
1497.3	1453.01
1502.4	1461.58
1507.4	1456.94
1512.4	1481.48
1517.4	1468.8
1522.4	1412.21
1527.5	1422.96
1532.5	1414.72
1537.5	1428.39
1542.5	1387.9
1547.6	1417.01
1552.6	1424.63
1557.6	1435.78
1562.6	1427.32
1567.7	1440.79
1572.7	1447.93
1577.7	1397.8
1582.7	1426.55
1587.7	1386.88
1592.8	1421.21
1597.8	1408.16
1602.8	1411
