Measurement: Raman, 514 nm, unoriented, Raman Data RAW
Mineral: Sphalerite
Rruff sample: X050151
Ideal chemistry: Zn^2+^S^2-^
Source: 1460-1a
Raman shift (cm-1)	intensity
101.1	104
106.2	136.907
111.2	204.155
116.3	377.192
121.3	670.564
126.4	1136.27
131.4	1756.22
136.5	2779.39
141.5	4370.95
146.6	5929.53
151.6	7016.86
156.7	8023.4
161.7	9117.19
166.8	10344.3
171.8	11712.3
176.9	13413.8
181.9	13869.5
187	12965.6
192	11764.9
197.1	11470.8
202.1	11415.2
207.2	12201.3
212.3	14765.4
217.3	17754
222.4	17940.6
227.4	15326.2
232.5	12750.7
237.5	11246.6
242.6	9180.86
247.6	6783.06
252.7	5266.65
257.7	4861.58
262.8	5391.04
267.8	7436.99
272.9	10133
277.9	10987.3
283	9311.24
288	7198.8
293.1	6380.09
298.1	6431.98
303.2	6426.66
308.2	5666.77
313.3	4597.73
318.3	3727.81
323.4	3471.04
328.4	4116.05
333.5	5136.08
341.1	6825.89
346.1	12896
351.2	18652.9
356.2	16596.2
361.3	10890.3
366.3	9060.83
371.4	9413.41
376.4	9882.9
381.5	10223.6
386.5	10787
391.6	11567.7
396.6	12541.2
401.7	12441.2
406.7	11599.4
411.8	10719.6
416.8	11348
421.9	12358.5
426.9	12108.2
432	10584.7
437	8909.28
442.1	7978.13
447.1	7813.46
452.2	7367.14
457.2	5564.14
462.3	3481.66
467.3	2398.95
472.4	2197.82
477.4	2227.22
482.5	2204.5
487.5	2284.02
492.6	2279.82
497.6	2294.94
502.7	2359.52
507.7	2471.79
512.8	2679.18
517.8	2868.89
522.9	2837.51
527.9	2623.37
533	2197.49
538	1983
543.1	1927.68
548.1	1871.46
553.2	1871.96
558.2	1981.41
563.3	2047.28
568.3	2107.28
573.4	2237.48
578.4	2399.46
583.5	2493.91
588.5	2735.11
593.6	3063.08
598.6	3577.25
603.7	4438.14
608.8	5421.05
613.8	6244.65
618.9	6103.52
623.9	4975.94
629	4264.7
634	5090.95
639.1	6321.9
644.1	6153.3
649.2	4530.32
654.2	3623.61
659.3	4596.54
664.3	7420.71
669.4	10496.1
674.4	11017.3
679.5	9048.1
684.5	7282.58
689.6	6371.5
694.6	5454.3
699.7	4325.85
704.7	3147.54
709.8	2443.6
714.8	2154.02
719.9	2036.22
724.9	1885.95
730	1808.66
735	1784.76
740.1	1749.73
745.1	1713.49
750.2	1707.87
755.2	1685.11
760.3	1711.97
765.3	1719.69
770.4	1684.77
775.4	1656.46
780.5	1716.08
785.5	1665.42
790.6	1678.02
795.6	1681.16
800.7	1677.76
805.7	1673.56
810.8	1682.8
815.8	1690.36
820.9	1658.51
825.9	1677.56
831	1692.65
836	1652
841.1	1689.83
846.1	1703.32
851.2	1671.15
856.2	1671.72
861.3	1686.33
866.4	1661.2
871.4	1672.18
876.5	1699.45
881.5	1702.05
886.6	1744.54
891.6	1711.99
896.7	1740.13
901.7	1780.46
906.8	1788.64
911.8	1770.26
916.9	1818.65
921.9	1833.6
927	1904.32
932	1851.18
937.1	1851.1
942.1	1871.86
947.2	1870.39
952.2	1847.93
957.3	1845.17
962.3	1893.02
967.4	1855.43
972.4	1810.08
977.5	1908.44
982.5	1923.95
987.6	1897.09
992.6	1895.29
997.7	1917.56
1002.7	1910.6
1007.8	1950.16
1012.8	1951.83
1017.9	1957.03
1022.9	1957.57
1028	1943.03
1033	2026.14
1038.1	1979.6
1043.1	1983.83
1048.2	2037.11
1053.2	2017.06
1058.3	1997.37
1063.3	2018.47
1068.4	2103.54
1073.4	2097.45
1078.5	2113.93
1083.5	2090.74
1088.6	2141.69
1093.6	2162.65
1098.7	2200.84
1103.7	2182.88
1108.8	2200.43
1113.8	2202.35
1118.9	2246.12
1123.9	2237.43
1129	2254.33
1134.1	2276.2
1139.1	2289.73
1144.2	2301.75
1149.2	2326.38
1154.3	2341.22
1159.3	2367.97
1164.4	2347.59
1169.4	2367.54
1174.5	2447.79
1179.5	2411.21
1184.6	2455.49
1189.6	2430.51
1194.7	2488.6
1199.7	2511.14
1204.8	2510.48
1209.8	2548.49
1214.9	2561.6
1219.9	2619.44
1225	2603.39
1230	2686.85
1235.1	2641.53
1240.1	2683.48
1245.2	2704.33
1250.2	2731.89
1255.3	2754.3
1260.3	2762.09
1265.4	2738.1
1270.4	2857.33
1275.5	2829.42
1280.5	2885.82
1285.6	2870.92
1290.6	2901.77
1295.7	2989.69
1300.7	2944.58
1305.8	3024.36
1310.8	2999.14
1315.9	3135.73
1320.9	3001.89
1326	3112.58
1331	3136.35
1336.1	3145.16
1341.1	3197.33
1346.2	3193.63
1351.2	3250.9
1356.3	3227.01
1361.3	3253.73
1366.4	3315.37
1371.4	3345.95
1376.5	3324.94
1381.5	3352
1386.6	3422.55
1391.7	3421.76
1396.7	3468.2
1401.8	3505.88
1406.8	3503.93
1411.9	3593.8
1416.9	3608.87
1422	3614.77
1427	3595.35
1432.1	3678.09
1437.1	3732.78
1442.2	3816.75
1447.2	3769.61
1452.3	3776
1457.3	3860.66
1462.4	3913.57
1467.4	3804.69
1472.5	3869.45
1477.5	4026.71
1482.6	3992
1487.6	4047.6
1492.7	4020.43
1497.7	4105.11
1502.8	4144
