Measurement: Raman, 780 nm, unoriented, Raman Data RAW
Mineral: Spinel
Rruff sample: X080013
Ideal chemistry: MgAl_2_O_4_
Locality: Synthetic
Source: Gemological Institute of America
Description: Faceted red gemstone, 4.40 ct
Raman shift (cm-1)	intensity
93.7832	512926
97.158	570296
100.533	608294
103.908	616250
107.282	627338
110.657	635631
114.032	643119
117.407	648603
120.782	651903
124.157	653506
127.531	655496
130.906	656575
134.281	659421
137.656	663391
141.031	666246
144.405	670240
147.78	673348
151.155	677480
154.53	680552
157.905	683018
161.28	684935
164.654	686219
168.029	687849
171.404	689687
174.779	690869
178.154	693356
181.529	694210
184.903	697129
188.278	698607
191.653	700543
195.028	702765
198.403	705406
201.777	707245
205.152	709147
208.527	711172
211.902	713015
215.277	714199
218.651	716451
222.026	717690
225.401	719945
228.776	721943
232.151	723208
235.526	724725
238.9	725691
242.275	728879
245.65	730334
249.025	730973
252.4	732379
255.774	734065
259.149	735714
262.524	738683
265.899	740164
269.274	741132
272.649	743981
276.023	745018
279.398	748574
282.773	751463
286.148	754733
289.523	756352
292.897	758017
296.272	758708
299.647	762048
303.022	763173
306.397	764413
309.772	765373
313.146	767241
316.521	770162
319.896	770402
323.271	772609
326.646	774163
330.021	775537
333.395	777910
336.77	780034
340.145	783325
343.52	785349
346.895	788075
350.269	790885
353.644	792210
357.019	793172
360.394	796374
363.769	798555
367.144	799558
370.518	801992
373.893	803707
377.268	806375
380.643	807694
384.018	809334
387.392	810481
390.767	811082
394.142	813150
397.517	814886
400.892	817216
404.267	817770
407.641	818542
411.016	820650
414.391	823073
417.766	824407
421.141	826952
424.515	829012
427.89	828716
431.265	829638
434.64	832285
438.015	835281
441.39	836060
444.764	838779
448.139	838313
451.514	838957
454.889	840815
458.264	841680
461.639	844036
465.013	845924
468.388	845504
471.763	846281
475.138	846246
478.513	846516
481.887	848192
485.262	849374
488.637	850699
492.012	850997
495.387	850462
498.762	851457
502.136	851344
505.511	851772
508.886	853024
512.261	852733
515.636	852930
519.01	853919
522.385	854836
525.76	856757
529.135	858958
532.51	856630
535.885	857712
539.259	858706
542.634	860814
546.009	861456
549.384	861322
552.759	863857
556.133	864762
559.508	866928
562.883	867295
566.258	868437
569.633	869727
573.008	870715
576.382	872290
579.757	873985
583.132	876201
586.507	877867
589.882	878988
593.256	880948
596.631	881529
600.006	884369
603.381	885193
606.756	887606
610.13	888149
613.505	889378
616.88	889942
620.255	892886
623.63	895111
627.005	896579
630.379	897896
633.754	897629
637.129	900250
640.504	904325
643.879	906504
647.254	907918
650.628	908727
654.003	909346
657.378	911568
660.753	913338
664.128	915722
667.502	916243
670.877	918678
674.252	918807
677.627	918580
681.002	919767
684.376	920961
687.751	923192
691.126	924382
694.501	925308
697.876	927379
701.251	928615
704.625	931795
708	933929
711.375	935560
714.75	936193
718.125	938723
721.5	940896
724.874	941959
728.249	943144
731.624	944195
734.999	945432
738.374	946059
741.749	947379
745.123	948030
748.498	948810
751.873	952225
755.248	953882
758.623	953058
761.997	952661
765.372	954946
768.747	956492
772.122	958085
775.497	958501
778.871	957402
782.246	959547
785.621	961773
788.996	963293
792.371	965150
795.745	966079
799.12	968282
802.495	968488
805.87	969311
809.245	972674
812.62	971621
815.994	973527
819.369	975549
822.744	976883
826.119	978355
829.494	978950
832.869	980548
836.243	982572
839.618	983811
842.993	986385
846.368	986080
849.743	986676
853.117	988823
856.492	990747
859.867	991994
863.242	991381
866.617	994050
869.992	993683
873.366	995511
876.741	996065
880.116	997448
883.491	999288
886.866	1.00087e+06
890.24	1.002e+06
893.615	1.00311e+06
896.99	1.0042e+06
900.365	1.00569e+06
903.74	1.00643e+06
907.115	1.00688e+06
910.489	1.01048e+06
913.864	1.01235e+06
917.239	1.01352e+06
920.614	1.0148e+06
923.989	1.01637e+06
927.364	1.01705e+06
930.738	1.01939e+06
934.113	1.02215e+06
937.488	1.02328e+06
940.863	1.02652e+06
944.238	1.02671e+06
947.612	1.02819e+06
950.987	1.03062e+06
954.362	1.02988e+06
957.737	1.03256e+06
961.112	1.0337e+06
964.486	1.03804e+06
967.861	1.04019e+06
971.236	1.04218e+06
974.611	1.04235e+06
977.986	1.04364e+06
981.361	1.04332e+06
984.735	1.04689e+06
988.11	1.04726e+06
991.485	1.0507e+06
994.86	1.05351e+06
998.235	1.05669e+06
1001.61	1.05858e+06
1004.98	1.06072e+06
1008.36	1.06234e+06
1011.73	1.06362e+06
1015.11	1.06468e+06
1018.48	1.06643e+06
1021.86	1.07182e+06
1025.23	1.07129e+06
1028.61	1.07356e+06
1031.98	1.07353e+06
1035.36	1.07768e+06
1038.73	1.08123e+06
1042.11	1.08312e+06
1045.48	1.08244e+06
1048.86	1.08454e+06
1052.23	1.0874e+06
1055.61	1.08896e+06
1058.98	1.0899e+06
1062.36	1.09091e+06
1065.73	1.09265e+06
1069.11	1.09449e+06
1072.48	1.09686e+06
1075.86	1.09883e+06
1079.23	1.09928e+06
1082.61	1.10225e+06
1085.98	1.10309e+06
1089.36	1.1013e+06
1092.73	1.10242e+06
1096.1	1.10313e+06
1099.48	1.10614e+06
1102.85	1.10846e+06
1106.23	1.10707e+06
1109.6	1.1115e+06
1112.98	1.11154e+06
1116.35	1.10974e+06
1119.73	1.10859e+06
1123.1	1.1132e+06
1126.48	1.11818e+06
1129.85	1.1189e+06
1133.23	1.12038e+06
1136.6	1.12347e+06
1139.98	1.12471e+06
1143.35	1.12854e+06
1146.73	1.12996e+06
1150.1	1.12944e+06
1153.48	1.13098e+06
1156.85	1.13595e+06
1160.23	1.13704e+06
1163.6	1.13819e+06
1166.98	1.14172e+06
1170.35	1.14431e+06
1173.72	1.14677e+06
1177.1	1.15069e+06
1180.47	1.15354e+06
1183.85	1.15316e+06
1187.22	1.15541e+06
1190.6	1.15672e+06
1193.97	1.15724e+06
1197.35	1.15918e+06
1200.72	1.1635e+06
1204.1	1.16582e+06
1207.47	1.1685e+06
1210.85	1.16927e+06
1214.22	1.17241e+06
1217.6	1.16898e+06
1220.97	1.16786e+06
1224.35	1.17182e+06
1227.72	1.17523e+06
1231.1	1.17913e+06
1234.47	1.18128e+06
1237.85	1.18174e+06
1241.22	1.18403e+06
1244.6	1.18469e+06
1247.97	1.18985e+06
1251.35	1.19031e+06
1254.72	1.19175e+06
1258.1	1.19351e+06
1261.47	1.1974e+06
1264.85	1.19996e+06
1268.22	1.20334e+06
1271.6	1.20596e+06
1274.97	1.20943e+06
1278.35	1.21075e+06
1281.72	1.21505e+06
1285.09	1.22121e+06
