Measurement: Raman, 780 nm, unoriented, Raman Data RAW
Mineral: Spinel
Rruff sample: X080014
Ideal chemistry: MgAl_2_O_4_
Locality: Synthetic
Source: Gemological Institute of America
Description: Faceted blue gemstone, 7.90 ct
Raman shift (cm-1)	intensity
93.7832	131617
97.158	146531
100.533	156517
103.908	158482
107.282	161077
110.657	162918
114.032	164636
117.407	165791
120.782	166397
124.157	166958
127.531	166876
130.906	166840
134.281	167450
137.656	168199
141.031	168754
144.405	169746
147.78	170574
151.155	171137
154.53	171726
157.905	172059
161.28	172618
164.654	172081
168.029	172497
171.404	172869
174.779	173138
178.154	173114
181.529	172983
184.903	173612
188.278	174043
191.653	174425
195.028	174519
198.403	174874
201.777	175003
205.152	175221
208.527	175362
211.902	176108
215.277	176042
218.651	176320
222.026	176952
225.401	176897
228.776	177161
232.151	177218
235.526	177259
238.9	177354
242.275	177886
245.65	177893
249.025	178264
252.4	177994
255.774	178503
259.149	178593
262.524	179116
265.899	179455
269.274	179033
272.649	179216
276.023	180031
279.398	180581
282.773	180978
286.148	181508
289.523	181629
292.897	181544
296.272	181810
299.647	182289
303.022	182436
306.397	182889
309.772	182622
313.146	182945
316.521	183113
319.896	183695
323.271	183596
326.646	183650
330.021	183994
333.395	184268
336.77	184470
340.145	184787
343.52	185137
346.895	185763
350.269	185902
353.644	186359
357.019	186440
360.394	186856
363.769	187136
367.144	187093
370.518	187607
373.893	187783
377.268	188291
380.643	188369
384.018	188208
387.392	188540
390.767	188322
394.142	188232
397.517	188814
400.892	188889
404.267	188763
407.641	188941
411.016	189244
414.391	189603
417.766	189899
421.141	189971
424.515	190600
427.89	190213
431.265	190294
434.64	190627
438.015	191248
441.39	191264
444.764	191392
448.139	191229
451.514	191323
454.889	191424
458.264	191516
461.639	191859
465.013	192139
468.388	191574
471.763	191795
475.138	191518
478.513	191464
481.887	191636
485.262	191948
488.637	191358
492.012	191441
495.387	191434
498.762	191425
502.136	191152
505.511	190971
508.886	190852
512.261	190889
515.636	190484
519.01	190389
522.385	190488
525.76	190518
529.135	191026
532.51	190236
535.885	190156
539.259	190363
542.634	190511
546.009	190586
549.384	190124
552.759	190465
556.133	190716
559.508	190654
562.883	190530
566.258	190689
569.633	190948
573.008	190998
576.382	190903
579.757	191543
583.132	191305
586.507	191477
589.882	191631
593.256	191874
596.631	191995
600.006	192168
603.381	192220
606.756	192417
610.13	192545
613.505	192431
616.88	192187
620.255	193140
623.63	193253
627.005	193330
630.379	193606
633.754	192979
637.129	193458
640.504	194042
643.879	194634
647.254	194670
650.628	194724
654.003	194127
657.378	194154
660.753	195092
664.128	195156
667.502	195148
670.877	195228
674.252	195172
677.627	195318
681.002	195086
684.376	195083
687.751	195656
691.126	195414
694.501	195800
697.876	195541
701.251	195765
704.625	196111
708	196181
711.375	196730
714.75	196476
718.125	196818
721.5	197101
724.874	196959
728.249	197134
731.624	197088
734.999	197249
738.374	197154
741.749	197633
745.123	197126
748.498	197432
751.873	197784
755.248	197725
758.623	197183
761.997	196864
765.372	197115
768.747	197647
772.122	197638
775.497	197827
778.871	197079
782.246	197295
785.621	197516
788.996	197887
792.371	198068
795.745	198299
799.12	198047
802.495	198035
805.87	197884
809.245	198419
812.62	198056
815.994	197699
819.369	198147
822.744	198071
826.119	198447
829.494	198666
832.869	198348
836.243	198479
839.618	198619
842.993	199086
846.368	198973
849.743	198680
853.117	198805
856.492	198903
859.867	198860
863.242	198903
866.617	198976
869.992	198853
873.366	198996
876.741	198956
880.116	198937
883.491	199055
886.866	199304
890.24	199145
893.615	199248
896.99	199310
900.365	199333
903.74	199473
907.115	199208
910.489	199760
913.864	199974
917.239	199854
920.614	199738
923.989	200234
927.364	200080
930.738	200470
934.113	200571
937.488	200124
940.863	200759
944.238	201117
947.612	200774
950.987	201106
954.362	200819
957.737	201194
961.112	201419
964.486	201775
967.861	202160
971.236	202126
974.611	202399
977.986	202005
981.361	202071
984.735	202455
988.11	202562
991.485	202733
994.86	203328
998.235	203392
1001.61	203806
1004.98	203940
1008.36	204070
1011.73	204048
1015.11	204070
1018.48	204058
1021.86	204673
1025.23	204341
1028.61	205054
1031.98	205472
1035.36	205290
1038.73	205883
1042.11	206007
1045.48	205611
1048.86	205919
1052.23	205713
1055.61	206209
1058.98	206519
1062.36	206523
1065.73	206178
1069.11	206412
1072.48	206697
1075.86	206556
1079.23	206532
1082.61	206831
1085.98	206475
1089.36	206370
1092.73	206320
1096.1	206319
1099.48	206621
1102.85	206833
1106.23	206608
1109.6	206804
1112.98	207065
1116.35	206432
1119.73	205674
1123.1	206542
1126.48	206957
1129.85	207388
1133.23	206935
1136.6	207156
1139.98	207189
1143.35	208106
1146.73	207833
1150.1	207662
1153.48	207661
1156.85	208425
1160.23	208484
1163.6	208577
1166.98	209135
1170.35	209097
1173.72	209481
1177.1	210140
1180.47	210177
1183.85	209902
1187.22	210273
1190.6	209749
1193.97	209685
1197.35	209780
1200.72	210693
1204.1	211440
1207.47	211085
1210.85	210912
1214.22	211033
1217.6	210983
1220.97	210633
1224.35	210658
1227.72	211059
1231.1	211113
1234.47	211623
1237.85	211912
1241.22	211711
1244.6	211788
1247.97	212468
1251.35	212243
1254.72	212294
1258.1	212745
1261.47	213091
1264.85	213298
1268.22	213563
1271.6	213883
1274.97	214194
1278.35	214701
1281.72	215117
1285.09	216134
