Measurement: Raman, 780 nm, unoriented, Raman Data RAW
Mineral: Steacyite
Rruff sample: R130053
Ideal chemistry: K_0.3_(Na,Ca)_2_Th^4+^Si_8_O_20_
Locality: Mont Saint-Hilaire, Rouville RCM, Monteregie, Quebec, Canada
Source: Don Doell
Description: Light-brown rectangular prism
Raman shift (cm-1)	intensity
89.7532	0
93.1281	290.21
96.5029	268.77
99.8777	243.917
103.252	229.401
106.627	217.532
110.002	205.463
113.377	198.561
116.752	192.292
120.127	184.213
123.501	178.698
126.876	172.587
130.251	166.071
133.626	157.619
137.001	155.008
140.375	149.802
143.75	145.876
147.125	142.756
150.5	139.497
153.875	137.772
157.25	135.194
160.624	132.699
163.999	131.531
167.374	130.511
170.749	129.56
174.124	130.383
177.498	131.138
180.873	130.041
184.248	131.264
187.623	130.726
190.998	130.953
194.373	132.089
197.747	131.179
201.122	132.882
204.497	135.342
207.872	135.325
211.247	135.576
214.621	137.697
217.996	135.634
221.371	136.513
224.746	135.833
228.121	134.036
231.495	135.17
234.87	136.803
238.245	140.037
241.62	141.352
244.995	144.201
248.369	146.844
251.744	148.811
255.119	150.408
258.494	152.543
261.869	153.254
265.244	155.027
268.618	155.722
271.993	155.206
275.368	154.257
278.743	152.399
282.118	151.813
285.493	153.705
288.867	151.92
292.242	151.836
295.617	152.528
298.992	152.046
302.366	152.406
305.741	153.243
309.116	155.214
312.491	155.297
315.866	157.014
319.241	156.005
322.615	155.075
325.99	155.8
329.365	155.598
332.74	154.757
336.115	156.217
339.49	157.151
342.864	156.857
346.239	157.569
349.614	159.382
352.989	161.666
356.364	164.518
359.738	166.747
363.113	169.964
366.488	176.053
369.863	181.232
373.238	186.454
376.613	194.698
379.987	204.563
383.362	212.973
386.737	222.629
390.112	230.928
393.486	238.417
396.861	241.926
400.236	241.323
403.611	235.455
406.986	230.822
410.361	218.695
413.735	206.543
417.11	197.579
420.485	191.864
423.86	182.271
427.235	176.328
430.61	172.861
433.984	168.202
437.359	163.513
440.734	161.34
444.109	159.163
447.484	157.564
450.858	155.832
454.233	158.4
457.608	159.472
460.983	161.294
464.358	162.974
467.733	162.449
471.107	161.41
474.482	160.185
477.857	156.915
481.232	155.732
484.606	154.839
487.981	150.799
491.356	146.293
494.731	143.958
498.106	141.034
501.481	137.766
504.855	134.155
508.23	132.145
511.605	128.959
514.98	129.131
518.355	126.327
521.73	124.812
525.104	122.975
528.479	123.578
531.854	121.841
535.229	121.608
538.604	121.046
541.978	120.575
545.353	120.255
548.728	120.511
552.103	119.193
555.478	119.872
558.852	119.346
562.227	120.027
565.602	119.251
568.977	119.707
572.352	119.331
575.726	118.798
579.101	118.404
582.476	119.331
585.851	117.807
589.226	118.573
592.601	117.507
595.975	117.062
599.35	116.96
602.725	116.713
606.1	117.076
609.475	116.684
612.85	117.494
616.224	117.231
619.599	117.139
622.974	117.303
626.349	116.019
629.723	116.945
633.098	117.072
636.473	118.372
639.848	116.796
643.223	111.998
646.598	109.059
649.972	107.508
653.347	103.601
656.722	102.294
660.097	100.423
663.472	97.2509
666.846	95.8319
670.221	94.0585
673.596	92.0749
676.971	90.6606
680.346	89.6085
683.721	89.0334
687.095	87.3502
690.47	86.4199
693.845	86.2191
697.22	84.118
700.595	83.8335
703.97	82.7044
707.344	81.8005
710.719	81.7001
714.094	81.4697
717.469	81.3674
720.843	81.966
724.218	80.1377
727.593	81.6474
730.968	81.2172
734.343	80.9228
737.718	80.4616
741.092	79.7524
744.467	80.3312
747.842	80.3048
751.217	78.7759
754.592	77.5783
757.966	77.6093
761.341	78.0757
764.716	77.3579
768.091	77.3567
771.466	76.6919
774.841	75.6492
778.215	75.3956
781.59	75.2316
784.965	74.5131
788.34	74.6337
791.715	75.2988
795.089	75.5842
798.464	75.2056
801.839	76.3457
805.214	76.5274
808.589	76.4095
811.963	75.6098
815.338	74.9335
818.713	75.0845
822.088	74.8738
825.463	74.3399
828.838	73.801
832.212	72.4516
835.587	74.1228
838.962	72.8211
842.337	72.5445
845.712	70.3374
849.087	70.4629
852.461	69.4129
855.836	69.3459
859.211	69.3042
862.586	69.2048
865.961	68.2858
869.335	68.3067
872.71	68.088
876.085	67.5238
879.46	66.6354
882.835	67.0075
886.209	67.5644
889.584	66.5227
892.959	67.3099
896.334	66.9759
899.709	67.0157
903.083	66.5504
906.458	67.0618
909.833	67.6463
913.208	68.7703
916.583	68.9711
919.958	69.549
923.332	67.6617
926.707	68.8348
930.082	69.2934
933.457	70.0613
936.832	69.556
940.207	68.7996
943.581	67.4432
946.956	67.2329
950.331	66.3904
953.706	66.3442
957.081	64.8893
960.455	64.4796
963.83	63.9551
967.205	63.9719
970.58	63.93
973.955	64.2226
977.329	63.1539
980.704	62.5372
984.079	62.3622
987.454	62.723
990.829	62.077
994.203	62.5487
997.578	62.432
1000.95	62.4603
1004.33	62.8705
1007.7	63.1212
1011.08	61.9553
1014.45	62.4973
1017.83	62.8913
1021.2	62.123
1024.58	61.7843
1027.95	60.9529
1031.33	61.3591
1034.7	61.6426
1038.08	61.156
1041.45	61.5243
1044.83	61.0513
1048.2	61.6191
1051.58	61.2231
1054.95	62.021
1058.33	62.3984
1061.7	62.7064
1065.08	61.8872
1068.45	62.6572
1071.82	63.042
1075.2	63.2624
1078.57	63.5891
1081.95	64.5361
1085.32	65.108
1088.7	65.6466
1092.07	65.7134
1095.45	67.279
1098.82	67.7082
1102.2	69.261
1105.57	70.4817
1108.95	73.4507
1112.32	74.1742
1115.7	73.6433
1119.07	74.1643
1122.45	74.6231
1125.82	76.3816
1129.2	77.0467
1132.57	76.0167
1135.95	76.8843
1139.32	78.6171
1142.69	78.2105
1146.07	79.5166
1149.44	80.8553
1152.82	81.6195
1156.19	84.6686
1159.57	86.3171
1162.94	89.4307
1166.32	91.8567
1169.69	96.325
1173.07	100.911
1176.44	105.09
1179.82	110.222
1183.19	116.056
1186.57	122.171
1189.94	128.175
1193.32	135.564
1196.69	145.307
1200.07	156.595
1203.44	171.174
1206.82	182.48
1210.19	198.39
1213.57	217.084
1216.94	230.522
1220.32	246.984
1223.69	262.213
1227.07	275.528
1230.44	289.112
1233.82	305.738
1237.19	327.455
1240.57	351.765
1243.94	379.484
1247.32	409.824
1250.69	445.313
1254.06	476.239
1257.44	503.049
1260.81	517.818
1264.19	531.981
1267.56	521.053
1270.94	508.901
1274.31	490.437
1277.69	465.49
1281.06	443.382
