Measurement: Raman, 514 nm, unoriented, Raman Data RAW
Mineral: Stellerite
Rruff sample: X060015
Ideal chemistry: Ca_4_(Si_28_Al_8_)O_72_28H_2_O
Locality: Sarbayskaya Quarry, Rudniy, Kusteni Oblast, Kazakhstan
Source: University of Arizona Mineral Museum
Description: Single crystal
Raman shift (cm-1)	intensity
198.529	7266.33
202.694	7250.67
206.856	7300.67
211.015	7398.33
215.173	7609.67
219.327	7864.17
223.48	8088.33
227.629	8306
231.776	8421
235.921	8500.67
240.063	8345.67
244.203	8098.33
248.34	7853.33
252.475	7681.33
256.607	7497.33
260.737	7437.33
264.864	7382
268.989	7445.67
273.111	7507
277.231	7720.67
281.348	7829.33
285.463	7710
289.576	7593.33
293.685	7505
297.793	7555.67
301.898	7530
306	7606
310.1	7625.67
314.198	7648.67
318.293	7723.67
322.385	7778
326.475	7801.67
330.563	7715.67
334.648	7842.67
338.731	7759
342.811	7834.33
346.889	7862
350.964	7986
355.037	7930
359.107	8045
363.175	8149
367.241	8229
371.304	8480.67
375.364	8776.67
379.423	9113.67
383.478	9528
387.531	9985.33
391.582	10647.3
395.631	11401.3
399.676	12535
403.72	13599.3
407.761	14136.7
411.799	13863.3
415.836	12988.3
419.869	12025
423.9	11191
427.929	10527.3
431.956	10112.7
435.98	9733.33
440.001	9534.33
444.02	9493.33
448.037	9494
452.051	9724.33
456.063	10066
460.072	10151.7
464.079	9765.33
468.083	9352.33
472.086	9091
476.085	8952.33
480.082	9033
484.077	9247.67
488.07	9906
492.06	11037.3
496.047	11792.8
500.032	11085
504.015	9746.67
507.995	8863.67
511.973	8376.67
515.949	8173
519.922	8026.33
523.893	7966
527.861	7920.67
531.827	7845.47
535.79	7839.94
539.751	7825.67
543.71	7831.33
547.666	7851
551.62	7846.67
555.572	7892.67
559.521	7909
563.467	7881
567.412	7898.67
571.353	7954.67
575.293	7948.67
579.23	7976.33
583.165	8006.33
587.097	8049.67
591.027	8101.67
594.955	8112.33
598.88	8232.33
602.803	8332.33
606.723	8348
610.641	8364
614.557	8462.67
618.47	8405
622.381	8382.33
626.289	8448
630.196	8371.33
634.099	8356.67
638.001	8350.67
641.9	8321
645.797	8307.33
649.691	8270.67
653.583	8309.33
657.472	8254.67
661.36	8320.67
665.244	8329.67
669.127	8347.67
673.007	8333.67
676.885	8266.67
680.76	8304.33
684.633	8356.33
688.504	8371
692.372	8354.69
696.238	8430
700.102	8417.33
703.963	8393.67
707.822	8465
711.679	8572.33
715.533	8541
719.385	8518.54
723.234	8537
727.082	8594
730.926	8588
734.769	8592.67
738.609	8621
742.447	8627.67
746.282	8591.33
750.116	8729.33
753.946	8685
757.775	8682
761.601	8796.33
765.425	8788.33
769.246	8824
773.066	8928.33
776.882	8940
780.697	9008.33
784.509	9084.67
788.319	9070
792.127	9060.33
795.932	9031.33
799.735	9105.67
803.535	9064
807.334	9022.33
811.129	9018.67
814.923	8979.67
818.714	8962.33
822.503	8915
826.29	8948.67
830.075	8932.33
833.857	8987.06
837.636	8977.35
841.414	9101.91
845.189	9055.59
848.962	9115.64
852.732	9110.32
856.501	9196.48
860.266	9132.96
864.03	9206.9
867.791	9276.03
871.55	9267.65
875.307	9250.69
879.062	9322.56
882.814	9361.56
886.564	9346.01
890.311	9365.75
894.056	9396.03
897.799	9436.41
901.54	9451.59
905.279	9504.67
909.015	9562.5
912.748	9570.2
916.48	9584.3
920.209	9601.62
923.936	9628.84
927.661	9650.19
931.383	9707.37
935.104	9663.42
938.821	9707.65
942.537	9715.81
946.25	9760.72
949.961	9802.4
953.67	9822.17
957.377	9875.92
961.081	9936.32
964.783	9965.9
968.482	9983.29
972.18	10057.2
975.875	10109.2
979.568	10107
983.259	10168.1
986.947	10217.3
990.633	10244.8
994.317	10302.9
997.999	10357
1001.68	10344.9
1005.36	10377.2
1009.03	10444.1
1017.05	10445.8
1020.79	10422.8
1024.53	10455.6
1028.27	10506.3
1032.01	10530.8
1035.74	10554.8
1039.48	10541
1043.21	10604.6
1046.93	10611.5
1050.66	10648
1054.38	10663.5
1058.11	10705.2
1061.82	10698.6
1065.54	10750
1069.26	10793
1072.97	10869.3
1076.68	11026.5
1080.39	11040.1
1084.09	11069
1087.8	11208.9
1091.5	11256
1095.2	11233.9
1098.9	11282.3
1102.59	11295.5
1106.29	11321.3
1109.98	11354.7
1113.66	11372.4
1117.35	11389.3
1121.04	11365.1
1124.72	11451
1128.4	11402.6
1132.08	11454.9
1135.75	11450.9
1139.42	11480.3
1143.1	11457.3
1146.76	11501.7
1150.43	11514.8
1154.1	11551.8
1157.76	11514.9
1161.42	11534.1
1165.08	11529.9
1168.73	11490.1
1172.39	11491.1
1176.04	11444.6
1179.69	11427.6
1183.34	11398.2
1186.98	11400.3
1190.62	11380.4
1194.27	11370.7
1197.9	11339.4
1201.54	11340.5
1205.18	11374.4
1208.81	11348.6
1212.44	11369.9
1216.07	11390.7
1219.69	11415.4
1223.32	11399.1
1226.94	11466.3
1230.56	11441.7
1234.17	11510.3
1237.79	11514.5
1241.4	11510.2
1245.01	11541.3
1248.62	11542.1
1252.23	11565.9
1255.83	11598.4
1259.44	11660.4
1263.04	11637
1266.63	11637.1
1270.23	11666
1273.82	11703
1277.41	11718.7
1281.01	11709.7
1284.59	11800.7
1288.18	11829.4
1291.76	11838.6
1295.34	11886.8
1298.92	11851.5
1302.5	11868.8
1306.07	11915.1
1309.64	11971.7
1313.21	11964.4
1316.78	11920.2
1320.35	11966.6
1323.91	12016.4
1327.47	12033.3
1331.04	12047.6
1334.59	12091.2
1338.15	12129.7
1341.7	12131.2
1345.25	12132.3
1348.8	12159.5
1352.35	12207.4
1355.89	12239.4
1359.44	12216.1
1362.98	12264
1366.52	12283
1370.05	12317.3
1373.59	12320.3
1377.12	12346.2
1380.65	12434.9
1384.18	12417.7
1387.7	12410.9
1391.23	12466.4
1394.75	12512.4
1398.27	12471.6
1401.79	12529
1405.3	12546.9
1408.82	12547.8
1412.33	12596
1415.84	12615.1
1419.34	12669.2
1422.85	12689.6
1426.35	12682.4
1429.85	12735
1433.35	12752.1
1436.85	12796.5
1440.34	12824
1443.84	12830.5
1447.33	12866.9
1450.82	12880.7
1454.3	12894.8
1457.79	12909.5
1461.27	12959.9
1464.75	12971.1
1468.23	13025.9
1471.7	13068.3
1475.17	13031.6
1478.65	13046.5
1482.12	13115.6
1485.58	13137.7
1489.05	13166.6
1492.51	13107
1495.97	13162.8
1499.43	13207
1502.89	13266
1506.35	13221.5
1509.8	13256.7
1513.25	13318.3
1516.7	13316.6
1520.15	13362.8
1523.59	13385.6
1527.03	13399.1
1530.47	13450.9
1533.91	13427.5
1537.35	13487.1
1540.79	13518.5
1544.22	13512.7
1547.65	13542.8
1551.08	13562.3
1554.5	13633.8
1557.93	13671
1561.35	13649.3
1564.77	13656.2
1568.19	13718.3
1571.6	13735
1575.02	13762.4
1578.43	13772.1
1581.84	13842.9
1585.25	13833.3
1588.65	13866.8
1592.06	13913.9
1595.46	13944.4
1598.86	13913.7
1602.26	13990.5
1605.65	13996.7
1609.05	14079.5
1612.44	14030.2
1615.83	14086.2
1619.21	14174.2
1622.6	14192
1625.98	14230.6
1629.36	14296.7
1632.74	14381.9
1636.12	14394.9
1639.5	14417.9
1642.87	14444.4
1646.24	14518
1649.61	14465.2
1652.98	14471.7
1656.34	14463.5
1659.7	14478.2
