Measurement: Raman, 532 nm, unoriented, Raman Data RAW
Mineral: Stevensite
Rruff sample: R070332
Ideal chemistry: (Ca,Na)_x_Mg_3-y_Si_4_O_10_(OH)_2_
Locality: Kovdor, Kola Peninsula, Russia
Source: Michael Scott
Description: Colorless fine-grained, pseudomorph after pectolite
Raman shift (cm-1)	intensity
177.143	9855.03
180.035	9936.22
182.928	10024.6
185.821	10192
188.713	10380.3
191.606	10507.1
194.499	10635.9
197.391	10677.9
200.284	10778
203.177	10870
206.07	10979.2
208.962	10963.8
211.855	11211.4
214.748	11224.8
217.64	11327.3
220.533	11404.4
223.426	11440.5
226.318	11565.7
229.211	11651.5
232.104	11799
234.996	11758.9
237.889	11923.5
240.782	11977.9
243.675	12061
246.567	12101.2
249.46	12197.8
252.353	12283.6
255.245	12335.7
258.138	12426.5
261.031	12454.8
263.923	12596.7
266.816	12585.8
269.709	12666.4
272.602	12755.2
275.494	12814.1
278.387	12848.3
281.28	12990
284.173	13090.1
287.065	13092.5
289.958	13130.9
292.851	13229.8
295.743	13271.9
298.636	13340.4
301.529	13416.5
304.421	13537.8
307.314	13480.3
310.207	13622.1
313.099	13669
315.992	13710.9
318.885	13782
321.778	13821.2
324.67	13835.7
327.563	13874.1
330.456	14022.2
333.348	14024.3
336.241	14235.4
339.134	14192.3
342.026	14227.6
344.919	14355.3
347.812	14389.2
350.705	14439.5
353.597	14526
356.49	14555.8
359.383	14637.4
362.275	14673.1
365.168	14715.2
368.061	14815.5
370.954	14740.9
373.846	14879.1
376.739	15003.7
379.632	14988
382.524	15074.9
385.417	15144
388.31	15148.7
391.202	15264.5
394.095	15301.5
396.988	15356.7
399.88	15509
402.773	15449
405.666	15600.2
408.559	15628.5
411.451	15694.4
414.344	15742.1
417.237	15715.9
420.129	15805.4
423.022	15835.5
425.915	15998.9
428.808	16044.8
431.7	16080.8
434.593	16183.2
437.486	16221.6
440.378	16226.4
443.271	16299.3
446.164	16335
449.056	16434
451.949	16576.1
454.842	16478.3
457.735	16595.3
460.627	16688.6
463.52	16669.8
466.413	16707.2
469.305	16708.4
472.198	16880.1
475.091	16961
477.983	16931.9
480.876	17043
483.769	17121.1
486.661	17211.3
489.554	17215.2
492.447	17313.8
495.34	17360.8
498.232	17421.7
501.125	17472
504.018	17555.7
506.911	17517.7
509.803	17637.4
512.696	17663.4
515.589	17794.5
518.481	17786.9
521.374	17864.5
524.267	17897.3
527.159	18035.8
530.052	18010.2
532.945	18063.5
535.837	18146.5
538.73	18194.3
541.623	18281.3
544.516	18310.7
547.408	18347.9
550.301	18400
553.194	18500.9
556.086	18501
558.979	18610.4
561.872	18675.3
564.764	18737.1
567.657	18702.7
570.55	18799.3
573.443	18774.1
576.335	18889.6
579.228	19007
582.121	19049.8
585.013	19149.6
587.906	19203.9
590.799	19213.5
593.692	19244.2
596.584	19350.2
599.477	19462.7
602.37	19470.5
605.262	19516.8
608.155	19605.8
611.048	19603.8
613.94	19689.9
616.833	19706.8
619.726	19743.6
622.619	19811.8
625.511	19967.4
628.404	20017.4
631.297	20051.8
634.189	20052.3
637.082	20177.2
639.975	20235.5
642.867	20262.4
645.76	20401.4
648.653	20443.2
651.545	20439
654.438	20525.3
657.331	20503
660.224	20651.2
663.116	20609.2
666.009	20659.3
668.902	20658.7
671.794	20697.3
674.687	20652.6
677.58	20808.7
680.472	20793
683.365	20852
686.258	20842.2
689.151	20827.1
692.043	20883.8
694.936	20965.1
697.829	20958.5
700.721	21033.8
703.614	21072
706.507	21076.7
709.399	21080.8
712.292	21124.1
715.185	21236.2
718.078	21255.6
720.97	21258
723.863	21269.1
726.756	21336.1
729.648	21286.3
732.541	21269.5
735.434	21385.8
738.327	21383.3
741.219	21530.8
744.112	21573.5
747.005	21486
749.897	21574.8
752.79	21674.6
755.683	21574.9
758.576	21656.5
761.468	21724.7
764.361	21769.8
767.254	21743.2
770.146	21853
773.039	21815.2
775.932	21871.5
778.824	21897.4
781.717	21896.7
784.61	21941.8
787.503	21977.2
790.395	22090.2
793.288	22007
796.181	22156.1
799.073	22090.5
801.966	22189.1
804.859	22190.9
807.751	22298.1
810.644	22259.9
813.537	22342.6
816.429	22291.6
819.322	22376.1
822.215	22372.1
825.108	22514.3
828	22464.2
830.893	22429.5
833.786	22476.3
836.678	22475.7
839.571	22541.4
842.464	22615.5
845.356	22660.1
848.249	22710.5
851.142	22723.3
854.035	22735.8
856.927	22794.3
859.82	22785.1
862.713	22872.6
865.605	22914.7
868.498	22891.3
871.391	22933.5
874.284	23010.3
877.176	23016.4
880.069	23073.6
882.962	23010.5
885.854	23167.1
888.747	23254.3
891.64	23229.8
894.533	23283.4
897.425	23231.8
900.318	23414.5
903.211	23413.1
906.103	23315.6
908.996	23464.6
911.889	23377.1
914.781	23566.4
917.674	23565.2
920.567	23586.5
923.46	23562.7
926.352	23652.6
929.245	23655.4
932.138	23647.5
935.03	23684.7
937.923	23721.8
940.816	23772.7
943.708	23809.1
946.601	23743
949.494	23847.6
952.386	23937.5
955.279	23988.5
958.172	23945.7
961.065	24108.8
963.957	24038.7
966.85	24062.5
969.743	24133.4
972.635	24245.4
975.528	24231
978.421	24276.8
981.313	24288.9
984.206	24321.6
987.099	24374.9
989.992	24386
992.884	24425.1
995.777	24408.1
998.67	24350.1
1001.56	24625.6
1004.46	24529.8
1007.35	24591.1
1010.24	24661.5
1013.13	24637.6
1016.03	24731.6
1018.92	24723.8
1021.81	24728.6
1024.7	24878
1027.6	24767.2
1030.49	24791.3
1033.38	24996.4
1036.28	24928.2
1039.17	25014.4
1042.06	24992.1
1044.95	25065.9
1047.85	25068
1050.74	25064.5
1053.63	25091.5
1056.52	25212.8
1059.42	25211.2
1062.31	25214.1
1065.2	25296.2
1068.09	25333.5
1070.99	25273
1073.88	25400.3
1076.77	25498.3
1079.66	25450.4
1082.56	25428.7
1085.45	25638.8
1088.34	25591.8
1091.24	25580.1
1094.13	25623.5
1097.02	25737.7
1099.91	25836.8
1102.81	25831.3
1105.7	25801.3
1108.59	25905.3
1111.48	25856.2
1114.38	25989.4
1117.27	25933
1120.16	25921.4
1123.06	26018.1
1125.95	26118.4
1128.84	26095.8
1131.73	26173
1134.63	26192.1
1137.52	26337
1140.41	26255.5
1143.31	26403
1146.2	26335.6
1149.09	26462.6
1151.98	26491.6
1154.88	26534.6
1157.77	26495.3
1160.66	26710.7
1163.55	26519.5
1166.45	26736.8
1169.34	26728.2
1172.23	26744.7
1175.12	26744.3
1178.02	26714.3
1180.91	26782.6
1183.8	26948.1
1186.69	26989.9
1189.59	27012.7
1192.48	27180.8
1195.37	27049.4
1198.27	27025.7
1201.16	27079.9
1204.05	27136.8
1206.94	27134.3
1209.84	27277.7
1212.73	27328.8
1215.62	27458.7
1218.52	27329.3
1221.41	27406
1224.3	27547.2
1227.19	27364.1
1230.09	27529.2
1232.98	27441.3
1235.87	27537.2
1238.76	27640.1
1241.66	27662.5
1244.55	27550.7
1247.44	27827.4
1250.34	27759.3
1253.23	27920.2
1256.12	27802.2
1259.01	27909.8
1261.91	27878.2
1264.8	28113.9
1267.69	28023.5
1270.58	28148.6
1273.48	28096
1276.37	28231.1
1279.26	28123.6
1282.15	28250.5
1285.05	28371.3
1287.94	28449.2
1290.83	28361
1293.72	28453.6
1296.62	28384.6
1299.51	28440.1
