Measurement: Raman, 785 nm, unoriented, Raman Data RAW
Mineral: Stevensite
Rruff sample: R070332
Ideal chemistry: (Ca,Na)_x_Mg_3-y_Si_4_O_10_(OH)_2_
Locality: Kovdor, Kola Peninsula, Russia
Source: Michael Scott
Description: Colorless fine-grained, pseudomorph after pectolite
Raman shift (cm-1)	intensity
204.908	57630.3
207.8	57968.9
210.693	58026.6
213.586	58138.2
216.478	58345.2
219.371	58699.8
222.264	59068.3
225.157	59076.1
228.049	59307.9
230.942	59260.6
233.835	59387.4
236.727	59533.6
239.62	59749.7
242.513	59958.5
245.405	60055.5
248.298	60017.1
251.191	60024.9
254.084	60133
256.976	60092.2
259.869	60201.9
262.762	60524.7
265.654	60479.2
268.547	60365.6
271.44	60460
274.332	60308.7
277.225	60386.4
280.118	60526
283.011	60562.1
285.903	60741.2
288.796	60696.1
291.689	60691.8
294.581	60535.3
297.474	60298.1
300.367	60300.5
303.26	60567.8
306.152	60463.6
309.045	60420.1
311.938	60604.9
314.83	60336.7
317.723	60214.6
320.616	60220.8
323.508	60177.5
326.401	60229.4
329.294	60145.4
332.187	60354.5
335.079	60232.9
337.972	59953.8
340.865	59848.8
343.757	59526
346.65	59569.1
349.543	59724
352.435	59567.5
355.328	59561.2
358.221	59509.5
361.113	59345.9
364.006	59341.1
366.899	59215.8
369.792	59222.7
372.684	59113.5
375.577	59259.2
378.47	58959.4
381.362	58803.6
384.255	58560.6
387.148	58414.7
390.041	58268.8
392.933	58367.8
395.826	58432.8
398.719	58263.2
401.611	58088
404.504	58170.5
407.397	57763.6
410.289	57593.2
413.182	57662.5
416.075	57505.3
418.967	57425.7
421.86	57462.6
424.753	57232.3
427.646	56940.3
430.538	56992.6
433.431	56884.5
436.324	56489.9
439.216	56512
442.109	56267.8
445.002	56273.6
447.894	56129.3
450.787	56066.5
453.68	55904.3
456.573	55618.5
459.465	55530
462.358	55400.8
465.251	55513.4
468.143	55344.1
471.036	55111.1
473.929	54829.1
476.822	54863.4
479.714	54645.9
482.607	54393.5
485.5	54426
488.392	54267.4
491.285	54109.2
494.178	53937.3
497.07	53728.7
499.963	53544.8
502.856	53502.9
505.748	53319.2
508.641	53355
511.534	53327.8
514.427	53130.3
517.319	53049.5
520.212	52770
523.105	52599.4
525.997	52453.4
528.89	52343.6
531.783	52312.4
534.676	52179.4
537.568	52054.3
540.461	51916.2
543.354	51677.2
546.246	51548.1
549.139	51290.8
552.032	51339.9
554.924	51155.2
557.817	50991.7
560.71	50929.9
563.602	50733.4
566.495	50690.6
569.388	50477.8
572.281	50177.9
575.173	50207.9
578.066	50049.8
580.959	49998.6
583.851	49970.4
586.744	49771.8
589.637	49472.1
592.529	49384.3
595.422	49075.4
598.315	49106
601.208	48840
604.1	48806.6
606.993	48796.3
609.886	48533.1
612.778	48501
615.671	48273.2
618.564	48129.4
621.457	47971.1
624.349	48062.5
627.242	47805
630.135	47594.5
633.027	47524.8
635.92	47304.8
638.813	47153.4
641.705	46929.9
644.598	46831.8
647.491	46665.5
650.384	46526.3
653.276	46459.5
656.169	46324.8
659.062	46195.3
661.954	46146.2
664.847	45971.1
667.74	45800.9
670.632	45613.8
673.525	45412.9
676.418	45577.8
679.311	45240.6
682.203	45241.7
685.096	44886.1
687.989	44904.2
690.881	44641.1
693.774	44586.5
696.667	44422.5
699.559	44392.4
702.452	44201.7
705.345	44152.1
708.237	43897.2
711.13	43729.4
714.023	43571
716.916	43522.5
719.808	43440.1
722.701	43201
725.594	43057.1
728.486	42961.3
731.379	42636.5
734.272	42579.8
737.164	42396.7
740.057	42267.4
742.95	41989.6
745.843	41866.8
748.735	41871.7
751.628	41670.6
754.521	41572
757.413	41427.7
760.306	41256.1
763.199	41097.8
766.091	40917.6
768.984	40875.2
771.877	40625.9
774.77	40510.1
777.662	40241.3
780.555	40114.4
783.448	40138.9
786.34	39991.7
789.233	39851
792.126	39703.8
795.019	39609.8
797.911	39385.7
800.804	39294.4
803.697	39086.4
806.589	39037.4
809.482	38930.8
812.375	38879.6
815.267	38621.6
818.16	38608.9
821.053	38409.6
823.946	38227.6
826.838	38098
829.731	38017.9
832.624	37903
835.516	37832.1
838.409	37651.6
841.302	37519.2
844.194	37494.2
847.087	37327.4
849.98	37084.3
852.872	36983.1
855.765	37024.2
858.658	36841.6
861.551	36747.8
864.443	36496.2
867.336	36526
870.229	36532
873.121	36141.3
876.014	36094.7
878.907	36251.6
881.799	36066.1
884.692	35817.6
887.585	35764.5
890.478	35799
893.37	35589.9
896.263	35393.5
899.156	35389.5
902.048	35286.1
904.941	35107.9
907.834	34989.6
910.726	34868.2
913.619	34772.3
916.512	34698.7
919.405	34487.4
922.297	34431.3
925.19	34360.1
928.083	34168.6
930.975	34163.2
933.868	34061.6
936.761	33849.1
939.654	33843.3
942.546	33816.2
945.439	33687.4
948.332	33556.8
951.224	33456.8
954.117	33304.4
957.01	33397.8
959.902	33216.6
962.795	33058.9
965.688	33087.4
968.581	32919.7
971.473	32824.2
974.366	32707
977.259	32518.3
980.151	32537.7
983.044	32560.4
985.937	32394.3
988.829	32274.6
991.722	32104.2
994.615	32058.5
997.508	32066.8
1000.4	31941.8
1003.29	31849.2
1006.19	31628.7
1009.08	31648
1011.97	31639.7
1014.86	31570.5
1017.76	31286.8
1020.65	31310.2
1023.54	31225.8
1026.43	31050.9
1029.33	31090.5
1032.22	30969.8
1035.11	30834.9
1038.01	30907.9
1040.9	30634.5
1043.79	30600.3
1046.68	30452.5
1049.58	30429.3
1052.47	30372.9
1055.36	30225.2
1058.25	30214.5
1061.15	30130.5
1064.04	30069.8
1066.93	29973.9
1069.83	29819.6
1072.72	29854.9
1075.61	29795.4
1078.5	29730.3
1081.4	29618.2
1084.29	29611.9
1087.18	29440.4
1090.07	29415.2
1092.97	29428
1095.86	29182.9
1098.75	29318.7
1101.64	29145.6
1104.54	28975.7
1107.43	28924.3
1110.32	28984
1113.21	28761.1
1116.11	28661.6
1119	28535.3
1121.89	28620.2
1124.79	28462.4
1127.68	28431.1
1130.57	28327.5
1133.46	28331
1136.36	28235.9
1139.25	28158.4
1142.14	28097.9
1145.04	28046.8
1147.93	27982.2
1150.82	27836.5
1153.71	27786.9
1156.61	27663.8
1159.5	27664.4
1162.39	27613.2
1165.28	27602.3
1168.18	27397.6
1171.07	27470.3
1173.96	27233.5
1176.86	27229
1179.75	27217.6
1182.64	27139.7
1185.53	26976.4
1188.43	27094
1191.32	26885.2
1194.21	26953.1
1197.1	26866.7
1200	26812.3
1202.89	26713.7
1205.78	26678.1
1208.67	26545.1
1211.57	26506.1
1214.46	26375.9
1217.35	26433.3
1220.24	26420.4
1223.14	26322.6
1226.03	26166.5
1228.92	26171.5
1231.82	26095.2
1234.71	26025.2
1237.6	25871.8
