Measurement: Raman, 514 nm, unoriented, Raman Data RAW
Mineral: Stibioclaudetite
Rruff sample: R080031
Ideal chemistry: As^3+^Sb^3+^O_3_
Locality: Tsumeb mine, Tsumeb, Otavi District, Oshikoto, Namibia
Source: William W Pinch
Description: Colorless prismatic in a vug of tennantite associated with leiteite, smithsonite, ludlockite, and quartz. Type specimen
Raman shift (cm-1)	intensity
113.08	644
115.604	774
118.127	623
120.649	746
123.171	883
125.691	875
128.21	749
130.729	700
133.246	683
135.763	722
138.279	779
140.794	864
143.308	1028
145.821	1485
148.333	2620
150.844	4394
153.355	7622
155.864	10040
158.372	3902
160.88	2062
163.387	1869
165.892	2486
168.397	5548
170.901	10760
173.404	5539
175.906	2171
178.408	1328
180.908	1139
183.407	1180
185.906	882
188.403	834
190.9	867
193.396	960
195.891	1258
198.385	2073
200.878	3785
203.37	3742
205.861	2513
208.351	3377
210.841	4783
213.33	1969
215.817	1043
218.304	776
220.79	699
223.275	682
225.759	708
228.242	718
230.724	775
233.206	775
235.686	669
238.166	603
240.644	599
243.122	592
245.599	589.641
248.075	619
250.55	651.45
253.024	690
255.498	729
257.97	793
260.442	923
262.912	1148
265.382	1572.64
267.851	2362
270.319	4411
272.786	5540
275.252	4128
277.717	2456
280.182	1650
282.645	1277
285.108	1025
287.569	871
290.03	827
292.49	892
294.949	1093
297.408	1322.71
299.865	1299
302.321	962
304.777	771
307.231	686
309.685	668
312.138	662
314.59	652
317.041	686
319.491	851
321.941	1043
324.389	1018
326.837	886
329.284	818
331.729	847
334.174	950
336.618	1134
339.062	1703
341.504	2412
343.945	2238
346.386	1559
348.826	1133
351.264	972
353.702	938
356.139	935
358.576	905
361.011	957
363.445	970
365.879	998
368.312	1033
370.743	1065.69
373.174	1094
375.604	1139
378.034	1212
380.462	1282
382.889	1459
385.316	1583
387.742	1763
390.167	1967
392.59	2291
395.014	2632
397.436	3073
399.857	3796.39
402.278	4704
404.697	6204
407.116	8440
409.534	12420
411.951	16610
414.367	17550
416.783	14160
419.197	10530
421.611	8006
424.023	6516
426.435	5549
428.846	5262
431.256	5132
433.666	5025
436.074	4624
438.481	3919
440.888	3235
443.294	2589
445.699	2151
448.103	1850
450.506	1622
452.909	1425
455.31	1262
457.711	1153
460.111	1088
462.51	1013.13
464.908	1002
467.305	968
469.701	976
472.097	961
474.492	940
476.885	943
479.278	885
481.671	832
484.062	787
486.452	752
488.842	735
491.231	716
493.618	695
496.005	694
498.392	668
500.777	687
503.161	679
505.545	701
507.928	731
510.31	802
512.691	946
515.071	1162
517.45	1317
519.829	1191
522.206	935
524.583	776
526.959	707
529.334	647
531.709	573
534.082	524.793
536.455	515
538.827	512
541.197	496
543.568	490
545.937	471
548.305	474
550.673	471
553.039	470
555.405	474
557.77	464
560.135	455
562.498	452
564.86	457
567.222	445
569.583	442.665
571.943	453
574.302	450
576.66	454
579.018	453.942
581.375	438
583.73	453
586.085	459
588.439	473
590.793	465
593.145	449
595.497	470
597.848	489
600.198	486
602.547	521
604.895	546
607.243	585
609.589	657.333
611.935	759
614.28	911
616.624	1118
618.968	1327
621.31	1293
623.652	1107
625.993	931
628.333	871.298
630.672	864
633.01	845
635.348	800
637.684	717
640.02	633
642.355	577
644.69	562
647.023	516
649.356	499
651.687	495
654.018	471
656.348	458
658.678	455
661.006	454
663.334	443
665.661	462
667.987	454
670.312	442
672.636	428
674.96	428
677.282	419
679.604	428
681.925	443
684.246	443
686.565	443
688.884	441
691.201	442
693.518	435
695.835	438
698.15	444
700.465	445
702.778	460
705.091	469
707.403	487
709.715	494
712.025	556
714.335	613
716.644	677
718.952	756
721.259	866
723.565	956
725.871	951
728.176	896
730.48	778
732.783	689
735.085	607
737.387	562
739.687	535
741.987	510
744.286	493
746.585	482
748.882	468
751.179	493
753.475	503
755.77	517
758.064	553
760.358	633
762.65	707
764.942	772
767.233	793
769.524	748
771.813	675
774.102	617
776.389	569
778.676	512
780.963	512
783.248	496
785.533	487
787.817	473
790.1	462
792.382	456
794.663	467
796.944	478
799.224	482
801.503	484
803.781	511
806.059	543
808.335	571
810.611	614
812.886	663
815.16	666
817.434	679
819.706	663
821.978	617
824.249	570.627
826.52	524
828.789	490
831.058	470
833.326	458
835.593	450
837.859	446
840.125	427
842.389	433
844.653	430
846.916	420
849.179	417
851.44	410
853.701	404
855.961	409
858.22	414.8
860.479	407
862.736	405
864.993	412
867.249	399
869.504	408
871.759	406
874.013	397
876.266	394
878.518	403
880.769	410
883.019	404
885.269	394
887.518	382
889.766	395
892.014	396
894.26	390
896.506	395
898.751	394
900.996	389
903.239	393
905.482	384
907.724	393
909.965	409
912.205	391
914.445	404
916.684	407
918.922	402
921.159	411
923.395	394
925.631	399
927.866	406
930.1	393
932.333	400
934.566	380
936.798	410
939.029	403
941.259	401
943.489	418
945.717	410
947.945	405
950.172	401
952.399	401
954.624	418
956.849	426
959.073	414
961.297	418
963.519	422
965.741	416
967.962	426
970.182	422
972.401	439
974.62	434
976.838	442
979.055	456.767
981.271	462
983.487	451
985.702	457
987.916	460
990.129	486
992.342	492
994.553	499
996.764	497
998.975	492
1001.18	490
1003.39	475
1005.6	476
1007.81	465
1010.01	484
1012.22	462
1014.42	464
