Measurement: Raman, 514 nm, unoriented, Raman Data RAW
Mineral: Stolzite
Rruff sample: X060016
Ideal chemistry: Pb^2+^W^6+^O_4_
Locality: Reef mine, Cochise County, Arizona, USA
Source: University of Arizona Mineral Museum
Description: Single crystal
Raman shift (cm-1)	intensity
0	0
111.628	377
116.688	483
121.745	600
126.797	762.333
131.846	886
136.892	1000
141.934	1120
146.972	1251.67
152.006	1460
157.037	1766.67
162.064	2261
167.088	3247
172.108	4368.33
177.125	3806.33
182.137	3048.67
187.146	3118.67
192.152	2847
197.154	2069
202.152	1646.33
207.147	1479.33
212.138	1423.33
217.126	1395.67
222.11	1358
227.09	1350.67
232.067	1321.33
237.04	1350
242.009	1400.67
246.975	1413
251.938	1446.33
256.896	1490.67
261.851	1523.33
266.803	1602.33
271.751	1660.67
276.696	1758.33
281.636	1898
286.574	2096.33
291.507	2438
296.438	2913
301.364	3685.67
306.287	5112
311.207	8133.67
316.123	15429
321.035	26732
325.944	25436.7
330.849	11918
335.751	6005.67
340.649	4058
345.543	3530.33
350.434	4169
355.322	4583.33
360.206	3023.33
365.086	2206.67
369.963	1800.4
374.837	1632.86
379.706	1535.67
384.573	1451.67
389.436	1393.67
394.295	1361.33
399.151	1338
404.003	1332.67
408.852	1297.67
413.697	1292
418.538	1279.67
423.377	1273.33
428.211	1245.67
433.042	1249.67
437.87	1235
442.694	1243
447.515	1251.67
452.332	1236
457.145	1244.67
461.956	1246
466.762	1245.33
471.565	1262.67
476.365	1241.67
481.161	1251.67
485.954	1247.33
490.743	1261.33
495.529	1274.33
500.311	1278
505.09	1303.67
509.865	1305.33
514.637	1319
519.405	1319.33
524.17	1343
528.932	1346.67
533.69	1340.67
538.444	1358
543.195	1352.33
547.943	1364.67
552.687	1337.33
557.428	1364.33
562.165	1370
566.899	1377.33
571.629	1371.33
576.356	1374
581.08	1392.33
585.8	1381.67
590.516	1400.33
595.229	1398.33
599.939	1383.33
604.645	1426.33
609.348	1410.33
614.048	1400.33
618.744	1410
623.436	1408.67
628.126	1420.95
632.811	1445.31
637.494	1473.33
642.173	1449.67
646.848	1465.67
651.52	1497.33
656.189	1512.33
660.854	1517.67
665.516	1554.67
670.175	1577.4
674.83	1609.33
679.482	1630
684.13	1669.33
688.775	1664.67
693.416	1713.67
698.054	1743.67
702.689	1752.33
707.321	1785.67
711.949	1857.67
716.573	1928
721.194	1994.33
725.812	2145.67
730.427	2457.33
735.038	3020.67
739.646	4616.67
744.25	8619.33
748.851	13486.3
753.449	9885.67
758.043	6814.33
762.634	8228
767.221	9702.67
771.806	5546.33
776.386	3564.67
780.964	2940.67
785.538	2656
790.109	2562.33
794.676	2526.33
799.24	2510.33
803.801	2559.33
808.359	2657.67
812.913	2781
817.464	2914.67
822.011	2984
826.555	3125
831.096	3204.67
835.633	3292.33
840.167	3488.73
844.698	3670.96
849.226	4065.12
853.75	4778.76
858.271	6544.07
862.788	11649.7
867.303	28608.2
871.813	29665.7
876.321	11341.4
880.825	6036.98
885.326	4738.51
889.824	4961.54
894.319	6983.21
898.81	15102.9
903.297	47352.5
907.782	38709.5
912.263	11886.6
916.741	5980.85
921.216	4155.86
925.687	3357.96
930.155	2946.75
934.62	2711.99
939.082	2586.58
943.54	2493.81
947.995	2425.11
952.446	2375.36
956.895	2318.59
961.34	2308.77
965.782	2288.5
970.221	2259.78
974.656	2263.11
979.088	2262.03
983.517	2255.06
987.942	2257.64
992.365	2237.67
996.784	2246.93
1001.2	2254.97
1005.61	2283.93
1010.02	2290
1018.87	2293
1023.36	2295
1027.85	2283
1032.34	2316.67
1036.82	2304.33
1041.3	2268.33
1045.78	2310.67
1050.25	2311.67
1054.72	2298.67
1059.19	2302.33
1063.66	2303.33
1068.12	2315.33
1072.58	2317.67
1077.03	2332.33
1081.48	2334
1085.93	2357
1090.38	2371.33
1094.82	2383.33
1099.26	2359.67
1103.69	2376.33
1108.12	2400.67
1112.56	2386
1116.98	2410
1121.4	2396.67
1125.83	2431.67
1130.24	2388
1134.66	2433
1139.07	2407
1143.47	2417
1147.88	2411.33
1152.28	2421.67
1156.68	2446.67
1161.07	2466
1165.47	2466.67
1169.86	2482.67
1174.24	2487.67
1178.62	2518.67
1183	2475.48
1187.38	2498.67
1191.75	2497.67
1196.12	2487.33
1200.49	2519.67
1204.85	2502.67
1209.21	2536.67
1213.57	2510.67
1217.93	2544
1222.28	2547.67
1226.63	2567.63
1230.97	2584.19
1235.32	2567.67
1239.65	2565
1243.99	2618.67
1248.32	2594.33
1252.65	2614
1256.98	2648.67
1261.31	2621.33
1265.63	2635.33
1269.94	2657
1274.26	2655.67
1278.57	2699.67
1282.88	2659
1287.18	2675.33
1291.49	2703.67
1295.79	2691.67
1300.08	2734.67
1304.38	2708.67
1308.66	2705
1312.95	2700.33
1317.24	2711.67
1321.52	2747.33
1325.8	2705.67
1330.07	2741
1334.34	2715
1338.61	2721.33
1342.88	2719
1347.14	2739.67
1351.4	2741
1355.65	2753.33
1359.91	2768.33
1364.16	2761
1368.41	2760.33
1372.65	2768.33
1376.89	2790.67
1381.13	2778.67
1385.37	2801.33
1389.6	2810.67
1393.83	2787.67
1398.05	2824.33
1402.28	2792.67
1406.5	2824.67
1410.71	2849.94
1414.93	2840.33
1419.14	2822.74
1423.35	2865.65
1427.55	2856.33
1431.76	2860.67
1435.95	2909
1440.15	2895.33
1444.34	2917.33
1448.53	2919.67
1452.72	2943.67
1456.9	2939.33
1461.09	2928.67
1465.26	2980
1469.44	2943.33
1473.61	2968
1477.78	2991.67
1481.95	2983.33
1486.11	2994.33
1490.27	3027.67
1494.43	3041.67
1498.58	3029
1502.73	3077.76
1506.88	3064.67
1511.03	3074.33
1515.17	3100.67
1519.31	3097
1523.44	3086.67
1527.58	3083.67
1531.71	3098
1535.84	3101.67
1539.96	3118.67
1544.08	3095.67
1548.2	3121
1552.32	3131.67
1556.43	3116.33
1560.54	3134
1564.64	3178.67
1568.75	3175.33
1572.85	3178
1576.95	3189
1581.04	3190.33
1585.13	3170.67
1589.22	3166
1593.31	3201
1597.39	3215.33
1601.47	3219
1605.55	3239.33
1609.62	3257.67
1613.69	3234
1617.76	3254
1621.83	3272
1625.89	3306.67
1629.95	3264.89
1634.01	3268.33
1638.06	3264.33
1642.11	3295.33
1646.16	3278
1650.21	3302
1654.25	3309.67
1658.29	3309.33
1662.32	3334.67
