Measurement: Raman, 780 nm, unoriented, Raman Data Processed
Mineral: Strontioruizite
Rruff sample: R160085
Ideal chemistry: Sr_2_Mn^3+^_2_Si_4_O_11_(OH)_4_2H_2_O
Locality: N’Chwaning III mine, Kalahari manganese field, Northern Cape Province, South Africa
Source: Bruce Cairncross
Description: Clusters of brown, elongate crystals, associated with clusters of purple sugilite, bronze fibrous potassic-magnesioarfvedsonite, and dark red-brown lipuite
Measured chemistry: (Sr_1.61_Ca_0.42_)_Σ2.03_(Mn^3+^_1.95_Fe^3+^_0.05_)_Σ2.00_Si_3.98_O_11_(OH)_4_·2H_2_O
Raman shift (cm-1)	intensity
103.974	24371
107.349	24546
110.724	24724.8
114.099	24819
117.473	24916
120.848	25044
124.223	25182.4
127.598	25300.4
130.972	25345.6
134.347	25419.3
137.722	25556.5
141.097	25739.8
144.472	25851.4
147.847	25943.7
151.221	26049.2
154.596	26074.9
157.971	26120.1
161.346	26241.4
164.721	26279.8
168.096	26309.2
171.47	26385
174.845	26456.6
178.22	26570.8
181.595	26715.7
184.97	26787.9
188.345	26801.2
191.719	26845.6
195.094	26830
198.469	26839.2
201.844	26949.9
205.219	27031.4
208.593	26992.9
211.968	27077.8
215.343	27154.9
218.718	27214.3
222.093	27220.1
225.468	27220.8
228.842	27292.9
232.217	27388
235.592	27402.9
238.967	27337.1
242.341	27420.2
245.716	27427.9
249.091	27439
252.466	27427.5
255.841	27408.3
259.216	27490.5
262.591	27587.7
265.965	27593.5
269.34	27517.8
272.715	27590.4
276.09	27585.4
279.464	27611.9
282.839	27665.5
286.214	27749
289.589	27765.6
292.964	27782.5
296.339	27710.9
299.713	27699.3
303.088	27669.7
306.463	27764.4
309.838	27784.8
313.213	27883.2
316.587	27791.3
319.962	27754.1
323.337	27788
326.712	27737.6
330.087	27752.2
333.462	27866.4
336.837	27728.9
340.211	27751.5
343.586	27799.1
346.961	27862.5
350.336	27809.1
353.711	27788.1
357.085	27742.8
360.46	27679.9
363.835	27702.3
367.21	27820.6
370.585	27709.8
373.959	27729.9
377.334	27699.4
380.709	27710.9
384.084	27695.7
387.459	27607.5
390.834	27693.1
394.208	27624.9
397.583	27588
400.958	27636.3
404.333	27570.2
407.708	27625.1
411.082	27647.8
414.457	27605.1
417.832	27683.2
421.207	27610.2
424.582	27519.5
427.957	27545.1
431.331	27527.4
434.706	27563
438.081	27568
441.456	27531.3
444.831	27486.8
448.205	27474.4
451.58	27448.4
454.955	27435.5
458.33	27479.9
461.705	27467.7
465.079	27427
468.454	27419.2
471.829	27368.2
475.204	27372.9
478.579	27310.8
481.954	27223.2
485.328	27214.2
488.703	27206.3
492.078	27185.7
495.453	27187.2
498.828	27227.2
502.202	27120.3
505.577	27000.9
508.952	26981.2
512.327	26907.5
515.702	26843.1
519.077	26905.8
522.451	26869.9
525.826	26902.8
529.201	26731.9
532.576	26726.6
535.951	26753.9
539.326	26636.3
542.7	26561.5
546.075	26568.5
549.45	26614.2
552.825	26595
556.2	26615.9
559.574	26554.7
562.949	26499.2
566.324	26486.6
569.699	26310.2
573.074	26279.5
576.448	26241.1
579.823	26242.4
583.198	26252.7
586.573	26116.8
589.948	26027.2
593.323	26022.5
596.697	26009.3
600.072	26092.5
603.447	25977.4
606.822	25949
610.197	26017.8
613.572	26023.2
616.946	25905.7
620.321	25839.6
623.696	25773.8
627.071	25757.9
630.446	25640.6
633.82	25589.7
637.195	25519.9
640.57	25421.7
643.945	25336.6
647.32	25297.4
650.694	25218.9
654.069	25262.8
657.444	25191.1
660.819	25162.9
664.194	25057
667.569	24984.4
670.943	24943.2
674.318	24868.1
677.693	24874.2
681.068	24885.3
684.443	24855
687.817	24802
691.192	24686.2
694.567	24590.9
697.942	24613.5
701.317	24593.2
704.692	24525.4
708.066	24471.8
711.441	24436.7
714.816	24403.9
718.191	24357.8
721.566	24416.1
724.941	24324.3
728.315	24369
731.69	24286.9
735.065	24195.4
738.44	24104.7
741.815	24134.5
745.189	24100.1
748.564	24049.2
751.939	23964.6
755.314	23939.5
758.689	23951.2
762.063	23929.1
765.438	23860
768.813	23885.5
772.188	23783.6
775.563	23772.2
778.938	23720.7
782.312	23688.4
785.687	23648.3
789.062	23665.8
792.437	23685.5
795.812	23650.9
799.187	23604.4
802.561	23599.4
805.936	23527.7
809.311	23408
812.686	23411.8
816.061	23376.6
819.435	23373.1
822.81	23352.9
826.185	23329.2
829.56	23187.3
832.935	23195.1
836.309	23237.4
839.684	23224.7
843.059	23160.8
846.434	23063.1
849.809	23080.2
853.184	22987.1
856.558	22939.3
859.933	22978
863.308	22915.7
866.683	22853.2
870.058	22795.3
873.433	22756.9
876.807	22686.2
880.182	22758.9
883.557	22680.9
886.932	22599.6
890.307	22569.1
893.681	22389.5
897.056	22468.8
900.431	22390.5
903.806	22405.2
907.181	22303
910.556	22317.1
913.93	22249.6
917.305	22271.6
920.68	22189
924.055	22192.3
927.43	22159.8
930.804	22193.2
934.179	22194.2
937.554	22133.8
940.929	22070.3
944.304	22029
947.678	22005.8
951.053	21948.4
954.428	21926.3
957.803	21952.1
961.178	21861.3
964.553	21899.8
967.927	21840.8
971.302	21751.1
974.677	21693.9
978.052	21767.7
981.427	21844
984.802	21788.1
988.176	21711
991.551	21747.5
994.926	21655.7
998.301	21695.3
1001.68	21733
1005.05	21668.1
1008.42	21644.3
1011.8	21729.3
1015.17	21703.3
1018.55	21599.6
1021.92	21631.2
1025.3	21529.5
1028.67	21543.4
1032.05	21575.4
1035.42	21553.6
1038.8	21558.8
1042.17	21590
1045.55	21499.6
1048.92	21453.1
1052.3	21442.6
1055.67	21492.2
1059.05	21550.1
1062.42	21524.9
1065.8	21449.5
1069.17	21445.3
1072.55	21352.8
1075.92	21414.7
1079.3	21389.2
1082.67	21422.2
1086.05	21354.6
1089.42	21405.6
1092.8	21299.9
1096.17	21311
1099.55	21331.7
1102.92	21241.1
1106.3	21275.8
1109.67	21281.6
1113.05	21180.2
1116.42	21221.2
1119.79	21337.1
1123.17	21288.8
1126.54	21238.1
1129.92	21194.9
1133.29	21292.5
1136.67	21340.2
1140.04	21345
1143.42	21315.7
1146.79	21322
1150.17	21400.2
1153.54	21422.2
1156.92	21392.8
1160.29	21415.3
1163.67	21329.8
1167.04	21457.4
1170.42	21449.4
1173.79	21512.1
1177.17	21540.7
1180.54	21476.4
1183.92	21530.3
1187.29	21597.9
1190.66	21595.2
1194.04	21609.8
1197.41	21547
1200.79	21568.2
1204.16	21585.1
1207.54	21565.5
1210.91	21732
1214.29	21667.1
1217.66	21698.2
1221.04	21752.9
1224.41	21697.7
1227.79	21605
1231.16	21610.4
1234.54	21713.7
1237.91	21719.8
1241.29	21724.3
1244.66	21737
1248.04	21753.5
1251.41	21790.2
1254.79	21832.1
1258.16	21854
1261.54	21933.2
1264.91	21909.4
1268.29	21911.8
1271.66	21849
1275.04	21938.2
1278.41	21879.4
1281.79	21893.1
