Measurement: Raman, 532 nm, unoriented, Raman Data Processed
Mineral: Strontioruizite
Rruff sample: R160085
Ideal chemistry: Sr_2_Mn^3+^_2_Si_4_O_11_(OH)_4_2H_2_O
Locality: N’Chwaning III mine, Kalahari manganese field, Northern Cape Province, South Africa
Source: Bruce Cairncross
Description: Clusters of brown, elongate crystals, associated with clusters of purple sugilite, bronze fibrous potassic-magnesioarfvedsonite, and dark red-brown lipuite
Measured chemistry: (Sr_1.61_Ca_0.42_)_Σ2.03_(Mn^3+^_1.95_Fe^3+^_0.05_)_Σ2.00_Si_3.98_O_11_(OH)_4_·2H_2_O
Raman shift (cm-1)	intensity
160.936	0
163.829	5.10388
166.722	1.63708
169.614	6.4436
172.507	21.7557
175.4	33.4177
178.293	36.6805
181.185	45.9147
184.078	41.4766
186.971	47.1434
189.863	57.8117
192.756	68.2947
195.649	79.1765
198.542	94.6599
201.434	107.362
204.327	111.736
207.22	117.689
210.112	125.135
213.005	129.708
215.898	130.915
218.79	119.144
221.683	103.136
224.576	61.0523
227.469	33.8954
230.361	15.1022
233.254	0.914063
236.147	4.39429
239.039	6.88965
241.932	12.0269
244.825	31.4707
247.717	55.3234
250.61	70.1165
253.503	84.0885
256.396	111.185
259.288	142.834
262.181	124.011
265.074	81.7734
267.966	49.5535
270.859	33.1957
273.752	33.7264
276.644	36.6986
279.537	42.337
282.43	48.3699
285.322	62.8058
288.215	75.9967
291.108	82.4598
294.001	70.1834
296.893	46.4969
299.786	29.3217
302.679	17.2985
305.571	6.90674
308.464	8.47101
311.357	2.11963
314.25	6.11035
317.142	8.63269
320.035	4.414
322.928	1.10443
325.82	10.3195
328.713	23.7291
331.606	41.0044
334.498	61.7315
337.391	94.7255
340.284	140.305
343.176	182.335
346.069	215.146
348.962	226.036
351.855	214.071
354.747	187.705
357.64	161.345
360.533	140.439
363.425	124.638
366.318	117.82
369.211	114.982
372.103	113.147
374.996	114.736
377.889	120.882
380.782	111.007
383.674	106.33
386.567	89.4915
389.46	76.1253
392.352	66.0843
395.245	74.8281
398.138	83.8492
401.031	95.9077
403.923	97.5134
406.816	84.8
409.709	69.2847
412.601	43.5659
415.494	28.3021
418.387	15.2004
421.279	16.8347
424.172	22.072
427.065	33.9064
429.957	50.2216
432.85	69.8494
435.743	84.9835
438.636	93.6771
441.528	85.0078
444.421	68.939
447.314	48.14
450.206	28.7988
453.099	10.8383
455.992	6.58752
458.885	7.20422
461.777	13.7184
464.67	14.8983
467.563	24.7354
470.455	35.5492
473.348	39.8355
476.241	37.373
479.133	30.4132
482.026	18.3644
484.919	11.5128
487.812	8.7511
490.704	3.81592
493.597	2.28308
496.49	1.25934
499.382	3.11499
502.275	1.49072
505.168	4.05103
508.06	3.33551
510.953	0.086548
513.846	3.10242
516.739	4.18671
519.631	2.41211
522.524	0.440002
525.417	4.67139
528.309	7.62683
531.202	10.1932
534.095	16.2781
536.987	24.4699
539.88	35.1788
542.773	50.1743
545.665	72.8603
548.558	106.443
551.451	155.863
554.344	233.263
557.236	330.053
560.129	454.962
563.022	589.537
565.914	652.135
568.807	593.828
571.7	440.251
574.592	295.298
577.485	196.91
580.378	135.166
583.271	101.132
586.163	77.2693
589.056	61.0501
591.949	47.7029
594.841	41.8744
597.734	41.4735
600.627	38.2045
603.519	34.0385
606.412	41.3529
609.305	46.2093
612.198	50.6376
615.09	53.9464
617.983	63.6998
620.876	71.0255
623.768	90.5695
626.661	100.293
629.554	110.52
632.447	112.553
635.339	106.714
638.232	90.1402
641.125	77.4404
644.017	57.3732
646.91	43.593
649.803	34.7841
652.695	26.2014
655.588	15.3248
658.481	17.4449
661.374	11.3309
664.266	6.20581
667.159	6.99713
670.052	6.51526
672.944	5.49939
675.837	2.50812
678.73	2.44788
681.622	1.85187
684.515	2.5802
687.408	2.62476
690.301	0.167908
693.193	1.37286
696.086	2.20447
698.979	0.455383
701.871	3.07349
704.764	0.107422
707.657	2.20734
710.549	6.18109
713.442	4.53461
716.335	4.51978
719.227	2.89935
722.12	4.41791
725.013	4.89435
727.906	8.82733
730.798	12.0758
733.691	14.2654
736.584	16.8736
739.476	15.2767
742.369	7.8512
745.262	9.22107
748.154	9.80328
751.047	9.86871
753.94	14.617
756.833	11.7159
759.725	11.6772
762.618	12.685
765.511	4.64148
768.403	6.38
771.296	4.28174
774.189	2.91089
777.082	3.61987
779.974	0.425049
782.867	3.42944
785.76	5.10693
788.652	0.112183
791.545	4.35242
794.438	5.87427
797.33	10.0924
800.223	10.5232
803.116	7.646
806.009	6.64685
808.901	10.1348
811.794	8.91638
814.687	6.31714
817.579	5.11585
820.472	6.40051
823.365	4.10095
826.257	2.22656
829.15	1.15381
832.043	3.49927
834.936	4.77441
837.828	2.01379
840.721	3.55151
843.614	5.18481
846.506	2.12402
849.399	1.76587
852.292	7.58118
855.184	0.949097
858.077	0.796631
860.97	0.256104
863.863	3.12158
866.755	0.567993
869.648	1.20618
872.541	2.15979
875.433	7.66675
878.326	15.0184
881.219	21.6887
884.111	28.5518
887.004	42.6503
889.897	39.3406
892.79	44.5381
895.682	45.2159
898.575	54.1599
901.468	62.506
904.36	76.2562
907.253	91.2203
910.146	106.476
913.038	122.34
915.931	125.241
918.824	134.681
921.717	145.046
924.609	172.457
927.502	204.185
930.395	218.851
933.287	197.255
936.18	149.413
939.073	103.909
941.966	77.9619
944.858	62.8404
947.751	50.2559
950.644	45.6367
953.536	44.9303
956.429	39.3384
959.322	38.5084
962.214	38.6119
965.107	27.225
968	23.2694
970.893	20.0783
973.785	12.5111
976.678	8.83166
979.571	10.132
982.463	1.90295
985.356	4.16699
988.249	0.04834
991.141	2.646
994.034	2.1908
996.927	6.00964
999.819	7.80212
1002.71	8.41528
1005.61	2.42615
1008.5	1.72034
1011.39	6.13318
1014.28	0.977661
1017.18	5.00195
1020.07	5.93481
1022.96	2.00208
1025.85	4.90295
1028.75	9.96216
1031.64	2.62146
1034.53	9.85669
1037.42	6.59058
1040.32	2.95435
1043.21	3.276
1046.1	1.90076
1048.99	0.357178
1051.89	2.7721
1054.78	2.8844
1057.67	10.4231
1060.57	7.70825
1063.46	7.54394
1066.35	8.80298
1069.24	8.86902
1072.14	14.3334
1075.03	14.2011
1077.92	15.0033
1080.82	11.5919
1083.71	13.3904
1086.6	9.08874
1089.49	7.69653
1092.39	10.2769
1095.28	9.03284
1098.17	12.5021
1101.06	12.0515
1103.96	13.1394
1106.85	4
1109.74	1.56384
1112.63	2.87268
1115.53	0.800537
1118.42	7.09399
1121.31	9.96301
1124.21	6.50488
1127.1	1.17419
1129.99	1.71912
1132.88	4.28345
1135.78	6.8175
1138.67	10.3876
1141.56	13.1626
1144.45	11.4661
1147.35	6.45325
1150.24	10.8965
1153.13	12.3441
1156.03	19.1934
1158.92	20.6139
1161.81	18.0518
1164.7	15.2416
1167.6	11.8535
1170.49	15.8641
1173.38	23.2131
1176.27	33.0144
1179.17	32.371
1182.06	23.6462
1184.95	19.2913
1187.85	16.131
1190.74	14.0483
1193.63	11.9546
1196.52	7.1571
1199.42	6.3457
1202.31	4.74976
1205.2	3.14893
1208.09	0.9646
1210.99	7.95557
1213.88	13.2928
1216.77	8.58765
1219.66	11.7106
1222.56	12.1377
1225.45	5.74414
1228.34	5.21069
1231.24	8.29395
1234.13	12.3685
1237.02	13.1543
1239.91	22.1997
1242.81	37.5474
1245.7	42.0535
1248.59	42.6257
1251.48	34.0586
1254.38	22.7467
1257.27	22.5692
1260.16	17.921
1263.06	15.2628
1265.95	15.5481
1268.84	4.11414
1271.73	2.57532
1274.63	1.83643
1277.52	4.30005
1280.41	8.46826
1283.3	6.85144
1286.2	7.15527
1289.09	6.78833
1291.98	3.75793
1294.88	4.33899
1297.77	6.29468
1300.66	0
