Measurement: Raman, 780 nm, unoriented, Raman Data Processed
Mineral: Stutzite
Rruff sample: R060332
Ideal chemistry: Ag_4.64-4.76_Te_3_
Locality: Bambollita mine, Moctezuma District, Sonora, Mexico
Source: Michael Scott
Description: Dark lead gray metallic massive
Raman shift (cm-1)	intensity
159.418	0
162.31	2.09596
165.203	0.789612
168.096	1.06322
170.988	1.12935
173.881	1.48566
176.774	1.85953
179.667	2.98117
182.559	0.174789
185.452	1.40688
188.345	1.22081
191.237	1.70421
194.13	0.173096
197.023	0.022659
199.916	0.753891
202.808	2.27959
205.701	0.066162
208.594	0.228241
211.486	0.265549
214.379	1.05243
217.272	1.70081
220.164	1.15648
223.057	3.25978
225.95	1.07053
228.843	2.222
231.735	2.55002
234.628	3.15385
237.521	3.12723
240.413	4.94133
243.306	4.12778
246.199	4.82715
249.091	4.99315
251.984	2.95769
254.877	3.83472
257.769	4.8493
260.662	3.02783
263.555	2.76022
266.448	3.44392
269.34	1.15422
272.233	1.67044
275.126	0.704971
278.018	1.116
280.911	1.37295
283.804	1.13457
286.697	2.07085
289.589	0.280869
292.482	0.330261
295.375	1.3493
298.267	1.13364
301.16	0.600159
304.053	1.59663
306.945	0.00473
309.838	1.49908
312.731	1.12666
315.623	1.53153
318.516	2.58707
321.409	1.64642
324.302	1.49612
327.194	0.738571
330.087	0.295624
332.98	1.16664
335.873	1.98892
338.765	0.437332
341.658	1.2775
344.551	1.15149
347.443	2.1299
350.336	0.022598
353.229	2.08023
356.121	0.708542
359.014	1.37372
361.907	1.3309
364.8	0.833832
367.692	2.33659
370.585	1.62794
373.478	1.98625
376.37	1.00961
379.263	0.998322
382.156	1.70373
385.048	2.07219
387.941	0.516739
390.834	1.25072
393.726	1.62634
396.619	0.157883
399.512	0.632477
402.405	1.40272
405.297	0.129669
408.19	0.285355
411.083	0.523544
413.975	0.187302
416.868	0.278976
419.761	0.026474
422.654	0.484772
425.546	0.117218
428.439	0.077194
431.332	0.204529
434.224	0.287094
437.117	1.39587
440.01	0.206741
442.902	1.20172
445.795	0.524719
448.688	2.99281
451.58	2.40288
454.473	2.24588
457.366	2.80357
460.259	2.88704
463.151	3.77983
466.044	4.94122
468.937	3.83284
471.829	4.26706
474.722	4.32811
477.615	3.61945
480.507	3.09843
483.4	3.13345
486.293	3.51282
489.186	3.93042
492.078	4.52722
494.971	3.88792
497.864	4.33493
500.756	2.10847
503.649	0.164291
506.542	2.03786
509.435	3.7399
512.327	0.855774
515.22	0.945282
518.112	2.16779
521.005	2.02628
523.898	1.45981
526.791	0.616623
529.683	1.82411
532.576	1.75502
535.469	0.208664
538.361	0.862152
541.254	0.414886
544.147	0.972595
547.04	1.71259
549.932	0.571182
552.825	1.23181
555.718	1.59039
558.61	1.6109
561.503	0.553864
564.396	0.150818
567.288	1.34555
570.181	1.04393
573.074	1.26502
575.967	0.648132
578.859	1.32079
581.752	0.196503
584.645	1.81995
587.537	1.86146
590.43	0.715103
593.323	1.07996
596.216	0.897308
599.108	0.495453
602.001	0.683792
604.894	0.20639
607.786	0.467361
610.679	1.31938
613.572	0.330322
616.464	0.787964
619.357	0.555832
622.25	0.44046
625.143	0.844223
628.035	0.907089
630.928	0.985275
633.821	1.81045
636.713	1.73849
639.606	0.382233
642.499	0.926315
645.391	0.296036
648.284	0.487457
651.177	1.08478
654.069	1.90076
656.962	1.71118
659.855	1.59703
662.748	1.87682
665.64	1.98448
668.533	1.41541
671.426	1.08853
674.318	0.602173
677.211	1.03536
680.104	0.844772
682.996	1.73198
685.889	1.99216
688.782	0.667358
691.675	0.917404
694.567	0.988785
697.46	0.773544
700.353	0.51651
703.245	1.30858
706.138	0.220123
709.031	0.526779
711.923	1.11047
714.816	0.35849
717.709	0.263214
720.602	0.83783
723.494	0.095566
726.387	0.844894
729.28	1.19771
732.172	0.063141
735.065	1.85095
737.958	0.976837
740.851	1.0793
743.743	0.848877
746.636	1.16876
749.529	1.0493
752.421	1.09644
755.314	0.310791
758.207	0.579865
761.099	1.54118
763.992	2.21069
766.885	1.01025
769.778	1.19011
772.67	0.572739
775.563	0.918243
778.456	1.59177
781.348	1.24313
784.241	0.483063
787.134	0.678497
790.026	1.45857
792.919	1.32549
795.812	1.59259
798.705	1.42206
801.597	1.66638
804.49	2.08096
807.383	1.85944
810.275	2.59615
813.168	2.18559
816.061	1.90608
818.953	2.06035
821.846	2.5952
824.739	2.7636
827.631	3.12364
830.524	2.01976
833.417	2.79382
836.31	3.56635
839.202	3.17064
842.095	3.54254
844.988	3.70796
847.88	3.29054
850.773	2.89638
853.666	2.96196
856.558	4.24997
859.451	3.56644
862.344	3.49565
865.237	4.54475
868.129	5.29199
871.022	4.84055
873.915	4.09445
876.807	3.20998
879.7	3.5278
882.593	3.03908
885.486	1.2482
888.378	1.44405
891.271	1.2417
894.164	0.411713
897.056	0.156479
899.949	0.742874
902.842	0.882614
905.734	1.19815
908.627	0.732529
911.52	0.558563
914.413	0.67659
917.305	0.414734
920.198	0.457184
923.091	0.535919
925.983	0.951736
928.876	1.32309
931.769	0.748093
934.661	0.428093
937.554	0.295029
940.447	0.975426
943.34	0.146996
946.232	0.482567
949.125	0.209137
952.018	0.369904
954.91	0.927704
957.803	0.532944
960.696	0.577202
963.588	1.86539
966.481	1.80572
969.374	1.25629
972.266	0.762054
975.159	0.584732
978.052	0.309219
980.945	0.186592
983.837	0.353004
986.73	1.0556
989.623	1.22788
992.515	1.19687
995.408	0.274582
998.301	1.44004
1001.19	0.616982
1004.09	0.723885
1006.98	0.49279
1009.87	0.664696
1012.76	1.2752
1015.66	1.33629
1018.55	1.36665
1021.44	1.26328
1024.34	1.25279
1027.23	1.7913
1030.12	0.87635
1033.01	1.36239
1035.91	0.624168
1038.8	3.9926
1041.69	1.62846
1044.58	1.29279
1047.48	0.671799
1050.37	1.02794
1053.26	2.20355
1056.15	1.18195
1059.05	1.54331
1061.94	0.405342
1064.83	1.60007
1067.73	1.49484
1070.62	1.11929
1073.51	1.46074
1076.4	0.067612
1079.3	0.567673
1082.19	1.75943
1085.08	1.17066
1087.97	1.83015
1090.87	0.659828
1093.76	0.756966
1096.65	0.997871
1099.55	0.895363
1102.44	1.11769
1105.33	1.97544
1108.22	1.38052
1111.12	0.884346
1114.01	0.064713
1116.9	0.176598
1119.79	0.778923
1122.69	0.011826
1125.58	0.288803
1128.47	1.2363
1131.37	0.173683
1134.26	0.303558
1137.15	0.978004
1140.04	0.957588
1142.94	1.54884
1145.83	1.68564
1148.72	0.64798
1151.61	0.620522
1154.51	1.23127
1157.4	0.43821
1160.29	0.694344
1163.18	0.836037
1166.08	0.466698
1168.97	0.642883
1171.86	1.01486
1174.76	1.49549
1177.65	2.47936
1180.54	2.86872
1183.43	0.349358
1186.33	1.04435
1189.22	0.443535
1192.11	0.432358
1195.01	1.51484
1197.9	1.84514
1200.79	1.10628
1203.68	2.34978
1206.58	0.788673
1209.47	0.334763
1212.36	0.918312
1215.25	0.448448
1218.15	1.41997
1221.04	1.6189
1223.93	0.646141
1226.82	1.2609
1229.72	0.419373
1232.61	1.1163
1235.5	1.08884
1238.39	0.505638
1241.29	2.34673
1244.18	0.937195
1247.07	0.428329
1249.97	0.518257
1252.86	0.348679
1255.75	1.42754
1258.64	2.16759
1261.54	1.24409
1264.43	0.242416
1267.32	0.608696
1270.21	0.725304
1273.11	0.95118
1276	1.54834
1278.89	1.31995
1281.79	0.611923
