Measurement: Raman, 532 nm, unoriented, Raman Data Processed
Mineral: Stutzite
Rruff sample: R060332
Ideal chemistry: Ag_4.64-4.76_Te_3_
Locality: Bambollita mine, Moctezuma District, Sonora, Mexico
Source: Michael Scott
Description: Dark lead gray metallic massive
Raman shift (cm-1)	intensity
217.344	0
220.237	5.21509
223.129	7.81372
226.022	4.33203
228.915	0.498779
231.808	10.8596
234.7	24.8796
237.593	24.6218
240.486	14.5012
243.378	3.89551
246.271	2.85352
249.164	2.70166
252.056	9.73755
254.949	6.5647
257.842	10.0984
260.735	11.9343
263.627	14.8452
266.52	20.2044
269.413	12.7549
272.305	24.3232
275.198	30.1968
278.091	36.6189
280.983	37.0178
283.876	41.915
286.769	46.1101
289.661	44.1133
292.554	28.7427
295.447	22.5984
298.34	27.6677
301.232	32.1948
304.125	34.7241
307.018	23.0593
309.91	23.0996
312.803	6.46509
315.696	15.2817
318.589	7.61353
321.481	12.7559
324.374	19.3899
327.267	16.0552
330.159	8.5498
333.052	14.8413
335.945	11.261
338.837	6.06811
341.73	9.45166
344.623	7.09448
347.515	8.65454
350.408	5.49512
353.301	9.09595
356.194	3.39062
359.086	6.36621
361.979	3.05225
364.872	4.13769
367.764	10.8852
370.657	6.23438
373.55	3.84888
376.442	1.83862
379.335	6.93042
382.228	1.73242
385.121	5.4397
388.013	2.17456
390.906	1.13721
393.799	4.04614
396.691	16.0505
399.584	15.9495
402.477	14.2803
405.37	9.22339
408.262	10.2268
411.155	16.979
414.048	27.4753
416.94	20.7466
419.833	21.3428
422.726	20.252
425.618	41.2983
428.511	58.6047
431.404	74.4941
434.296	85.0784
437.189	84.2644
440.082	96.2978
442.975	83.7522
445.867	83.9089
448.76	74.186
451.653	60.2273
454.545	59.2222
457.438	52.3606
460.331	51.2751
463.224	49.9275
466.116	40.4941
469.009	45.5017
471.902	57.9978
474.794	61.4785
477.687	80.1865
480.58	92.7686
483.473	114.369
486.365	149.442
489.258	169.917
492.151	194.44
495.043	205.594
497.936	210.482
500.829	220.711
503.721	214.004
506.614	194.458
509.507	174.465
512.399	148.182
515.292	117.257
518.185	95.3755
521.078	75.0176
523.97	61.9265
526.863	50.3332
529.756	36.4207
532.648	34.21
535.541	26.0955
538.434	15.6956
541.327	11.9517
544.219	0.312256
547.112	2.57178
550.005	5.11401
552.897	4.47949
555.79	7.35107
558.683	4.26953
561.575	1.80103
564.468	3.75928
567.361	3.67896
570.254	3.43872
573.146	3.42285
576.039	2.66211
578.932	6.64233
581.824	3.20337
584.717	6.27856
587.61	1.83643
590.502	6.63306
593.395	1.50879
596.288	3.65942
599.181	13.7832
602.073	15.0178
604.966	21.6409
607.859	24.4324
610.751	18.6846
613.644	18.4441
616.537	14.6707
619.429	20.2356
622.322	13.281
625.215	16.0913
628.107	17.0383
631	18.7578
633.893	31.3372
636.786	20.9697
639.678	24.2063
642.571	25.6787
645.464	31.9319
648.356	39.3982
651.249	45.3376
654.142	33.9246
657.034	43.3023
659.927	23.4866
662.82	17.2651
665.713	12.5593
668.605	8.13648
671.498	9.36914
674.391	9.87598
677.283	1.23975
680.176	4.86182
683.069	9.51172
685.962	7.33472
688.854	15.5249
691.747	14.7429
694.64	21.978
697.532	32.3694
700.425	39.8738
703.318	28.2852
706.21	49.2698
709.103	54.1145
711.996	52.3706
714.889	59.5906
717.781	63.0857
720.674	64.1375
723.567	69.3406
726.459	73.8364
729.352	71.4898
732.245	77.0288
735.137	72.1533
738.03	75
740.923	68.228
743.816	70.708
746.708	60.3125
749.601	58.2036
752.494	53.4136
755.386	38.6484
758.279	28.8706
761.172	31.6426
764.064	20.229
766.957	20.4277
769.85	22.8613
772.742	22.1484
775.635	8.29736
778.528	17.5171
781.421	16.2012
784.313	15.3716
787.206	6.92481
790.099	7.43262
792.991	8.07324
795.884	1.21118
798.777	0.290771
801.669	0.802246
804.562	6.03076
807.455	6.19922
810.348	0.306885
813.24	3.42505
816.133	8.60498
819.026	17.2739
821.918	13.7178
824.811	16.6216
827.704	13.2979
830.597	7.60474
833.489	13.2749
836.382	17.6929
839.275	15.4541
842.167	8.76416
845.06	2.44629
847.953	14.4888
850.846	16.7293
853.738	14.0156
856.631	8.28174
859.524	13.8945
862.416	18.5713
865.309	18.8486
868.202	23.852
871.094	17.3345
873.987	8.95361
876.88	2.85791
879.773	0.751953
882.665	1.02686
885.558	3.30762
888.451	0.973877
891.343	2.37793
894.236	8.22632
897.129	17.1697
900.021	8.91455
902.914	10.7029
905.807	0.41626
908.699	5.62378
911.592	1.94214
914.485	3.52246
917.378	2.07983
920.27	6.29614
923.163	22.2429
926.056	31.2004
928.948	17.314
931.841	17.7388
934.734	16.2173
937.626	26.3101
940.519	30.9392
943.412	48.1973
946.305	48.626
949.197	60.0557
952.09	76.8494
954.983	102.594
957.875	136.242
960.768	164.252
963.661	188.316
966.553	199.898
969.446	175.299
972.339	154.169
975.232	127.93
978.124	98.1201
981.017	67.9795
983.91	48.6011
986.802	30.2073
989.695	27.0149
992.588	19.665
995.481	14.6199
998.373	13.4917
1001.27	2.79346
1004.16	8.92847
1007.05	4.54175
1009.94	0.171875
1012.84	1.81128
1015.73	7.87891
1018.62	7.36597
1021.51	1.59985
1024.41	2.68579
1027.3	5.01099
1030.19	6.08447
1033.09	23.1575
1035.98	13.9797
1038.87	7.05933
1041.76	22.9622
1044.66	16.9302
1047.55	22.9524
1050.44	19.3879
1053.33	19.3833
1056.23	14.3027
1059.12	18.0068
1062.01	24.4419
1064.9	17.0212
1067.8	10.1411
1070.69	10.8171
1073.58	14.1277
1076.48	9.32788
1079.37	13.1457
1082.26	6.62646
1085.15	8.47266
1088.05	3.95337
1090.94	10.2363
1093.83	7.80127
1096.72	0.25708
1099.62	6.55566
1102.51	4.34668
1105.4	4.79981
1108.3	2.66699
1111.19	2.04688
1114.08	3.20117
1116.97	12.1148
1119.87	5.56738
1122.76	0.368164
1125.65	4.66162
1128.55	3.90918
1131.44	7.5376
1134.33	4.8457
1137.22	10.9248
1140.12	18.2188
1143.01	14.6768
1145.9	12.9512
1148.79	8.71435
1151.69	14.7593
1154.58	17.2593
1157.47	16.9097
1160.36	17.9067
1163.26	26.7998
1166.15	20.1055
1169.04	20.3848
1171.93	14.3906
1174.83	14.8638
1177.72	15.0396
1180.61	20.3921
1183.51	19.8799
1186.4	20.1729
1189.29	18.3892
1192.18	34.8355
1195.08	27.5781
1197.97	30.1645
1200.86	12.4038
1203.76	16.7617
1206.65	16.397
1209.54	19.8892
1212.43	22.3828
1215.33	12.5024
1218.22	16.9819
1221.11	19.2319
1224	26.2812
1226.9	12.5229
1229.79	18.1499
1232.68	10.5469
1235.58	18.2007
1238.47	7.63086
1241.36	3.01318
1244.25	8.72754
1247.14	13.23
1250.04	18.8262
1252.93	8.37109
1255.82	13.3687
1258.72	15.4395
1261.61	5.29932
1264.5	0.354004
1267.39	12.729
1270.29	5.20068
1273.18	0.438965
1276.07	0.145996
1278.96	0.799805
1281.86	9.62695
1284.75	5.96484
1287.64	8.76953
1290.54	10.1587
1293.43	13.5356
1296.32	10.1958
1299.21	0.149414
