Measurement: Raman, 532 nm, unoriented, Raman Data Processed
Mineral: Sugilite
Rruff sample: R130754
Ideal chemistry: KNa_2_Fe^3+^_2_(Li_3_Si_12_)O_30_
Locality: N'Chwaning III mine, Kalahari manganese field, Northern Cape Province, South Africa
Source: Jaco and Tania Janse van Nieuwenhuizen
Description: Fibrous spheres and layer of purple color, associated with dark-red lipuite (R140946).
Raman shift (cm-1)	intensity
88.1367	0
91.5115	15.7009
94.8863	11.3747
98.2612	5.45352
101.636	1.39352
105.011	0.703903
108.386	5.57548
111.76	1.26231
115.135	10.9782
118.51	12.3371
121.885	14.704
125.26	19.599
128.635	31.4306
132.009	45.5375
135.384	57.01
138.759	81.9554
142.134	90.4148
145.509	145.224
148.883	193.162
152.258	99.625
155.633	63.0437
159.008	50.0905
162.383	48.6397
165.757	43.0414
169.132	42.0478
172.507	39.9525
175.882	39.8244
179.257	35.5814
182.632	23.3717
186.006	12.991
189.381	6.98576
192.756	5.50176
196.131	4.38257
199.506	1.72256
202.881	2.33601
206.255	1.04115
209.63	1.49188
213.005	0.920364
216.38	0.779587
219.755	0.318497
223.129	0.909882
226.504	1.7011
229.879	0.121109
233.254	1.38628
236.629	2.45059
240.004	3.9458
243.378	4.85841
246.753	6.3728
250.128	7.77374
253.503	10.5279
256.878	13.9428
260.252	17.831
263.627	19.2577
267.002	25.4955
270.377	35.883
273.752	49.1943
277.127	52.574
280.501	57.4793
283.876	61.7514
287.251	53.2688
290.626	33.3385
294.001	20.4919
297.375	13.8782
300.75	8.98889
304.125	5.30168
307.5	2.44241
310.875	2.3557
314.25	5.51135
317.624	8.72626
320.999	15.1136
324.374	23.0129
327.749	31.1974
331.124	40.8588
334.498	44.8208
337.873	41.7408
341.248	28.7593
344.623	18.6522
347.998	11.0358
351.373	6.09525
354.747	2.86201
358.122	0.580139
361.497	2.34679
364.872	0.454727
368.247	0.693756
371.621	0.123535
374.996	0.608963
378.371	3.35408
381.746	6.79166
385.121	5.43591
388.495	5.18803
391.87	4.27382
395.245	3.41156
398.62	4.44647
401.995	5.32184
405.37	3.14365
408.744	2.41405
412.119	0.999451
415.494	0.253952
418.869	0.969009
422.244	4.03449
425.618	11.078
428.993	25.0383
432.368	47.5459
435.743	79.8225
439.118	126.264
442.493	193.178
445.867	237.325
449.242	201.33
452.617	120.43
455.992	69.9769
459.367	41.3284
462.741	26.15
466.116	19.2858
469.491	15.69
472.866	14.9332
476.241	13.0874
479.615	11.3243
482.99	7.94377
486.365	3.9266
489.74	2.03752
493.115	1.70973
496.49	1.29759
499.864	5.43477
503.239	3.92662
506.614	1.6583
509.989	0.459091
513.364	3.18994
516.739	1.63919
520.113	0.289841
523.488	0.281723
526.863	0.731064
530.238	0.498917
533.613	0.112381
536.987	0.350296
540.362	0.010651
543.737	0.945679
547.112	0.096634
550.487	0.261673
553.861	2.7326
557.236	1.35831
560.611	0.039795
563.986	2.38477
567.361	1.60078
570.736	2.08426
574.11	2.3914
577.485	2.89149
580.86	2.53824
584.235	2.98131
587.61	1.66048
590.985	0.243866
594.359	0.418777
597.734	1.12573
601.109	0.45932
604.484	1.63766
607.859	1.76128
611.233	2.56615
614.608	3.99799
617.983	6.64105
621.358	9.37904
624.733	12.4679
628.107	13.3063
631.482	11.5714
634.857	5.96805
638.232	2.50998
641.607	2.71379
644.982	1.8679
648.356	3.18668
651.731	3.18472
655.106	3.67731
658.481	1.354
661.856	0.559296
665.231	0.857239
668.605	1.10193
671.98	0.433746
675.355	1.38113
678.73	0.853119
682.105	1.20593
685.479	1.99405
688.854	0.9328
692.229	0.525665
695.604	3.01126
698.979	3.53565
702.354	0.600067
705.728	0.160919
709.103	0.017853
712.478	0.239563
715.853	0.034882
719.227	0.268982
722.602	0.228363
725.977	0.828918
729.352	0.090546
732.727	0.057953
736.102	2.71079
739.476	1.42056
742.851	0.26358
746.226	1.28949
749.601	2.73529
752.976	4.12912
756.351	4.8938
759.725	3.42712
763.1	1.34973
766.475	0.803162
769.85	1.93329
773.225	0.258148
776.599	0.003174
779.974	0.408905
783.349	1.93704
786.724	0.235168
790.099	2.39139
793.473	0.56369
796.848	0.96347
800.223	1.96173
803.598	3.98669
806.973	5.87091
810.348	8.84421
813.722	13.1799
817.097	17.1202
820.472	13.979
823.847	9.84717
827.222	6.22687
830.597	5.64148
833.971	5.46802
837.346	7.10294
840.721	6.58035
844.096	6.48178
847.471	6.13394
850.846	9.52649
854.22	8.27124
857.595	4.9425
860.97	8.3537
864.345	8.31058
867.72	8.00452
871.094	6.43378
874.469	5.88431
877.844	5.58847
881.219	5.09671
884.594	5.00308
887.968	2.89804
891.343	2.0993
894.718	3.47376
898.093	1.39914
901.468	0.776886
904.842	0.902496
908.217	0.22345
911.592	1.19583
914.967	0.809875
918.342	1.6521
921.717	1.9635
925.091	0.401245
928.466	1.10046
931.841	2.97211
935.216	3.42127
938.591	1.91052
941.966	5.862
945.34	7.46588
948.715	6.41797
952.09	9.32123
955.465	12.1783
958.84	16.4194
962.214	13.5031
965.589	14.0788
968.964	11.4221
972.339	11.2253
975.714	13.0051
979.088	10.5864
982.463	10.2136
985.838	12.0976
989.213	17.0881
992.588	27.5263
995.963	37.3947
999.337	50.0143
1002.71	68.9067
1006.09	75.2432
1009.46	74.7523
1012.84	61.6448
1016.21	45.2536
1019.59	32.7391
1022.96	27.4845
1026.34	23.0918
1029.71	20.4189
1033.09	19.8815
1036.46	14.8005
1039.84	12.8674
1043.21	12.5665
1046.59	6.07117
1049.96	2.81982
1053.33	2.07654
1056.71	0.047546
1060.08	2.86108
1063.46	1.65613
1066.83	0.393066
1070.21	0.115601
1073.58	0.08075
1076.96	1.24048
1080.33	0.65863
1083.71	0.77594
1087.08	3.66046
1090.46	1.99896
1093.83	0.674866
1097.21	0.780457
1100.58	0.121948
1103.96	3.6853
1107.33	2.41425
1110.71	4.35522
1114.08	5.32172
1117.46	8.27875
1120.83	10.3448
1124.21	7.87006
1127.58	18.4377
1130.95	24.1265
1134.33	41.6553
1137.7	60.1114
1141.08	66.4431
1144.45	48.8888
1147.83	35.1263
1151.2	19.551
1154.58	13.5695
1157.95	11.9996
1161.33	9.06311
1164.7	6.93579
1168.08	2.38135
1171.45	0.796265
1174.83	1.95019
1178.2	1.59058
1181.58	4.27161
1184.95	2.5625
1188.33	3.6073
1191.7	9.23755
1195.08	6.16296
1198.45	10.1266
1201.83	4.82434
1205.2	4.81555
1208.58	5.36523
1211.95	7.91125
1215.33	6.0802
1218.7	6.74512
1222.08	5.65649
1225.45	6.33716
1228.83	3.48144
1232.2	2.51123
1235.58	1.92078
1238.95	0.127319
1242.32	0.825439
1245.7	1.2146
1249.07	4.32458
1252.45	4.61939
1255.82	9.11511
1259.2	6.86389
1262.57	6.20569
1265.95	2.53955
1269.32	8.1814
1272.7	6.04627
1276.07	1.8009
1279.45	5.23315
1282.82	5.26672
1286.2	6.78796
1289.57	6.40234
1292.95	6.93921
1296.32	3.83862
1299.7	1.604
