Measurement: Raman, 780 nm, unoriented, Raman Data Processed
Mineral: Sugilite
Rruff sample: R130754
Ideal chemistry: KNa_2_Fe^3+^_2_(Li_3_Si_12_)O_30_
Locality: N'Chwaning III mine, Kalahari manganese field, Northern Cape Province, South Africa
Source: Jaco and Tania Janse van Nieuwenhuizen
Description: Fibrous spheres and layer of purple color, associated with dark-red lipuite (R140946).
Raman shift (cm-1)	intensity
94.332	0
97.7068	3.18982
101.082	3.7572
104.456	15.7914
107.831	22.8758
111.206	4.65579
114.581	1.48224
117.956	1.83432
121.331	2.79324
124.705	9.58914
128.08	27.7744
131.455	50.6237
134.83	64.6319
138.205	74.4014
141.579	70.897
144.954	105.293
148.329	197.698
151.704	108.364
155.079	49.5436
158.453	40.8489
161.828	46.4839
165.203	46.1844
168.578	49.1221
171.953	48.4773
175.328	53.7207
178.702	57.9755
182.077	34.8873
185.452	6.78973
188.827	2.54524
192.202	2.16794
195.577	2.27754
198.951	1.08749
202.326	3.65738
205.701	5.52358
209.076	7.72672
212.451	11.2733
215.825	12.1104
219.2	15.0605
222.575	16.2751
225.95	16.5419
229.325	20.6869
232.7	23.9197
236.074	28.4985
239.449	32.5594
242.824	36.6324
246.199	39.2398
249.574	42.1405
252.948	47.0491
256.323	51.7155
259.698	50.5383
263.073	47.1584
266.448	47.1024
269.822	56.3234
273.197	73.9416
276.572	86.2243
279.947	85.6153
283.322	84.4667
286.697	74.1354
290.071	48.6054
293.446	31.4592
296.821	30.1007
300.196	25.7087
303.571	12.7657
306.945	2.80258
310.32	0.654053
313.695	4.29512
317.07	7.40599
320.445	14.0442
323.82	24.4248
327.194	37.856
330.569	53.6592
333.944	66.4188
337.319	66.4645
340.694	50.6353
344.068	32.8337
347.443	19.64
350.818	9.86331
354.193	4.5898
357.568	0.090958
360.942	0.730789
364.317	3.65131
367.692	2.01123
371.067	1.05444
374.442	1.56299
377.817	6.24423
381.191	10.5227
384.566	13.2605
387.941	13.7007
391.316	10.4841
394.691	10.1001
398.065	9.47063
401.44	11.9285
404.815	12.5087
408.19	11.9311
411.565	7.09329
414.94	4.55742
418.314	1.39383
421.689	3.6689
425.064	9.86909
428.439	22.4081
431.814	42.8314
435.188	75.4137
438.563	121.196
441.938	196.452
445.313	296.206
448.688	304.333
452.063	187.745
455.437	100.588
458.812	57.0969
462.187	35.1651
465.562	24.9927
468.937	21.9475
472.312	22.2765
475.686	24.6234
479.061	24.4772
482.436	16.7605
485.811	10.2887
489.186	6.18333
492.56	3.01633
495.935	1.7691
499.31	3.026
502.685	3.52216
506.06	2.00095
509.435	1.37471
512.809	0.473312
516.184	1.07507
519.559	0.756287
522.934	0.162201
526.308	0.269684
529.683	0.459549
533.058	0.008774
536.433	0.405304
539.808	0.452469
543.183	1.51602
546.557	0.286163
549.932	1.20207
553.307	0.011261
556.682	1.57333
560.057	1.30456
563.432	0.541733
566.806	0.908295
570.181	0.571449
573.556	1.85076
576.931	2.7683
580.306	3.38942
583.681	2.99005
587.055	4.15339
590.43	2.25983
593.805	2.9307
597.18	3.12387
600.555	2.57039
603.929	2.73361
607.304	3.43977
610.679	3.73937
614.054	7.54341
617.429	7.75623
620.803	12.6894
624.178	17.5547
627.553	24.8925
630.928	23.3557
634.303	14.7183
637.678	7.70026
641.052	4.83337
644.427	3.93625
647.802	4.15419
651.177	3.98565
654.552	2.83026
657.927	2.0985
661.301	0.987289
664.676	0.95105
668.051	0.763023
671.426	0.89315
674.801	0.622925
678.175	1.3016
681.55	0.306793
684.925	0.752213
688.3	0.616058
691.675	1.63899
695.049	1.15987
698.424	1.22806
701.799	0.334045
705.174	0.18576
708.549	0.661232
711.923	0.028145
715.298	0.584007
718.673	0.33136
722.048	0.670898
725.423	0.19516
728.798	0.057793
732.172	0.288933
735.547	0.894241
738.922	1.2
742.297	0.464149
745.672	0.70665
749.047	1.95691
752.421	3.11628
755.796	3.96532
759.171	7.26312
762.546	5.88704
765.921	2.67536
769.295	2.34985
772.67	0.574059
776.045	0.780106
779.42	0.120941
782.795	0.268379
786.169	0.882645
789.544	0.391014
792.919	0.706085
796.294	0.177925
799.669	1.36004
803.044	2.44428
806.418	4.48135
809.793	6.80045
813.168	11.9565
816.543	18.4426
819.918	16.4423
823.293	7.46733
826.667	4.43985
830.042	3.43745
833.417	2.30896
836.792	3.88609
840.167	3.48412
843.541	3.18367
846.916	3.26437
850.291	3.83047
853.666	3.1414
857.041	3.87128
860.415	2.89239
863.79	3.27925
867.165	1.74136
870.54	1.17941
873.915	1.30631
877.29	0.839615
880.664	0.445755
884.039	0.35228
887.414	0.772369
890.789	0.262939
894.164	0.466309
897.538	0.766922
900.913	0.444046
904.288	0.388062
907.663	0.833542
911.038	0.909378
914.413	0.363113
917.787	0.598907
921.162	1.83223
924.537	2.42001
927.912	3.2392
931.287	7.38814
934.661	8.64162
938.036	11.6771
941.411	15.7803
944.786	20.7497
948.161	25.6024
951.535	30.7161
954.91	33.5632
958.285	35.8411
961.66	36.9403
965.035	35.1957
968.41	30.99
971.784	28.4126
975.159	22.9004
978.534	21.2006
981.909	19.1877
985.284	20.8004
988.659	23.3301
992.033	31.8366
995.408	42.5307
998.783	58.5456
1002.16	77.0917
1005.53	96.5191
1008.91	104.063
1012.28	93.2323
1015.66	72.0345
1019.03	54.9335
1022.41	44.7487
1025.78	38.1795
1029.16	32.4099
1032.53	27.4594
1035.91	25.0903
1039.28	22.7579
1042.66	17.5119
1046.03	13.795
1049.4	7.46564
1052.78	5.41682
1056.15	1.59431
1059.53	0.060822
1062.9	0.196198
1066.28	1.04541
1069.65	0.877228
1073.03	0.87822
1076.4	0.496017
1079.78	0.396866
1083.15	0.194458
1086.53	0.437088
1089.9	0.223404
1093.28	0.056198
1096.65	1.38321
1100.03	2.47136
1103.4	2.84662
1106.78	3.38831
1110.15	6.21034
1113.53	5.43466
1116.9	6.34436
1120.28	6.99666
1123.65	8.02431
1127.03	12.4358
1130.4	18.4214
1133.78	29.6278
1137.15	50.1274
1140.53	65.19
1143.9	63.4165
1147.28	43.8556
1150.65	27.1585
1154.03	17.6971
1157.4	12.478
1160.77	8.39458
1164.15	6.44151
1167.52	4.28011
1170.9	2.66957
1174.27	2.54089
1177.65	2.02638
1181.02	1.98914
1184.4	2.32283
1187.77	2.77956
1191.15	1.83437
1194.52	2.63654
1197.9	1.62447
1201.27	1.24391
1204.65	1.06547
1208.02	0.267822
1211.4	1.13629
1214.77	1.06201
1218.15	0.640427
1221.52	0.639343
1224.9	0.010422
1228.27	1.05261
1231.64	1.707
1235.02	1.10016
1238.39	1.33787
1241.77	0.173584
1245.14	1.1797
1248.52	0.615738
1251.89	0.535583
1255.27	1.04608
1258.64	1.09932
1262.02	0.858658
1265.39	0.447769
1268.77	0.640488
1272.14	1.19228
1275.52	0.225357
1278.89	1.12701
1282.27	0
