Measurement: Raman, 532 nm, unoriented, Raman Data Processed
Mineral: Sulphur
Rruff sample: R040135
Ideal chemistry: S
Locality: Sicily, Italy
Source: University of Arizona Mineral Museum
Description: Yellow fragments
Measured chemistry: S_1.00_
Raman shift (cm-1)	intensity
89.3011	0
92.6759	8208.86
96.0507	1062.42
99.4255	14.0216
102.8	98.1899
106.175	36.7794
109.55	112.907
112.925	53.59
116.3	23.7626
119.674	43.0564
123.049	68.1377
126.424	75.2758
129.799	141.289
133.174	1431.03
136.548	5045.64
139.923	8531.73
143.298	12605.3
146.673	16672.5
150.048	31382.5
153.423	53715.1
156.797	47310.9
160.172	37014.6
163.547	3990.88
166.922	526.822
170.297	347.492
173.672	590.948
177.046	648.274
180.421	1033.42
183.796	2572.34
187.171	3299.07
190.546	4256.02
193.92	3.98975
197.295	710.399
200.67	3763.44
204.045	15947.4
207.42	17614.8
210.794	22873.7
214.169	37480.1
217.544	86243.5
220.919	217216
224.294	8472.33
227.669	1242
231.043	1381.97
234.418	2554.85
237.793	4912.59
241.168	2480.9
244.543	2690.91
247.917	5968.75
251.292	5086.4
254.667	1567.8
258.042	25.7921
261.417	68.5283
264.792	60.8915
268.166	24.1516
271.541	24.495
274.916	2.4375
278.291	37.1448
281.666	34.8545
285.041	63.7623
288.415	90.363
291.79	150.319
295.165	156.311
298.54	225.482
301.915	263.147
305.289	300.321
308.664	292.203
312.039	303.748
315.414	314.716
318.789	295.211
322.163	243.253
325.538	205.225
328.913	142.025
332.288	84.8306
335.663	63.4695
339.038	56.3474
342.412	20.3459
345.787	9.10992
349.162	4.51623
352.537	10.0687
355.912	12.6422
359.286	11.1814
362.661	32.015
366.036	26.8224
369.411	45.7078
372.786	64.7914
376.161	49.4717
379.535	22.3368
382.91	4.00781
386.285	2.17957
389.66	36.2971
393.035	2.19354
396.409	33.21
399.784	13.1504
403.159	55.6533
406.534	115.115
409.909	216.244
413.284	552.567
416.658	1288.69
420.033	1833.65
423.408	1918.54
426.783	3878.4
430.158	5128.46
433.532	6421.38
436.907	8676.91
440.282	13255.3
443.657	14265.2
447.032	809.079
450.406	300.476
453.781	1038.99
457.156	3835.51
460.531	10733.6
463.906	25004.5
467.281	38370.1
470.655	63028.2
474.03	100478
477.405	159984
480.78	53217.5
484.155	8872.93
487.529	2863.76
490.904	1480.42
494.279	793.259
497.654	422.995
501.029	386.092
504.404	381.346
507.778	128.264
511.153	12.3186
514.528	7.82861
517.903	37.447
521.278	52.869
524.653	0.690186
528.027	7.59485
531.402	34.5378
534.777	12.3148
538.152	6.72717
541.527	6.90741
544.901	62.437
548.276	73.1285
551.651	100.007
555.026	100.325
558.401	108.392
561.775	92.4825
565.15	55.1473
568.525	47.1955
571.9	11.8673
575.275	8.64941
578.649	1.5473
582.024	0.438965
585.399	1.67645
588.774	4.17908
592.149	16.7947
595.524	16.7234
598.898	37.2656
602.273	16.7042
605.648	32.1655
609.023	29.3839
612.398	56.7053
615.773	64.3908
619.147	74.0663
622.522	106.568
625.897	118.634
629.272	135.858
632.647	125.957
636.021	74.1125
639.396	68.6926
642.771	27.0302
646.146	30.3767
649.521	38.3335
652.895	56.2992
656.27	104.963
659.645	87.1472
663.02	67.8438
666.395	80.642
669.77	68.3012
673.144	50.9334
676.519	82.623
679.894	107.627
683.269	115.981
686.644	126.005
690.019	115.607
693.393	82.3044
696.768	29.2419
700.143	1.63477
703.518	10.5299
706.893	28.3803
710.267	67.7976
713.642	60.9938
717.017	65.5095
720.392	34.9041
723.767	55.0821
727.141	10.626
730.516	11.0837
733.891	6.41632
737.266	5.39972
740.641	6.67041
744.016	14.4968
747.39	28.7409
750.765	6.34369
754.14	20.9593
757.515	6.56824
760.89	6.95496
764.264	18.8854
767.639	17.2175
771.014	30.3959
774.389	9.70026
777.764	10.1064
781.139	19.5971
784.513	32.1415
787.888	14.8552
791.263	4.40118
794.638	5.24957
798.013	1.03766
801.388	15.5197
804.762	6.44049
808.137	21.1126
811.512	0.482239
814.887	27.3113
818.261	68.9233
821.636	198.328
825.011	410.274
828.386	791.421
831.761	1555.1
835.136	1997.16
838.51	760.064
841.885	548.68
845.26	517.571
848.635	562.536
852.01	589.623
855.385	620.799
858.759	605.12
862.134	715.939
865.509	1029.43
868.884	1354.94
872.259	1545.09
875.633	1612.66
879.008	1636.13
882.383	1558.79
885.758	1198.87
889.133	1044.44
892.508	694.691
895.882	264.607
899.257	159.71
902.632	199.531
906.007	195.955
909.382	200.324
912.756	145.447
916.131	69.0007
919.506	4.85986
922.881	4.90625
926.256	46.0542
929.63	98.0868
933.005	219.376
936.38	479.084
939.755	497.542
943.13	418.296
946.505	382.355
949.879	333.67
953.254	140.408
956.629	52.1105
960.004	11.2689
963.379	4.53442
966.754	3.09961
970.128	4.44513
973.503	11.0288
976.878	0.762939
980.253	10.2512
983.628	18.2055
987.002	18.5272
990.377	6.69995
993.752	9.25122
997.127	16.6513
1000.5	0.00592
1003.88	23.7443
1007.25	35.002
1010.63	19.3271
1014	36.1948
1017.38	49.6901
1020.75	17.7269
1024.12	34.6138
1027.5	12.3308
1030.88	48.8527
1034.25	13.4421
1037.62	41.0541
1041	15.8906
1044.37	35.2452
1047.75	48.329
1051.12	25.4704
1054.5	24.8115
1057.87	16.3787
1061.25	15.1969
1064.62	49.3635
1068	29.695
1071.37	20.746
1074.75	8.37469
1078.12	32.0758
1081.5	15.0713
1084.87	22.2861
1088.25	23.7506
1091.62	16.3449
1095	17.319
1098.37	35.9542
1101.75	13.5482
1105.12	20.0042
1108.5	17.8823
1111.87	22.953
1115.24	35.7604
1118.62	1.98688
1121.99	11.4923
1125.37	8.63568
1128.74	17.7305
1132.12	9.45227
1135.49	0.610657
1138.87	30.4282
1142.24	5.76007
1145.62	2.81842
1148.99	21.7895
1152.37	28.3065
1155.74	32.6804
1159.12	36.9695
1162.49	8.80078
1165.87	25.9235
1169.24	16.3518
1172.62	16.4706
1175.99	42.5123
1179.37	14.0715
1182.74	28.3873
1186.12	38.838
1189.49	7.13568
1192.87	29.1841
1196.24	27.2214
1199.62	28.2687
1202.99	21.2017
1206.37	24.5038
1209.74	33.3389
1213.12	15.3395
1216.49	15.7938
1219.87	1.258
1223.24	29.1014
1226.61	33.3469
1229.99	0.280212
1233.36	23.9894
1236.74	25.9737
1240.11	18.0697
1243.49	42.4807
1246.86	16.3651
1250.24	7.64172
1253.61	17.8276
1256.99	14.0687
1260.36	38.1724
1263.74	20.7342
1267.11	13.1263
1270.49	13.4827
1273.86	12.2421
1277.24	36.081
1280.61	46.3813
1283.99	8.62012
1287.36	2.66083
1290.74	0.793274
1294.11	26.8096
1297.49	25.5681
1300.86	0.301575
