Measurement: Raman, 780 nm, unoriented, Raman Data Processed
Mineral: Sulphur
Rruff sample: R040135
Ideal chemistry: S
Locality: Sicily, Italy
Source: University of Arizona Mineral Museum
Description: Yellow fragments
Measured chemistry: S_1.00_
Raman shift (cm-1)	intensity
90.5957	0
93.9705	366.765
97.3453	7.54224
100.72	3.19061
104.095	18.804
107.47	52.3843
110.845	34.8655
114.219	6.23529
117.594	4.98968
120.969	6.23373
124.344	8.53214
127.719	36.0122
131.094	206.972
134.468	581.883
137.843	899.559
141.218	1335.3
144.593	1753.99
147.968	2916.53
151.342	5007.19
154.717	6682.44
158.092	5711.01
161.467	2581.86
164.842	235.759
168.216	42.3027
171.591	44.8463
174.966	30.804
178.341	64.7337
181.716	137.761
185.09	308.468
188.465	587.309
191.84	151.656
195.215	59.9019
198.59	440.625
201.965	1152.38
205.339	1042.85
208.714	1543.98
212.089	2397.56
215.464	4832.45
218.839	8061.27
222.214	5948.21
225.588	324.187
228.963	137.785
232.338	223.113
235.713	429.523
239.088	531.839
242.462	327.874
245.837	593.043
249.212	995.713
252.587	752.138
255.962	82.3
259.336	18.1917
262.711	12.134
266.086	9.16626
269.461	1.49765
272.836	0.478668
276.211	1.95273
279.585	18.9977
282.96	5.5358
286.335	14.2145
289.71	8.44315
293.085	23.2646
296.459	17.6022
299.834	31.7126
303.209	26.6052
306.584	33.3213
309.959	21.6063
313.334	34.1457
316.708	34.6772
320.083	34.0059
323.458	24.7467
326.833	26.4279
330.207	28.0119
333.582	8.52582
336.957	9.93692
340.332	15.9125
343.707	20.3012
347.082	4.62256
350.456	8.65793
353.831	0.616638
357.206	8.82211
360.581	3.66348
363.956	4.83646
367.33	3.24387
370.705	17.4961
374.08	7.86316
377.455	7.83228
380.83	1.35263
384.205	4.14621
387.579	5.05325
390.954	11.5068
394.329	1.49359
397.704	3.55347
401.079	9.59521
404.453	6.92703
407.828	17.5139
411.203	28.0617
414.578	66.5405
417.953	140.17
421.327	159.083
424.702	260.081
428.077	352.574
431.452	475.755
434.827	618.518
438.202	847.864
441.576	1407.58
444.951	620.987
448.326	34.4226
451.701	43.7883
455.076	200.025
458.45	454.356
461.825	1149.24
465.2	1525.11
468.575	2487.24
471.95	4311.68
475.325	6680.42
478.699	7442.46
482.074	1707.29
485.449	347.722
488.824	122.993
492.199	59.5321
495.573	30.2436
498.948	15.7085
502.323	24.6906
505.698	28.0074
509.073	5.95923
512.447	11.5025
515.822	1.29407
519.197	3.38333
522.572	2.26477
525.947	1.78854
529.322	0.804474
532.696	8.09078
536.071	17.0346
539.446	10.5137
542.821	5.70309
546.196	17.2409
549.57	9.41567
552.945	9.40447
556.32	14.7338
559.695	0.780472
563.07	8.70235
566.444	22.8729
569.819	10.5727
573.194	9.24437
576.569	5.81514
579.944	8.2433
583.319	12.3014
586.693	0.956848
590.068	6.91109
593.443	6.83963
596.818	7.2825
600.193	10.7116
603.567	17.0265
606.942	18.1598
610.317	17.8283
613.692	11.1738
617.067	19.3973
620.442	19.8804
623.816	16.1009
627.191	17.5324
630.566	5.45828
633.941	18.1959
637.316	5.73518
640.69	22.2742
644.065	14.435
647.44	8.78175
650.815	17.2543
654.19	18.5008
657.564	19.822
660.939	21.6505
664.314	13.7871
667.689	7.85338
671.064	12.8201
674.439	11.7151
677.813	20.385
681.188	7.82231
684.563	17.9398
687.938	19.324
691.313	15.3321
694.688	12.3465
698.062	12.7054
701.437	20.1765
704.812	7.80617
708.187	15.9985
711.562	18.3414
714.936	15.5773
718.311	6.41072
721.686	8.64731
725.061	16.9098
728.436	15.0291
731.81	13.7946
735.185	18.2791
738.56	7.71417
741.935	6.28336
745.31	0.36055
748.684	4.35355
752.059	1.17079
755.434	11.7163
758.809	12.565
762.184	9.39232
765.559	20.9211
768.933	7.39215
772.308	5.4969
775.683	17.397
779.058	9.55749
782.433	9.59836
785.808	0.426819
789.182	8.12485
792.557	11.2585
795.932	12.3778
799.307	5.88516
802.682	6.84824
806.056	17.9478
809.431	15.3124
812.806	7.40057
816.181	8.36876
819.556	0.246796
822.93	6.70676
826.305	10.3551
829.68	26.0068
833.055	40.0304
836.43	39.5243
839.804	24.5654
843.179	20.4386
846.554	27.835
849.929	24.5955
853.304	22.942
856.679	29.6815
860.053	22.4794
863.428	19.5711
866.803	37.1779
870.178	38.2664
873.553	45.5815
876.927	53.5527
880.302	50.4038
883.677	52.6133
887.052	42.9635
890.427	37.6549
893.802	17.3975
897.176	7.7915
900.551	6.96375
903.926	5.62424
907.301	9.56398
910.676	14.0716
914.05	6.50221
917.425	3.46512
920.8	4.36172
924.175	10.3182
927.55	11.9952
930.924	4.7011
934.299	11.8559
937.674	8.30197
941.049	7.02687
944.424	13.7699
947.799	16.0119
951.173	12.6739
954.548	1.56441
957.923	8.73024
961.298	3.6949
964.673	16.0701
968.047	3.42863
971.422	7.209
974.797	1.45775
978.172	3.94838
981.547	6.91966
984.922	8.14099
988.296	6.6917
991.671	8.0414
995.046	1.65036
998.421	8.43402
1001.8	2.96573
1005.17	10.7707
1008.54	8.43758
1011.92	13.1143
1015.29	5.84264
1018.67	10.3956
1022.04	14.0155
1025.42	9.75594
1028.79	5.83215
1032.17	10.836
1035.54	5.16469
1038.92	20.6036
1042.29	7.81595
1045.67	18.5644
1049.04	7.78758
1052.42	4.3848
1055.79	6.69252
1059.17	3.93365
1062.54	3.06975
1065.92	3.00117
1069.29	9.21722
1072.67	8.81476
1076.04	14.9148
1079.42	0.816917
1082.79	4.81375
1086.17	13.4925
1089.54	10.2699
1092.92	5.46284
1096.29	8.29674
1099.66	6.61874
1103.04	1.99158
1106.41	1.13978
1109.79	9.04617
1113.16	1.408
1116.54	9.67143
1119.91	5.93808
1123.29	3.94543
1126.66	9.67757
1130.04	2.71197
1133.41	4.32814
1136.79	7.87653
1140.16	6.99496
1143.54	9.68922
1146.91	7.30006
1150.29	13.1822
1153.66	10.8396
1157.04	4.11814
1160.41	14.7109
1163.79	5.30183
1167.16	16.8759
1170.54	9.84659
1173.91	11.1576
1177.29	7.1827
1180.66	9.70036
1184.04	8.51519
1187.41	1.90253
1190.79	0.542297
1194.16	4.90617
1197.54	14.1748
1200.91	11.3042
1204.28	2.89664
1207.66	11.4315
1211.03	13.5642
1214.41	6.80762
1217.78	16.1835
1221.16	5.13998
1224.53	11.7601
1227.91	11.6203
1231.28	13.0104
1234.66	11.1844
1238.03	9.84015
1241.41	3.76843
1244.78	4.51319
1248.16	4.38586
1251.53	5.9036
1254.91	18.64
1258.28	13.7615
1261.66	7.02109
1265.03	6.88805
1268.41	15.2917
1271.78	5.92844
1275.16	10.3405
1278.53	9.73828
1281.9	10.6818
