Measurement: Raman, 785 nm, unoriented, Raman Data RAW
Mineral: Suolunite
Rruff sample: R060917
Ideal chemistry: Ca_2_Si_2_O_5_(OH)_2_H_2_O
Locality: Lac d'Amiante mine, Black Lake, Quebec, Canada
Source: Royal Ontario Museum
Description: Large white to pale lavender fragment
Measured chemistry: Ca_2.00_Si_2.00_O_5_(OH)_2_Â·1.8H_2_O; H_2_O estimated by difference
Raman shift (cm-1)	intensity
137.437	678.113
140.33	802.396
143.223	1276.06
146.115	2250.34
149.008	3643.17
151.901	5520.57
154.793	6907.04
157.686	5684.06
160.579	3421.43
163.472	2294.04
166.364	1868.22
169.257	1915.67
172.15	2144.52
175.042	2538.64
177.935	3391.19
180.828	4441.43
183.72	3656.66
186.613	2171.38
189.506	1656.79
192.399	1451.85
195.291	1172.75
198.184	942.47
201.077	881.912
203.969	918.225
206.862	928.018
209.755	1085.02
212.648	1339.18
215.54	1264.27
218.433	1139.1
221.326	1270.69
224.218	1513.81
227.111	1839.03
230.004	2202.81
232.896	2478.69
235.789	2360.57
238.682	1883.95
241.575	1431.46
244.467	1158.67
247.36	1048.78
250.253	1003.5
253.145	1035.99
256.038	1105.93
258.931	1159.58
261.823	1225.35
264.716	1338.01
267.609	1552.11
270.502	1891.01
273.394	2270.06
276.287	2546.78
279.18	2710.7
282.072	2555.21
284.965	2440.44
287.858	2376.18
290.75	2286.48
293.643	2134.26
296.536	1958.44
299.428	1993.68
302.321	2152.21
305.214	2706.05
308.107	3837.23
310.999	5664.4
313.892	8105.31
316.785	9254.35
319.677	7030.04
322.57	5346.26
325.463	5235.66
328.356	6218.01
331.248	8129.8
334.141	9942.15
337.034	10429.7
339.926	8952.82
342.819	6893.72
345.712	5283.19
348.604	4165.6
351.497	3384.28
354.39	2836.7
357.283	2397.85
360.175	2098.05
363.068	1980.12
365.961	1983.28
368.853	2197.28
371.746	2402.91
374.639	2394.69
377.531	2054.91
380.424	1694.24
383.317	1406.23
386.209	1247.59
389.102	1158.06
391.995	1109.63
394.888	1155.82
397.78	1253.59
400.673	1428.8
403.566	1758.52
406.458	2307.11
409.351	2917.32
412.244	3414.7
415.137	3193.66
418.029	2789.7
420.922	2731.5
423.815	2961.16
426.707	2965.59
429.6	2477.14
432.493	1818.52
435.385	1368.8
438.278	1097.11
441.171	945.608
444.063	826.302
446.956	796.297
449.849	744.512
452.742	771.35
455.634	861.231
458.527	1039.49
461.42	1327.62
464.312	1686.82
467.205	1618.77
470.098	1481.03
472.99	1652.62
475.883	2016.64
478.776	2121.9
481.669	1504.31
484.561	1056.93
487.454	925.692
490.347	1068.71
493.239	1524.02
496.132	2181.86
499.025	2947.29
501.918	2421.17
504.81	1376.67
507.703	912.696
510.596	740.842
513.488	619.73
516.381	567.356
519.274	533.687
522.166	519.37
525.059	498.778
527.952	486.707
530.845	471.897
533.737	435.361
536.63	437.502
539.523	449.6
542.415	429.006
545.308	415.183
548.201	409.825
551.093	431.834
553.986	401.605
556.879	420.318
559.771	429.202
562.664	416.389
565.557	413.403
568.45	418.785
571.342	430.173
574.235	419.556
577.128	434.064
580.02	469.819
582.913	468.243
585.806	480.821
588.699	500.397
591.591	546.679
594.484	574.67
597.377	635.547
600.269	752.458
603.162	914.156
606.055	1229.26
608.947	1834.52
611.84	2985.01
614.733	4785.28
617.626	7198.44
620.518	8707.25
623.411	6714.16
626.304	3738.72
629.196	2150.86
632.089	1453.33
634.982	1079.2
637.875	902.852
640.767	757.191
643.66	650.095
646.553	612.453
649.445	561.983
652.338	536.892
655.231	516.043
658.123	489.805
661.016	473.858
663.909	468.794
666.802	462.909
669.694	457.942
672.587	436.203
675.48	437.266
678.372	433.318
681.265	398.805
684.158	404.372
687.05	411.55
689.943	397.495
692.836	394.508
695.729	429.516
698.621	374.424
701.514	393.855
704.407	397.885
707.299	379.512
710.192	386.317
713.085	382.703
715.977	402.761
718.87	383.068
721.763	376.633
724.655	401.557
727.548	385.605
730.441	364.384
733.334	363.587
736.226	375.01
739.119	373.597
742.012	373.875
744.904	381.984
747.797	385.314
750.69	378.858
753.582	372.697
756.475	385.37
759.368	396.175
762.261	376.884
765.153	388.166
768.046	367.127
770.939	416.489
773.831	429.552
776.724	434.413
779.617	494.564
782.51	542.494
785.402	603.556
788.295	693.333
791.188	801.518
794.08	868.552
796.973	922.25
799.866	839.248
802.758	688.384
805.651	604.149
808.544	577.142
811.437	573.537
814.329	585.047
817.222	633.449
820.115	707.692
823.007	843.862
825.9	1078.07
828.793	1498.82
831.685	2060.22
834.578	2597.59
837.471	2653.57
840.364	2108.09
843.256	1554.51
846.149	1197.83
849.042	981.561
851.934	836.444
854.827	774.6
857.72	717.86
860.612	706.255
863.505	699.69
866.398	675.472
869.29	667.099
872.183	674.291
875.076	688.566
877.969	695.306
880.861	680.16
883.754	726.401
886.647	785.027
889.539	804.822
892.432	885.435
895.325	933.867
898.217	1027
901.11	1157.08
904.003	1327.74
906.896	1571.78
909.788	1919.81
912.681	2437.7
915.574	3199.24
918.466	4472.47
921.359	6556
924.252	9626.48
927.145	13321.4
930.037	15143.4
932.93	12756.5
935.823	8688.05
938.715	5726.62
941.608	4017.11
944.501	3020.3
947.394	2404.46
950.286	2060.4
953.179	1759.97
956.072	1534.75
958.964	1377.46
961.857	1276.44
964.75	1209.06
967.642	1195.35
970.535	1257.34
973.428	1336.44
976.321	1414.97
979.213	1704.26
982.106	2121.34
984.999	2842.37
987.891	3895.62
990.784	5000.06
993.677	5277.98
996.569	4199.75
999.462	2899.91
1002.36	1983.78
1005.25	1424.07
1008.14	1114.97
1011.03	973.722
1013.93	847.049
1016.82	791.101
1019.71	753.521
1022.6	732.444
1025.5	731.279
1028.39	792.948
1031.28	920.384
1034.17	1077.93
1037.07	1172.83
1039.96	979.432
1042.85	681.341
1045.74	573.932
1048.64	479.135
1051.53	444.915
1054.42	405.658
1057.32	388.909
1060.21	356.184
1063.1	338.346
1065.99	339.534
1068.89	359.716
1071.78	329.88
1074.67	338.984
1077.57	331.426
1080.46	324.098
1083.35	331.224
1086.24	318.465
1089.14	330.467
1092.03	329.573
1094.92	332.075
1097.81	328.126
1100.71	329.766
1103.6	338.889
1106.49	307.413
1109.38	316.202
1112.28	331.949
1115.17	343.079
1118.06	317.606
1120.96	330.14
1123.85	333.155
1126.74	327.74
1129.63	354.668
1132.53	343.817
1135.42	337.632
1138.31	336.047
1141.2	342.061
1144.1	361.136
1146.99	375.076
1149.88	386.932
1152.78	411.559
1155.67	420.869
1158.56	448.291
1161.45	493.653
1164.35	519.66
1167.24	572.78
1170.13	670.087
1173.02	812.765
1175.92	993.736
1178.81	1234.32
1181.7	1506.29
1184.6	1738.37
1187.49	1675.24
1190.38	1389.62
1193.27	1116.86
1196.17	912.175
1199.06	790.966
1201.95	704.277
1204.84	728.359
1207.74	683.605
1210.63	636.059
1213.52	550.685
1216.41	474.981
1219.31	413.29
1222.2	406.53
1225.09	380.223
1227.98	378.464
1230.88	332.15
1233.77	326.267
1236.66	306.196
1239.56	333.218
1242.45	334.574
1245.34	326.74
1248.23	321.143
1251.13	311.738
1254.02	296.915
