Measurement: Raman, 780 nm, unoriented, Raman Data Processed
Mineral: Synadelphite
Rruff sample: R080097
Ideal chemistry: Mn^2+^_9_(As^3+^O_3_)(As^5+^O_4_)_2_(OH)_9_2H_2_O
Locality: Moss mine, Nordmark, Varmland, Sweden
Source: William W Pinch
Description: Black psuedo-octahedral with cube modifications
Raman shift (cm-1)	intensity
152.668	0
155.561	1.41991
158.453	0.396835
161.346	1.66624
164.239	0.057083
167.132	0.270447
170.024	1.82638
172.917	1.7908
175.81	2.40988
178.702	2.78008
181.595	0.979034
184.488	0.862717
187.381	0.487274
190.273	0.003372
193.166	0.562546
196.059	0.307388
198.951	0.175003
201.844	0.913635
204.737	1.90993
207.629	1.1741
210.522	0.868988
213.415	1.98038
216.308	1.76559
219.2	2.96643
222.093	1.23955
224.986	1.69968
227.878	2.83258
230.771	3.37917
233.664	3.69107
236.556	4.13519
239.449	4.63289
242.342	3.97621
245.234	3.59201
248.127	2.51552
251.02	1.93005
253.913	1.51259
256.805	1.00908
259.698	0.743713
262.591	1.90044
265.483	1.33643
268.376	0.183151
271.269	0.378143
274.161	0.034088
277.054	1.2735
279.947	1.18687
282.84	0.626999
285.732	0.295364
288.625	0.992798
291.518	0.436096
294.41	0.281555
297.303	1.17223
300.196	1.4054
303.089	2.34323
305.981	1.79396
308.874	1.92261
311.767	1.40468
314.659	1.76268
317.552	0.795296
320.445	1.52799
323.337	0.943764
326.23	1.33535
329.123	2.68784
332.015	0.532906
334.908	1.43184
337.801	1.05276
340.694	1.22761
343.586	1.73489
346.479	2.67492
349.372	2.17448
352.264	2.42759
355.157	3.51736
358.05	3.0359
360.942	2.46072
363.835	2.64671
366.728	2.16517
369.621	1.72965
372.513	1.88604
375.406	0.744026
378.299	1.19115
381.191	0.569496
384.084	1.42121
386.977	0.814644
389.87	0.456337
392.762	2.7186
395.655	0.438698
398.548	0.421883
401.44	0.664009
404.333	0.317963
407.226	0.326157
410.118	0.468002
413.011	0.090927
415.904	0.550735
418.796	0.735046
421.689	1.3656
424.582	1.56222
427.475	2.59911
430.367	1.82546
433.26	2.12374
436.153	1.35057
439.045	1.63563
441.938	1.03082
444.831	1.22697
447.724	0.6325
450.616	1.52197
453.509	0.775291
456.402	0.75676
459.294	0.928093
462.187	0.197807
465.08	0.273926
467.972	0.444756
470.865	0.519264
473.758	0.799721
476.651	0.955811
479.543	1.35367
482.436	1.24077
485.329	2.08492
488.221	2.38566
491.114	2.31669
494.007	1.45671
496.899	2.53871
499.792	1.3969
502.685	1.38175
505.577	0.759308
508.47	0.798813
511.363	0.937477
514.256	0.292747
517.148	0.359642
520.041	0.540619
522.934	0.119194
525.826	0.049965
528.719	0.700905
531.612	0.576454
534.505	0.462273
537.397	0.422066
540.29	0.399651
543.183	0.095566
546.075	0.030807
548.968	0.78894
551.861	1.18674
554.753	2.14352
557.646	2.77917
560.539	3.40238
563.432	5.76945
566.324	5.97114
569.217	7.84543
572.11	8.37446
575.002	9.80801
577.895	9.90866
580.788	10.3845
583.681	10.4563
586.573	9.48969
589.466	9.4906
592.359	9.3819
595.251	9.6282
598.144	9.09485
601.037	9.48236
603.929	10.0339
606.822	9.88182
609.715	10.9941
612.607	11.3026
615.5	11.4726
618.393	11.1077
621.286	10.9962
624.178	11.4568
627.071	14.6149
629.964	13.634
632.856	13.788
635.749	15.2716
638.642	16.679
641.534	17.4784
644.427	18.0611
647.32	19.5587
650.213	20.9138
653.105	22.5041
655.998	24.5348
658.891	23.999
661.783	24.2041
664.676	22.4781
667.569	19.9747
670.462	17.7135
673.354	13.3648
676.247	10.1968
679.14	7.55579
682.032	4.3514
684.925	2.74194
687.818	1.58461
690.71	0.626076
693.603	0.469704
696.496	0.685974
699.389	0.118591
702.281	0.986954
705.174	0.071022
708.067	0.518547
710.959	0.368385
713.852	0.062561
716.745	0.208572
719.637	0.178101
722.53	0.119606
725.423	0.093658
728.316	0.10775
731.208	0.304825
734.101	0.330765
736.994	0.167389
739.886	0.699799
742.779	0.612152
745.672	0.458145
748.564	0.490616
751.457	1.01539
754.35	1.351
757.242	1.01807
760.135	1.21159
763.028	1.34281
765.921	1.66655
768.813	1.19534
771.706	1.8985
774.599	2.43044
777.491	3.65407
780.384	3.17521
783.277	3.54298
786.169	4.07472
789.062	5.40007
791.955	6.00282
794.848	7.61246
797.74	8.84455
800.633	8.99786
803.526	10.6349
806.418	11.9906
809.311	12.5084
812.204	12.8541
815.096	14.5988
817.989	15.6195
820.882	15.0588
823.775	14.3885
826.667	13.7994
829.56	12.1069
832.453	10.9577
835.345	11.4255
838.238	9.78804
841.131	9.85737
844.024	9.27609
846.916	8.62331
849.809	8.09112
852.702	7.80937
855.594	6.69305
858.487	6.26248
861.38	5.55037
864.272	5.1392
867.165	4.59846
870.058	3.64025
872.951	4.43326
875.843	2.71529
878.736	2.05047
881.629	2.49566
884.521	3.32369
887.414	1.46265
890.307	1.42427
893.199	0.856178
896.092	0.472908
898.985	0.770912
901.878	0.335541
904.77	0.868706
907.663	0.305923
910.556	0.044159
913.448	0.567749
916.341	0.193947
919.234	0.310516
922.126	0.119125
925.019	0.008682
927.912	0.671906
930.804	0.109291
933.697	0.608482
936.59	0.066612
939.483	0.206734
942.375	0.136131
945.268	0.766159
948.161	0.568489
951.053	0.563263
953.946	0.53421
956.839	1.52405
959.731	0.986053
962.624	0.003044
965.517	0.756195
968.41	0.832321
971.302	1.124
974.195	0.423065
977.088	1.18479
979.98	0.541862
982.873	0.532349
985.766	0.758553
988.659	0.574333
991.551	0.631004
994.444	0.807335
997.337	1.06154
1000.23	1.20847
1003.12	0.790062
1006.01	0.635254
1008.91	0.995232
1011.8	3.98348
1014.69	1.95845
1017.59	1.08371
1020.48	1.07002
1023.37	1.5238
1026.26	0.913147
1029.16	1.78571
1032.05	1.48859
1034.94	1.10237
1037.83	1.19582
1040.73	1.35113
1043.62	0.695732
1046.51	1.78236
1049.4	1.45509
1052.3	0.648567
1055.19	0.122536
1058.08	0.610657
1060.98	1.62803
1063.87	0.702461
1066.76	1.05168
1069.65	0.297958
1072.55	0.032768
1075.44	0.640472
1078.33	0.409744
1081.22	0.746475
1084.12	0.942253
1087.01	0.709007
1089.9	0.555077
1092.8	0.340179
1095.69	0.399292
1098.58	1.09261
1101.47	0.545547
1104.37	1.1801
1107.26	0.645454
1110.15	0.271179
1113.05	0.136719
1115.94	0.654114
1118.83	0.54921
1121.72	0.736465
1124.62	0.023109
1127.51	0.058777
1130.4	0.11927
1133.29	0.573372
1136.19	0.366486
1139.08	0.497208
1141.97	0.48365
1144.86	0.16655
1147.76	0.914566
1150.65	1.07424
1153.54	1.04939
1156.43	1.24678
1159.33	1.30154
1162.22	0.790855
1165.11	0.802643
1168.01	1.08285
1170.9	0.615265
1173.79	1.10071
1176.68	1.20966
1179.58	1.77248
1182.47	1.16695
1185.36	0.976555
1188.26	1.10803
1191.15	0.969894
1194.04	0.335892
1196.93	0.862442
1199.83	0.775291
1202.72	0.627045
1205.61	1.42103
1208.5	1.32243
1211.4	0.161415
1214.29	0.017624
1217.18	1.0158
1220.08	0.482254
1222.97	1.09287
1225.86	0.770126
1228.75	0.514977
1231.64	0.264771
1234.54	0.478508
1237.43	0.113327
1240.32	0.102097
1243.22	0.566452
1246.11	0.736679
1249	0.492706
1251.89	0.268379
1254.79	0.474838
1257.68	0.84449
1260.57	0.231873
1263.46	0.83226
1266.36	0.699287
1269.25	0.505432
1272.14	1.2195
1275.04	1.47701
1277.93	0.054062
1280.82	0.264114
