Measurement: Raman, 532 nm, unoriented, Raman Data Processed
Mineral: Synadelphite
Rruff sample: R080097
Ideal chemistry: Mn^2+^_9_(As^3+^O_3_)(As^5+^O_4_)_2_(OH)_9_2H_2_O
Locality: Moss mine, Nordmark, Varmland, Sweden
Source: William W Pinch
Description: Black psuedo-octahedral with cube modifications
Raman shift (cm-1)	intensity
178.775	0
181.667	0.716064
184.56	1.56838
187.453	3.42995
190.345	0.629318
193.238	0.834045
196.131	0.260834
199.024	0.120422
201.916	2.21292
204.809	1.52063
207.702	1.74764
210.594	1.25473
213.487	1.66014
216.38	1.2872
219.273	1.8876
222.165	0.329468
225.058	0.589905
227.951	0.946487
230.843	0.16333
233.736	0.725281
236.629	0.473801
239.521	0.548096
242.414	0.203644
245.307	0.212036
248.2	0.09288
251.092	0.813904
253.985	1.2043
256.878	2.77052
259.77	2.01253
262.663	2.29688
265.556	2.88296
268.448	3.07161
271.341	3.42633
274.234	4.42429
277.127	5.27139
280.019	5.69899
282.912	5.59875
285.805	7.11347
288.697	5.71551
291.59	5.84772
294.483	5.48597
297.375	7.32568
300.268	7.07106
303.161	7.49147
306.053	9.27702
308.946	8.75003
311.839	9.08431
314.732	8.19436
317.624	6.35043
320.517	5.42197
323.41	4.21653
326.302	3.67282
329.195	2.7206
332.088	3.22834
334.981	3.38991
337.873	3.398
340.766	3.25792
343.659	2.98543
346.551	3.03652
349.444	3.54883
352.337	4.98771
355.229	4.57076
358.122	5.28142
361.015	6.05658
363.908	5.17897
366.8	5.52642
369.693	5.00398
372.586	3.1681
375.478	2.8188
378.371	1.51154
381.264	1.58388
384.156	0.628853
387.049	0.518143
389.942	0.098526
392.834	0.730865
395.727	0.130219
398.62	0.136826
401.513	0.145096
404.405	0.10498
407.298	0.059967
410.191	0.222008
413.083	0.234451
415.976	1.06932
418.869	0.514931
421.762	1.20255
424.654	1.2914
427.547	1.49357
430.44	2.38752
433.332	2.09965
436.225	1.89175
439.118	0.624718
442.01	0.727272
444.903	0.908279
447.796	0.019997
450.688	0.671471
453.581	0.167046
456.474	0.293663
459.367	0.343445
462.259	0.666725
465.152	0.100853
468.045	0.019875
470.937	0.442314
473.83	0.742462
476.723	0.021622
479.615	0.725479
482.508	0.804634
485.401	1.63955
488.294	2.34007
491.186	2.07111
494.079	2.87984
496.972	3.32027
499.864	4.5443
502.757	4.30766
505.65	4.32867
508.543	3.47036
511.435	4.30263
514.328	2.63878
517.221	2.22954
520.113	2.10231
523.006	1.07838
525.899	0.496513
528.791	1.05943
531.684	0.664276
534.577	0.317017
537.47	0.113823
540.362	0.369484
543.255	0.840889
546.148	0.93351
549.04	0.380974
551.933	0.958488
554.826	2.09786
557.718	4.21474
560.611	5.50436
563.504	7.73543
566.396	10.5719
569.289	13.1707
572.182	15.2365
575.075	18.0522
577.967	19.3903
580.86	20.6953
583.753	20.8551
586.645	21.2092
589.538	20.2726
592.431	19.4308
595.323	17.5783
598.216	16.706
601.109	16.7285
604.002	16.6281
606.894	16.9807
609.787	17.1892
612.68	18.2185
615.572	18.4806
618.465	18.1622
621.358	18.8615
624.25	20.3867
627.143	22.3654
630.036	24.4157
632.929	28.3315
635.821	33.5963
638.714	41.9878
641.607	51.3328
644.5	62.6892
647.392	74.011
650.285	82.8367
653.178	83.7031
656.07	79.5614
658.963	71.4561
661.856	59.6587
664.748	48.7285
667.641	37.4963
670.534	28.6323
673.427	22.2932
676.319	16.096
679.212	12.3326
682.105	7.86333
684.997	4.54865
687.89	3.18653
690.783	1.86688
693.675	0.314835
696.568	0.573952
699.461	0.78997
702.354	1.11404
705.246	0.901062
708.139	1.08432
711.032	0.756439
713.924	0.246674
716.817	0.031677
719.71	0.148613
722.602	0.050224
725.495	0.193268
728.388	0.447495
731.28	0.204826
734.173	0.046455
737.066	0.325172
739.959	0.691727
742.851	1.35107
745.744	1.50271
748.637	2.37855
751.529	2.23621
754.422	2.19096
757.315	2.06862
760.207	2.87417
763.1	2.35068
765.993	2.65007
768.886	3.32986
771.778	4.22389
774.671	4.22786
777.564	5.57427
780.456	6.86361
783.349	8.86157
786.242	9.48798
789.135	11.061
792.027	13.4531
794.92	16.0304
797.813	17.7357
800.705	19.6442
803.598	21.5657
806.491	21.3157
809.383	21.84
812.276	23.5815
815.169	24.7101
818.062	26.7384
820.954	28.3712
823.847	29.5653
826.74	30.1272
829.632	32.3904
832.525	34.0534
835.418	30.2516
838.31	37.7612
841.203	37.8274
844.096	32.6432
846.989	26.825
849.881	23.9209
852.774	23.0745
855.667	21.5501
858.559	20.25
861.452	19.2717
864.345	17.9548
867.237	15.3334
870.13	13.6623
873.023	12.2731
875.915	9.90897
878.808	9.41447
881.701	7.65137
884.594	12.9585
887.486	5.69804
890.379	4.49005
893.272	3.48018
896.164	3.22822
899.057	2.17457
901.95	1.68941
904.842	1.08929
907.735	0.460205
910.628	0.353333
913.521	1.27818
916.413	1.24676
919.306	0.353821
922.199	0.218651
925.091	0.151772
927.984	0.101223
930.877	1.02303
933.769	0.336929
936.662	0.275219
939.555	0.325859
942.448	0.682056
945.34	0.429493
948.233	0.740437
951.126	0.805275
954.018	0.867847
956.911	1.25122
959.804	1.79944
962.697	2.03034
965.589	2.22885
968.482	1.65113
971.375	1.70038
974.267	2.8968
977.16	2.21948
980.053	3.12692
982.945	2.88398
985.838	2.59214
988.731	1.78588
991.624	2.32232
994.516	1.91279
997.409	2.23229
1000.3	2.03492
1003.19	1.92621
1006.09	1.54991
1008.98	2.44627
1011.87	2.24405
1014.76	2.60908
1017.66	2.82233
1020.55	3.28269
1023.44	2.86956
1026.34	3.62824
1029.23	3.27423
1032.12	3.83332
1035.01	3.42924
1037.91	4.11827
1040.8	4.99834
1043.69	4.69709
1046.59	4.21083
1049.48	3.76227
1052.37	3.49301
1055.26	3.08244
1058.16	2.69242
1061.05	2.17421
1063.94	1.95963
1066.83	1.66388
1069.73	1.32359
1072.62	1.52987
1075.51	0.79438
1078.4	1.23843
1081.3	0.496162
1084.19	0.107334
1087.08	0.802475
1089.97	0.489117
1092.87	0.443089
1095.76	0.071674
1098.65	0.793694
1101.55	0.290783
1104.44	0.388973
1107.33	0.524055
1110.22	0.101624
1113.12	0.782646
1116.01	0.291435
1118.9	0.681911
1121.8	0.02066
1124.69	0.356949
1127.58	0.029812
1130.47	0.350658
1133.37	0.229656
1136.26	0.629734
1139.15	0.441742
1142.04	0.662354
1144.94	0.471313
1147.83	0.476799
1150.72	0.31242
1153.62	0.454285
1156.51	0.328022
1159.4	0.257622
1162.29	0.668465
1165.19	0.542557
1168.08	0.338112
1170.97	0.490498
1173.86	0.416039
1176.76	0.536724
1179.65	0.171539
1182.54	0.312099
1185.43	0.276283
1188.33	0.082512
1191.22	0.42849
1194.11	0.79985
1197.01	0.86977
1199.9	0.928932
1202.79	0.978382
1205.68	2.40131
1208.58	0.809307
1211.47	0.62006
1214.36	1.30871
1217.25	0.532166
1220.15	0.782841
1223.04	0.633701
1225.93	1.04907
1228.83	1.13789
1231.72	0.61517
1234.61	0.362694
1237.5	0.783451
1240.4	0.809082
1243.29	0.471519
1246.18	0.61272
1249.07	0.013783
1251.97	0.353703
1254.86	0.821712
1257.75	0.866993
1260.64	5.74747
1263.54	5.13283
1266.43	0.74128
1269.32	0.899788
1272.21	0.296627
1275.11	0.689819
1278	0.096512
1280.89	0.312531
1283.79	0.339344
1286.68	0.754639
1289.57	0.154171
1292.46	0.268528
1295.36	0.279324
1298.25	1.0029
