Measurement: Raman, 785 nm, unoriented, Raman Data RAW
Mineral: Synchysite-(Ce)
Rruff sample: R060210
Ideal chemistry: CaCe(CO_3_)_2_F
Locality: Mont Saint-Hilaire, Rouville County, Quebec, Canada
Source: Royal Ontario Museum
Description: Yellowish-brown thin pseudohexagonal tablets
Measured chemistry: Ca_1.00_(Ce_0.55_(La,Pr)_0.28_Nd_0.15_Y_0.02_)(CO_3_)_2_F_1.00_
Raman shift (cm-1)	intensity
119.573	238.36
122.466	365.642
125.359	532.157
128.251	769.126
131.144	965.409
134.037	1119.06
136.929	1222.58
139.822	1466.92
142.715	1863.21
145.607	2365.14
148.5	2731.31
151.393	2914.67
154.286	3036.82
157.178	3183.08
160.071	3450.96
162.964	3690.34
165.856	3882.24
168.749	4140.36
171.642	4210.52
174.534	4342.56
177.427	4445.74
180.32	4551.92
183.212	4748.31
186.105	4921.61
188.998	5071.89
191.891	5152.49
194.783	5312.72
197.676	5469.87
200.569	5541.15
203.461	5634.04
206.354	5686.36
209.247	5813.1
212.139	5816.11
215.032	5915.27
217.925	6087.35
220.818	6225.85
223.71	6319.6
226.603	6441.6
229.496	6690.49
232.388	6791.53
235.281	6910.05
238.174	7111.4
241.066	7215.73
243.959	7350.38
246.852	7394.15
249.745	7421.05
252.637	7494.09
255.53	7398.49
258.423	7424.97
261.315	7288.13
264.208	7293.62
267.101	7173.02
269.993	7048.08
272.886	6977.62
275.779	6844.26
278.672	6761.94
281.564	6732.88
284.457	6623.21
287.35	6621.33
290.242	6585.38
293.135	6539.71
296.028	6538.26
298.921	6491.7
301.813	6520.18
304.706	6518.24
307.599	6524.37
310.491	6456
313.384	6483.36
316.277	6372.05
319.169	6351.61
322.062	6256.42
324.955	6093.22
327.847	6031.94
330.74	5916.31
333.633	5722.61
336.526	5606.63
339.418	5409.65
342.311	5290.71
345.204	5159.04
348.096	5031.22
350.989	4871.08
353.882	4750.35
356.774	4583.97
359.667	4474.96
362.56	4353.26
365.452	4276.37
368.345	4151.21
371.238	4114.78
374.131	4057.91
377.023	3972.7
379.916	3908.18
382.809	3847.17
385.701	3747.23
388.594	3682.39
391.487	3679.5
394.38	3662.71
397.272	3587.49
400.165	3626.62
403.058	3525.26
405.95	3563.36
408.843	3528.45
411.736	3508.73
414.628	3537.48
417.521	3556.7
420.414	3567.79
423.307	3581.33
426.199	3641.91
429.092	3640.04
431.985	3683.19
434.877	3750.03
437.77	3781.34
440.663	3858.12
443.555	3884.68
446.448	3905.04
449.341	3874.74
452.234	3882.9
455.126	3882.32
458.019	3860.36
460.912	3823.37
463.804	3833.44
466.697	3811.49
469.59	3801.43
472.483	3815
475.375	3809.72
478.268	3770.34
481.161	3788.99
484.053	3763.48
486.946	3705.62
489.839	3700.68
492.731	3697.35
495.624	3564.29
498.517	3596.44
501.409	3520.12
504.302	3496.13
507.195	3430.39
510.088	3403.21
512.98	3372.49
515.873	3238.16
518.766	3180.2
521.658	3125.68
524.551	3081.8
527.444	3009.98
530.337	2934.86
533.229	2913.12
536.122	2805.72
539.015	2724.84
541.907	2656.63
544.8	2645.96
547.693	2607.24
550.585	2569.04
553.478	2617.51
556.371	2513.19
559.263	2550.01
562.156	2507.4
565.049	2480.37
567.942	2464.62
570.834	2442.32
573.727	2492.48
576.62	2443.33
579.512	2445.59
582.405	2395.12
585.298	2406.63
588.19	2384.35
591.083	2372.78
593.976	2407.6
596.869	2327.34
599.761	2346.83
602.654	2317.95
605.547	2305.68
608.439	2286.4
611.332	2245.9
614.225	2203.47
617.117	2130.91
620.01	2061.88
622.903	2080.21
625.795	1989.52
628.688	1926.67
631.581	1831.22
634.474	1832.24
637.366	1739.02
640.259	1674.73
643.152	1594.17
646.044	1596.54
648.937	1535.63
651.83	1454.81
654.722	1418.19
657.615	1384.21
660.508	1371.4
663.401	1319.87
666.293	1310.75
669.186	1182.17
672.079	1231.23
674.971	1201.33
677.864	1167.05
680.757	1154.16
683.649	1108.2
686.542	1088.16
689.435	1057.21
692.328	1049.4
695.22	1042.56
698.113	1015.54
701.006	1009.5
703.898	998.652
706.791	970.107
709.684	963.909
712.577	956.119
715.469	956.372
718.362	940.469
721.255	956.761
724.147	916.889
727.04	946.11
729.933	921.406
732.825	910.233
735.718	875.384
738.611	866.825
741.504	884.826
744.396	856.769
747.289	880.346
750.182	859.682
753.074	855.078
755.967	885.338
758.86	875.862
761.752	899.452
764.645	887.108
767.538	890.616
770.431	890.737
773.323	874.637
776.216	886.862
779.109	885.63
782.001	904.728
784.894	888.84
787.787	937.811
790.679	939.199
793.572	930.934
796.465	933.295
799.357	954.75
802.25	968.819
805.143	977.198
808.036	1011.47
810.928	1035.83
813.821	1073.86
816.714	1084.85
819.606	1106.51
822.499	1118.21
825.392	1119.45
828.284	1158.87
831.177	1197.62
834.07	1220.1
836.963	1239.43
839.855	1283.38
842.748	1318.43
845.641	1335.06
848.533	1398.67
851.426	1398.91
854.319	1409.17
857.212	1471.08
860.104	1528.37
862.997	1522.55
865.89	1506.33
868.782	1572.33
871.675	1616.16
874.568	1645.2
877.46	1699.61
880.353	1724.21
883.246	1780.04
886.139	1795.96
889.031	1854.73
891.924	1890.96
894.817	1963.69
897.709	1997.2
900.602	2037.47
903.495	2072.32
906.388	2107.61
909.28	2167.13
912.173	2252.45
915.066	2260.05
917.958	2352.4
920.851	2408.46
923.744	2486.87
926.636	2533.91
929.529	2608.34
932.422	2645.45
935.314	2719.17
938.207	2794.36
941.1	2842.29
943.993	2863.15
946.885	2960.57
949.778	3093.17
952.671	3128.54
955.563	3191.63
958.456	3274.93
961.349	3429.6
964.241	3461.51
967.134	3578.87
970.027	3696.09
972.92	3757.24
975.812	3888.54
978.705	4048.22
981.598	4172.52
984.49	4380.08
987.383	4529.97
990.276	4671.58
993.168	4827.09
996.061	5049.65
998.954	5187.46
1001.85	5435.86
1004.74	5631.52
1007.63	5851.35
1010.52	6095.35
1013.42	6394.7
1016.31	6528.57
1019.2	6898.14
1022.1	7195.96
1024.99	7544.76
1027.88	7899.03
1030.77	8289.09
1033.67	8715.12
1036.56	9158.45
1039.45	9610.82
1042.34	10109.7
1045.24	10637.7
1048.13	11136.1
1051.02	11627.6
1053.91	12358.9
1056.81	12964.9
1059.7	13696.4
1062.59	14462.8
1065.49	15323.2
1068.38	16147.2
1071.27	17193.7
1074.16	18152.2
1077.06	19330.8
1079.95	20842.2
1082.84	22272.3
1085.73	24117.6
1088.63	26074.2
1091.52	28432.5
1094.41	31353.4
1097.31	34504.9
1100.2	38624.9
1103.09	43310.2
1105.98	49050.6
1108.88	56031.9
1111.77	64232.8
1114.66	74187.4
1117.56	85165.9
1120.45	96130.9
1123.34	106914
1126.23	116102
1129.12	123464
1132.02	129533
1134.91	134373
1137.8	139695
1140.7	145325
1143.59	150104
1146.48	153242
1149.37	153542
1152.27	148529
1155.16	140312
1158.05	131161
1160.94	123248
1163.84	118386
1166.73	118851
1169.62	125661
1172.52	139359
1175.41	158139
1178.3	177422
1181.19	190723
1184.09	193843
1186.98	187808
1189.87	176872
1192.77	164575
1195.66	153157
1198.55	142278
1201.44	133142
1204.34	125020
1207.23	118272
1210.12	113477
1213.01	109410
1215.91	106839
1218.8	104885
1221.69	103557
1224.58	102885
1227.48	102665
1230.37	102714
1233.26	102938
