Measurement: Raman, 532 nm, unoriented, Raman Data Processed
Mineral: Szaibelyite
Rruff sample: R060372
Ideal chemistry: MgBO_2_(OH)
Locality: Blind Mountain, Pioche, Lincoln County, Nevada, USA
Source: Michael Scott
Description: White silky fibers in radial mats
Raman shift (cm-1)	intensity
146.473	0
149.365	0.865631
152.258	0.719116
155.151	1.55689
158.044	9.54919
160.936	16.6474
163.829	7.23068
166.722	0.914063
169.614	6.34058
172.507	3.42615
175.4	2.58569
178.293	7.13843
181.185	14.3933
184.078	16.9756
186.971	7.83606
189.863	3.21902
192.756	5.02814
195.649	11.4803
198.542	9.01373
201.434	12.9345
204.327	16.7312
207.22	27.7024
210.112	50.601
213.005	41.8766
215.898	10.1364
218.79	0.472717
221.683	0.473114
224.576	0.202087
227.469	0.609467
230.361	1.1181
233.254	0.334259
236.147	1.88336
239.039	0.523163
241.932	2.81326
244.825	3.42731
247.717	6.86194
250.61	13.358
253.503	16.613
256.396	20.6597
259.288	22.4855
262.181	9.11893
265.074	7.4187
267.966	6.88769
270.859	4.34088
273.752	1.5163
276.644	2.75827
279.537	4.42685
282.43	5.12497
285.322	9.85352
288.215	14.8232
291.108	21.7266
294.001	30.9472
296.893	25.2724
299.786	16.0593
302.679	9.83917
305.571	7.24521
308.464	6.70978
311.357	9.00372
314.25	20.6935
317.142	20.3898
320.035	29.8463
322.928	48.2469
325.82	56.6637
328.713	33.6532
331.606	10.3281
334.498	8.68863
337.391	5.92816
340.284	8.07199
343.176	9.60764
346.069	9.22699
348.962	5.44965
351.855	0.881805
354.747	1.12863
357.64	1.87634
360.533	1.97992
363.425	1.58884
366.318	2.97562
369.211	1.8382
372.103	0.11261
374.996	0.737
377.889	1.9325
380.782	1.49661
383.674	2.13147
386.567	5.04242
389.46	7.34723
392.352	6.86029
395.245	10.1321
398.138	12.1154
401.031	9.13098
403.923	11.7654
406.816	9.18073
409.709	8.01148
412.601	5.45154
415.494	4.10162
418.387	2.70117
421.279	0.569702
424.172	0.720703
427.065	1.63519
429.957	1.82898
432.85	1.67438
435.743	0.055115
438.636	0.112061
441.528	0.675903
444.421	3.94128
447.314	2.7132
450.206	1.93927
453.099	1.20685
455.992	2.17658
458.885	2.02393
461.777	1.41638
464.67	2.33197
467.563	0.072571
470.455	2.48468
473.348	3.27002
476.241	3.59338
479.133	7.72852
482.026	8.91577
484.919	13.8732
487.812	16.9159
490.704	23.8276
493.597	20.1561
496.49	10.6754
499.382	5.61786
502.275	6.46625
505.168	7.4054
508.06	3.63806
510.953	5.16724
513.846	6.93439
516.739	5.84204
519.631	11.7506
522.524	16.3899
525.417	18.4501
528.309	20.5707
531.202	17.4037
534.095	13.2805
536.987	6.15991
539.88	2.08118
542.773	2.53351
545.665	2.02521
548.558	1.84558
551.451	2.13159
554.344	2.59937
557.236	2.78497
560.129	0.804932
563.022	0.595642
565.914	0.537842
568.807	1.20514
571.7	1.95129
574.592	0.400757
577.485	1.73102
580.378	0.702087
583.271	0.072998
586.163	0.131592
589.056	1.56702
591.949	0.725281
594.841	0.369141
597.734	3.71069
600.627	9.65979
603.519	10.5188
606.412	17.8898
609.305	23.1695
612.198	25.8447
615.09	25.7195
617.983	31.1057
620.876	42.6688
623.768	52.3638
626.661	47.9736
629.554	33.9291
632.447	25.9132
635.339	20.4427
638.232	15.8852
641.125	11.4462
644.017	12.8684
646.91	9.60681
649.803	8.56055
652.695	8.44788
655.588	5.46234
658.481	6.58582
661.374	5.66974
664.266	2.85724
667.159	1.43073
670.052	2.69928
672.944	5.00494
675.837	3.20721
678.73	8.03308
681.622	5.89539
684.515	2.89123
687.408	0.456543
690.301	0.244934
693.193	2.3244
696.086	3.80951
698.979	3.64331
701.871	7.77472
704.764	4.71271
707.657	2.34699
710.549	2.29205
713.442	0.304321
716.335	0.808289
719.227	1.2074
722.12	2.09326
725.013	0.071228
727.906	0.940491
730.798	1.00738
733.691	2.34766
736.584	0.980042
739.476	0.205505
742.369	0.219238
745.262	1.74847
748.154	1.08392
751.047	0.519958
753.94	0.87561
756.833	0.37738
759.725	0.764709
762.618	0.496643
765.511	3.13769
768.403	1.48468
771.296	1.31
774.189	4.74493
777.082	4.90399
779.974	3.78546
782.867	4.46759
785.76	3.07581
788.652	2.0965
791.545	6.56586
794.438	3.97388
797.33	4.00195
800.223	5.18085
803.116	3.49866
806.009	6.41657
808.901	8.55963
811.794	12.967
814.687	14.6913
817.579	22.1646
820.472	33.4778
823.365	58.2413
826.257	90.7418
829.15	137
832.043	195.226
834.936	226.832
837.828	173.533
840.721	89.3747
843.614	42.8016
846.506	23.4404
849.399	15.331
852.292	11.0081
855.184	6.29193
858.077	4.06934
860.97	5.80872
863.863	4.86389
866.755	2.75214
869.648	3.34662
872.541	2.43451
875.433	0.603088
878.326	0.138306
881.219	0.084106
884.111	0.022644
887.004	0.459534
889.897	2.40137
892.79	0.14856
895.682	2.54419
898.575	3.80756
901.468	3.57794
904.36	3.11798
907.253	2.27832
910.146	5.73157
913.038	0.263306
915.931	4.76849
918.824	3.40326
921.717	4.22272
924.609	1.08722
927.502	4.94171
930.395	4.12714
933.287	4.3559
936.18	1.40283
939.073	1.61762
941.966	2.06403
944.858	2.53418
947.751	1.27008
950.644	0.10498
953.536	0.884521
956.429	0.065735
959.322	5.29633
962.214	1.16223
965.107	2.29938
968	0.475342
970.893	0.134583
973.785	1.83453
976.678	5.77924
979.571	5.36261
982.463	7.45227
985.356	9.26672
988.249	9.42419
991.141	5.53625
994.034	4.54114
996.927	3.19665
999.819	2.85358
1002.71	1.18567
1005.61	3.01105
1008.5	4.37415
1011.39	3.5954
1014.28	4.70526
1017.18	3.09979
1020.07	1.50085
1022.96	1.04889
1025.85	4.31976
1028.75	0.036743
1031.64	2.76868
1034.53	2.16754
1037.42	0.581116
1040.32	8.21729
1043.21	5.06628
1046.1	4.30084
1048.99	3.33081
1051.89	2.02966
1054.78	2.9765
1057.67	2.64929
1060.57	4.06036
1063.46	4.49591
1066.35	4.68207
1069.24	3.06042
1072.14	2.24573
1075.03	4.04242
1077.92	2.1911
1080.82	2.99689
1083.71	1.77557
1086.6	2.77673
1089.49	4.43988
1092.39	4.53864
1095.28	1.78009
1098.17	3.60974
1101.06	1.26453
1103.96	1.71283
1106.85	1.23669
1109.74	4.48859
1112.63	3.24268
1115.53	3.00317
1118.42	1.78174
1121.31	2.18524
1124.21	0.382629
1127.1	0.982117
1129.99	0.921143
1132.88	0.801392
1135.78	0.339722
1138.67	0.234192
1141.56	3.33838
1144.45	3.75714
1147.35	2.83411
1150.24	3.75464
1153.13	2.56299
1156.03	3.02527
1158.92	3.13879
1161.81	6.32861
1164.7	5.6983
1167.6	4.94074
1170.49	8.89459
1173.38	9.21216
1176.27	11.6613
1179.17	17.1431
1182.06	20.95
1184.95	25.1221
1187.85	24.7333
1190.74	25.538
1193.63	19.642
1196.52	15.2314
1199.42	12.4633
1202.31	10.395
1205.2	7.46411
1208.09	6.89386
1210.99	6.60309
1213.88	7.79736
1216.77	5.56592
1219.66	2.57043
1222.56	5.23004
1225.45	3.86475
1228.34	2.27295
1231.24	3.56482
1234.13	1.11676
1237.02	0.181335
1239.91	1.69293
1242.81	2.28705
1245.7	1.88098
1248.59	1.80859
1251.48	2.3526
1254.38	3.58331
1257.27	4.52447
1260.16	9.86414
1263.06	9.70666
1265.95	13.7734
1268.84	13.5193
1271.73	11.0185
1274.63	9.75836
1277.52	8.04999
1280.41	8.28027
1283.3	9.63293
1286.2	7.63495
1289.09	7.4704
1291.98	8.38501
1294.88	3.8747
1297.77	1.36456
1300.66	0
