Measurement: Raman, 780 nm, unoriented, Raman Data Processed
Mineral: Szaibelyite
Rruff sample: R060372
Ideal chemistry: MgBO_2_(OH)
Locality: Blind Mountain, Pioche, Lincoln County, Nevada, USA
Source: Michael Scott
Description: White silky fibers in radial mats
Raman shift (cm-1)	intensity
125.67	0
128.562	1.05391
131.455	3.35408
134.348	6.3046
137.24	11.9763
140.133	8.92556
143.026	4.36608
145.918	2.88613
148.811	2.17041
151.704	1.79181
154.597	2.02626
157.489	3.56664
160.382	4.10049
163.275	0.965879
166.167	0.12026
169.06	0.009481
171.953	0.517139
174.845	0.310167
177.738	1.13536
180.631	2.76261
183.524	3.01276
186.416	2.10134
189.309	1.20546
192.202	1.08065
195.094	1.47987
197.987	1.33196
200.88	1.33384
203.773	3.59085
206.665	7.48605
209.558	13.6135
212.451	9.13656
215.343	1.77761
218.236	0.342558
221.129	0.010618
224.021	0.488552
226.914	0.198589
229.807	0.743244
232.7	0.187815
235.592	1.09129
238.485	0.137867
241.378	0.710493
244.27	1.26191
247.163	1.61789
250.056	2.86613
252.948	2.89838
255.841	3.84839
258.734	3.72807
261.627	1.37604
264.519	0.837233
267.412	1.12191
270.305	0.220285
273.197	0.03829
276.09	0.297119
278.983	0.806473
281.875	0.819828
284.768	0.481224
287.661	2.68661
290.553	4.44866
293.446	6.86382
296.339	6.34343
299.232	3.38634
302.124	2.31105
305.017	1.63928
307.91	1.69677
310.802	1.3979
313.695	2.27725
316.588	3.36406
319.481	5.2949
322.373	9.59394
325.266	11.08
328.159	5.35062
331.051	1.68714
333.944	2.04217
336.837	1.03977
339.729	2.01341
342.622	2.67284
345.515	1.41684
348.408	1.47073
351.3	0.056215
354.193	0.266115
357.086	0.078064
359.978	0.03009
362.871	0.444921
365.764	0.633699
368.656	0.201185
371.549	0.284105
374.442	0.09796
377.334	0.349081
380.227	0.371296
383.12	0.864668
386.013	0.671469
388.905	1.61254
391.798	1.92923
394.691	1.80186
397.583	1.49937
400.476	2.75382
403.369	2.74323
406.262	3.085
409.154	1.98387
412.047	1.39703
414.94	0.519728
417.832	0.300436
420.725	0.193815
423.618	0.541758
426.51	0.205084
429.403	0.320204
432.296	0.25127
435.188	0.771885
438.081	0.476688
440.974	0.561882
443.867	0.675106
446.759	0.64999
449.652	0.938152
452.545	0.083162
455.437	0.308451
458.33	0.635931
461.223	0.655378
464.115	0.689037
467.008	0.675802
469.901	1.05769
472.794	1.25062
475.686	1.39377
478.579	2.28688
481.472	2.04123
484.364	2.89807
487.257	3.58385
490.15	5.58979
493.043	4.85981
495.935	3.2112
498.828	1.85281
501.721	1.68789
504.613	1.01684
507.506	1.47051
510.399	1.3536
513.291	1.23162
516.184	1.85308
519.077	2.57889
521.97	2.62699
524.862	3.61676
527.755	4.40544
530.648	2.93041
533.54	2.16877
536.433	1.26763
539.326	0.961142
542.218	0.617189
545.111	0.430084
548.004	0.304659
550.896	0.041628
553.789	0.144037
556.682	0.470194
559.575	0.050406
562.467	0.349966
565.36	0.130318
568.253	0.278807
571.145	0.204123
574.038	0.160143
576.931	0.238804
579.823	0.170227
582.716	0.19511
585.609	0.075871
588.502	0.653303
591.394	0.526381
594.287	0.714615
597.18	1.02875
600.072	2.02242
602.965	2.72722
605.858	4.22727
608.75	5.71226
611.643	6.40222
614.536	5.16416
617.429	7.21166
620.321	9.5672
623.214	12.4828
626.107	11.6068
629	8.32047
631.892	5.90472
634.785	4.97952
637.678	4.14341
640.57	3.0026
643.463	3.2929
646.356	3.10451
649.248	2.71451
652.141	2.18566
655.034	1.56014
657.927	2.17273
660.819	1.65531
663.712	1.08454
666.605	0.418703
669.497	0.708414
672.39	0.654217
675.283	0.911648
678.175	1.04694
681.068	1.23385
683.961	1.20875
686.854	0.561041
689.746	0.703259
692.639	0.783195
695.532	0.488083
698.424	0.573821
701.317	1.40431
704.21	1.03424
707.102	0.914577
709.995	0.139414
712.888	0.335871
715.78	0.100468
718.673	0.901761
721.566	0.460568
724.459	0.262957
727.351	0.103878
730.244	0.119218
733.137	0.228703
736.029	0.098676
738.922	0.111596
741.815	0.56042
744.707	0.580736
747.6	0.229145
750.493	0.124775
753.386	0.104981
756.278	0.390963
759.171	0.11873
762.064	0.508904
764.956	0.681161
767.849	0.716421
770.742	0.570649
773.635	0.35218
776.527	0.50027
779.42	0.141281
782.313	0.237983
785.205	0.466867
788.098	0.543025
790.991	0.88621
793.883	0.685164
796.776	0.34284
799.669	0.615357
802.562	1.06181
805.454	0.959983
808.347	1.33836
811.24	2.06474
814.132	2.71358
817.025	3.73869
819.918	5.10293
822.81	8.24535
825.703	13.0051
828.596	19.9717
831.489	31.6284
834.381	39.0135
837.274	28.0906
840.167	14.0396
843.059	6.91245
845.952	3.77217
848.845	2.75978
851.737	1.72215
854.63	0.752582
857.523	0.937016
860.415	0.66967
863.308	0.247529
866.201	0.488629
869.094	0.113138
871.986	0.57021
874.879	0.252414
877.772	0.279892
880.664	0.300743
883.557	0.709885
886.45	0.138813
889.342	0.015894
892.235	0.342315
895.128	0.415989
898.021	0.248397
900.913	0.085622
903.806	0.018473
906.699	0.603443
909.591	0.621974
912.484	0.353056
915.377	0.639215
918.269	0.367433
921.162	0.391938
924.055	0.296286
926.948	0.459711
929.84	0.397645
932.733	0.206334
935.626	0.28208
938.518	0.08441
941.411	0.16197
944.304	0.52556
947.197	0.222673
950.089	0.367177
952.982	0.621715
955.875	0.698056
958.767	0.118214
961.66	0.677323
964.553	0.405673
967.445	0.590754
970.338	0.581098
973.231	0.688908
976.124	1.00571
979.016	1.04639
981.909	1.85597
984.802	1.8506
987.694	2.07683
990.587	1.48614
993.48	0.696953
996.372	0.726858
999.265	0.921917
1002.16	0.458798
1005.05	0.679708
1007.94	0.906453
1010.84	0.874264
1013.73	0.624393
1016.62	1.14856
1019.51	0.989853
1022.41	0.473419
1025.3	0.415892
1028.19	0.450822
1031.09	0.096219
1033.98	0.325457
1036.87	0.151851
1039.76	0.028881
1042.66	0.679533
1045.55	0.640795
1048.44	0.9779
1051.33	0.260738
1054.23	0.526631
1057.12	0.552035
1060.01	0.627806
1062.9	0.173041
1065.8	0.064353
1068.69	0.59564
1071.58	0.303477
1074.47	0.267617
1077.37	0.553834
1080.26	0.438035
1083.15	0.24062
1086.05	0.539396
1088.94	0.325793
1091.83	0.148512
1094.72	0.214783
1097.62	0.252646
1100.51	0.373494
1103.4	0.203622
1106.3	0.477962
1109.19	0.099807
1112.08	0.407015
1114.97	0.063485
1117.87	0.669469
1120.76	0.453234
1123.65	0.19076
1126.54	0.587429
1129.44	0.106936
1132.33	0.149339
1135.22	0.429118
1138.12	0.031608
1141.01	0.361167
1143.9	0.482679
1146.79	0.448177
1149.69	0.793229
1152.58	0.427929
1155.47	0.104573
1158.36	0.026732
1161.26	0.454138
1164.15	0.792711
1167.04	0.389693
1169.93	1.07674
1172.83	1.90902
1175.72	1.73519
1178.61	2.25805
1181.51	3.38841
1184.4	3.36179
1187.29	3.38812
1190.18	2.74481
1193.08	2.45227
1195.97	2.13281
1198.86	1.6934
1201.75	0.868807
1204.65	1.14159
1207.54	0.917005
1210.43	1.04174
1213.33	1.09546
1216.22	1.09418
1219.11	0.77996
1222	0.235446
1224.9	0.162166
1227.79	0.279759
1230.68	0.768842
1233.57	0.476667
1236.47	0.786922
1239.36	0.328961
1242.25	0.582065
1245.14	0.146531
1248.04	0.27158
1250.93	0.35461
1253.82	0.660337
1256.71	0.678454
1259.61	0.573887
1262.5	1.03585
1265.39	0.914207
1268.29	0.439459
1271.18	0.908085
1274.07	0.269675
1276.96	1.36615
1279.86	0.434347
