Measurement: Raman, 785 nm, unoriented, Raman Data RAW
Mineral: Talmessite
Rruff sample: R060830
Ideal chemistry: Ca_2_Mg(As^5+^O_4_)_2_2H_2_O
Locality: Bou Azzer, Morocco
Source: Michael Scott
Description: Aggregates of reddish orange platy crystals associated with reddish purple erythrite
Raman shift (cm-1)	intensity
123.456	307.66
126.349	460.878
129.242	661.88
132.134	679.981
135.027	597.165
137.92	612.234
140.812	677.617
143.705	837.457
146.598	1039.11
149.49	1345.93
152.383	1761.93
155.276	2349.77
158.169	3299.7
161.061	4158.12
163.954	2850.3
166.847	1969.93
169.739	1973.08
172.632	2340.86
175.525	2819.94
178.417	2765.16
181.31	2112.43
184.203	1833.11
187.096	1975.68
189.988	2322.61
192.881	2734.76
195.774	2973.97
198.666	2336.54
201.559	1712.42
204.452	1525.24
207.345	1559.61
210.237	1698.99
213.13	1910.55
216.023	1777.11
218.915	1472.96
221.808	1363.45
224.701	1346.03
227.593	1509.82
230.486	1707.75
233.379	2034.53
236.272	2414.14
239.164	2693.26
242.057	2664.79
244.95	2501.35
247.842	2419.3
250.735	2486.59
253.628	2588.66
256.52	2361.37
259.413	1963.7
262.306	1838.61
265.199	2005.44
268.091	2347.75
270.984	2837.51
273.877	3208.48
276.769	3011.93
279.662	2324.86
282.555	1787.22
285.447	1526.37
288.34	1403.67
291.233	1421.81
294.125	1542.71
297.018	1867.75
299.911	2429.7
302.804	3114.88
305.696	3610.13
308.589	3094.93
311.482	2156.42
314.374	1708.9
317.267	1527.62
320.16	1456.97
323.053	1485.42
325.945	1575.81
328.838	1642.45
331.731	1864.75
334.623	2197.32
337.516	2658.82
340.409	3432.74
343.301	4669.09
346.194	6437.59
349.087	8484.9
351.979	10244.5
354.872	10846.5
357.765	10203.5
360.658	9229.88
363.55	7471.94
366.443	5154.81
369.336	3604.79
372.228	2846.04
375.121	2545.99
378.014	2553.92
380.906	2914.67
383.799	3461.74
386.692	3965.15
389.585	3620.32
392.477	2579.88
395.37	1895.12
398.263	1543.84
401.155	1373
404.048	1239.72
406.941	1200.47
409.834	1157.06
412.726	1158.73
415.619	1174.6
418.512	1164.05
421.404	1184.97
424.297	1212.23
427.19	1263.97
430.082	1328.43
432.975	1473.34
435.868	1685.74
438.76	2085.12
441.653	2815.65
444.546	3825.63
447.439	4953.88
450.331	5689.99
453.224	5816.9
456.117	6325.6
459.009	6634.37
461.902	5559.4
464.795	4007.2
467.687	2773.32
470.58	2036.77
473.473	1625.24
476.365	1349.41
479.258	1165.06
482.151	1076.02
485.044	997.817
487.936	952.788
490.829	910.218
493.722	885.571
496.614	854.261
499.507	831.081
502.4	803.853
505.293	811.56
508.185	794.411
511.078	772.375
513.971	785.324
516.863	752.877
519.756	758.395
522.649	773.392
525.541	734.486
528.434	732.1
531.327	765.061
534.22	712.82
537.112	752.092
540.005	743.583
542.898	737.861
545.79	749.158
548.683	747.322
551.576	736.114
554.468	750.655
557.361	748.174
560.254	730.122
563.146	726.842
566.039	728.11
568.932	708.216
571.825	736.687
574.717	732.246
577.61	726.242
580.503	738.915
583.395	730.404
586.288	715.194
589.181	751.565
592.073	720.497
594.966	721.466
597.859	726.226
600.752	721.374
603.644	707.939
606.537	715.617
609.43	722.218
612.322	724.834
615.215	714.127
618.108	732.36
621	717.479
623.893	741.97
626.786	753.558
629.679	718.675
632.571	746.918
635.464	734.609
638.357	728.244
641.25	734.104
644.142	740.927
647.035	729.111
649.928	769.384
652.82	751.039
655.713	759.736
658.606	749.876
661.498	785.002
664.391	778.103
667.284	779.021
670.177	796.667
673.069	780.997
675.962	803.383
678.855	804.642
681.747	790.05
684.64	809.665
687.533	819.696
690.425	844.023
693.318	827.225
696.211	826.879
699.104	827.474
701.996	841.814
704.889	832.532
707.782	856.72
710.674	871.417
713.567	877.704
716.46	902.289
719.352	917.514
722.245	955.326
725.138	985.577
728.03	1015.54
730.923	1074.27
733.816	1141.81
736.709	1235.08
739.601	1373.17
742.494	1510.46
745.387	1559.55
748.279	1827.56
751.172	1958.65
754.065	2025.82
756.957	2163.93
759.85	2316.93
762.743	2448.76
765.636	2507.97
768.528	2432.37
771.421	2395.77
774.314	2404.24
777.206	2434.12
780.099	2549.93
782.992	2699.96
785.885	2881.51
788.777	2982.25
791.67	3189.37
794.563	3713.57
797.455	4644.64
800.348	5981.04
803.241	7390.24
806.133	8161.92
809.026	8249.3
811.919	7862.73
814.812	7294.85
817.704	6993.27
820.597	7344.05
823.49	9206.93
826.382	13798.4
829.275	23233.5
832.168	36792.9
835.06	45767
837.953	36335.8
840.846	19444.1
843.738	10602.2
846.631	6792.37
849.524	5029.71
852.417	4053.13
855.309	3660.77
858.202	3512.22
861.095	3569.39
863.987	4078.53
866.88	5106.65
869.773	7160.7
872.665	10314
875.558	13835.6
878.451	14063.6
881.343	9899.08
884.236	6249.11
887.129	4126.57
890.022	2981.02
892.914	2366.66
895.807	1988.44
898.7	1731.8
901.592	1533.88
904.485	1410.04
907.378	1325.8
910.27	1195.68
913.163	1105.45
916.056	1015.11
918.949	961.47
921.841	937.329
924.734	886.489
927.627	845.177
930.519	781.301
933.412	781.666
936.305	755.899
939.197	714.26
942.09	690.239
944.983	688.863
947.876	681.849
950.768	648.36
953.661	629.914
956.554	629.781
959.446	611.43
962.339	615.852
965.232	590.461
968.125	573.836
971.017	581.472
973.91	576.949
976.803	573.232
979.695	561.242
982.588	562.988
985.481	548.178
988.373	538.089
991.266	531.867
994.159	492.67
997.052	519.908
999.944	525.514
1002.84	505.728
1005.73	530.352
1008.62	504.966
1011.51	514.674
1014.41	515.142
1017.3	492.021
1020.19	483.693
1023.09	500.715
1025.98	475.492
1028.87	476.114
1031.76	502.178
1034.66	488.962
1037.55	483.056
1040.44	501.677
1043.34	510.632
1046.23	518.775
1049.12	558.918
1052.01	558.455
1054.91	553.768
1057.8	568.022
1060.69	583.277
1063.58	564.92
1066.48	526.004
1069.37	484.729
1072.26	485.844
1075.15	470.797
1078.05	444.175
1080.94	453.131
1083.83	464.239
1086.72	480.042
1089.62	464.153
1092.51	447.679
1095.4	458.676
1098.3	450.022
1101.19	438.19
1104.08	445.032
1106.97	449.065
1109.87	446.584
1112.76	451.023
1115.65	439.665
1118.55	452.564
1121.44	434.25
1124.33	434.813
1127.22	452.038
1130.12	467.874
1133.01	442.445
1135.9	459.605
1138.79	440.168
1141.69	429.92
1144.58	426.562
1147.47	448.328
1150.37	426.3
1153.26	431.969
1156.15	441.582
1159.04	434.438
1161.93	425.538
1164.83	417.288
1167.72	431.728
1170.61	426.433
1173.51	430.966
1176.4	441.511
1179.29	446.295
1182.18	429.132
1185.08	411.257
1187.97	442.784
1190.86	429.908
1193.76	420.009
1196.65	450.239
1199.54	425.744
1202.43	446.368
1205.33	427.905
1208.22	394.74
1211.11	425.121
1214	427.135
1216.9	439.895
1219.79	425.165
1222.68	418.833
1225.58	426.988
1228.47	424.101
1231.36	411.016
1234.25	437.259
1237.15	417.715
1240.04	404.124
1242.93	421.377
1245.82	431.823
1248.72	432.57
1251.61	407.613
1254.5	421.198
1257.39	424.902
1260.29	405.138
1263.18	421.727
1266.07	423.94
