Measurement: Raman, 532 nm, unoriented, Raman Data Processed
Mineral: Taramellite
Rruff sample: R160011
Ideal chemistry: Ba_4_(Fe^3+^,Ti^4+^)_4_O_2_[B_2_Si_8_O_27_]Cl_0-1_
Locality: Gun claim, Yukon Territory, Canada
Source: Gunnar FÃ¤rber
Description: Red-brownish crystals in cavity, associated with  itsiite, cerchiaraite-(Fe), diopside, pyrite, quartz, sphalerite, and witherite
Raman shift (cm-1)	intensity
140.205	0
143.58	0.200256
146.955	9.64331
150.33	10.2014
153.705	11.8972
157.079	11.2969
160.454	3.18365
163.829	5.5802
167.204	0.238586
170.579	6.46918
173.953	10.1622
177.328	18.0062
180.703	21.3622
184.078	30.3978
187.453	34.0995
190.828	35.683
194.202	38.361
197.577	38.2787
200.952	35.3344
204.327	35.7322
207.702	33.248
211.077	23.2532
214.451	21.6473
217.826	14.2754
221.201	8.67938
224.576	3.0376
227.951	3.61304
231.325	7.87073
234.7	0.324463
238.075	6.65088
241.45	15.4094
244.825	27.6516
248.2	38.2023
251.574	46.2751
254.949	44.5936
258.324	39.471
261.699	36.9518
265.074	39.8309
268.448	41.4562
271.823	44.4911
275.198	48.9279
278.573	46.58
281.948	43.8171
285.322	32.8402
288.697	20.5722
292.072	10.9849
295.447	8.091
298.822	12.6674
302.197	17.5855
305.571	15.6374
308.946	19.2176
312.321	23.155
315.696	29.1853
319.071	30.7954
322.445	34.0914
325.82	42.3473
329.195	47.9142
332.57	51.3087
335.945	58.0594
339.32	51.3136
342.694	50.8972
346.069	51.8583
349.444	55.3735
352.819	59.0294
356.194	61.5451
359.568	60.8061
362.943	54.4205
366.318	48.9208
369.693	35.9111
373.068	25.3166
376.442	24.4736
379.817	22.5182
383.192	19.1072
386.567	18.8839
389.942	20.3603
393.317	10.4712
396.691	5.4574
400.066	1.1947
403.441	0.869568
406.816	5.27057
410.191	2.26843
413.565	5.13458
416.94	3.7807
420.315	3.13751
423.69	2.25861
427.065	7.85175
430.44	12.0134
433.814	18.2993
437.189	20.1229
440.564	28.5693
443.939	31.8572
447.314	38.2731
450.688	43.5939
454.063	50.6224
457.438	60.6531
460.813	68.2057
464.188	75.069
467.563	75.1627
470.937	73.0483
474.312	69.6549
477.687	60.3642
481.062	53.7668
484.437	49.632
487.812	51.0648
491.186	51.9729
494.561	52.4454
497.936	51.8115
501.311	51.98
504.686	52.889
508.06	48.8074
511.435	46.0779
514.81	47.2089
518.185	49.2872
521.56	48.9635
524.934	45.7455
528.309	43.714
531.684	44.1463
535.059	40.4448
538.434	35.449
541.809	37.0317
545.183	35.9562
548.558	38.0942
551.933	35.1899
555.308	32.9838
558.683	28.2756
562.058	24.5399
565.432	16.7416
568.807	6.83106
572.182	2.28748
575.557	1.88641
578.932	5.9054
582.306	5.71735
585.681	0.075439
589.056	3.68164
592.431	10.4868
595.806	16.5443
599.181	25.0269
602.555	32.842
605.93	40.7054
609.305	42.2929
612.68	48.8006
616.055	48.8676
619.429	37.6628
622.804	32.3674
626.179	22.9334
629.554	17.0897
632.929	20.4848
636.303	21.9774
639.678	27.2189
643.053	27.9692
646.428	22.9868
649.803	18.8554
653.178	13.9059
656.552	9.25971
659.927	6.40259
663.302	2.03345
666.677	0.3797
670.052	0.364868
673.427	1.12256
676.801	0.213623
680.176	1.05621
683.551	0.697632
686.926	1.81079
690.301	1.75238
693.675	4.37201
697.05	3.1106
700.425	1.86755
703.8	2.18518
707.175	6.90216
710.549	12.8857
713.924	14.7166
717.299	15.3671
720.674	21.5435
724.049	22.9109
727.423	28.381
730.798	28.3466
734.173	38.5217
737.548	53.5313
740.923	67.3791
744.298	80.7496
747.672	93.0241
751.047	108.345
754.422	121.703
757.797	131.547
761.172	138.914
764.547	127.063
767.921	112.986
771.296	101.771
774.671	83.2109
778.046	61.1997
781.421	46.5867
784.795	35.5678
788.17	23.7109
791.545	20.1109
794.92	15.6395
798.295	8.60724
801.669	6.70447
805.044	2.43457
808.419	1.23022
811.794	1.09308
815.169	0.247009
818.544	1.54718
821.918	7.32422
825.293	9.55078
828.668	10.554
832.043	16.5904
835.418	18.5688
838.793	21.8668
842.167	19.4146
845.542	23.9496
848.917	23.0877
852.292	22.8904
855.667	21.8785
859.041	23.0466
862.416	25.5817
865.791	25.0002
869.166	31.1101
872.541	23.726
875.915	18.5114
879.29	20.9501
882.665	20.0513
886.04	18.4145
889.415	15.824
892.79	17.4407
896.164	15.4548
899.539	14.7847
902.914	8.06232
906.289	6.3205
909.664	0.678467
913.038	1.16876
916.413	0.255249
919.788	1.92139
923.163	2.57861
926.538	1.33142
929.913	0.910706
933.287	0.082642
936.662	0.123535
940.037	2.79584
943.412	10.9686
946.787	8.30212
950.162	11.377
953.536	19.9316
956.911	17.522
960.286	21.8317
963.661	21.5792
967.036	23.1775
970.41	20.358
973.785	25.2305
977.16	24.1132
980.535	24.8484
983.91	30.1572
987.284	26.8538
990.659	16.6704
994.034	12.1868
997.409	6.75244
1000.78	7.33557
1004.16	5.12268
1007.53	12.11
1010.91	10.505
1014.28	10.7074
1017.66	10.2741
1021.03	6.40418
1024.41	9.62341
1027.78	13.0525
1031.16	16.1116
1034.53	19.179
1037.91	15.879
1041.28	14.9846
1044.66	13.6653
1048.03	12.019
1051.41	9.49219
1054.78	8.98816
1058.16	5.5979
1061.53	6.54016
1064.9	6.61548
1068.28	6.7489
1071.65	8.6781
1075.03	15.3905
1078.4	12.9292
1081.78	12.9313
1085.15	10.3573
1088.53	12.8574
1091.9	14.02
1095.28	15.5298
1098.65	12.0222
1102.03	7.88953
1105.4	9.50598
1108.78	6.37482
1112.15	6.25116
1115.53	3.21887
1118.9	2.89825
1122.28	0.333984
1125.65	0.707947
1129.03	3.35034
1132.4	0.256531
1135.78	2.35687
1139.15	2.13318
1142.53	1.685
1145.9	0.077026
1149.28	1.10272
1152.65	0.917175
1156.03	4.01196
1159.4	3.63977
1162.78	1.33423
1166.15	4.74603
1169.53	5.73077
1172.9	5.20581
1176.27	5.65814
1179.65	5.84582
1183.02	8.50122
1186.4	9.96387
1189.77	9.56262
1193.15	9.21045
1196.52	8.16528
1199.9	10.1759
1203.27	10.0747
1206.65	7.92285
1210.02	7.5675
1213.4	5.9137
1216.77	3.41833
1220.15	4.25574
1223.52	10.0712
1226.9	6.27869
1230.27	4.80322
1233.65	5.36169
1237.02	4.61804
1240.4	4.22388
1243.77	4.68286
1247.14	7.67883
1250.52	6.88892
1253.89	7.47998
1257.27	7.95032
1260.64	3.02685
1264.02	5.08179
1267.39	8.3584
1270.77	5.24292
1274.14	2.61365
1277.52	0.270996
1280.89	1.71362
1284.27	4.94775
1287.64	3.33093
1291.02	0.789917
1294.39	2.65039
1297.77	5.45606
