Measurement: Raman, 780 nm, unoriented, Raman Data Processed
Mineral: Taramellite
Rruff sample: R160011
Ideal chemistry: Ba_4_(Fe^3+^,Ti^4+^)_4_O_2_[B_2_Si_8_O_27_]Cl_0-1_
Locality: Gun claim, Yukon Territory, Canada
Source: Gunnar FÃ¤rber
Description: Red-brownish crystals in cavity, associated with  itsiite, cerchiaraite-(Fe), diopside, pyrite, quartz, sphalerite, and witherite
Raman shift (cm-1)	intensity
134.348	0
137.24	4.07764
140.133	7.45483
143.026	14.2781
145.918	22.5178
148.811	26.8362
151.704	33.0564
154.597	27.6148
157.489	20.1023
160.382	9.41943
163.275	12.7109
166.167	5.50464
169.06	8.39697
171.953	19.1165
174.845	27.5503
177.738	34.3328
180.631	43.0969
183.524	52.4656
186.416	57.1055
189.309	55.7986
192.202	61.8594
195.094	58.2615
197.987	49.4441
200.88	49.4895
203.773	49.4277
206.665	39.5754
209.558	24.5261
212.451	26.5933
215.343	14.7014
218.236	12.4985
221.129	1.52686
224.021	4.0188
226.914	0.365967
229.807	1.29443
232.7	5.85962
235.592	6.77441
238.485	2.37109
241.378	5.10303
244.27	11.1133
247.163	9.84082
250.056	6.52466
252.948	0.526611
255.841	3.63062
258.734	2.48486
261.627	3.19678
264.519	5.69385
267.412	12.4123
270.305	9.20361
273.197	4.54907
276.09	14.1899
278.983	15.4287
281.875	13.9048
284.768	9.35864
287.661	15.2466
290.553	3.00244
293.446	2.76831
296.339	6.14429
299.232	1.71265
302.124	6.37695
305.017	6.10644
307.91	6.06201
310.802	0.955078
313.695	8.43555
316.588	5.5918
319.481	7.7981
322.373	8.42432
325.266	17.0456
328.159	15.0239
331.051	18.772
333.944	20.2212
336.837	15.301
339.729	12.8181
342.622	19.6829
345.515	19.7363
348.408	22.5798
351.3	21.9541
354.193	26.3628
357.086	20.2649
359.978	17.679
362.871	16.6106
365.764	16.7527
368.656	26.7859
371.549	15.365
374.442	11.0696
377.334	5.69116
380.227	7.96729
383.12	9.62109
386.013	2.12231
388.905	4.75732
391.798	8.06372
394.691	1.53223
397.583	0.98291
400.476	1.64331
403.369	0.025146
406.262	1.38525
409.154	2.70264
412.047	0.666016
414.94	0.443115
417.832	12.0164
420.725	11.3447
423.618	19.2556
426.51	16.6314
429.403	19.2778
432.296	22.9434
435.188	24.2954
438.081	25.1807
440.974	32.0415
443.867	34.9724
446.759	40.2122
449.652	48.1199
452.545	53.1111
455.437	64.4192
458.33	75.5896
461.223	83.9185
464.115	80.4485
467.008	76.1916
469.901	78.4971
472.794	73.6892
475.686	64.0955
478.579	59.6992
481.472	49.475
484.364	44.3508
487.257	44.1987
490.15	42.8964
493.043	42.4176
495.935	40.7438
498.828	39.5177
501.721	35.6896
504.613	33.3356
507.506	36.0685
510.399	30.0817
513.291	31.505
516.184	25.5128
519.077	27.0521
521.97	19.0062
524.862	29.0258
527.755	18.5479
530.648	15.3163
533.54	11.7248
536.433	12.9322
539.326	11.3612
542.218	12.1698
545.111	12.0599
548.004	10.7196
550.896	11.8572
553.789	4.08667
556.682	1.7052
559.575	2.26355
562.467	2.68481
565.36	4.18408
568.253	1.6571
571.145	0.541016
574.038	0.047729
576.931	0.452026
579.823	3.89539
582.716	4.26013
585.609	0.907227
588.502	2.54919
591.394	2.78906
594.287	6.11194
597.18	4.35132
600.072	9.20801
602.965	10.6469
605.858	15.7092
608.75	10.8405
611.643	9.53455
614.536	12.4233
617.429	10.6161
620.321	11.7102
623.214	7.23584
626.107	6.5907
629	5.44958
631.892	8.70203
634.785	10.2918
637.678	10.7004
640.57	11.7327
643.463	9.87756
646.356	10.5701
649.248	8.76819
652.141	7.90662
655.034	9.68518
657.927	9.98633
660.819	10.1997
663.712	6.19531
666.605	4.52075
669.497	3.31384
672.39	3.0769
675.283	15.1075
678.175	22.1765
681.068	4.32849
683.961	0.739502
686.854	1.41919
689.746	0.169678
692.639	1.91541
695.532	10.1655
698.424	2.89331
701.317	3.82153
704.21	3.18591
707.102	2.64661
709.995	4.12537
712.888	5.74023
715.78	6.19604
718.673	5.76941
721.566	10.4404
724.459	10.8356
727.351	9.07336
730.244	14.0105
733.137	12.8452
736.029	14.2457
738.922	17.9617
741.815	18.0828
744.707	22.0911
747.6	20.4362
750.493	26.668
753.386	22.4313
756.278	26.2988
759.171	24.7801
762.064	25.9213
764.956	25.0857
767.849	20.1741
770.742	17.7841
773.635	14.1267
776.527	15.0858
779.42	12.2605
782.313	4.80774
785.205	4.59412
788.098	7.69739
790.991	2.17578
793.883	4.99988
796.776	4.08301
799.669	0.433594
802.562	0.740112
805.454	6.27783
808.347	0.50769
811.24	2.68506
814.132	6.40393
817.025	2.84265
819.918	3.71765
822.81	2.94568
825.703	7.83679
828.596	6.05615
831.489	1.49109
834.381	5.80493
837.274	9.15515
840.167	9.32739
843.059	12.7637
845.952	8.06274
848.845	6.4054
851.737	11.2231
854.63	8.84949
857.523	8.45654
860.415	12.0115
863.308	11.5183
866.201	10.0001
869.094	8.66162
871.986	11.9387
874.879	12.4056
877.772	7.01502
880.664	12.3597
883.557	14.8828
886.45	6.85986
889.342	5.12585
892.235	5.53564
895.128	5.59448
898.021	2.09998
900.913	3.7666
903.806	3.44678
906.699	3.81055
909.591	3.33752
912.484	1.95825
915.377	2.89002
918.269	1.88208
921.162	0.095703
924.055	2.02856
926.948	1.67432
929.84	6.96375
932.733	3.21704
935.626	4.49219
938.518	3.05493
941.411	1.8324
944.304	4.43433
947.197	8.20105
950.089	6.32678
952.982	5.75085
955.875	5.58276
958.767	4.78357
961.66	6.69153
964.553	5.20947
967.445	5.9436
970.338	6.45154
973.231	1.00024
976.124	10.529
979.016	11.3203
981.909	11.8387
984.802	6.67944
987.694	12.5566
990.587	4.73181
993.48	10.4062
996.372	8.60852
999.265	6.19897
1002.16	4.88904
1005.05	4.02026
1007.94	1.30933
1010.84	3.20056
1013.73	9.34888
1016.62	7.04748
1019.51	4.18372
1022.41	5.46521
1025.3	1.60291
1028.19	8.58533
1031.09	3.37488
1033.98	6.29993
1036.87	4.17078
1039.76	3.42139
1042.66	3.08508
1045.55	5.29748
1048.44	2.31421
1051.33	6.74695
1054.23	6.13147
1057.12	6.55689
1060.01	3.83118
1062.9	7.83374
1065.8	8.53137
1068.69	9.55579
1071.58	6.57752
1074.47	12.5635
1077.37	11.5765
1080.26	10.1099
1083.15	12.1414
1086.05	9.80847
1088.94	11.3861
1091.83	8.67932
1094.72	5.49988
1097.62	6.5957
1100.51	7.45532
1103.4	2.91296
1106.3	10.4598
1109.19	4.50049
1112.08	0.641235
1114.97	1.47888
1117.87	3.15478
1120.76	2.84204
1123.65	1.8446
1126.54	4.82947
1129.44	2.91821
1132.33	4.14038
1135.22	5.50403
1138.12	5.40491
1141.01	9.82776
1143.9	10.5363
1146.79	8.22156
1149.69	7.69934
1152.58	7.28686
1155.47	8.82629
1158.36	8.57678
1161.26	8.94959
1164.15	7.5293
1167.04	11.36
1169.93	9.91357
1172.83	12.8155
1175.72	16.2517
1178.61	13.2726
1181.51	10.1867
1184.4	10.2325
1187.29	12.4876
1190.18	18.6013
1193.08	10.0955
1195.97	8.42798
1198.86	10.444
1201.75	10.9216
1204.65	23.0092
1207.54	11.1678
1210.43	6.93945
1213.33	9.96289
1216.22	9.52222
1219.11	7.36328
1222	7.39356
1224.9	4.00964
1227.79	2.06397
1230.68	1.82654
1233.57	3.17432
1236.47	1.13464
1239.36	2.06653
1242.25	2.9104
1245.14	3.23071
1248.04	0.897095
1250.93	1.52368
1253.82	4.98474
1256.71	9.95679
1259.61	6.99817
1262.5	7.03455
1265.39	8.71338
1268.29	2.94458
1271.18	3.76257
1274.07	4.9585
1276.96	0.142334
1279.86	0.011353
