Measurement: Raman, 532 nm, unoriented, Raman Data Processed
Mineral: Teallite
Rruff sample: R060487
Ideal chemistry: PbSnS_2_
Locality: Porvenir mine, Huanuni, Department of Oruro, Bolivia
Source: Michael Scott
Description: Grayish black platy metallic mass
Measured chemistry: (Pb_0.62_Sn_1.38_)_Î£=2_S_2.00_
Raman shift (cm-1)	intensity
113.407	0
116.782	18.4438
120.157	41.8135
123.531	42.0985
126.906	64.9412
130.281	75.5847
133.656	102.653
137.031	92.4778
140.405	103.44
143.78	102.408
147.155	94.785
150.53	97.6093
153.905	88.8442
157.28	96.4716
160.654	71.9259
164.029	74.7623
167.404	76.4703
170.779	77.2732
174.154	76.3509
177.528	62.8442
180.903	46.714
184.278	31.4615
187.653	22.7063
191.028	11.6067
194.403	7.66879
197.777	10.0679
201.152	9.12585
204.527	16.9152
207.902	19.7321
211.277	21.2428
214.651	22.8751
218.026	21.3009
221.401	15.1786
224.776	5.20117
228.151	0.493408
231.525	4.53271
234.9	5.18146
238.275	2.72162
241.65	1.30328
245.025	0.528992
248.4	2.51514
251.774	2.64365
255.149	3.95358
258.524	5.66132
261.899	5.85074
265.274	6.72316
268.649	7.20071
272.023	8.27287
275.398	7.15868
278.773	7.18057
282.148	5.96988
285.523	5.90251
288.897	4.46007
292.272	4.17921
295.647	3.20784
299.022	1.06631
302.397	3.65945
305.772	5.16699
309.146	4.33368
312.521	4.73672
315.896	5.02922
319.271	3.6745
322.646	3.30162
326.02	4.0488
329.395	4.33775
332.77	4.00072
336.145	3.85016
339.52	4.43652
342.894	4.95325
346.269	5.0192
349.644	4.49297
353.019	3.76788
356.394	3.6134
359.769	3.00453
363.143	5.27388
366.518	3.90701
369.893	3.68745
373.268	1.75244
376.643	2.67142
380.017	2.55171
383.392	2.4343
386.767	1.97673
390.142	1.66707
393.517	0.104462
396.892	0.45047
400.266	0.377182
403.641	0.945038
407.016	0.223862
410.391	0.582626
413.766	0.786148
417.14	0.676666
420.515	0.425171
423.89	0.713806
427.265	0.069778
430.64	0.674973
434.014	0.382385
437.389	0.676163
440.764	0.373001
444.139	0.524872
447.514	0.205688
450.889	0.989395
454.263	1.14167
457.638	0.90625
461.013	1.03218
464.388	3.53744
467.763	2.18109
471.137	2.83382
474.512	1.6758
477.887	2.40013
481.262	3.67174
484.637	2.63191
488.012	2.56467
491.386	1.97089
494.761	0.020134
498.136	1.92198
501.511	1.22025
504.886	1.43159
508.26	0.448738
511.635	1.50483
515.01	0.748238
518.385	1.27975
521.76	0.300293
525.135	1.19005
528.509	1.42387
531.884	3.08218
535.259	3.74807
538.634	0.320503
542.009	0.836479
545.384	0.79789
548.758	1.28811
552.133	1.81911
555.508	2.58556
558.883	2.95647
562.258	3.84998
565.632	3.48492
569.007	2.32841
572.382	3.52758
575.757	3.92354
579.132	3.17095
582.506	2.09352
585.881	3.12289
589.256	2.93626
592.631	3.82516
596.006	1.4403
599.381	2.16843
602.755	0.863312
606.13	1.57159
609.505	0.225281
612.88	1.4961
616.255	0.259468
619.63	0.732735
623.004	2.22837
626.379	0.545273
629.754	3.0185
633.129	3.47777
636.504	2.31242
639.878	1.81332
643.253	2.18508
646.628	2.58121
650.003	3.7744
653.378	5.81081
656.752	5.57988
660.127	5.36246
663.502	5.897
666.877	7.02991
670.252	5.58004
673.626	5.96356
677.001	5.73172
680.376	4.39674
683.751	3.63431
687.126	1.26384
690.501	3.15495
693.875	2.6519
697.25	0.016006
700.625	0.861664
704	0.416885
707.375	1.11208
710.75	0.885742
714.124	0.769989
717.499	0.382401
720.874	0.460312
724.249	0.987122
727.624	0.970871
730.998	0.504532
734.373	1.07803
737.748	1.5321
741.123	0.817474
744.498	0.707077
747.872	1.20509
751.247	2.05005
754.622	3.62218
757.997	2.83353
761.372	3.85142
764.747	2.96814
768.121	3.04251
771.496	4.23441
774.871	4.27756
778.246	5.04413
781.621	4.53296
784.995	6.54379
788.37	8.60687
791.745	11.2566
795.12	11.0872
798.495	12.9298
801.87	13.4096
805.244	15.94
808.619	16.4375
811.994	18.1164
815.369	19.8556
818.744	21.6307
822.119	22.8092
825.493	24.3368
828.868	25.3222
832.243	26.2685
835.618	30.1752
838.993	31.479
842.367	33.2813
845.742	33.9148
849.117	34.3668
852.492	35.7452
855.867	35.9838
859.241	34.0805
862.616	33.8175
865.991	32.5428
869.366	30.791
872.741	29.8499
876.115	28.9022
879.49	25.2563
882.865	23.2149
886.24	18.6288
889.615	16.6899
892.99	12.9242
896.364	10.4461
899.739	7.57855
903.114	6.28435
906.489	3.74828
909.864	3.07574
913.239	1.75578
916.613	0.097748
919.988	1.33817
923.363	0.864273
926.738	1.06327
930.113	0.782936
933.487	0.490982
936.862	0.584877
940.237	0.819435
943.612	0.384583
946.987	0.396507
950.361	1.79757
953.736	2.04041
957.111	0.958794
960.486	1.01669
963.861	2.67632
967.236	1.95384
970.61	3.20583
973.985	3.1285
977.36	3.93788
980.735	3.92548
984.11	4.58342
987.485	3.95503
990.859	5.13
994.234	5.47108
997.609	5.6819
1000.98	4.79786
1004.36	5.78299
1007.73	5.87703
1011.11	7.49917
1014.48	7.44797
1017.86	7.73667
1021.23	7.66042
1024.61	8.75268
1027.98	9.74369
1031.36	11.4987
1034.73	11.9569
1038.11	13.6613
1041.48	13.0292
1044.86	13.0771
1048.23	12.7027
1051.61	11.1549
1054.98	10.3944
1058.36	9.60986
1061.73	6.49398
1065.11	6.39117
1068.48	6.69703
1071.86	4.58083
1075.23	4.11935
1078.6	2.26136
1081.98	1.89603
1085.35	1.9711
1088.73	1.60449
1092.1	1.155
1095.48	1.12374
1098.85	1.76996
1102.23	1.36159
1105.6	1.93929
1108.98	0.520168
1112.35	1.57238
1115.73	1.51172
1119.1	2.10045
1122.48	0.101181
1125.85	0.943542
1129.23	0.682709
1132.6	0.400967
1135.98	0.359749
1139.35	0.046978
1142.73	0.473583
1146.1	0.192482
1149.48	0.187572
1152.85	1.18941
1156.22	0.261475
1159.6	1.03072
1162.97	0.009567
1166.35	0.187901
1169.72	1.28474
1173.1	0.334618
1176.47	1.04947
1179.85	0.850716
1183.22	0.840195
1186.6	0.821251
1189.97	1.30879
1193.35	1.97629
1196.72	1.12441
1200.1	1.04603
1203.47	1.84112
1206.85	2.00588
1210.22	0.847858
1213.6	2.23452
1216.97	1.91676
1220.35	0.812843
1223.72	1.30523
1227.1	1.93201
1230.47	0.836346
1233.85	1.86171
1237.22	1.62798
1240.6	1.89687
1243.97	1.31543
1247.35	0.963287
1250.72	1.59428
1254.1	1.38629
1257.47	1.74281
1260.85	0.236977
1264.22	0.133804
1267.59	0.918407
1270.97	0.498764
1274.34	0.183083
1277.72	1.74992
1281.09	1.36475
1284.47	2.42247
1287.84	2.10897
1291.22	0.738899
1294.59	1.89429
1297.97	0.40115
1301.34	1.52874
