Measurement: Raman, 780 nm, unoriented, Raman Data Processed
Mineral: Teallite
Rruff sample: R060487
Ideal chemistry: PbSnS_2_
Locality: Porvenir mine, Huanuni, Department of Oruro, Bolivia
Source: Michael Scott
Description: Grayish black platy metallic mass
Measured chemistry: (Pb_0.62_Sn_1.38_)_Î£=2_S_2.00_
Raman shift (cm-1)	intensity
115.184	0
118.558	0.047211
121.933	1.68143
125.308	3.55182
128.683	4.11684
132.058	8.64578
135.433	10.6783
138.807	14.2697
142.182	16.6945
145.557	15.9812
148.932	15.1108
152.307	13.3028
155.681	10.6974
159.056	6.29891
162.431	5.08122
165.806	2.71936
169.181	3.03224
172.555	4.92069
175.93	4.58894
179.305	5.09083
182.68	3.95114
186.055	0.290302
189.43	0.827213
192.804	0.712254
196.179	1.63344
199.554	2.92123
202.929	6.14239
206.304	7.98613
209.678	10.4619
213.053	12.4532
216.428	12.1622
219.803	10.0601
223.178	6.06336
226.553	3.13694
229.927	0.049751
233.302	0.328346
236.677	0.8769
240.052	1.28035
243.427	1.43364
246.801	2.77626
250.176	3.02887
253.551	3.47503
256.926	3.37223
260.301	4.07936
263.675	5.31671
267.05	4.1308
270.425	4.0004
273.8	2.45661
277.175	2.24296
280.55	2.05453
283.924	1.05008
287.299	1.12424
290.674	0.275173
294.049	1.27021
297.424	0.661451
300.798	0.30751
304.173	1.15641
307.548	0.643906
310.923	1.13128
314.298	0.935007
317.673	1.18847
321.047	0.336853
324.422	1.25415
327.797	0.750862
331.172	0.977636
334.547	0.655546
337.921	1.2623
341.296	1.11969
344.671	1.88739
348.046	1.54817
351.421	0.817078
354.796	1.80685
358.17	0.949708
361.545	0.680434
364.92	0.442118
368.295	0.7046
371.67	2.093
375.044	0.613716
378.419	0.319227
381.794	0.561018
385.169	0.43127
388.544	0.222312
391.918	0.100085
395.293	0.445102
398.668	1.32172
402.043	0.19324
405.418	1.07135
408.793	1.01403
412.167	0.788278
415.542	0.911336
418.917	0.501797
422.292	0.004353
425.667	0.731009
429.041	0.475177
432.416	1.03084
435.791	1.77452
439.166	1.61461
442.541	0.971799
445.915	0.738495
449.29	0.150015
452.665	1.2166
456.04	1.02447
459.415	1.19049
462.789	0.971927
466.164	0.09773
469.539	0.960402
472.914	0.397351
476.289	1.97797
479.664	0.106293
483.038	0.285615
486.413	0.614526
489.788	0.321838
493.163	1.07254
496.538	1.33813
499.913	0.569237
503.287	1.16218
506.662	0.713824
510.037	0.85723
513.412	1.87229
516.787	1.69115
520.161	1.13135
523.536	0.939599
526.911	1.38976
530.286	0.588281
533.661	0.973271
537.035	1.37181
540.41	2.15392
543.785	1.25806
547.16	0.863752
550.535	1.26621
553.909	1.16259
557.284	0.313131
560.659	1.3584
564.034	0.85396
567.409	0.91559
570.784	1.75063
574.158	0.314336
577.533	1.04134
580.908	0.347555
584.283	0.347198
587.658	0.480304
591.033	1.44256
594.407	0.628232
597.782	0.935292
601.157	1.2082
604.532	1.4441
607.907	0.350559
611.281	1.41218
614.656	0.414379
618.031	1.35604
621.406	1.38287
624.781	0.596592
628.155	1.54941
631.53	1.1008
634.905	2.03677
638.28	0.911665
641.655	0.983112
645.029	0.385477
648.404	0.566832
651.779	1.54346
655.154	1.70107
658.529	0.913501
661.904	0.982752
665.278	2.19892
668.653	1.91893
672.028	2.08737
675.403	1.967
678.778	1.72765
682.153	1.40083
685.527	0.238213
688.902	0.618093
692.277	0.377621
695.652	0.802649
699.027	0.193799
702.401	1.07254
705.776	0.834181
709.151	0.679223
712.526	0.933589
715.901	0.597605
719.275	0.967947
722.65	0.525777
726.025	1.30272
729.4	1.61879
732.775	1.63568
736.149	1.1141
739.524	1.07076
742.899	1.2847
746.274	1.19564
749.649	0.123448
753.024	0.390542
756.398	1.17714
759.773	0.42832
763.148	0.114331
766.523	0.911707
769.898	0.439106
773.273	1.19216
776.647	0.412547
780.022	0.683451
783.397	0.863808
786.772	1.49832
790.146	0.937081
793.521	0.899023
796.896	0.543428
800.271	0.094926
803.646	1.21513
807.021	0.709064
810.395	1.66765
813.77	1.14357
817.145	1.19773
820.52	1.11639
823.895	0.941048
827.269	0.889861
830.644	2.18591
834.019	1.51914
837.394	1.23843
840.769	0.807026
844.144	1.07166
847.518	2.87227
850.893	1.02081
854.268	2.13138
857.643	1.36984
861.018	1.50561
864.393	2.00682
867.767	2.49113
871.142	1.41868
874.517	2.01609
877.892	1.239
881.266	0.49916
884.641	0.866223
888.016	0.267846
891.391	1.36573
894.766	0.591351
898.141	0.177836
901.515	1.12979
904.89	0.098855
908.265	0.583277
911.64	0.026796
915.015	0.524651
918.389	0.140084
921.764	1.06588
925.139	1.79717
928.514	0.125686
931.889	0.955852
935.264	1.447
938.638	0.620626
942.013	0.34248
945.388	0.575813
948.763	0.807045
952.138	1.61397
955.512	1.47424
958.887	0.698534
962.262	0.916498
965.637	0.836838
969.012	0.46186
972.386	0.350623
975.761	0.582574
979.136	0.032239
982.511	1.06818
985.886	1.1098
989.261	1.34686
992.635	1.18324
996.01	0.341427
999.385	0.730763
1002.76	1.61585
1006.13	1.26676
1009.51	0.475273
1012.88	0.792792
1016.26	1.1197
1019.63	0.875875
1023.01	0.97565
1026.38	1.31551
1029.76	0.848673
1033.13	0.176913
1036.51	0.523141
1039.88	1.48106
1043.26	0.886775
1046.63	0.954581
1050.01	1.77687
1053.38	0.819119
1056.76	2.05749
1060.13	0.400437
1063.51	0.694339
1066.88	0.275671
1070.26	0.397614
1073.63	1.14239
1077.01	0.149678
1080.38	0.765104
1083.76	0.120631
1087.13	1.3419
1090.51	1.11989
1093.88	0.972534
1097.26	0.175222
1100.63	1.12347
1104	0.621427
1107.38	0.357141
1110.75	0.085493
1114.13	0.869748
1117.5	0.891003
1120.88	0.591727
1124.25	0.851048
1127.63	0.660801
1131	0.10169
1134.38	0.675409
1137.75	1.0975
1141.13	0.76892
1144.5	0.890302
1147.88	0.890132
1151.25	0.386979
1154.63	1.15848
1158	0.761098
1161.38	0.746238
1164.75	1.39448
1168.13	1.32586
1171.5	0.094853
1174.88	0.568629
1178.25	0.664912
1181.62	1.5902
1185	0.334106
1188.38	0.9383
1191.75	0.706594
1195.12	0.529491
1198.5	1.39567
1201.87	0.662674
1205.25	0.132616
1208.62	0.846395
1212	1.8082
1215.37	0.09855
1218.75	0.936967
1222.12	1.0397
1225.5	1.3172
1228.87	0.137657
1232.25	1.28008
1235.62	0.833402
1239	0.094738
1242.37	0.851684
1245.75	0.681661
1249.12	0.761554
1252.5	0.352892
1255.87	0.826927
1259.25	1.13348
1262.62	1.52427
1265.99	0.711792
1269.37	0.816469
1272.74	0.954654
1276.12	0.553503
1279.49	1.09777
1282.87	1.46213
