Measurement: Raman, 780 nm, unoriented, Raman Data RAW
Mineral: Tennantite-(Zn)
Rruff sample: R050558
Ideal chemistry: Cu^1+^_6_(Cu^1+^_4_Zn^2+^_2_)As^3+^_4_S^2-^_13_
Locality: Casaplaca mine, Huarochiri Province, Lima Department, Peru
Source: Dave Bunk Minerals
Description: Group of black tetrahedra
Measured chemistry: (Cu_10.07_Zn_1.83_Fe_0.10_)_Σ=12_(As_2.97_Sb_1.03_)_Σ=4_S_13.00_ ; = light phase. Dark phase = (Cu_10.09_Zn_1.80_Fe_0.11_)_Σ=12_(As_2.85_Sb_1.15_)_Σ=4_S_13.00_
Raman shift (cm-1)	intensity
97.0119	11.0153
100.387	10.9641
103.761	11.6105
107.136	12.7161
110.511	12.0653
113.886	11.4572
117.261	10.7973
120.636	11.1286
124.01	11.397
127.385	11.6924
130.76	11.4857
134.135	9.67505
137.51	7.93578
140.885	6.67697
144.259	5.35148
147.634	4.27915
151.009	3.92302
154.384	4.09255
157.759	3.82805
161.133	3.87472
164.508	3.67648
167.883	3.5609
171.258	3.18531
174.633	3.41747
178.007	3.9354
181.382	3.83366
184.757	3.63667
188.132	3.15034
191.507	2.56391
194.882	2.3983
198.256	2.42687
201.631	2.58658
205.006	2.22354
208.381	2.04207
211.756	2.18855
215.131	2.17341
218.505	2.70564
221.88	2.62383
225.255	2.85048
228.63	3.09637
232.005	3.30018
235.379	3.95238
238.754	3.55172
242.129	4.47727
245.504	4.83215
248.879	5.1689
252.253	5.12224
255.628	4.78519
259.003	5.0171
262.378	5.10811
265.753	4.69319
269.127	4.66542
272.502	4.88481
275.877	5.34958
279.252	5.56923
282.627	6.50456
286.002	7.36995
289.376	7.87127
292.751	8.75516
296.126	9.47966
299.501	9.87238
302.876	10.3409
306.25	10.7372
309.625	10.5855
313	10.5578
316.375	10.7695
319.75	11.3973
323.125	11.8714
326.499	13.0842
329.874	14.2203
333.249	15.0587
336.624	15.7427
339.999	16.2612
343.373	17.8142
346.748	18.7721
350.123	19.2796
353.498	20.4776
356.873	22.1087
360.248	23.9332
363.622	25.9511
366.997	26.8128
370.372	26.8534
373.747	27.2241
377.122	27.6113
380.497	29.3525
383.871	28.4477
387.246	19.8324
390.621	9.66919
393.996	5.15408
397.37	2.68738
400.745	1.96939
404.12	1.41904
407.495	1.31015
410.87	0.929442
414.245	1.11823
417.619	0.810627
420.994	0.938611
424.369	0.536409
427.744	1.05696
431.119	1.09549
434.493	0.680227
437.868	0.544875
441.243	0.991466
444.618	0.762617
447.993	0.717755
451.368	0.585018
454.742	0.770401
458.117	0.407627
461.492	0.515795
464.867	0.598101
468.242	0.795475
471.616	0.496715
474.991	0.843971
478.366	0.413028
481.741	0.713995
485.116	0.704914
488.491	0.573075
491.865	0.629981
495.24	0.649335
498.615	0.332055
501.99	0.499917
505.365	0.465013
508.74	0.333076
512.114	0.518879
515.489	0.343841
518.864	0.438269
522.239	0.181638
525.614	0.333563
528.988	0.603681
532.363	0.184467
535.738	0.489328
539.113	0.306785
542.488	0.262069
545.862	0.223571
549.237	0.377302
552.612	0.400615
555.987	0.638846
559.362	0.401149
562.737	0.406083
566.111	0.420661
569.486	0.531359
572.861	0.392917
576.236	0.398841
579.611	0.440505
582.986	0.311408
586.36	0.297544
589.735	0.384726
593.11	0.276599
596.485	0.462491
599.86	0.497943
603.234	0.442029
606.609	0.228513
609.984	0.38471
613.359	0.314305
616.734	0.388954
620.108	0.570743
623.483	0.48647
626.858	0.363763
630.233	0.452405
633.608	0.788878
636.982	0.317628
640.357	0.314136
643.732	0.42101
647.107	0.2213
650.482	0.264892
653.857	0.437463
657.231	0.32456
660.606	0.434719
663.981	0.520443
667.356	0.447149
670.731	0.625964
674.106	0.341132
677.48	0.456282
680.855	0.488248
684.23	0.36123
687.605	0.204418
690.98	0.426143
694.354	0.410298
697.729	0.550565
701.104	0.359249
704.479	0.543707
707.854	0.479015
711.229	0.594571
714.603	0.231214
717.978	0.446864
721.353	0.238727
724.728	0.26527
728.102	0.226961
731.477	0.491429
734.852	0.528635
738.227	0.180372
741.602	0.45281
744.977	0.147411
748.351	0.144311
751.726	0.247966
755.101	0.594122
758.476	0.245233
761.851	0.0896513
765.226	0.208167
768.6	0.326652
771.975	0.336252
775.35	0.203229
778.725	0.261572
782.1	0.462754
785.474	0.364136
788.849	0.128819
792.224	0.369635
795.599	0.076207
798.974	0.0998432
802.348	0.384967
805.723	0.22302
809.098	0.177004
812.473	0.267472
815.848	0.0711456
819.223	0.283732
822.597	0.112348
825.972	0.12424
829.347	0.13884
832.722	0.150241
836.097	0.0431509
839.471	0.355654
842.846	0.239223
846.221	0.270282
849.596	0.188019
852.971	0.268654
856.346	0.136563
859.72	0.144308
863.095	0.164501
866.47	0.239052
869.845	0.138677
873.22	0.0456516
876.595	0.301798
879.969	0.492283
883.344	0.259444
886.719	0.149452
890.094	0.236815
893.469	0.150438
896.843	0.353606
900.218	-0.103448
903.593	0.278545
906.968	0.162077
910.343	0.130086
913.717	0.0750144
917.092	0.256304
920.467	0.0520247
923.842	0.199302
927.217	0.162521
930.591	0.276946
933.966	0.254909
937.341	0.25387
940.716	0.121503
944.091	0.268543
947.466	0.118186
950.84	0.123652
954.215	-0.0519017
957.59	0.176745
960.965	0.0542811
964.34	0.302438
967.715	-0.0285686
971.089	0.240264
974.464	0.260724
977.839	-0.0160635
981.214	-0.00768769
984.589	0.379417
987.963	0.150629
991.338	-0.0273476
994.713	0.612863
998.088	0.338287
1001.46	0.321062
1004.84	0.13761
1008.21	0.0722825
1011.59	0.00504734
1014.96	0.21519
1018.34	0.0299034
1021.71	0.208677
1025.09	0.106258
1028.46	-0.0317026
1031.84	0.0667164
1035.21	0.229529
1038.59	0.140184
1041.96	0.0154738
1045.34	0.181799
1048.71	0.130935
1052.09	0.0496153
1055.46	0.149163
1058.84	0.43325
1062.21	-0.0645842
1065.58	0.287666
1068.96	0.291025
1072.33	0.457458
1075.71	0.131026
1079.08	0.150611
1082.46	0.212383
1085.83	-0.135312
1089.21	0.304463
1092.58	-0.171758
1095.96	0.134273
1099.33	0.147526
1102.71	-0.0721324
1106.08	0.329887
1109.46	0.0949033
1112.83	0.225839
1116.21	0.26276
1119.58	0.142515
1122.96	0.171425
1126.33	0.198387
1129.71	0.148441
1133.08	0.207767
1136.45	0.121531
1139.83	0.108609
1143.2	0.21489
1146.58	-0.0315676
1149.95	0.115161
1153.33	0.222943
1156.7	0.414947
1160.08	0.182238
1163.45	-0.10152
1166.83	0.0992856
1170.2	0.184977
1173.58	0.222414
1176.95	0.464902
1180.33	-0.0192149
1183.7	0.0964697
1187.08	0.0544572
1190.45	0.332221
1193.83	0.211662
1197.2	-0.123206
1200.58	0.162807
1203.95	0.113835
1207.33	-0.179293
1210.7	-0.0905731
1214.08	0.0543108
1217.45	0.0204713
1220.83	0.294071
1224.2	0.0200121
1227.58	0.00473026
1230.95	0.196286
1234.33	0.385137
1237.7	0.221551
1241.08	0.177898
1244.45	0.0785282
1247.82	0.111624
1251.2	0.360955
1254.57	0.290907
1257.95	0.329648
1261.32	0.319188
1264.7	0.406426
1268.07	0.3741
1271.45	0.165079
1274.82	-0.00472986
1278.2	0.0303883
1281.57	0.0356294
