Measurement: Raman, 780 nm, unoriented, Raman Data RAW
Mineral: Tennantite-(Zn)
Rruff sample: R050438
Ideal chemistry: Cu^1+^_6_(Cu^1+^_4_Zn^2+^_2_)As^3+^_4_S^2-^_13_
Locality: Conception del Oro, Zecatecas, Mexico
Source: University of Arizona Mineral Museum
Description: Grey-black crystals associated with white quartz. The crystals appear to vary in chemistry between tennantite and tetrahedrite.
Measured chemistry: (Cu_9.94_Zn_1.51_Fe_0.55_)_Σ=12_(As_3.58_Sb_0.42_)_Σ=4_S_13.00_; = dark phase. (Cu_10.03_Zn_1.70_Fe_0.27_)_Σ=12_(As_2.01_Sb_1.99_)_Σ=4_S_13.00_; light phase: (Cu_10.03_Zn_1.84_Fe_0.13_)_Σ=12_(Sb_3.18_As_0.82_)_Σ=4_S_13.00_ ; = gray phase
Raman shift (cm-1)	intensity
110.993	6.43062
114.368	6.74925
117.743	6.25086
121.118	6.68338
124.493	6.95889
127.867	7.68845
131.242	8.67941
134.617	9.38547
137.992	10.9768
141.367	10.102
144.741	6.58922
148.116	4.03824
151.491	3.44942
154.866	3.31823
158.241	3.06692
161.615	3.06793
164.99	2.99813
168.365	2.80953
171.74	2.50284
175.115	2.45869
178.49	2.44702
181.864	2.41443
185.239	2.72818
188.614	2.56125
191.989	2.14064
195.364	2.16534
198.738	1.78293
202.113	1.76069
205.488	1.58641
208.863	1.43958
212.238	1.39359
215.613	1.1912
218.987	1.61344
222.362	1.61981
225.737	1.91552
229.112	1.88514
232.487	2.02764
235.862	2.35928
239.236	2.191
242.611	2.67782
245.986	2.87898
249.361	3.18837
252.736	3.20678
256.11	3.22555
259.485	3.61375
262.86	3.59065
266.235	3.42878
269.61	3.30847
272.985	3.48428
276.359	3.79845
279.734	3.91561
283.109	4.6289
286.484	5.05896
289.859	5.83702
293.233	6.4932
296.608	7.3282
299.983	8.33904
303.358	8.92796
306.733	9.49033
310.108	9.88243
313.482	9.94659
316.857	9.40519
320.232	8.92777
323.607	8.57182
326.981	8.73873
330.356	9.31133
333.731	9.3563
337.106	9.44963
340.481	9.42494
343.856	9.53552
347.23	9.71209
350.605	9.70419
353.98	10.0459
357.355	10.7473
360.73	12.4625
364.104	15.0045
367.479	18.8481
370.854	22.6812
374.229	24.4875
377.604	27.2298
380.979	31.2106
384.353	35.2859
387.728	32.4992
391.103	17.5637
394.478	8.16066
397.853	4.52785
401.228	2.56821
404.602	1.49269
407.977	1.2704
411.352	1.02634
414.727	0.955121
418.102	0.832179
421.476	0.918155
424.851	0.707437
428.226	0.740182
431.601	0.694783
434.976	0.667493
438.351	0.525487
441.725	0.702407
445.1	0.693353
448.475	0.640409
451.85	0.482108
455.224	0.66174
458.599	0.482023
461.974	0.415322
465.349	0.675788
468.724	0.758192
472.099	0.491837
475.473	0.412006
478.848	0.214747
482.223	0.685874
485.598	0.648401
488.973	0.496957
492.348	0.666918
495.722	0.532619
499.097	0.330585
502.472	0.470935
505.847	0.4606
509.222	0.272203
512.596	0.510483
515.971	0.484725
519.346	0.375335
522.721	0.1773
526.096	0.289934
529.471	0.561354
532.845	0.197267
536.22	0.392044
539.595	0.228636
542.97	0.297494
546.345	0.298754
549.719	0.342582
553.094	0.428689
556.469	0.435499
559.844	0.368605
563.219	0.474876
566.593	0.409025
569.968	0.337572
573.343	0.366666
576.718	0.500085
580.093	0.417478
583.468	0.458581
586.842	0.494092
590.217	0.388505
593.592	0.376623
596.967	0.393781
600.342	0.504177
603.716	0.300192
607.091	0.331024
610.466	0.605857
613.841	0.478174
617.216	0.458718
620.591	0.520632
623.965	0.320893
627.34	0.440268
630.715	0.549916
634.09	0.538902
637.465	0.339998
640.839	0.431117
644.214	0.410287
647.589	0.403413
650.964	0.338972
654.339	0.465809
657.713	0.600789
661.088	0.540277
664.463	0.577002
667.838	0.472116
671.213	0.559915
674.588	0.346577
677.962	0.382299
681.337	0.453678
684.712	0.414162
688.087	0.192184
691.462	0.494865
694.837	0.488231
698.211	0.475947
701.586	0.179842
704.961	0.405933
708.336	0.459776
711.711	0.444388
715.085	0.351552
718.46	0.445557
721.835	0.34275
725.21	0.297182
728.585	0.301679
731.96	0.497798
735.334	0.477657
738.709	0.27584
742.084	0.440557
745.459	0.317528
748.834	0.350133
752.208	0.306075
755.583	0.365555
758.958	0.25001
762.333	0.127004
765.708	0.327598
769.082	0.280535
772.457	0.31328
775.832	0.271241
779.207	0.203542
782.582	0.3337
785.957	0.322769
789.331	0.20491
792.706	0.213825
796.081	0.178361
799.456	0.171312
802.831	0.409207
806.205	0.360889
809.58	0.159668
812.955	0.283345
816.33	0.0921549
819.705	0.281027
823.08	0.18694
826.454	0.274247
829.829	0.378325
833.204	0.391801
836.579	0.0930791
839.954	0.32866
843.328	0.127476
846.703	0.320825
850.078	0.105544
853.453	0.208742
856.828	0.216232
860.202	0.179247
863.577	0.242999
866.952	0.338776
870.327	0.228526
873.702	0.173496
877.077	0.257895
880.451	0.186319
883.826	0.156758
887.201	0.136608
890.576	0.158419
893.951	0.125171
897.326	0.173789
900.7	0.0062118
904.075	0.290268
907.45	0.172538
910.825	0.0305023
914.2	0.104384
917.574	0.156059
920.949	0.235286
924.324	0.235361
927.699	0.121587
931.074	0.342139
934.448	0.0825948
937.823	0.0782394
941.198	0.0637188
944.573	0.244272
947.948	0.098081
951.322	0.0332591
954.697	0.147649
958.072	0.0994307
961.447	0.110994
964.822	0.108222
968.197	0.091057
971.571	0.287412
974.946	0.22166
978.321	0.0769894
981.696	0.0568244
985.071	0.337713
988.446	0.194331
991.82	0.0868403
995.195	0.0389925
998.57	0.279097
1001.95	0.266139
1005.32	0.102336
1008.69	0.0646962
1012.07	-0.0916846
1015.44	0.152504
1018.82	-0.00766546
1022.19	0.167026
1025.57	0.265773
1028.94	-0.00177459
1032.32	0.0984232
1035.69	0.19478
1039.07	0.149464
1042.44	0.0531881
1045.82	0.21291
1049.19	0.0854742
1052.57	0.0395206
1055.94	0.219431
1059.32	0.360154
1062.69	0.0666108
1066.07	0.125584
1069.44	0.253854
1072.82	0.304618
1076.19	0.173239
1079.57	0.183825
1082.94	0.235858
1086.32	-0.0177001
1089.69	0.161278
1093.07	0.10884
1096.44	0.25009
1099.81	0.186312
1103.19	-0.0491351
1106.56	0.258303
1109.94	-0.0708963
1113.31	0.219131
1116.69	0.260297
1120.06	0.127979
1123.44	0.0201359
1126.81	0.314399
1130.19	0.432644
1133.56	0.185904
1136.94	0.160978
1140.31	-0.0525947
1143.69	0.138699
1147.06	0.0799663
1150.44	0.0714622
1153.81	0.145724
1157.19	0.167456
1160.56	0.265071
1163.94	-0.00814617
1167.31	0.0624013
1170.69	0.116109
1174.06	0.104189
1177.43	0.323742
1180.81	0.067666
1184.18	0.290666
1187.56	0.141008
1190.93	0.328085
1194.31	0.291181
1197.68	0.00467236
1201.06	0.0485853
1204.43	0.020029
1207.81	-0.0360781
1211.18	0.224181
1214.56	0.0597476
1217.93	0.11562
1221.31	0.220146
1224.68	0.18883
1228.06	0.137514
1231.43	0.173389
1234.81	0.303993
1238.18	0.185676
1241.56	0.127765
1244.93	0.00243976
1248.31	0.028973
1251.68	0.211107
1255.06	0.412692
1258.43	0.244503
1261.81	0.219677
1265.18	0.240593
1268.56	0.181794
1271.93	-0.0106996
1275.31	0.0596539
1278.68	0.1415
1282.06	0.00865836
