Measurement: Raman, 780 nm, unoriented, Raman Data RAW
Mineral: Tennantite-(Zn)
Rruff sample: R050474
Ideal chemistry: Cu^1+^_6_(Cu^1+^_4_Zn^2+^_2_)As^3+^_4_S^2-^_13_
Locality: Daily Judge mine, Park City, Utah, USA
Source: California Institute of Technology
Description: Black crystals associated with pyrite
Measured chemistry: (Cu_10.01_Zn_1.66_Fe_0.33_)_Î£=12_As_4.00_S_13.00_
Raman shift (cm-1)	intensity
105.208	6.21933
108.583	5.93549
111.957	6.15558
115.332	6.95962
118.707	7.14701
122.082	7.85028
125.457	8.7767
128.832	10.203
132.206	11.9838
135.581	13.3615
138.956	14.6904
142.331	12.3287
145.706	7.5615
149.081	5.99398
152.455	5.42777
155.83	5.6133
159.205	5.06291
162.58	5.46162
165.955	5.33437
169.329	4.75227
172.704	4.41995
176.079	4.58196
179.454	4.23714
182.829	4.21392
186.203	4.56378
189.578	4.61895
192.953	3.66716
196.328	2.85664
199.703	2.80463
203.078	2.72758
206.452	2.72508
209.827	2.78695
213.202	2.77873
216.577	2.53841
219.952	2.48778
223.326	3.1395
226.701	3.26344
230.076	2.92145
233.451	3.10763
236.826	4.56729
240.201	4.58021
243.575	5.10495
246.95	5.22049
250.325	5.7505
253.7	5.80848
257.075	5.6102
260.449	6.16575
263.824	5.95221
267.199	5.13586
270.574	5.53834
273.949	5.45521
277.324	5.43866
280.698	5.83369
284.073	7.03087
287.448	7.85179
290.823	8.47191
294.198	9.4863
297.572	10.371
300.947	11.232
304.322	12.0395
307.697	12.6451
311.072	12.667
314.447	12.6265
317.821	12.3201
321.196	12.358
324.571	12.6919
327.946	14.1738
331.321	14.959
334.695	15.5925
338.07	15.4476
341.445	14.9488
344.82	15.3451
348.195	14.48
351.57	14.2292
354.944	14.1157
358.319	15.2446
361.694	17.011
365.069	20.0641
368.443	25.0489
371.818	28.4716
375.193	30.2664
378.568	33.6812
381.943	37.4791
385.318	39.9654
388.692	30.8655
392.067	15.3973
395.442	7.71375
398.817	4.22699
402.192	3.12206
405.567	1.54092
408.941	1.43051
412.316	1.38884
415.691	0.966771
419.066	1.47966
422.441	1.13783
425.815	0.906575
429.19	1.06535
432.565	1.0041
435.94	0.558387
439.315	0.793317
442.69	0.894129
446.064	0.697315
449.439	0.794884
452.814	0.376951
456.189	0.644402
459.564	0.510212
462.938	0.735208
466.313	0.901161
469.688	0.414104
473.063	1.04797
476.438	0.714441
479.812	0.512663
483.187	0.579502
486.562	1.02432
489.937	1.26866
493.312	0.90472
496.687	0.159041
500.061	0.167008
503.436	0.39637
506.811	0.474715
510.186	0.19861
513.561	0.277913
516.936	0.711918
520.31	0.79841
523.685	0.452302
527.06	0.712404
530.435	0.658156
533.81	0.777738
537.184	0.0196049
540.559	0.0185057
543.934	0.77997
547.309	0.437931
550.684	0.311617
554.058	0.611236
557.433	0.401738
560.808	0.236029
564.183	0.567846
567.558	0.482578
570.933	0.590306
574.307	0.58028
577.682	0.645173
581.057	0.714639
584.432	0.505421
587.807	0.682277
591.181	0.482601
594.556	0.652358
597.931	0.236495
601.306	0.306739
604.681	0.376032
608.056	0.181935
611.43	0.631838
614.805	0.617138
618.18	0.8262
621.555	0.699765
624.93	0.343476
628.304	0.488812
631.679	0.658267
635.054	0.647319
638.429	0.349235
641.804	0.430589
645.178	0.635468
648.553	0.471291
651.928	0.36893
655.303	-0.267547
658.678	0.0800094
662.053	0.743754
665.427	0.875151
668.802	0.402166
672.177	0.272283
675.552	0.208528
678.927	0.59851
682.302	0.395445
685.676	0.408496
689.051	0.048965
692.426	0.621234
695.801	0.542005
699.176	0.640199
702.55	0.276139
705.925	0.389611
709.3	0.534191
712.675	0.373023
716.05	0.240377
719.424	0.684959
722.799	0.396331
726.174	0.549321
729.549	0.108713
732.924	0.517543
736.298	0.574117
739.673	0.367532
743.048	0.678094
746.423	0.264553
749.798	0.597419
753.173	0.485111
756.547	0.184874
759.922	0.451638
763.297	-0.0200098
766.672	0.513666
770.047	0.507658
773.422	0.0693357
776.796	0.0340991
780.171	0.0102017
783.546	0.545018
786.921	0.182564
790.296	0.34269
793.67	-0.0124432
797.045	0.323827
800.42	0.295596
803.795	0.487245
807.17	0.487643
810.544	0.0672467
813.919	0.347237
817.294	0.290084
820.669	0.235627
824.044	0.660202
827.419	0.446029
830.793	0.0548047
834.168	0.269927
837.543	0.252808
840.918	0.0365361
844.293	-0.0205938
847.668	0.0847312
851.042	0.225589
854.417	0.31247
857.792	0.692118
861.167	-0.0644065
864.542	0.42195
867.916	0.278301
871.291	0.459895
874.666	0.173503
878.041	0.180386
881.416	0.0650924
884.79	0.0625513
888.165	0.224379
891.54	0.334477
894.915	-0.0238854
898.29	0.0739754
901.665	0.335536
905.039	0.39012
908.414	0.187682
911.789	0.256454
915.164	0.0696352
918.539	0.125252
921.913	0.22306
925.288	0.256695
928.663	-0.0209039
932.038	0.343016
935.413	0.276975
938.788	-0.0805049
942.162	0.394147
945.537	0.528988
948.912	0.790969
952.287	-0.113685
955.662	0.448435
959.036	0.361463
962.411	0.55452
965.786	0.157126
969.161	-0.0207082
972.536	0.197328
975.91	0.241179
979.285	-0.0182974
982.66	-0.133553
986.035	0.524363
989.41	0.158285
992.784	0.0603514
996.159	0.48534
999.534	0.691742
1002.91	0.134471
1006.28	0.280943
1009.66	0.193174
1013.03	-0.271772
1016.41	-0.126455
1019.78	-0.166906
1023.16	0.136371
1026.53	0.259348
1029.91	0.103825
1033.28	-0.00040728
1036.66	0.333809
1040.03	-0.124481
1043.41	0.44301
1046.78	0.197379
1050.16	-0.0330723
1053.53	0.331072
1056.91	0.405135
1060.28	0.342897
1063.66	0.0806408
1067.03	0.257085
1070.4	0.290744
1073.78	0.68168
1077.15	0.541858
1080.53	0.423889
1083.9	0.217818
1087.28	0.141627
1090.65	0.316586
1094.03	0.161981
1097.4	0.106054
1100.78	0.231509
1104.15	0.0991443
1107.53	-0.056773
1110.9	-0.467153
1114.28	0.552836
1117.65	0.504516
1121.03	0.133112
1124.4	0.079621
1127.78	0.645682
1131.15	0.800773
1134.53	0.149454
1137.9	0.148578
1141.28	-0.138971
1144.65	0.0565638
1148.03	0.228274
1151.4	0.272688
1154.78	-0.302964
1158.15	0.406182
1161.53	-0.0604424
1164.9	0.284119
1168.28	0.182348
1171.65	0.556786
1175.03	-0.0487877
1178.4	0.338829
1181.77	0.174924
1185.15	0.304389
1188.52	0.150294
1191.9	0.478163
1195.27	0.0419376
1198.65	0.13774
1202.02	-0.852717
1205.4	-0.117939
1208.77	-0.180332
1212.15	0.0481536
1215.52	0.269226
1218.9	0.255024
1222.27	0.144616
1225.65	0.2093
1229.02	0.119886
1232.4	0.445669
1235.77	0.0323786
1239.15	0.187691
1242.52	0.270802
1245.9	-0.205345
1249.27	0.441205
1252.64	0.109435
1256.02	0.0247353
1259.39	-0.157925
1262.77	-0.00620402
1266.14	0.0883418
1269.52	-0.0501317
1272.89	0.39379
1276.27	0.419008
1279.64	0.311496
1283.02	0.22139
1286.39	0.157593
