Measurement: Raman, 780 nm, unoriented, Raman Data Processed
Mineral: Ternesite
Rruff sample: R140779
Ideal chemistry: Ca_5_(SiO_4_)_2_(S^6+^O_4_)
Locality: Caspar quarry, Bellerberg volcano, Ettringen, Mayen, Eifel, Rhineland-Palatinate, Germany
Source: Ch. and H. Sch√§fer
Description: Green massive, associated with black-brown jasmundite, small black grains of srebodolskite, hydroxylellestadite, ettringite and portlandite.
Raman shift (cm-1)	intensity
93.8499	0
97.2247	0.476074
100.6	18.852
103.974	7.53125
107.349	23.781
110.724	0.395752
114.099	4.46826
117.474	15.9141
120.848	23.2141
124.223	34.8667
127.598	6.9519
130.973	0.28418
134.348	0.613037
137.722	1.22534
141.097	6.08984
144.472	7.36914
147.847	6.45752
151.222	23.5015
154.597	49.0147
157.971	65.2669
161.346	45.3455
164.721	18.9678
168.096	20.898
171.471	39.3967
174.845	25.0347
178.22	26.98
181.595	32.5483
184.97	24.6602
188.345	18.1399
191.72	14.1104
195.094	11.0303
198.469	17.071
201.844	30.7908
205.219	23.5144
208.594	18.6665
211.969	26.9673
215.343	15.2539
218.718	10.1646
222.093	14.9341
225.468	15.3474
228.843	47.2315
232.217	48.9241
235.592	31.8303
238.967	9.62451
242.342	5.58081
245.717	13.8057
249.091	7.65625
252.466	5.50073
255.841	3.00659
259.216	3.97217
262.591	2.73242
265.966	2.64209
269.34	0.960449
272.715	0.230469
276.09	7.22046
279.465	18.2815
282.84	25.2268
286.214	21.946
289.589	26.0674
292.964	34.4177
296.339	47.386
299.714	46.0505
303.089	38.8335
306.463	54.6619
309.838	52.7778
313.213	36.9319
316.588	33.2954
319.963	26.7612
323.337	18.1951
326.712	9.79858
330.087	0.093262
333.462	9.48218
336.837	6.25439
340.212	8.69336
343.586	9.78687
346.961	12.8543
350.336	13.2085
353.711	19.9421
357.086	18.3669
360.46	22.8699
363.835	24.3718
367.21	39.5247
370.585	43.4731
373.96	58.9634
377.334	77.3569
380.709	86.6614
384.084	60.249
387.459	34.7136
390.834	20.5342
394.209	8.81714
397.583	6.62231
400.958	0.835205
404.333	5.96924
407.708	3.41602
411.083	0.144775
414.457	1.42944
417.832	11.4627
421.207	16.4014
424.582	36.4241
427.957	67.2732
431.332	64.6255
434.706	63.5332
438.081	77.5459
441.456	111.595
444.831	99.2324
448.206	47.7969
451.58	33.9026
454.955	40.9136
458.33	24.5144
461.705	15.3113
465.08	6.02246
468.455	4.84229
471.829	0.383301
475.204	9.30273
478.579	32.179
481.954	54.9856
485.329	76.9846
488.704	57.3313
492.078	27.0752
495.453	13.2031
498.828	13.6604
502.203	4.13452
505.577	19.7541
508.952	32.1091
512.327	34.5366
515.702	15.8543
519.077	1.16577
522.452	8.04517
525.826	2.80347
529.201	10.0696
532.576	29.5273
535.951	48.7607
539.326	79.8481
542.701	133.137
546.075	197.848
549.45	275.733
552.825	362.85
556.2	455.091
559.575	524.263
562.949	539.072
566.324	476.265
569.699	371.738
573.074	279.759
576.449	195.344
579.823	149.096
583.198	120.783
586.573	95.1272
589.948	74.5456
593.323	58.626
596.698	55.7129
600.072	67.3696
603.447	73.1118
606.822	40.8916
610.197	16.3767
613.572	4.95606
616.947	6.84058
620.321	5.35034
623.696	2.83032
627.071	22.1706
630.446	18.1233
633.821	3.46045
637.195	3.90015
640.57	3.6355
643.945	6.98804
647.32	3.72485
650.695	9.31494
654.069	21.6804
657.444	43.9094
660.819	71.3384
664.194	46.8918
667.569	12.8865
670.944	2.09888
674.318	7.94287
677.693	15.572
681.068	13.5713
684.443	13.0806
687.818	20.6599
691.192	26.9854
694.567	23.2935
697.942	24.7661
701.317	20.3921
704.692	19.6448
708.067	15.7398
711.441	15.2092
714.816	9.30054
718.191	6.28003
721.566	11.4185
724.941	13.728
728.316	13.7979
731.69	16.1692
735.065	4.15857
738.44	10.8916
741.815	17.4439
745.19	14.8837
748.564	23.9486
751.939	31.6148
755.314	38.3058
758.689	47.4104
762.064	52.163
765.438	57.7389
768.813	55.2664
772.188	46.0493
775.563	41.2778
778.938	27.7155
782.313	16.2312
785.687	10.5519
789.062	5.53711
792.437	0.444824
795.812	1.02026
799.187	2.38623
802.562	0.846436
805.936	3.81885
809.311	5.1134
812.686	11.355
816.061	26.4688
819.436	50.1403
822.81	80.829
826.185	140.392
829.56	266.79
832.935	397.265
836.31	247.04
839.684	98.1486
843.059	44.2949
846.434	20.0979
849.809	7.79126
853.184	8.62622
856.558	2.67481
859.933	5.06689
863.308	9.12305
866.683	15.6588
870.058	17.0869
873.433	29.3218
876.807	41.646
880.182	61.6925
883.557	47.7255
886.932	23.0544
890.307	25.9539
893.682	26.0751
897.056	36.6582
900.431	36.4425
903.806	29.7622
907.181	10.8931
910.556	3.15247
913.93	0.235107
917.305	0.497437
920.68	3.06836
924.055	3.78442
927.43	1.44653
930.804	6.78479
934.179	7.68799
937.554	5.10413
940.929	9.54248
944.304	7.77063
947.679	1.73474
951.053	2.5061
954.428	1.12
957.803	2.42566
961.178	5.8656
964.553	5.39294
967.928	8.86426
971.302	7.39868
974.677	7.00269
978.052	14.4597
981.427	12.0442
984.802	21.2493
988.176	39.2037
991.551	53.495
994.926	69.3608
998.301	123.045
1001.68	206.436
1005.05	427.745
1008.42	739.774
1011.8	309.43
1015.17	83.7743
1018.55	39.5781
1021.92	24.8381
1025.3	22.9551
1028.67	21.9074
1032.05	21.1851
1035.42	22.3344
1038.8	17.6921
1042.17	20.5215
1045.55	14.0332
1048.92	14.0536
1052.3	16.2798
1055.67	12.9705
1059.05	17.8291
1062.42	15.7664
1065.8	15.9467
1069.17	14.2046
1072.55	14.4733
1075.92	12.5938
1079.3	8.1062
1082.67	5.16504
1086.05	1.44031
1089.42	1.38
1092.8	5.38403
1096.17	3.61487
1099.55	6.55945
1102.92	5.08191
1106.3	12.4469
1109.67	11.1041
1113.05	15.7546
1116.42	21.7423
1119.79	39.1351
1123.17	47.7024
1126.54	37.5324
1129.92	43.3032
1133.29	44.8239
1136.67	51.5237
1140.04	54.2406
1143.42	23.5429
1146.79	13.937
1150.17	8.79053
1153.54	6.28686
1156.92	12.0666
1160.29	2.09485
1163.67	3.30823
1167.04	18.6288
1170.42	37.2739
1173.79	54.8425
1177.17	65.009
1180.54	67.4408
1183.92	64.8834
1187.29	67.5658
1190.66	39.7991
1194.04	28.5345
1197.41	38.6472
1200.79	71.4403
1204.16	118.591
1207.54	187.546
1210.91	279.705
1214.29	403.79
1217.66	563.496
1221.04	741.063
1224.41	910.285
1227.79	985.967
1231.16	941.143
1234.54	800.716
1237.91	633.645
1241.29	490.389
1244.66	382.156
1248.04	302.296
1251.41	253.371
1254.79	208.699
1258.16	167.424
1261.54	129.947
1264.91	88.881
1268.29	52.2194
1271.66	27.6719
1275.04	8.53308
1278.41	4.23767
1281.79	1.91736
