Measurement: Raman, 532 nm, unoriented, Raman Data Processed
Mineral: Ternesite
Rruff sample: R140779
Ideal chemistry: Ca_5_(SiO_4_)_2_(S^6+^O_4_)
Locality: Caspar quarry, Bellerberg volcano, Ettringen, Mayen, Eifel, Rhineland-Palatinate, Germany
Source: Ch. and H. Sch√§fer
Description: Green massive, associated with black-brown jasmundite, small black grains of srebodolskite, hydroxylellestadite, ettringite and portlandite.
Raman shift (cm-1)	intensity
141.17	0
144.544	0.028076
147.919	10.2234
151.294	16.2252
154.669	43.6575
158.044	54.8344
161.418	14.6764
164.793	3.80542
168.168	9.66016
171.543	26.6754
174.918	7.40051
178.293	5.51001
181.667	14.3091
185.042	10.1614
188.417	3.10486
191.792	1.15869
195.167	7.90955
198.542	22.4821
201.916	31.2679
205.291	24.3101
208.666	25.9988
212.041	28.894
215.416	16.7313
218.79	9.33997
222.165	14.4976
225.54	26.7466
228.915	48.5958
232.29	55.8408
235.664	30.1768
239.039	10.3342
242.414	10.1366
245.789	6.63684
249.164	6.06445
252.538	2.57117
255.913	5.98328
259.288	7.58618
262.663	1.72058
266.038	2.68372
269.413	2.73743
272.787	11.3794
276.162	16.1406
279.537	37.0526
282.912	58.6248
286.287	70.8964
289.661	76.6715
293.036	90.457
296.411	108.548
299.786	106.765
303.161	113.757
306.536	125.214
309.91	122.727
313.285	86.2139
316.66	67.8524
320.035	51.7805
323.41	34.9716
326.784	30.8755
330.159	32.8076
333.534	37.7883
336.909	41.1758
340.284	33.3917
343.659	25
347.033	21.9503
350.408	18.5516
353.783	21.5212
357.158	23.6965
360.533	32.3433
363.908	45.5287
367.282	68.4313
370.657	103.163
374.032	136.498
377.407	175.982
380.782	160.883
384.156	108.525
387.531	57.1338
390.906	33.4431
394.281	16.1052
397.656	7.81873
401.031	0.178711
404.405	4.65393
407.78	8.4989
411.155	1.07507
414.53	8.65723
417.905	18.2336
421.279	36.5983
424.654	70.7044
428.029	116.082
431.404	122.898
434.779	126.096
438.154	173.531
441.528	228.872
444.903	167.355
448.278	61.1417
451.653	32.9727
455.028	23.9325
458.402	16.531
461.777	11.3666
465.152	4.84949
468.527	14.7928
471.902	34.6714
475.276	59.702
478.651	93.6254
482.026	145.387
485.401	161.109
488.776	108.032
492.151	57.5715
495.525	40.8282
498.9	38.2163
502.275	59.8368
505.65	80.8781
509.025	101.688
512.399	104.367
515.774	76.0533
519.149	46.6443
522.524	22.168
525.899	12.3085
529.274	12.9008
532.648	15.0026
536.023	3.91504
539.398	0.130615
542.773	3.23877
546.148	2.62048
549.523	2.19092
552.897	0.810913
556.272	1.88184
559.647	1.70776
563.022	5.74646
566.396	1.04309
569.771	0.89978
573.146	7.41138
576.521	5.11182
579.896	12.546
583.271	15.7033
586.645	18.7134
590.02	21.0247
593.395	31.3737
596.77	52.3948
600.145	74.1554
603.519	72.5414
606.894	33.1691
610.269	22.2836
613.644	24.7062
617.019	32.8792
620.394	46.8495
623.768	59.5608
627.143	92.5326
630.518	90.641
633.893	46.2954
637.268	29.743
640.643	20.8957
644.017	17.7634
647.392	23.4189
650.767	42.1895
654.142	58.6929
657.517	86.8512
660.891	100.824
664.266	67.7777
667.641	20.5966
671.016	5.06104
674.391	3.36353
677.765	2.32385
681.14	0.563477
684.515	0.958862
687.89	4.84546
691.265	4.17493
694.64	6.52673
698.014	13.417
701.389	8.36499
704.764	9.16467
708.139	10.3369
711.514	16.8043
714.889	22.6018
718.263	35.6034
721.638	45.9585
725.013	56.1465
728.388	45.7701
731.763	32.2577
735.137	18.1519
738.512	12.0398
741.887	1.67493
745.262	3.04504
748.637	0.629883
752.011	2.00147
755.386	1.81519
758.761	3.77539
762.136	6.0531
765.511	16.0265
768.886	19.5952
772.26	21.1581
775.635	20.4224
779.01	12.1589
782.385	7.8175
785.76	1.14734
789.135	5.95166
792.509	6.54871
795.884	11.821
799.259	19.6152
802.634	18.2873
806.009	22.8611
809.383	29.0994
812.758	44.8705
816.133	83.5962
819.508	173.943
822.883	320.67
826.257	540.541
829.632	889.52
833.007	1076.66
836.382	596.482
839.757	249.611
843.132	119.051
846.506	59.2224
849.881	41.0065
853.256	22.0265
856.631	14.248
860.006	11.3315
863.38	18.5092
866.755	33.5853
870.13	46.2521
873.505	58.5093
876.88	81.9137
880.255	99.0203
883.629	71.7336
887.004	43.6158
890.379	52.5399
893.754	79.8668
897.129	114.593
900.504	132.451
903.878	87.6284
907.253	27.663
910.628	7.72754
914.003	0.883911
917.378	5.14331
920.752	1.10266
924.127	2.53674
927.502	0.4021
930.877	4.03674
934.252	6.17737
937.626	14.2135
941.001	21.2096
944.376	17.5347
947.751	10.8041
951.126	0.561646
954.5	3.21936
957.875	11.4358
961.25	15.7651
964.625	20.892
968	17.7972
971.375	24.5894
974.75	43.6446
978.124	58.271
981.499	59.3854
984.874	87.9112
988.249	128.702
991.624	140.182
994.998	209.363
998.373	404.592
1001.75	699.809
1005.12	1280.27
1008.5	1696.56
1011.87	619.057
1015.25	165.25
1018.62	61.1721
1022	27.2053
1025.37	17.7144
1028.75	11.4943
1032.12	5.625
1035.5	2.60913
1038.87	1.0708
1042.25	4.66138
1045.62	5.27869
1048.99	5.28052
1052.37	4.94507
1055.74	2.39429
1059.12	3.97327
1062.49	5.05676
1065.87	4.96423
1069.24	3.41406
1072.62	2.62915
1075.99	1.7616
1079.37	1.06494
1082.74	0.314819
1086.12	4.00427
1089.49	1.52319
1092.87	2.76782
1096.24	0.548584
1099.62	1.13306
1102.99	3.39478
1106.37	18.1708
1109.74	38.4252
1113.12	50.1215
1116.49	67.1838
1119.87	67.1451
1123.24	50.1389
1126.62	25.8882
1129.99	21.233
1133.37	37.3215
1136.74	63.5775
1140.12	92.8077
1143.49	66.4537
1146.87	74.4108
1150.24	61.2181
1153.62	29.5848
1156.99	14.0241
1160.36	6.97375
1163.74	4.91113
1167.11	1.73438
1170.49	3.79199
1173.86	6.45972
1177.24	22.12
1180.61	53.1355
1183.99	91.5018
1187.36	113.314
1190.74	55.2137
1194.11	23.1744
1197.49	11.0007
1200.86	3.08386
1204.24	1.4552
1207.61	2.08826
1210.99	0.088501
1214.36	1.14319
1217.74	1.8147
1221.11	5.73303
1224.49	9.26526
1227.86	6.19495
1231.24	3.64062
1234.61	8.64294
1237.98	0.613647
1241.36	5.28186
1244.73	1.2146
1248.11	8.85608
1251.48	6.31372
1254.86	8.75708
1258.23	12.7769
1261.61	3.4707
1264.98	5.00623
1268.36	4.91602
1271.73	0.129639
1275.11	0.269409
1278.48	0.530029
1281.86	0.452393
1285.23	5.99194
1288.61	10.9836
1291.98	6.72412
1295.36	5.99536
1298.73	8.78418
