Measurement: Raman, 532 nm, unoriented, Raman Data RAW
Mineral: Tetrahedrite-(Zn)
Rruff sample: R100204
Ideal chemistry: Cu^1+^_6_(Cu^1+^_4_Zn^2+^_2_)Sb^3+^_4_S^2-^_13_
Locality: Level 390, Vein 14, Mina Herminia, Julcani District, Huancavelica, Peru
Source: William W Pinch
Description: Metallic gray massive, associated with gustavite, R100203
Raman shift (cm-1)	intensity
164.799	58.1489
167.692	62.3359
170.584	67.1257
173.477	67.456
176.37	72.9164
179.263	69.4357
182.155	70.9849
185.048	70.5189
187.941	73.7981
190.833	72.5542
193.726	70.8601
196.619	70.82
199.512	73.174
202.404	71.9546
205.297	71.878
208.19	75.5072
211.082	73.9153
213.975	72.9199
216.868	73.192
219.761	77.5155
222.653	73.8642
225.546	79.4709
228.439	80.3986
231.331	80.5286
234.224	81.3107
237.117	85.2301
240.009	83.7176
242.902	86.7932
245.795	92.1148
248.688	88.046
251.58	89.7985
254.473	89.8132
257.366	92.0112
260.258	90.8416
263.151	93.5405
266.044	94.8086
268.936	98.5866
271.829	99.8528
274.722	103.204
277.615	106.669
280.507	107.461
283.4	114.839
286.293	116.613
289.185	122.32
292.078	124.54
294.971	128.891
297.863	128.797
300.756	131.736
303.649	134.613
306.541	134.776
309.434	142.554
312.327	142.525
315.22	146.281
318.112	148.308
321.005	147.164
323.898	145.637
326.791	144.578
329.683	142.482
332.576	142.847
335.469	145.137
338.361	150.969
341.254	165.258
344.147	179.2
347.039	194.585
349.932	196.85
352.825	192.315
355.717	187.151
358.61	176.41
361.503	157.99
364.396	131.666
367.288	107.433
370.181	98.5823
373.074	87.6204
375.966	84.1676
378.859	77.0785
381.752	72.1972
384.644	70.8716
387.537	70.7631
390.43	64.8588
393.323	64.2647
396.215	64.5277
399.108	62.1058
402.001	62.8571
404.894	62.6287
407.786	62.5803
410.679	60.581
413.572	59.4304
416.464	57.4003
419.357	60.467
422.25	57.0435
425.142	56.3237
428.035	54.4033
430.928	55.2055
433.82	53.1799
436.713	52.5936
439.606	54.5079
442.499	52.1016
445.391	52.1336
448.284	52.8717
451.177	51.0983
454.069	48.5874
456.962	49.7192
459.855	50.4365
462.748	47.6111
465.64	46.5601
468.533	48.2251
471.426	48.6156
474.318	45.7536
477.211	45.4526
480.104	47.8077
482.996	45.5002
485.889	43.3823
488.782	42.5707
491.675	44.6137
494.567	43.2786
497.46	43.4175
500.353	41.8136
503.245	42.3125
506.138	42.0919
509.031	41.6106
511.923	40.7002
514.816	41.1247
517.709	38.9467
520.602	40.8705
523.494	43.5011
526.387	41.8541
529.28	41.5831
532.172	40.1702
535.065	41.53
537.958	41.3942
540.851	42.4357
543.743	39.9137
546.636	41.5267
549.529	40.0944
552.421	41.133
555.314	41.0041
558.207	41.6011
561.099	40.5631
563.992	40.9582
566.885	40.1759
569.778	39.8658
572.67	39.406
575.563	39.2888
578.456	42.2096
581.348	40.1432
584.241	40.3867
587.134	39.1761
590.027	42.4434
592.919	42.288
595.812	42.368
598.705	41.8355
601.597	41.5347
604.49	41.305
607.383	40.33
610.275	40.5299
613.168	42.2192
616.061	42.1244
618.953	41.6245
621.846	42.972
624.739	41.6643
627.632	42.174
630.524	42.1489
633.417	43.384
636.31	40.9101
639.202	41.8199
642.095	39.6089
644.988	41.5936
647.881	40.8537
650.773	43.7555
653.666	42.4629
656.559	41.5785
659.451	42.2636
662.344	40.4789
665.237	41.2515
668.13	39.5646
671.022	39
673.915	40.821
676.808	40.2846
679.7	38.3097
682.593	39.7282
685.486	38.7922
688.378	39.889
691.271	39.8077
694.164	39.3329
697.057	37.7915
699.949	37.932
702.842	36.7571
705.735	36.6424
708.627	37.6753
711.52	35.5571
714.413	37.8645
717.305	37.2794
720.198	36.6213
723.091	35.1857
725.984	36.1006
728.876	33.1116
731.769	35.5736
734.662	34.8963
737.554	34.2868
740.447	34.9797
743.34	33.6158
746.232	33.7215
749.125	34.0645
752.018	33.9108
754.91	33.9015
757.803	32.6936
760.696	35.329
763.589	33.623
766.481	33.5235
769.374	31.7669
772.267	33.5468
775.159	32.3362
778.052	32.9915
780.945	32.4448
783.838	31.9131
786.73	32.4376
789.623	30.2908
792.516	29.5003
795.408	30.8597
798.301	30.8242
801.194	30.8267
804.087	32.4765
806.979	30.5144
809.872	31.0178
812.765	32.0428
815.657	30.701
818.55	31.566
821.443	30.4848
824.335	30.1552
827.228	29.4194
830.121	30.4244
833.014	31.1927
835.906	28.6738
838.799	32.2188
841.692	31.2311
844.584	28.9567
847.477	30.248
850.37	30.4387
853.263	30.6724
856.155	29.0329
859.048	29.8678
861.941	30.3311
864.833	28.6192
867.726	28.9765
870.619	29.6631
873.511	27.6147
876.404	28.8709
879.297	29.1837
882.189	28.8796
885.082	29.4175
887.975	27.6487
890.868	29.5155
893.76	27.6947
896.653	30.3398
899.546	27.161
902.438	27.4205
905.331	26.7332
908.224	27.79
911.116	26.6011
914.009	27.4874
916.902	25.1224
919.795	26.1824
922.687	25.09
925.58	27.4927
928.473	26.4649
931.365	25.3692
934.258	25.5564
937.151	28.085
940.044	27.6327
942.936	25.8394
945.829	27.2998
948.722	25.5328
951.614	27.0406
954.507	26.8387
957.4	27.3364
960.293	27.1665
963.185	26.5855
966.078	27.076
968.971	26.3427
971.863	24.6595
974.756	25.1621
977.649	25.3304
980.541	23.782
983.434	25.3814
986.327	25.7154
989.22	24.2885
992.112	25.1017
995.005	26.3396
997.898	23.4474
1000.79	24.9502
1003.68	25.4678
1006.58	25.5327
1009.47	24.9902
1012.36	26.0442
1015.25	24.9333
1018.15	24.3111
1021.04	25.1712
1023.93	24.5502
1026.83	24.4234
1029.72	24.3045
1032.61	25.2034
1035.5	25.7773
1038.4	24.5577
1041.29	27.0516
1044.18	24.8244
1047.07	24.6592
1049.97	22.3192
1052.86	23.8736
1055.75	24.9547
1058.64	24.3679
1061.54	23.0734
1064.43	23.3255
1067.32	23.1441
1070.21	24.8387
1073.11	23.9078
1076	21.8866
1078.89	24.7596
1081.79	22.7914
1084.68	23.7857
1087.57	23.6428
1090.46	23.7539
1093.36	24.5661
1096.25	22.731
1099.14	23.1954
1102.04	23.1417
1104.93	22.0786
1107.82	23.3703
1110.71	22.7879
1113.61	22.1483
1116.5	22.7427
1119.39	21.9698
1122.28	24.8997
1125.18	22.084
1128.07	23.3844
1130.96	20.9979
1133.86	21.3485
1136.75	21.2788
1139.64	21.1865
1142.53	22.4297
1145.43	23.3042
1148.32	20.9512
1151.21	21.2726
1154.1	20.5011
1157	21.8267
1159.89	22.8595
1162.78	22.4805
1165.67	21.897
1168.57	20.5378
1171.46	21.136
1174.35	20.8236
1177.24	22.1622
1180.14	20.7047
1183.03	22.5078
1185.92	20.5564
1188.82	20.6203
1191.71	20.8943
1194.6	22.8219
1197.49	21.8511
1200.39	20.4322
1203.28	22.1867
1206.17	19.8892
1209.07	20.59
1211.96	20.7804
1214.85	19.6755
1217.74	21.0736
1220.64	20.2732
1223.53	21.6759
1226.42	20.9332
1229.31	22.122
1232.21	23.2662
1235.1	22.1846
1237.99	19.296
1240.88	19.5857
1243.78	18.791
1246.67	20.4996
1249.56	21.0421
1252.45	21.5706
1255.35	21.1926
1258.24	19.9432
1261.13	19.4348
1264.03	21.8673
1266.92	20.5802
1269.81	22.0121
1272.7	20.6768
1275.6	20.1106
1278.49	18.1211
1281.38	19.5012
1284.28	19.8781
1287.17	21.5849
1290.06	20.4973
1292.95	19.4999
1295.85	21.5017
1298.74	21.793
1301.63	20.1973
