Measurement: Raman, 532 nm, unoriented, Raman Data RAW
Mineral: Tetrahedrite-(Zn)
Rruff sample: R040164
Ideal chemistry: Cu^1+^_6_(Cu^1+^_4_Zn^2+^_2_)Sb^3+^_4_S^2-^_13_
Locality: Sunshine mine, Kellog, Idaho, USA
Source: University of Arizona Mineral Museum
Description: A fragment of massive ore
Measured chemistry: (Cu_0.75_Fe_0.11_Ag_0.08_Zn_0.05_)_12_(Sb_0.97_As_0.06_)_4_S_13_
Raman shift (cm-1)	intensity
121.45	6.90932
124.825	7.12361
128.2	6.27001
131.575	5.94941
134.95	4.96138
138.325	5.21959
141.699	5.05483
145.074	4.85447
148.449	4.72007
151.824	4.08436
155.199	3.22293
158.573	3.64254
161.948	3.61323
165.323	3.43079
168.698	2.88106
172.073	3.23111
175.447	3.36796
178.822	3.31512
182.197	3.31869
185.572	3.42616
188.947	3.61463
192.322	3.61157
195.696	3.47445
199.071	2.99697
202.446	3.96267
205.821	3.28218
209.196	4.25103
212.571	3.40071
215.945	3.94208
219.32	3.33246
222.695	3.73924
226.07	3.82071
229.445	4.52331
232.819	4.27302
236.194	4.57877
239.569	5.23665
242.944	5.07478
246.319	3.97307
249.694	4.75356
253.068	5.09016
256.443	5.04917
259.818	5.62285
263.193	6.00473
266.567	6.0033
269.942	6.20193
273.317	6.88204
276.692	8.68608
280.067	7.96051
283.442	8.93796
286.816	8.9323
290.191	9.21423
293.566	8.32139
296.941	9.47158
300.316	9.68528
303.69	9.79835
307.065	10.4428
310.44	10.6212
313.815	10.5258
317.19	11.1144
320.565	11.9292
323.939	12.7535
327.314	14.1666
330.689	15.2846
334.064	17.2828
337.439	20.0833
340.813	23.0599
344.188	26.2232
347.563	25.4414
350.938	24.7372
354.313	23.7299
357.688	19.1748
361.062	15.2065
364.437	10.2983
367.812	7.02797
371.187	5.20263
374.562	3.66039
377.937	3.02291
381.311	2.02968
384.686	2.02207
388.061	2.34116
391.436	2.11375
394.81	2.11319
398.185	1.52754
401.56	1.40984
404.935	1.72334
408.31	1.53987
411.685	1.4273
415.059	1.57602
418.434	1.10653
421.809	1.55913
425.184	0.982341
428.559	1.18393
431.933	1.56096
435.308	1.82982
438.683	1.07122
442.058	1.57823
445.433	1.07399
448.808	1.063
452.182	0.909411
455.557	1.21337
458.932	1.37648
462.307	0.789436
465.682	1.1513
469.057	1.18917
472.431	0.889714
475.806	0.493497
479.181	0.745889
482.556	0.918859
485.931	0.868482
489.305	0.92835
492.68	1.23431
496.055	0.911526
499.43	0.948847
502.805	0.81246
506.18	0.62997
509.554	1.01631
512.929	0.675853
516.304	1.01243
519.679	1.44666
523.054	0.782933
526.428	0.894604
529.803	0.515851
533.178	0.660273
536.553	0.706815
539.928	1.18581
543.303	0.863348
546.677	0.730935
550.052	0.50953
553.427	0.948712
556.802	0.463215
560.177	0.471319
563.551	0.924478
566.926	0.625504
570.301	0.611479
573.676	1.01936
577.051	0.631319
580.426	0.982728
583.8	0.980143
587.175	1.16143
590.55	1.12557
593.925	0.492659
597.299	0.596391
600.674	0.578816
604.049	0.930987
607.424	0.727599
610.799	0.365809
614.174	1.06359
617.548	1.20119
620.923	0.652631
624.298	0.767285
627.673	0.92666
631.048	0.790278
634.423	0.837438
637.797	0.679335
641.172	0.698934
644.547	1.00532
647.922	1.08769
651.297	0.721079
654.671	0.876755
658.046	0.818112
661.421	1.06504
664.796	0.6771
668.171	0.922231
671.545	0.775726
674.92	0.285164
678.295	0.525806
681.67	0.730317
685.045	0.207931
688.42	0.497824
691.794	1.12328
695.169	0.680929
698.544	0.471132
701.919	0.685301
705.294	0.521616
708.668	0.428833
712.043	0.770877
715.418	0.6472
718.793	0.56228
722.168	0.620265
725.543	0.426572
728.917	0.877439
732.292	0.779642
735.667	0.715198
739.042	0.304746
742.417	0.482227
745.791	0.388013
749.166	1.31139
752.541	0.316293
755.916	0.256437
759.291	0.795587
762.665	0.416946
766.04	0.784471
769.415	0.506015
772.79	0.534642
776.165	0.424637
779.54	0.432843
782.914	0.437144
786.289	0.603806
789.664	0.450144
793.039	0.0425977
796.414	0.589225
799.788	0.952691
803.163	0.320463
806.538	0.669692
809.913	0.732473
813.288	1.15069
816.663	0.0341277
820.037	0.0406167
823.412	0.694758
826.787	0.539245
830.162	1.13186
833.537	0.91634
836.912	0.512843
840.286	0.880554
843.661	0.482277
847.036	0.469872
850.411	0.353871
853.786	0.599977
857.16	0.698334
860.535	0.584532
863.91	0.432179
867.285	0.125206
870.66	0.151524
874.034	0.0298391
877.409	0.249861
880.784	0.72742
884.159	0.405329
887.534	0.74692
890.909	0.74438
894.283	0.37286
897.658	0.639837
901.033	0.965334
904.408	0.737759
907.783	0.415758
911.158	0.074295
914.532	0.0227223
917.907	0.423345
921.282	0.359481
924.657	0.35143
928.032	0.335545
931.406	0.211385
934.781	0.213079
938.156	0.461012
941.531	0.128186
944.906	0.0921966
948.28	0.539958
951.655	0.791921
955.03	0.703964
958.405	0.53664
961.78	0.698099
965.154	0.0906522
968.529	0.14263
971.904	0.133904
975.279	0.368916
978.654	0.667146
982.029	0.14376
985.403	0.308899
988.778	0.40468
992.153	0.00203099
995.528	0.845144
998.903	0.135081
1002.28	0.675764
1005.65	0.363131
1009.03	0.30637
1012.4	0.463799
1015.78	0.209666
1019.15	0.634345
1022.53	-0.0512508
1025.9	0.700915
1029.28	0.297092
1032.65	0.680441
1036.03	0.0415896
1039.4	0.22092
1042.78	0.43073
1046.15	0.146461
1049.53	0.780797
1052.9	0.602721
1056.28	0.269612
1059.65	0.204047
1063.02	0.417084
1066.4	0.501483
1069.77	0.842462
1073.15	0.831222
1076.52	0.438666
1079.9	0.100218
1083.27	0.36602
1086.65	0.448115
1090.02	0.266585
1093.4	0.152506
1096.77	0.479841
1100.15	0.45608
1103.52	0.282495
1106.9	-0.0258945
1110.27	-0.158109
1113.65	0.423403
1117.02	0.0432932
1120.4	0.673951
1123.77	0.350372
1127.15	0.63726
1130.52	0.0418145
1133.89	0.798702
1137.27	0.450432
1140.64	0.40132
1144.02	0.310623
1147.39	0.463726
1150.77	0.34365
1154.14	0.229434
1157.52	0.286373
1160.89	0.573799
1164.27	0.176238
1167.64	0.669281
1171.02	0.230493
1174.39	0.177753
1177.77	0.583037
1181.14	-0.318173
1184.52	0.520363
1187.89	0.294256
1191.27	0.646713
1194.64	0.291859
1198.02	0.491435
1201.39	0.158078
1204.77	0.655047
1208.14	0.124674
1211.52	0.286234
1214.89	0.075162
1218.27	0.731935
1221.64	1.03437
1225.02	0.0591583
1228.39	0.199851
1231.77	0.100455
1235.14	0.136175
1238.52	0.176682
1241.89	0.955764
1245.26	0.342549
1248.64	0.224475
1252.01	-0.0774863
1255.39	0.509359
1258.76	0.16949
1262.14	-0.117941
1265.51	0.309193
1268.89	0.43317
1272.26	0.515837
1275.64	0.385804
1279.01	-0.0898812
1282.39	0.360571
1285.76	0.473702
