Measurement: Raman, 780 nm, unoriented, Raman Data RAW
Mineral: Tetrahedrite-(Zn)
Rruff sample: R100204
Ideal chemistry: Cu^1+^_6_(Cu^1+^_4_Zn^2+^_2_)Sb^3+^_4_S^2-^_13_
Locality: Level 390, Vein 14, Mina Herminia, Julcani District, Huancavelica, Peru
Source: William W Pinch
Description: Metallic gray massive, associated with gustavite, R100203
Raman shift (cm-1)	intensity
184.618	22.6639
187.511	22.7106
190.404	23.7343
193.296	23.9946
196.189	24.1136
199.082	25.5286
201.974	25.6446
204.867	26.9417
207.76	29.2344
210.652	28.0806
213.545	30.4086
216.438	31.4878
219.331	34.4824
222.223	36.5289
225.116	37.7514
228.009	41.4466
230.901	43.1442
233.794	45.259
236.687	47.6663
239.579	48.5875
242.472	49.539
245.365	49.6033
248.257	50.4117
251.15	49.9174
254.043	51.1051
256.936	53.8439
259.828	56.3102
262.721	59.8946
265.614	65.1526
268.506	70.2364
271.399	77.601
274.292	84.2684
277.185	91.5914
280.077	97.6113
282.97	101.371
285.863	103.454
288.755	107.67
291.648	109.095
294.541	111.723
297.433	114.055
300.326	118.557
303.219	123.369
306.111	125.643
309.004	128.946
311.897	129.32
314.79	131.101
317.682	132.329
320.575	135.23
323.468	143.162
326.36	160.178
329.253	188.446
332.146	224.745
335.038	261.373
337.931	301.133
340.824	347.961
343.717	383.585
346.609	389.43
349.502	373.613
352.395	338.311
355.287	298.206
358.18	257.286
361.073	207.02
363.965	149.35
366.858	105.329
369.751	75.5826
372.644	58.4547
375.536	43.9277
378.429	34.1531
381.322	25.2326
384.214	20.7035
387.107	16.9039
390	14.6932
392.892	14.38
395.785	13.08
398.678	12.6617
401.57	11.9722
404.463	11.8345
407.356	11.5585
410.249	10.5176
413.141	10.6752
416.034	9.42125
418.927	10.7986
421.819	9.90314
424.712	9.26135
427.605	8.82644
430.498	9.38593
433.39	8.64652
436.283	8.51229
439.176	8.98015
442.068	8.1048
444.961	8.40568
447.854	8.26326
450.746	8.25881
453.639	7.62457
456.532	8.09258
459.425	7.52835
462.317	7.35892
465.21	7.0248
468.103	6.98161
470.995	7.3489
473.888	6.78192
476.781	6.04524
479.673	6.67461
482.566	6.53697
485.459	6.4561
488.351	6.21509
491.244	6.04651
494.137	6.1278
497.029	6.28042
499.922	5.69766
502.815	5.73184
505.708	5.47218
508.6	5.74862
511.493	5.71471
514.386	5.93527
517.278	5.13281
520.171	5.26809
523.064	5.87893
525.957	5.82796
528.849	5.48417
531.742	6.22492
534.635	5.92137
537.527	5.62031
540.42	5.72743
543.313	5.88522
546.205	6.04165
549.098	5.7362
551.991	6.11549
554.884	5.69408
557.776	5.82062
560.669	5.73986
563.562	6.1095
566.454	6.04783
569.347	5.69846
572.24	5.59846
575.132	6.11738
578.025	6.02197
580.918	6.17154
583.811	5.83331
586.703	6.08529
589.596	6.78158
592.489	5.96456
595.381	6.78119
598.274	6.0209
601.167	5.89481
604.059	6.29765
606.952	6.57514
609.845	6.50493
612.737	6.18681
615.63	5.75827
618.523	6.8053
621.416	5.96662
624.308	6.4509
627.201	6.47349
630.094	6.81906
632.986	5.85266
635.879	6.65563
638.772	6.37148
641.664	6.44501
644.557	6.37278
647.45	6.88383
650.342	6.5333
653.235	6.77307
656.128	6.61049
659.021	6.13109
661.913	6.56204
664.806	6.01863
667.699	5.90319
670.591	6.32314
673.484	6.5014
676.377	6.07664
679.269	6.01837
682.162	5.84482
685.055	6.2837
687.948	6.22714
690.84	6.10408
693.733	5.68444
696.626	5.87674
699.518	5.69426
702.411	5.39527
705.304	5.44953
708.197	5.34934
711.089	5.9441
713.982	5.41873
716.875	5.11219
719.767	4.59422
722.66	5.19912
725.553	4.63816
728.445	4.65872
731.338	4.30986
734.231	3.98912
737.124	3.92908
740.016	3.61006
742.909	4.07925
745.802	3.84734
748.694	4.03796
751.587	4.22059
754.48	3.94633
757.372	4.00664
760.265	3.52276
763.158	3.83731
766.051	3.55422
768.943	3.54252
771.836	3.82471
774.729	3.67456
777.621	3.30899
780.514	4.06275
783.407	3.57664
786.299	4.13446
789.192	4.03046
792.085	3.39965
794.977	3.5412
797.87	3.93588
800.763	3.5577
803.655	3.69961
806.548	3.59698
809.441	4.25976
812.334	3.81692
815.226	3.71558
818.119	3.99262
821.012	3.71943
823.904	3.54187
826.797	3.85743
829.69	3.16202
832.582	4.25177
835.475	4.29928
838.368	3.50597
841.261	3.73576
844.153	3.69521
847.046	3.95485
849.939	3.91831
852.831	4.21381
855.724	4.14671
858.617	3.89075
861.51	3.46148
864.402	3.67753
867.295	3.55314
870.188	4.0072
873.08	3.99968
875.973	3.67506
878.866	3.97665
881.758	3.73029
884.651	3.86622
887.544	3.75736
890.437	3.50966
893.329	3.41604
896.222	3.53798
899.115	3.65496
902.007	3.36908
904.9	3.31179
907.793	3.31112
910.685	3.23483
913.578	3.12031
916.471	3.50108
919.364	3.62624
922.256	3.4787
925.149	3.80371
928.042	3.75844
930.934	4.04615
933.827	3.40444
936.72	3.51194
939.612	3.32153
942.505	3.84954
945.398	3.34612
948.29	4.00476
951.183	3.94892
954.076	3.80576
956.968	3.51431
959.861	3.52477
962.754	3.36567
965.647	3.06539
968.539	3.40497
971.432	3.20474
974.325	3.81479
977.217	3.60425
980.11	3.06168
983.003	3.44965
985.895	3.75352
988.788	3.4989
991.681	3.45783
994.574	3.64368
997.466	3.55703
1000.36	3.36967
1003.25	3.28555
1006.14	3.07971
1009.04	3.54578
1011.93	3.09652
1014.82	3.66396
1017.72	3.63208
1020.61	4.03185
1023.5	3.49463
1026.39	4.06863
1029.29	3.90534
1032.18	3.18226
1035.07	3.7503
1037.96	3.58834
1040.86	2.80553
1043.75	3.3457
1046.64	3.27343
1049.54	3.59283
1052.43	3.21116
1055.32	3.368
1058.21	3.36531
1061.11	3.30711
1064	2.98135
1066.89	3.63578
1069.78	3.46818
1072.68	3.62658
1075.57	3.70347
1078.46	3.65057
1081.35	3.85158
1084.25	3.37935
1087.14	3.55419
1090.03	3.53165
1092.92	3.19788
1095.82	3.43199
1098.71	3.62976
1101.6	3.49219
1104.5	3.46393
1107.39	3.15402
1110.28	3.39336
1113.17	3.1842
1116.07	3.44209
1118.96	3.38041
1121.85	3.32625
1124.74	3.3182
1127.64	3.42611
1130.53	3.6168
1133.42	3.17071
1136.32	3.25772
1139.21	3.47287
1142.1	3.68457
1144.99	3.44056
1147.89	3.33261
1150.78	3.39813
1153.67	3.24134
1156.57	3.41348
1159.46	3.18629
1162.35	4.11033
1165.24	3.6178
1168.13	3.68607
1171.03	3.50567
1173.92	3.12046
1176.81	3.62701
1179.71	3.82163
1182.6	3.76506
1185.49	3.58007
1188.38	3.9181
1191.28	3.37641
1194.17	3.21019
1197.06	3.69517
1199.95	3.53558
1202.85	3.60281
1205.74	3.81494
1208.63	3.33124
1211.53	3.5987
1214.42	3.78448
1217.31	3.52926
1220.2	3.59341
1223.1	5.2428
1225.99	4.2664
1228.88	3.32754
1231.78	3.06792
1234.67	3.60081
1237.56	3.48803
1240.45	3.2413
1243.35	3.46468
1246.24	3.92905
1249.13	3.84595
1252.02	3.50172
1254.92	3.34216
1257.81	3.46551
1260.7	3.15138
1263.59	3.41778
1266.49	3.56928
1269.38	4.0093
1272.27	3.87612
1275.16	3.51665
1278.06	3.8881
1280.95	3.98588
1283.84	3.97886
