Measurement: Raman, 780 nm, unoriented, Raman Data RAW
Mineral: Tetrahedrite-(Zn)
Rruff sample: R050302
Ideal chemistry: Cu^1+^_6_(Cu^1+^_4_Zn^2+^_2_)Sb^3+^_4_S^2-^_13_
Locality: Casapalca, Peru
Source: Eugene Schlepp
Description: Black tetrahedra associated with quartz and pyrite
Measured chemistry: (Cu_10.02_Zn_1.76_Fe_0.22_)_Σ=12_(Sb_2.42_As_1.58_)_Σ=4_S_13.00_
Raman shift (cm-1)	intensity
145.074	16.5722
147.967	15.4667
150.859	13.7556
153.752	14.6873
156.645	13.2089
159.538	14.5403
162.43	13.5988
165.323	12.9184
168.216	13.7737
171.108	13.9567
174.001	12.7329
176.894	12.2591
179.786	12.5753
182.679	11.3349
185.572	10.4606
188.465	9.45745
191.357	10.2625
194.25	10.0633
197.143	9.00131
200.035	9.9444
202.928	9.7095
205.821	10.0952
208.714	9.87504
211.606	10.7831
214.499	9.85224
217.392	10.9672
220.284	11.3483
223.177	12.9693
226.07	12.4279
228.962	13.8173
231.855	14.7324
234.748	15.4167
237.641	15.4549
240.533	16.7504
243.426	17.5956
246.319	16.5677
249.211	18.5087
252.104	19.7839
254.997	17.4164
257.889	18.0629
260.782	17.7023
263.675	17.4327
266.567	18.7538
269.46	19.4443
272.353	20.1258
275.246	22.2586
278.138	23.736
281.031	27.9176
283.924	29.246
286.816	32.0287
289.709	33.9703
292.602	36.0616
295.495	38.0577
298.387	37.5591
301.28	39.5199
304.173	39.6671
307.065	39.7963
309.958	40.5215
312.851	43.2003
315.743	45.0258
318.636	47.7595
321.529	49.7051
324.421	53.6404
327.314	54.7512
330.207	57.5139
333.1	60.0587
335.992	66.4612
338.885	73.8155
341.778	81.937
344.67	90.8507
347.563	100.767
350.456	115.764
353.349	125.981
356.241	129.162
359.134	126.739
362.027	117.964
364.919	109.512
367.812	102.299
370.705	89.4634
373.597	76.5955
376.49	70.388
379.383	61.4005
382.276	48.4442
385.168	30.237
388.061	18.2679
390.954	12.501
393.846	9.34285
396.739	7.86331
399.632	5.32255
402.524	5.69564
405.417	5.05306
408.31	4.05064
411.202	4.06786
414.095	4.58641
416.988	3.93364
419.881	3.20839
422.773	4.75795
425.666	3.21856
428.559	3.33054
431.451	3.31733
434.344	3.44196
437.237	3.10091
440.13	2.41165
443.022	2.82034
445.915	2.7644
448.808	2.69236
451.7	2.23299
454.593	3.046
457.486	3.02791
460.378	3.26914
463.271	3.16486
466.164	3.13334
469.057	1.93973
471.949	2.42568
474.842	2.57769
477.735	1.95922
480.627	1.4911
483.52	2.61903
486.413	1.42989
489.305	2.17375
492.198	2.09916
495.091	1.71256
497.983	1.91031
500.876	1.76244
503.769	1.25666
506.662	1.54713
509.554	2.0162
512.447	1.85843
515.34	1.54119
518.232	2.22688
521.125	1.8961
524.018	1.96785
526.91	1.32435
529.803	1.76832
532.696	1.4357
535.589	1.53726
538.481	1.63177
541.374	1.45683
544.267	1.55472
547.159	1.13819
550.052	1.27935
552.945	1.44069
555.837	1.10051
558.73	1.50577
561.623	2.36944
564.516	1.24121
567.408	1.63695
570.301	1.34304
573.194	2.14011
576.086	1.8781
578.979	1.57189
581.872	2.17191
584.764	1.68254
587.657	1.33177
590.55	1.23686
593.443	1.63754
596.335	1.44181
599.228	2.20251
602.121	1.84136
605.013	1.45989
607.906	1.19867
610.799	1.86577
613.692	1.69661
616.584	0.808277
619.477	1.73442
622.37	1.76283
625.262	1.54502
628.155	1.64697
631.048	1.9865
633.94	1.64559
636.833	1.42556
639.726	1.58675
642.619	2.34578
645.511	1.90429
648.404	1.9488
651.297	1.70383
654.189	1.89713
657.082	1.92175
659.975	2.1668
662.867	1.10991
665.76	1.64494
668.653	1.89703
671.545	1.46273
674.438	1.41495
677.331	1.98786
680.224	2.06029
683.116	1.68497
686.009	1.41767
688.902	1.98161
691.794	1.2212
694.687	1.85015
697.58	1.44979
700.472	1.22028
703.365	1.86074
706.258	1.96765
709.151	1.56238
712.043	1.70792
714.936	1.08885
717.829	0.811047
720.721	1.22195
723.614	1.5115
726.507	1.6241
729.399	1.36318
732.292	1.54639
735.185	1.07794
738.078	0.965331
740.97	1.40288
743.863	0.711683
746.756	1.51472
749.648	1.22637
752.541	1.3217
755.434	1.28816
758.327	1.15703
761.219	0.79657
764.112	1.06517
767.005	1.11522
769.897	0.290979
772.79	0.937949
775.683	0.558711
778.575	1.55752
781.468	0.803562
784.361	1.03283
787.254	0.991108
790.146	0.639623
793.039	0.880055
795.932	1.474
798.824	0.771865
801.717	1.33567
804.61	1.02378
807.502	1.26668
810.395	0.144527
813.288	0.555245
816.181	1.08091
819.073	0.984932
821.966	0.470897
824.859	0.527091
827.751	0.706954
830.644	1.13474
833.537	1.17967
836.429	1.73808
839.322	0.188115
842.215	0.405721
845.107	1.10623
848	0.774807
850.893	0.160155
853.786	0.654852
856.678	1.20971
859.571	0.461501
862.464	0.977407
865.356	1.08427
868.249	0.654462
871.142	0.490803
874.034	0.413612
876.927	-0.0581312
879.82	0.644423
882.713	0.681805
885.605	1.10316
888.498	1.08989
891.391	1.02049
894.283	0.862843
897.176	0.440196
900.069	1.11485
902.962	0.547782
905.854	0.652659
908.747	0.749464
911.64	0.390605
914.532	0.650401
917.425	0.984088
920.318	1.09019
923.21	0.714389
926.103	0.655667
928.996	1.03549
931.888	0.949341
934.781	0.738644
937.674	0.954509
940.567	1.19887
943.459	0.0167454
946.352	0.53905
949.245	0.255591
952.137	0.728815
955.03	1.39148
957.923	1.51903
960.815	-0.0638891
963.708	1.01355
966.601	0.749599
969.494	1.1804
972.386	1.24974
975.279	0.197813
978.172	0.636204
981.064	0.340206
983.957	1.06227
986.85	0.185917
989.742	0.472736
992.635	0.496979
995.528	0.689544
998.42	0.656379
1001.31	0.0438053
1004.21	0.519125
1007.1	0.610052
1009.99	0.731124
1012.88	0.336633
1015.78	1.1264
1018.67	1.06247
1021.56	1.04867
1024.45	0.792812
1027.35	0.741202
1030.24	0.75113
1033.13	0.133803
1036.03	0.425914
1038.92	0.939739
1041.81	0.337328
1044.7	0.549636
1047.6	0.482614
1050.49	1.07819
1053.38	0.939891
1056.28	0.69996
1059.17	0.580487
1062.06	0.838776
1064.95	0.784984
1067.85	0.613611
1070.74	0.724738
1073.63	0.345154
1076.52	0.77469
1079.42	1.35587
1082.31	0.339849
1085.2	0.632011
1088.09	0.465607
1090.99	0.380881
1093.88	0.487129
1096.77	0.788034
1099.66	0.565375
1102.56	0.424868
1105.45	0.668565
1108.34	1.31393
1111.24	0.567463
1114.13	-0.139625
1117.02	0.7287
1119.91	0.456741
1122.81	1.1834
1125.7	0.428141
1128.59	0.400349
1131.48	0.677619
1134.38	0.805469
1137.27	0.0138496
1140.16	0.0882428
1143.06	0.259923
1145.95	0.920558
1148.84	0.341545
1151.73	0.24315
1154.63	0.109929
1157.52	0.529657
1160.41	0.452722
1163.3	0.460855
1166.2	0.597911
1169.09	1.09021
1171.98	0.267904
1174.88	0.786943
1177.77	0.399394
1180.66	1.16312
1183.55	0.482434
1186.45	0.766653
1189.34	1.38628
1192.23	0.799552
1195.12	0.765078
1198.02	0.986674
1200.91	1.0663
1203.8	0.701154
1206.69	0.795338
1209.59	0.756857
1212.48	0.816366
1215.37	1.04036
1218.27	0.513058
1221.16	0.0230575
1224.05	0.421853
1226.94	0.961569
1229.84	0.301677
1232.73	0.829716
1235.62	0.907761
1238.52	0.214942
1241.41	0.837236
1244.3	0.336216
1247.19	0.380887
1250.09	0.686002
1252.98	0.809469
1255.87	0.66589
1258.76	0.996804
1261.66	1.0076
1264.55	1.24252
1267.44	0.860456
1270.33	0.111063
1273.23	0.216304
1276.12	1.15806
1279.01	0.659886
1281.9	0.481418
1284.8	0.623844
