Measurement: Raman, 532 nm, unoriented, Raman Data Processed
Mineral: Thometzekite
Rruff sample: R060394
Ideal chemistry: Pb^2+^Cu^2+^_2_(As^5+^O_4_)_2_2H_2_O
Locality: Gold Hill, Tooele County, Utah, USA
Source: Michael Scott
Description: Groups of green grains
Raman shift (cm-1)	intensity
88.1367	0
91.5115	10.8112
94.8863	14.9224
98.2612	2.88254
101.636	1.03738
105.011	12.5865
108.386	46.8304
111.76	55.9376
115.135	95.2665
118.51	141.338
121.885	179.494
125.26	247.859
128.635	324.047
132.009	417.69
135.384	487.516
138.759	544.246
142.134	570.854
145.509	580.122
148.883	582.966
152.258	564.287
155.633	482.733
159.008	362.916
162.383	265.533
165.757	206.627
169.132	174.118
172.507	155.84
175.882	156.469
179.257	181.653
182.632	161.314
186.006	123.212
189.381	99.2778
192.756	94.133
196.131	111.745
199.506	130.54
202.881	147.751
206.255	153.498
209.63	150.503
213.005	135.932
216.38	115.416
219.755	91.923
223.129	80.4086
226.504	74.9867
229.879	70.3003
233.254	69.6993
236.629	54.9573
240.004	36.5245
243.378	20.3311
246.753	10.3366
250.128	4.42673
253.503	3.81522
256.878	14.2162
260.252	13.8404
263.627	6.16379
267.002	1.73557
270.377	9.9083
273.752	19.6193
277.127	20.1589
280.501	18.8786
283.876	21.6251
287.251	34.7055
290.626	50.9836
294.001	64.5042
297.375	72.4677
300.75	84.1492
304.125	104.98
307.5	120.706
310.875	137.477
314.25	147.148
317.624	152.679
320.999	169.535
324.374	200.811
327.749	251.339
331.124	316.697
334.498	396.057
337.873	483.702
341.248	558.351
344.623	607.774
347.998	609.757
351.373	553.109
354.747	446.268
358.122	342.556
361.497	240.88
364.872	157.192
368.247	86.1235
371.621	33.4083
374.996	5.48621
378.371	8.31598
381.746	11.822
385.121	10.9843
388.495	3.39856
391.87	13.3084
395.245	43.8482
398.62	76.4981
401.995	109.126
405.37	127.226
408.744	141.1
412.119	146.052
415.494	145.535
418.869	138.148
422.244	130.308
425.618	116.644
428.993	98.1899
432.368	77.1876
435.743	56.8008
439.118	39.1989
442.493	29.1254
445.867	34.5907
449.242	46.3336
452.617	60.9424
455.992	85.6039
459.367	118.147
462.741	158.451
466.116	197.81
469.491	246.874
472.866	298.438
476.241	353.245
479.615	417.94
482.99	506.977
486.365	611.92
489.74	749.481
493.115	891.9
496.49	1007.08
499.864	1021.05
503.239	901.739
506.614	678.621
509.989	462.54
513.364	292.364
516.739	181.163
520.113	109.981
523.488	64.9816
526.863	35.8407
530.238	16.1704
533.613	1.61185
536.987	4.5239
540.362	6.28062
543.737	7.00197
547.112	6.27699
550.487	1.94749
553.861	2.00609
557.236	5.38702
560.611	9.6512
563.986	12.8386
567.361	18.321
570.736	22.2598
574.11	26.7879
577.485	29.9358
580.86	34.5505
584.235	40.9336
587.61	44.079
590.985	49.2184
594.359	53.6579
597.734	57.3004
601.109	58.3321
604.484	58.4995
607.859	60.3915
611.233	62.8328
614.608	65.7786
617.983	67.6687
621.358	69.3503
624.733	70.8896
628.107	71.8091
631.482	73.7342
634.857	74.8028
638.232	75.3183
641.607	78.4466
644.982	81.2039
648.356	84.8379
651.731	86.4508
655.106	88.0411
658.481	85.1605
661.856	81.3193
665.231	74.4284
668.605	70.5376
671.98	64.467
675.355	57.7918
678.73	48.8586
682.105	42.3008
685.479	35.5444
688.854	26.3
692.229	18.303
695.604	11.4161
698.979	3.19464
702.354	4.90759
705.728	9.57221
709.103	8.89475
712.478	10.7265
715.853	7.14267
719.227	5.3602
722.602	2.30875
725.977	4.0166
729.352	7.94428
732.727	8.76611
736.102	7.02963
739.476	5.0036
742.851	12.0458
746.226	43.6396
749.601	94.2099
752.976	146.364
756.351	200.697
759.725	224.864
763.1	217.187
766.475	186.655
769.85	146.559
773.225	110.311
776.599	93.7381
779.974	100.83
783.349	140.667
786.724	211.798
790.099	325.981
793.473	474.996
796.848	647.452
800.223	775.591
803.598	825.103
806.973	866.877
810.348	888.067
813.722	868.492
817.097	857.216
820.472	911.907
823.847	1055.28
827.222	1255.83
830.597	1464.52
833.971	1585.29
837.346	1584.19
840.721	1471.19
844.096	1289.59
847.471	1091.12
850.846	922.995
854.22	799.559
857.595	709.058
860.97	644.19
864.345	595.379
867.72	536.187
871.094	452.785
874.469	362.985
877.844	284.63
881.219	225.493
884.594	186.5
887.968	152.106
891.343	119.274
894.718	79.7823
898.093	38.9793
901.468	8.62634
904.842	8.67969
908.217	18.6941
911.592	22.8872
914.967	24.4373
918.342	16.7806
921.717	8.69559
925.091	0.35231
928.466	10.1777
931.841	20.5923
935.216	29.6026
938.591	38.178
941.966	44.4954
945.34	51.6996
948.715	59.7088
952.09	66.2212
955.465	72.9433
958.84	81.7015
962.214	88.689
965.589	93.4332
968.964	92.5546
972.339	88.9202
975.714	84.6881
979.088	78.4069
982.463	69.0983
985.838	62.3962
989.213	57.943
992.588	53.5656
995.963	50.7084
999.337	48.0506
1002.71	44.6272
1006.09	41.2296
1009.46	39.6014
1012.84	36.4805
1016.21	31.6386
1019.59	28.1358
1022.96	26.1633
1026.34	22.5779
1029.71	20.5439
1033.09	19.4048
1036.46	17.6723
1039.84	15.0104
1043.21	13.9625
1046.59	11.7191
1049.96	11.0686
1053.33	9.19074
1056.71	7.91251
1060.08	5.6804
1063.46	5.45783
1066.83	3.69379
1070.21	4.11265
1073.58	3.40593
1076.96	2.66739
1080.33	1.34842
1083.71	1.29186
1087.08	1.00645
1090.46	0.294113
1093.83	0.266945
1097.21	0.357178
1100.58	0.499878
1103.96	0.030899
1107.33	0.402779
1110.71	0.828423
1114.08	0.155518
1117.46	0.135345
1120.83	1.10111
1124.21	1.16457
1127.58	0.720757
1130.95	1.47737
1134.33	0.020691
1137.7	0.120285
1141.08	0.021919
1144.45	0.249702
1147.83	0.205864
1151.2	0.685333
1154.58	0.091522
1157.95	0.835213
1161.33	0.912239
1164.7	0.881538
1168.08	1.45956
1171.45	1.54554
1174.83	1.78443
1178.2	1.16371
1181.58	2.47818
1184.95	2.39626
1188.33	2.32465
1191.7	2.29994
1195.08	2.18945
1198.45	2.10378
1201.83	2.34392
1205.2	1.94867
1208.58	1.8408
1211.95	1.73897
1215.33	1.53226
1218.7	1.40389
1222.08	1.67104
1225.45	1.77908
1228.83	1.27256
1232.2	0.468346
1235.58	1.22378
1238.95	1.01382
1242.32	1.50453
1245.7	1.53269
1249.07	1.08418
1252.45	1.80827
1255.82	1.49124
1259.2	0.687248
1262.57	0.95018
1265.95	1.05154
1269.32	0.703957
1272.7	1.12769
1276.07	0.490509
1279.45	1.71726
1282.82	1.23224
1286.2	1.35355
1289.57	1.14834
1292.95	1.43568
1296.32	0.139809
1299.7	1.29189
