Measurement: Raman, 780 nm, unoriented, Raman Data Processed
Mineral: Thometzekite
Rruff sample: R060394
Ideal chemistry: Pb^2+^Cu^2+^_2_(As^5+^O_4_)_2_2H_2_O
Locality: Gold Hill, Tooele County, Utah, USA
Source: Michael Scott
Description: Groups of green grains
Raman shift (cm-1)	intensity
118.438	0
121.812	8.27341
125.187	12.2911
128.562	23.0958
131.937	27.7443
135.312	37.8447
138.686	45.2078
142.061	48.0553
145.436	53.9729
148.811	53.3869
152.186	48.8845
155.56	33.7826
158.935	19.7695
162.31	11.8431
165.685	3.47545
169.06	1.4304
172.435	2.54317
175.809	0.85997
179.184	0.608612
182.559	0.746796
185.934	0.149857
189.309	1.46233
192.684	4.54027
196.058	6.37976
199.433	7.99593
202.808	9.89973
206.183	10.7625
209.558	10.0064
212.932	10.4413
216.307	9.50799
219.682	10.0287
223.057	10.7722
226.432	10.9241
229.806	11.223
233.181	12.1079
236.556	9.564
239.931	8.33662
243.306	6.19741
246.681	5.35881
250.055	3.77363
253.43	2.65187
256.805	1.91627
260.18	2.6052
263.555	1.69605
266.93	1.21973
270.304	0.910164
273.679	0.084335
277.054	0.206261
280.429	1.15763
283.804	0.884872
287.178	2.75903
290.553	4.01778
293.928	5.76195
297.303	5.9618
300.678	6.8137
304.053	8.8269
307.427	11.2834
310.802	13.7489
314.177	16.7621
317.552	18.9445
320.927	23.0179
324.301	28.1323
327.676	34.7123
331.051	40.2015
334.426	49.0229
337.801	52.8027
341.175	56.0883
344.55	55.3353
347.925	49.2384
351.3	40.1393
354.675	30.0256
358.05	21.9972
361.424	14.3552
364.799	8.85733
368.174	3.63266
371.549	0.997063
374.924	0.439354
378.298	0.058617
381.673	0.642845
385.048	0.412415
388.423	2.32423
391.798	5.30506
395.173	7.74431
398.547	9.20985
401.922	10.3497
405.297	10.8225
408.672	9.5685
412.047	10.8008
415.421	8.59237
418.796	8.3551
422.171	6.87239
425.546	6.42868
428.921	4.17513
432.296	3.18892
435.67	2.8582
439.045	0.989708
442.42	0.61219
445.795	0.106468
449.17	2.70407
452.545	3.01832
455.919	4.64498
459.294	8.1977
462.669	9.66432
466.044	12.3829
469.419	14.6452
472.793	17.8295
476.168	21.0378
479.543	26.3844
482.918	30.8443
486.293	38.2954
489.668	45.0622
493.042	48.7339
496.417	48.1726
499.792	41.8845
503.167	32.6289
506.542	22.9366
509.916	15.6361
513.291	11.1119
516.666	6.74092
520.041	3.95806
523.416	2.56197
526.79	1.31854
530.165	0.093437
533.54	0.186836
536.915	0.102036
540.29	0.270973
543.665	0.367123
547.039	0.606091
550.414	0.692795
553.789	0.111225
557.164	0.213387
560.539	1.13665
563.913	1.18412
567.288	2.3414
570.663	2.11977
574.038	2.72502
577.413	3.72267
580.788	3.73255
584.162	3.53376
587.537	3.95322
590.912	4.15493
594.287	5.06771
597.662	4.734
601.037	4.96899
604.411	4.60336
607.786	5.30213
611.161	5.3401
614.536	5.52808
617.911	5.07537
621.285	5.53611
624.66	6.05185
628.035	5.43696
631.41	6.46313
634.785	6.62885
638.159	6.60722
641.534	6.18505
644.909	6.08289
648.284	6.09384
651.659	5.69777
655.034	4.63077
658.408	4.39986
661.783	3.29661
665.158	2.95924
668.533	2.4137
671.908	1.64712
675.283	1.72749
678.657	0.564411
682.032	0.546452
685.407	0.077404
688.782	0.172981
692.157	1.29175
695.531	0.635868
698.906	0.215141
702.281	0.377861
705.656	0.949612
709.031	1.73918
712.405	0.697281
715.78	3.07073
719.155	2.29685
722.53	1.98277
725.905	1.33292
729.279	0.746902
732.654	0.217911
736.029	0.121971
739.404	1.17704
742.779	2.67995
746.154	4.7931
749.528	5.95665
752.903	7.62046
756.278	7.97396
759.653	7.845
763.028	7.17191
766.403	4.57391
769.777	1.97692
773.152	0.223442
776.527	0.466797
779.902	0.609306
783.277	3.40112
786.652	6.73849
790.026	12.7994
793.401	20.3142
796.776	28.521
800.151	34.9303
803.526	39.5719
806.9	44.6269
810.275	50.4537
813.65	57.1101
817.025	66.5566
820.4	82.682
823.774	98.8637
827.149	116.759
830.524	128.957
833.899	132.952
837.274	128.912
840.649	119.168
844.023	105.402
847.398	94.0472
850.773	82.2883
854.148	73.2468
857.523	67.949
860.898	61.0421
864.272	53.5374
867.647	44.5851
871.022	36.0566
874.397	28.2364
877.771	23.078
881.146	16.8495
884.521	13.7008
887.896	9.57066
891.271	7.69653
894.646	3.7838
898.02	2.1965
901.395	0.086174
904.77	0.748142
908.145	2.00402
911.52	1.08373
914.894	0.840267
918.269	0.643551
921.644	0.03051
925.019	1.01078
928.394	1.27594
931.769	1.44484
935.143	2.77701
938.518	3.0095
941.893	3.71341
945.268	3.28942
948.643	4.2353
952.018	4.97857
955.392	5.53268
958.767	6.06156
962.142	5.90777
965.517	6.37246
968.892	6.15056
972.266	5.80293
975.641	5.29256
979.016	5.52466
982.391	4.31172
985.766	4.4364
989.141	3.54992
992.515	3.54371
995.89	3.21066
999.265	3.1926
1002.64	2.93361
1006.01	2.96409
1009.39	2.7357
1012.76	2.44683
1016.14	2.05104
1019.51	2.35054
1022.89	2.00209
1026.26	2.11186
1029.64	2.01668
1033.01	2.2236
1036.39	1.48781
1039.76	1.15417
1043.14	1.21415
1046.51	0.933376
1049.89	1.42358
1053.26	1.19299
1056.64	1.00066
1060.01	1.42321
1063.39	0.713861
1066.76	0.561716
1070.14	0.335983
1073.51	0.181976
1076.89	0.343513
1080.26	0.525038
1083.63	0.259748
1087.01	0.201633
1090.38	0.872108
1093.76	0.415873
1097.13	0.351734
1100.51	0.462461
1103.88	0.072311
1107.26	0.114475
1110.63	0.104927
1114.01	0.056704
1117.38	0.250011
1120.76	0.12042
1124.13	0.072947
1127.51	0.180279
1130.88	0.06987
1134.26	0.401382
1137.63	0.63578
1141.01	0.711592
1144.38	0.066879
1147.76	0.337172
1151.13	0.120567
1154.51	0.576437
1157.88	0.19804
1161.26	0.504915
1164.63	0.652784
1168.01	0.09631
1171.38	0.524315
1174.76	0.587141
1178.13	0.654751
1181.51	0.399584
1184.88	0.69256
1188.26	0.405775
1191.63	0.361942
1195	0.912922
1198.38	0.518116
1201.75	0.641994
1205.13	0.620537
1208.5	0.693817
1211.88	1.16122
1215.25	0.32251
1218.63	0.619959
1222	0.291611
1225.38	0.859304
1228.75	0.497557
1232.13	0.08251
1235.5	0.057917
1238.88	0.810555
1242.25	0.14366
1245.63	0.538481
1249	0.525265
1252.38	0.433002
1255.75	0.655798
1259.13	0.239832
1262.5	0.822506
1265.88	0.178534
1269.25	0.326591
1272.62	0.102993
1276	0.284979
1279.38	0.312626
