Measurement: Raman, 532 nm, unoriented, Raman Data Processed
Mineral: Tinticite
Rruff sample: R190028
Ideal chemistry: Fe^3+^_3_(PO_4_)_2_(OH)_3_3H_2_O
Locality: Rocabruna mines, Bruguers, Gavà, Baix Llobregat, Barcelona, Catalonia, Spain
Source: Joan Rosell, Jordi Ibáñez (CSIC-ITJA), Tariq Jawhari (CCiTUB)
Description: White, fine-grained spherical aggregate
Measured chemistry: (Fe^3+^_4.61_Al_0.45_)(P_0.97_V_0.03_O_4_)_4_(OH)_3_·4.8H_2_O
Raman shift (cm-1)	intensity
99.7267	0
105.246	8.36221
110.762	6.16052
116.275	3.40122
121.782	4.00534
127.288	16.4596
132.791	13.3093
138.289	3.12551
143.785	0.941174
149.276	0.469971
154.766	7.85006
160.251	15.9464
165.734	25.2123
171.213	17.9288
176.688	8.14714
182.159	6.57798
187.628	7.62165
193.093	6.07597
198.555	5.9118
204.014	8.0677
209.47	9.59323
214.922	10.8654
220.37	9.4344
225.816	6.80875
231.259	3.65726
236.696	3.66542
242.133	8.52825
247.564	13.3754
252.992	11.5764
258.419	11.8307
263.841	12.1274
269.259	6.42643
274.675	2.2786
280.087	0.161594
285.496	1.29933
290.902	0.96657
296.305	0.255074
301.704	2.17205
307.101	2.62517
312.494	3.91885
317.882	5.17873
323.269	10.1166
328.651	15.5663
334.032	20.0068
339.407	23.6052
344.782	26.903
350.151	28.3049
355.517	24.5299
360.88	15.097
366.24	10.1789
371.597	6.80807
376.951	6.08848
382.301	6.2081
387.649	6.18783
392.993	6.87759
398.334	5.02731
403.67	4.13689
409.005	4.1646
414.335	4.89344
419.664	7.05096
424.988	12.1984
430.31	19.8794
435.628	27.4452
440.942	32.6566
446.254	30.8322
451.562	24.8012
456.867	18.6064
462.17	13.8634
467.469	11.8391
472.765	10.881
478.058	9.77914
483.348	9.64612
488.632	11.0383
493.916	9.3431
499.197	11.0018
504.473	10.5793
509.745	10.2413
515.017	10.9506
520.284	12.5231
525.547	12.6587
530.81	11.4808
536.067	10.7807
541.322	10.7657
546.573	11.3766
551.822	9.97742
557.065	8.77377
562.307	8.62612
567.547	11.0495
572.783	11.5903
578.014	7.08372
583.245	3.49127
588.47	3.21407
593.694	3.68297
598.914	3.81834
604.13	3.54014
609.343	4.09833
614.554	4.36289
619.763	5.24377
624.967	4.80106
630.169	4.08476
635.365	2.94486
640.561	2.95127
645.753	1.62384
650.943	0.652204
656.127	0.134096
661.311	0.46667
666.489	0.727127
671.667	0.56674
676.84	0.564962
682.01	0.401499
687.178	0.586295
692.342	0.369346
697.503	0.25006
702.661	0.418118
707.816	0.062308
712.968	0.059617
718.117	0.093128
723.262	0.201366
728.405	0.005132
733.545	0.286715
738.681	0.83373
743.815	0.886442
748.945	0.634969
754.074	1.51938
759.197	1.32989
764.318	1.43659
769.436	2.04956
774.551	1.91894
779.663	2.25481
784.773	2.42729
789.879	2.3365
794.983	2.39159
800.083	2.45455
805.181	2.70459
810.274	3.9118
815.366	4.21631
820.453	4.26802
825.539	5.25707
830.62	6.15357
835.699	6.91785
840.776	7.75911
845.849	8.18459
850.919	8.68685
855.986	8.56034
861.05	9.4072
866.111	9.84218
871.167	9.32247
876.223	8.78455
881.276	9.4851
886.323	8.6466
891.37	8.85717
896.413	10.1913
901.454	13.4614
906.491	17.8705
911.524	20.0244
916.557	18.6146
921.585	16.1904
926.61	13.7649
931.633	14.1725
936.652	14.9962
941.669	15.4382
946.681	14.7952
951.692	13.7423
956.7	12.4253
961.704	10.8304
966.706	9.48804
971.704	10.3786
976.701	12.2519
981.694	16.5269
986.683	22.2868
991.67	26.8383
996.654	28.352
1001.64	31.1831
1006.61	32.8014
1011.59	33.2655
1016.56	39.8695
1021.53	54.3725
1026.5	73.2463
1031.46	85.4573
1036.42	72.2617
1041.38	55.7756
1046.33	42.4647
1051.29	36.4774
1056.24	36.5515
1061.18	36.4218
1066.13	33.194
1071.07	28.0696
1076	23.9395
1080.94	21.458
1085.87	22.4
1090.8	25.4323
1095.73	33.5934
1100.65	43.0265
1105.57	45.9658
1110.49	43.0534
1115.4	37.3021
1120.31	28.3149
1125.22	18.3231
1130.13	12.0114
1135.03	8.17347
1139.93	5.81972
1144.83	4.4144
1149.72	3.38405
1154.61	2.44873
1159.5	1.53973
1164.39	1.52245
1169.27	0.985765
1174.15	0.731008
1179.03	0.379075
1183.9	0.261496
1188.78	0.311872
1193.64	0.012942
1198.51	0.065774
1203.37	0.397575
1208.23	0.183282
1213.09	0.075842
1217.95	0.15586
1222.8	0.33812
1227.65	0.134523
1232.49	0.019301
1237.34	0.046026
1242.18	0.093073
1247.02	0.244517
1251.85	0.126111
1256.68	0.078664
1261.51	6.6e-05
1266.34	0.071717
1271.17	0.127138
1275.99	0.253677
1280.8	0.224191
1285.62	0.005711
1290.43	0.036315
1295.24	0.212179
1300.05	0.040295
1304.85	0.04608
1309.66	0.078853
1314.46	0.004324
1319.25	0.076025
1324.04	0.016744
1328.83	0.386572
1333.62	0.085811
1338.41	0.234254
1343.19	0.162015
1347.97	0.289004
1352.75	0.18524
1357.52	0.240705
1362.29	0.325334
1367.06	0.229013
1371.83	0.281878
1376.59	0.443805
1381.35	0.244739
1386.11	0.454383
1390.86	0.35555
1395.61	0.368733
1400.36	0.323967
1405.11	0.233735
1409.85	0.188846
1414.59	0.597022
1419.33	0.303441
1424.07	0.230649
1428.8	0.564227
1433.53	0.331408
1438.26	0.569092
1442.98	0.45262
1447.71	0.690401
1452.42	0.426878
1457.14	0.813218
1461.85	0.70001
1466.57	1.17486
1471.27	0.900987
1475.98	0.82618
1480.68	0.985109
1485.38	0.761415
1490.08	0.921308
1494.78	0.624934
1499.47	0.617381
1504.16	0.978565
1508.85	1.11394
1513.53	1.03355
1518.21	0.709929
1522.89	0.721902
1527.57	1.1936
1532.24	1.04552
1536.91	1.01612
1541.58	1.18715
1546.25	0.869657
1550.91	1.1115
1555.57	1.33028
1560.23	1.14689
1564.88	1.43073
1569.53	1.52341
1574.18	1.40872
1578.83	1.65588
1583.47	1.24227
1588.12	1.33088
1592.75	1.58412
1597.39	1.46717
1602.03	1.73103
1606.66	1.71903
1611.28	1.56199
1615.91	1.87878
1620.53	1.6162
1625.15	1.75272
1629.77	1.46875
1634.39	1.7451
1639	1.38249
1643.61	1.56211
1648.22	1.52224
1652.82	1.65206
1657.42	1.48163
1662.02	1.45095
1666.62	1.27036
1671.22	1.27961
1675.81	1.1594
1680.4	1.13927
1684.98	1.22978
1689.57	0.750931
1694.15	0.763641
1698.73	0.717229
1703.3	0.421556
1707.88	0.586831
1712.45	0.332901
1717.02	0.319755
1721.58	0.387663
1726.14	0.356925
1730.7	0.467839
1735.26	0.150687
1739.82	0.134386
1744.37	0.10298
1748.92	0.103387
1753.47	0.002317
1758.02	0.236833
1762.56	0.1774
1767.1	0.100637
1771.63	0.103807
