Measurement: Raman, 633 nm, unoriented, Raman Data RAW
Mineral: Tistarite
Rruff sample: R170055
Ideal chemistry: Ti^3+^_2_O_3_
Locality: Pyroclastic and alluvial deposits near Mount Carmel, Israel
Source: Sarah Gain
Description: Microscopic inclusions in corundum, sample is from Griffin et al (2016)
Raman shift (cm-1)	intensity
100.009	252.774
103.063	252.802
106.115	246.508
109.165	249.325
112.215	251.464
115.261	252.091
118.305	253.686
121.348	255.628
124.39	257.875
127.429	259.364
130.465	263.723
133.5	262.921
136.534	263.542
139.565	268.075
142.594	273.592
145.621	276.131
148.648	273.607
151.671	272.22
154.692	277.152
157.712	271.398
160.73	272.246
163.746	275.296
166.761	279.714
169.773	278.44
172.783	280.852
175.791	288.085
178.798	287.083
181.803	293.571
184.806	304.64
187.807	301.651
190.805	312.087
193.802	332.151
196.797	329.408
199.79	335.123
202.782	347.9
205.772	362.052
208.758	386.147
211.744	399.928
214.728	427.462
217.71	447.46
220.689	443.765
223.668	456.175
226.644	477.026
229.619	486.547
232.59	483.294
235.561	488.037
238.53	481.824
241.497	468.561
244.461	460.253
247.424	440.549
250.386	424.777
253.346	384.917
256.302	371.42
259.258	364.604
262.211	346.78
265.163	338.158
268.114	334.346
271.062	334.613
274.007	325.523
276.952	332.601
279.894	333.637
282.834	321.761
285.773	325.541
288.71	319.799
291.644	313.663
294.577	300.785
297.508	305.865
300.438	309.041
303.365	298.338
306.29	306.315
309.214	303.915
312.135	304.153
315.055	302.748
317.974	306.338
320.89	301.651
323.803	296.731
326.716	287.333
329.627	286.854
332.536	287.92
335.442	280.577
338.347	273.575
341.25	274.819
344.152	269.708
347.051	261.055
349.948	258.418
352.844	261.597
355.738	250.377
358.63	247.883
361.52	249.661
364.408	250.522
367.295	245.039
370.18	234.241
373.062	237.927
375.943	244.252
378.821	240.157
381.698	244.662
384.574	238.733
387.448	245.64
390.319	243.754
393.189	229.058
396.057	246.386
398.923	248.256
401.787	240.344
404.649	236.559
407.509	246.452
410.369	237.646
413.226	243.081
416.08	250.418
418.933	247.602
421.785	244.09
424.635	241.614
427.482	246.749
430.328	246.49
433.172	244.084
435.804	233.104
438.686	236.621
441.567	239.397
444.446	238.911
447.323	238.436
450.198	234.471
453.07	229.797
455.943	236.328
458.811	228.667
461.679	237.639
464.545	229.544
467.409	230.863
470.272	227.516
473.133	226.913
475.991	230.291
478.848	219.156
481.704	215.802
484.557	225.854
487.408	224.927
490.258	218.51
493.106	222.487
495.952	214.182
498.798	214.457
501.64	213.99
504.481	201.992
507.32	205.773
510.156	212.333
512.992	211.009
515.827	201.896
518.659	208.649
521.488	204.965
524.317	209.411
527.143	201.439
529.968	196.4
532.792	202.44
535.612	202.673
538.433	209.154
541.249	204.082
544.066	203.296
546.881	202.917
549.693	197.03
552.502	201.246
555.312	205.057
558.119	202.696
560.924	198.679
563.728	196.347
566.529	195.705
569.33	191.695
572.128	194.194
574.924	187.027
577.718	184.37
580.512	182.775
583.303	180.969
586.092	186.929
588.88	180.035
591.665	179.466
594.449	176.89
597.231	182.443
600.012	173.215
602.791	178.12
605.568	170.13
608.343	176.019
611.117	178.24
613.888	176.619
616.659	174.164
619.427	170.826
622.193	175.08
624.957	171.133
627.721	162.901
630.482	172.389
633.241	170.192
635.999	170.737
638.755	170.264
641.509	168.136
644.261	167.218
647.012	167.795
649.761	162.166
652.509	162.802
655.254	151.943
657.997	169.261
660.739	165.418
663.479	159.757
666.218	160.075
668.954	162.741
671.689	163.317
674.422	158.602
677.154	158.967
679.883	160.187
682.611	161.774
685.337	157.708
688.062	158.064
690.785	164.128
693.505	155.454
696.225	155.423
698.943	155.923
701.657	152.91
704.372	154.175
707.084	156.928
709.795	157.286
712.503	151.884
715.21	150.057
717.916	151.859
720.619	146.745
723.197	154.869
725.938	142.153
728.677	151.763
731.414	148.885
734.15	152.776
736.886	143.528
739.617	151.436
742.349	149.212
745.078	145.201
747.805	138.785
750.531	141.222
753.255	140.347
755.978	140.321
758.698	140.691
761.417	138.411
764.134	142.556
766.85	137.982
769.564	136.096
772.277	142.37
774.987	138.866
777.695	135.78
780.403	138.416
783.108	134.283
785.811	136.663
788.514	138.203
791.214	139.665
793.912	136.105
796.609	140.643
799.305	134.78
801.999	135.053
804.691	127.361
807.381	130.863
810.07	135.255
812.756	129.928
815.442	126.799
818.126	127.191
820.807	130.202
823.488	123.822
826.166	124.467
828.843	128.895
831.518	124.926
834.191	122.844
836.864	129.144
839.533	127.923
842.201	125.796
844.869	125.946
847.534	121.727
850.197	123.835
852.859	125.634
855.518	122.382
858.177	121.469
860.834	126.591
863.488	124.859
866.143	125.591
868.793	126.414
871.444	120.379
874.092	121.195
876.738	120.708
879.384	121.851
882.027	117.977
884.669	120.624
887.31	120.51
889.947	115.765
892.584	116.233
895.219	114.041
897.852	121.073
900.484	119.618
903.114	119.094
905.742	112.449
908.369	118.852
910.994	116.753
913.618	110.641
916.24	113.745
918.859	121.481
921.478	120.403
924.094	110.854
926.709	118.559
929.322	118.371
931.935	111.539
934.544	109.529
937.153	117.909
939.76	115.243
942.366	112.503
944.969	111.57
947.571	110.847
950.171	112.183
952.769	110.089
955.366	109.616
957.961	110.73
960.555	112.645
963.147	110.852
965.738	112.793
968.326	113.197
970.913	108.406
973.498	106.87
976.083	110.689
978.664	109.908
981.245	106.237
983.823	110.714
986.401	110.379
988.976	111.332
991.55	108.415
994.123	110.697
996.715	108.898
999.323	105.779
1001.93	107.302
1004.54	106.543
1007.14	107.158
1009.74	109.096
1012.34	103.05
1014.94	108.109
1017.54	107.94
1020.14	104.413
1022.73	101.656
1025.33	105.594
1027.92	104.552
1030.51	106.876
1033.1	104.139
1035.68	102.267
1038.27	99.6669
1040.85	103.087
1043.43	97.5752
1046.01	102.661
1048.59	101.603
1051.17	102.522
1053.74	103.619
1056.32	103.765
1058.89	106.181
1061.46	105.107
1064.03	99.2477
1066.6	99.8118
1069.16	100.402
1071.73	101.519
1074.29	100.337
1076.85	103.448
1079.41	98.7136
1081.97	106.417
1084.52	104.761
1087.08	99.4692
1089.63	99.0765
1092.18	100.377
1094.73	100.043
1097.28	96.3618
1099.83	97.6508
1102.37	99.9386
1104.91	98.439
1107.46	95.9445
1110	103.847
1112.53	103.139
1115.07	99.7345
1117.61	99.1821
1120.14	97.7699
1122.67	95.3428
1125.21	99.1606
1127.73	100.357
1130.26	94.1277
1132.79	99.18
1135.31	96.5441
1137.84	100.917
1140.36	99.692
1142.88	94.4859
1145.39	98.5708
1147.91	99.4002
1150.43	96.4057
1152.94	93.837
1155.45	95.8747
1157.96	96.872
1160.47	99.9666
1162.98	98.1116
1165.48	96.7925
1167.99	93.3149
1170.49	98.691
1172.99	97.345
1175.49	98.2714
1177.99	96.3449
1180.48	96.3523
1182.98	95.7158
1185.47	94.5203
1187.96	96.086
1190.45	97.4508
1192.94	98.4345
1195.43	96.6855
1197.91	91.3595
