Measurement: Raman, 532 nm, unoriented, Raman Data RAW
Mineral: Tistarite
Rruff sample: R170055
Ideal chemistry: Ti^3+^_2_O_3_
Locality: Pyroclastic and alluvial deposits near Mount Carmel, Israel
Source: Sarah Gain
Description: Microscopic inclusions in corundum, sample is from Griffin et al (2016)
Raman shift (cm-1)	intensity
100.328	499.136
103.464	495.719
106.595	517.134
109.727	491.5
112.857	507.826
115.985	512.038
119.112	520.848
122.237	517.603
125.361	525.369
128.485	537.816
131.605	544.179
134.724	533.606
137.843	538.672
140.96	548.226
144.076	550.362
147.189	543.028
150.301	557.123
153.414	564.186
156.521	562.384
159.63	565.391
162.738	567.594
165.842	555.217
168.946	575.377
172.048	579.753
175.15	583.162
178.25	601.121
181.348	604.583
184.444	618.551
187.539	629.841
190.633	647.642
193.726	649.91
196.816	674.174
199.905	695.664
202.993	712.288
206.08	738.546
209.166	788.015
212.249	813.5
215.333	830.174
218.414	898.641
221.493	954.489
224.57	979.957
227.648	1038.46
230.722	1042.34
233.798	1114.64
236.868	1128.88
239.94	1108.8
243.01	1068.37
246.078	1023.98
249.144	962.055
252.21	899.229
255.274	836.665
258.337	772.786
261.397	730.149
264.457	688.332
267.515	662.334
270.572	654.312
273.628	647.102
276.681	650.836
279.736	640.367
282.787	625.776
285.837	600.162
288.884	600.506
291.932	590.354
294.977	570.758
298.021	586.592
301.064	591.768
304.105	602.001
307.144	584.969
310.182	594.729
313.219	593.161
316.255	611.559
319.29	597.513
322.324	601.275
325.355	600.293
328.384	563.234
331.413	574.372
334.441	537.584
337.466	542.019
340.489	526.084
343.514	503.827
346.536	487.776
349.555	476.855
352.575	475.589
355.591	460.444
358.607	456.195
361.622	446.047
364.636	451.76
367.646	440.362
370.658	439.841
373.667	448.612
376.675	437.233
379.681	439.509
382.685	437.645
385.688	445.197
388.692	449.408
391.691	452.534
394.69	433.533
397.689	439.064
400.685	442.549
403.68	453.138
406.674	445.052
409.667	439.618
412.656	447.682
415.647	440.988
418.635	461.083
421.622	446.978
424.606	443.984
427.591	448.136
430.573	447.235
433.554	439.454
436.534	425.585
439.513	430.735
442.489	424.62
445.466	418.552
448.44	433.362
451.413	421.508
454.383	421.709
457.355	411.967
460.323	420.891
463.29	409.571
466.256	415.472
469.22	405.903
472.184	411.536
475.145	414.542
478.106	406.879
481.065	415.089
484.024	419.441
486.979	412.136
489.934	409.786
492.887	408.853
495.84	404.376
498.791	388.81
501.74	393.819
504.688	388.938
507.635	383.304
510.58	381.721
513.523	382.838
516.467	388.094
519.408	372.462
522.348	374.467
525.287	384.918
528.223	378.887
531.158	380.874
534.092	376.021
537.026	379.547
539.958	388.127
542.887	404.247
545.818	390.41
548.745	407.314
551.672	406.009
554.595	401.999
557.52	397.078
560.441	389.852
563.362	372.621
566.282	369.001
569.199	361.767
572.117	357.855
575.032	341.857
577.946	342.149
580.857	344.667
583.769	335.905
586.678	338.673
589.586	326.118
592.494	326.059
595.4	330.957
598.304	325.055
601.208	321.097
604.11	320.068
607.008	309.405
609.908	316.301
612.805	313.632
615.449	306.984
618.378	303.809
621.305	291.506
624.23	303.013
627.154	302.918
630.078	298.464
632.999	291.826
635.918	286.495
638.839	292.749
641.757	290.207
644.671	285.298
647.587	286.236
650.5	280.774
653.412	288.024
656.323	289.089
659.234	280.898
662.143	275.776
665.049	284.022
667.954	282.913
670.859	275.723
673.762	279.54
676.665	267.679
679.564	280.443
682.463	273.792
685.361	269.709
688.258	272.257
691.154	268.323
694.047	261.296
696.939	263.381
699.83	260.789
702.72	268.685
705.609	257.56
708.496	256.672
711.383	264.216
714.268	250.877
717.149	251.693
720.032	252.306
722.914	245.114
725.792	259.082
728.67	253.138
731.547	252.307
734.422	244.666
737.297	244.823
740.169	249.477
743.04	231.957
745.911	250.099
748.78	239.549
751.647	240.01
754.513	242.488
757.378	242.583
760.241	242.656
763.104	225.614
765.965	240.692
768.826	222.077
771.684	236.755
774.541	228.473
777.396	225.306
780.252	227.894
783.104	225.978
785.956	224.092
788.807	223.877
791.655	219.187
794.504	221.898
797.35	218.342
800.196	219.395
803.04	218.453
805.883	227.279
808.724	222.53
811.564	219.615
814.403	210.087
817.241	213.459
820.078	213.844
822.912	203.725
825.745	210.097
828.578	206.148
831.409	207.315
834.24	202.201
837.067	207.756
839.894	200.226
842.72	200.672
845.545	206.931
848.369	201.772
851.191	208.562
854.011	193.763
856.831	204.945
859.649	185.522
862.465	199.546
865.282	194.361
868.096	200.427
870.909	194.103
873.72	193.917
876.531	193.545
879.34	177.962
882.147	193.783
884.954	187.484
887.76	184.898
890.563	186.766
893.366	185.206
896.167	190.109
898.967	186.688
901.767	184.303
904.564	191.735
907.362	180.33
910.157	181.694
912.949	179.213
915.742	178.26
918.532	174.378
921.322	180.282
924.111	178.765
926.898	181.151
929.685	169.835
932.47	172.314
935.253	171.027
938.035	171.677
940.817	177.358
943.596	168.348
946.373	174.757
949.152	178.405
951.927	169.554
954.702	173.86
957.474	168.715
960.248	164.474
963.019	170.14
965.787	167.708
968.556	170.914
971.322	165.653
974.087	163.528
976.852	163.844
979.615	165.355
982.378	167.441
985.138	167.997
987.897	162.143
990.656	162.064
993.413	160.877
996.168	167.486
998.922	163.645
1001.67	160.198
1004.43	161.199
1007.18	156.984
1009.93	154.871
1012.67	163.49
1015.42	157.879
1018.17	155.758
1020.91	153.233
1023.65	154.395
1026.4	151.292
1029.13	153.069
1031.87	154.92
1034.61	151.959
1037.35	151.009
1040.08	148.982
1042.82	149.819
1045.55	150.414
1048.07	147.223
1050.83	143.16
1053.6	140.863
1056.36	144.953
1059.12	153.04
1061.87	145.299
1064.63	146.431
1067.39	145.244
1070.14	144.834
1072.89	146.369
1075.65	143.846
1078.4	139.688
1081.14	139.135
1083.89	136.407
1086.64	133.703
1089.39	146.751
1092.13	135.389
1094.87	139.974
1097.62	138.488
1100.36	138.426
1103.1	140.236
1105.83	135.043
1108.57	139.146
1111.31	130.654
1114.04	140.058
1116.77	130.771
1119.51	132.593
1122.24	133.779
1124.97	130.404
1127.7	129.464
1130.42	123.471
1133.15	134.276
1135.87	134.342
1138.6	128.926
1141.32	130.079
1144.04	126.414
1146.76	127.593
1149.48	130.334
1152.2	125.654
1154.91	126.586
1157.63	128.797
1160.34	125.55
1163.05	128.833
1165.77	121.582
1168.47	128.079
1171.18	123.02
1173.89	128.877
1176.6	123.811
1179.3	123.538
1182.01	117.417
1184.71	126.329
1187.41	125.029
1190.11	127.453
1192.81	122.735
1195.51	124.16
1198.21	123.978
