Measurement: Raman, 780 nm, unoriented, Raman Data RAW
Mineral: Tourmaline
Rruff sample: R060123
Locality: San Bernardino County, California, USA
Source: University of Arizona Mineral Museum
Description: Dark green prismatic crystals
Raman shift (cm-1)	intensity
92.3769	55071.7
95.7518	57151.4
99.1266	57762.1
102.501	57263
105.876	57622.2
109.251	57892.4
112.626	58184.3
116.001	58396.1
119.376	58537.8
122.75	58781
126.125	58854.5
129.5	59130.7
132.875	59147.1
136.25	59204.5
139.624	59239.9
142.999	59370.4
146.374	59469.1
149.749	59500.4
153.124	59534
156.499	59507.7
159.873	59631.7
163.248	59575.3
166.623	59606.8
169.998	59507.1
173.373	59498.6
176.747	59345.9
180.122	59364.9
183.497	59367.5
186.872	59429.9
190.247	59438.7
193.621	59363.2
196.996	59275.8
200.371	59277.3
203.746	59215.8
207.121	59212.1
210.495	59116.5
213.87	59071.3
217.245	59032.6
220.62	58948.8
223.995	58928.5
227.37	58847.6
230.744	58765.3
234.119	58769.3
237.494	58690.4
240.869	58719.4
244.244	58660.9
247.619	58586.9
250.993	58463.7
254.368	58371.1
257.743	58201.3
261.118	58219.5
264.493	58083
267.867	57991.6
271.242	58035.2
274.617	57889.3
277.992	57823.4
281.367	57784.8
284.741	57720.5
288.116	57663.6
291.491	57706.4
294.866	57524.7
298.241	57419.6
301.616	57354.2
304.99	57267.8
308.365	57270.7
311.74	57242
315.115	57152
318.49	57075.5
321.865	57063.9
325.239	57024.9
328.614	57019
331.989	56908.1
335.364	56816.9
338.739	56847.9
342.113	56783.9
345.488	56719.3
348.863	56704.3
352.238	56687.7
355.613	56689.8
358.987	56643
362.362	56521.8
365.737	56343.2
369.112	56312.1
372.487	56375.4
375.861	56149.1
379.236	56094.1
382.611	56061.7
385.986	56002.6
389.361	56037.1
392.736	55954.5
396.11	55974.4
399.485	55947.8
402.86	55953.6
406.235	55924.3
409.61	55895.5
412.985	55871.8
416.359	55850.1
419.734	55745.8
423.109	55944.8
426.484	55839.5
429.859	55715.4
433.233	55700.3
436.608	55591.5
439.983	55642.3
443.358	55606.9
446.733	55491.7
450.108	55461.2
453.482	55559.9
456.857	55411.2
460.232	55422.1
463.607	55343.4
466.982	55186.5
470.356	55230.3
473.731	55281.9
477.106	55200.1
480.481	55095.6
483.856	55201.5
487.231	54952.8
490.605	54909.2
493.98	54794.8
497.355	54746.8
500.73	54532.7
504.104	54475.7
507.479	54424.3
510.854	54408.2
514.229	54250.8
517.604	54206.3
520.979	54091.3
524.354	54070.4
527.728	54000.1
531.103	53877.3
534.478	53732
537.853	53609.4
541.227	53572.6
544.602	53326.4
547.977	53244.1
551.352	53155.8
554.727	53200
558.102	53096.7
561.476	53043.8
564.851	52879.8
568.226	52874.3
571.601	52862
574.976	52764.3
578.351	52850.9
581.725	52652
585.1	52541.4
588.475	52551.5
591.85	52447.6
595.225	52326.6
598.599	52303.2
601.974	52236.7
605.349	52213.2
608.724	52071.7
612.099	52132
615.473	51948.9
618.848	51902.4
622.223	51875.4
625.598	51882.9
628.973	51826.4
632.347	51706.1
635.722	51765.4
639.097	51562.3
642.472	51450.8
645.847	51377.2
649.222	51320.8
652.596	51304.7
655.971	51114.1
659.346	51122.7
662.721	51090.5
666.096	50997.8
669.471	51048.7
672.845	50959.3
676.22	50871.5
679.595	50779.4
682.97	50664.5
686.345	50599.8
689.719	50515.4
693.094	50552.8
696.469	50426.2
699.844	50459.1
703.219	50422.7
706.593	50371.3
709.968	50377.3
713.343	50277.5
716.718	50311.1
720.093	50311.6
723.468	50171.7
726.842	50056.1
730.217	50066.7
733.592	50138.3
736.967	50065.9
740.342	50043.2
743.716	50006.3
747.091	49888.5
750.466	49964.1
753.841	49760.8
757.216	49646
760.591	49585.5
763.965	49544.4
767.34	49625.4
770.715	49543.2
774.09	49523.5
777.465	49456.1
780.84	49523.6
784.214	49322.9
787.589	49346.7
790.964	49381.5
794.339	49445.6
797.714	49289.5
801.088	49190.9
804.463	49171.7
807.838	49294.5
811.213	49257.2
814.588	49092.5
817.962	49226.1
821.337	49191.6
824.712	49136.7
828.087	48985.1
831.462	48922.3
834.837	48894.5
838.211	48919.3
841.586	48915.6
844.961	48764
848.336	48639.2
851.711	48561.5
855.085	48420.9
858.46	48474.6
861.835	48361.5
865.21	48364.7
868.585	48271.4
871.96	48173.8
875.334	48167.4
878.709	48025.4
882.084	48060.4
885.459	47989.9
888.834	47908.8
892.208	47838
895.583	47823.3
898.958	47703.7
902.333	47585.7
905.708	47439.3
909.082	47439.4
912.457	47356
915.832	47327.9
919.207	47329.8
922.582	47251.5
925.957	47235.6
929.331	47230.4
932.706	47300
936.081	47111.9
939.456	47051.5
942.831	47088.2
946.205	46993.1
949.58	46979.1
952.955	46925
956.33	46891.2
959.705	46834.1
963.08	46789.9
966.454	46641.2
969.829	46683.2
973.204	46601
976.579	46561.3
979.954	46457.1
983.328	46455.5
986.703	46422.7
990.078	46414.1
993.453	46308
996.828	46340.1
1000.2	46312.8
1003.58	46309.8
1006.95	46354.4
1010.33	46407.4
1013.7	46332.5
1017.08	46358.6
1020.45	46238.7
1023.83	46164
1027.2	46135.7
1030.58	46141.5
1033.95	46118
1037.33	46262.1
1040.7	46070
1044.08	46092.2
1047.45	45967.2
1050.83	45942.5
1054.2	45931.2
1057.57	45992.2
1060.95	45936.2
1064.32	45799
1067.7	45709.8
1071.07	45685.4
1074.45	45633.8
1077.82	45584.7
1081.2	45551.8
1084.57	45546.2
1087.95	45413.6
1091.32	45378
1094.7	45367.9
1098.07	45283.9
1101.45	45166.8
1104.82	45092.1
1108.2	45145.7
1111.57	45135.4
1114.95	44985.7
1118.32	45012.7
1121.7	44906
1125.07	44933.7
1128.45	44975.7
1131.82	44913.6
1135.19	44932.2
1138.57	44865.2
1141.94	44945.4
1145.32	44802.5
1148.69	44772.3
1152.07	44614.1
1155.44	44752.5
1158.82	44630.5
1162.19	44618.2
1165.57	44523.5
1168.94	44588.9
1172.32	44586.3
1175.69	44611.5
1179.07	44567.6
1182.44	44556.6
1185.82	44448.3
1189.19	44392.1
1192.57	44469.8
1195.94	44418.4
1199.32	44437.4
1202.69	44363.4
1206.07	44437.5
1209.44	44249.4
1212.82	44210.5
1216.19	44094.8
1219.57	44030.4
1222.94	43965.8
1226.32	44044.5
1229.69	44011
1233.07	44024.2
1236.44	43979.6
1239.81	43855
1243.19	43750.8
1246.56	43865
1249.94	43796.7
1253.31	43725.1
1256.69	43695.9
1260.06	43744.1
1263.44	43800.8
1266.81	43832.7
1270.19	43823.9
1273.56	43773.7
1276.94	43754
1280.31	43750.3
1283.69	43750.1
