Measurement: Raman, 532 nm, unoriented, Raman Data RAW
Mineral: Traskite
Rruff sample: R060706
Ideal chemistry: Ba_21_Ca(Fe^2+^,Mn^2+^,Ti^4+^)_4_(Ti^4+^,Fe^2+^,Mg)_12_(Si_12_O_36_)(Si_2_O_7_)_6_(O,OH)_30_Cl_6_14H_2_O
Locality: Esquire no. 1 mine, Rush Creek, Fresno County, California, United States
Source: Michael Scott
Description: Brownish-red granular associated with sanbornite
Raman shift (cm-1)	intensity
142.254	2774.18
145.146	2776.35
148.039	2850.07
150.932	2799.81
153.824	2827.89
156.717	2810.88
159.61	2807.28
162.503	2888.16
165.395	2853.39
168.288	2830.69
171.181	2862.25
174.073	2783.23
176.966	2807.83
179.859	2759.49
182.751	2807.16
185.644	2825.66
188.537	2790.29
191.43	2805.5
194.322	2809.73
197.215	2741.95
200.108	2751.53
203	2784.64
205.893	2834.62
208.786	2754.87
211.678	2776.61
214.571	2769.85
217.464	2755.72
220.357	2699.28
223.249	2731.24
226.142	2722.74
229.035	2721.18
231.927	2666.42
234.82	2700.16
237.713	2663.73
240.605	2694.31
243.498	2740.92
246.391	2700.16
249.284	2710.07
252.176	2705.33
255.069	2691.73
257.962	2676.38
260.854	2680.78
263.747	2666.3
266.64	2674.82
269.532	2700.23
272.425	2639.65
275.318	2641.49
278.211	2667.5
281.103	2650.28
283.996	2683.9
286.889	2642.06
289.781	2693.53
292.674	2624.55
295.567	2620.81
298.459	2621.49
301.352	2604.79
304.245	2611.24
307.138	2635.34
310.03	2610.05
312.923	2602.23
315.816	2650.58
318.708	2566.07
321.601	2600.74
324.494	2571.16
327.386	2597.53
330.279	2665.1
333.172	2632.08
336.065	2549.39
338.957	2569.14
341.85	2619.83
344.743	2580.61
347.635	2560.52
350.528	2545.57
353.421	2535.27
356.313	2497.99
359.206	2522.16
362.099	2463.8
364.991	2494.16
367.884	2458.11
370.777	2474.48
373.67	2476.56
376.562	2435.81
379.455	2440.78
382.348	2419.49
385.24	2416
388.133	2430.43
391.026	2412.99
393.918	2400.99
396.811	2454.58
399.704	2365.05
402.597	2385.54
405.489	2420.34
408.382	2391.05
411.275	2373.05
414.167	2371.26
417.06	2408.37
419.953	2353.74
422.845	2379.16
425.738	2357.19
428.631	2355.03
431.524	2362.7
434.416	2348.6
437.309	2313.05
440.202	2358.52
443.094	2284.46
445.987	2340.22
448.88	2319.81
451.772	2295.7
454.665	2288.54
457.558	2284.63
460.451	2317.8
463.343	2312.32
466.236	2289.67
469.129	2282.8
472.021	2247.92
474.914	2267.94
477.807	2229.8
480.699	2236.98
483.592	2224.58
486.485	2229.22
489.378	2228.21
492.27	2176.39
495.163	2234.64
498.056	2210.25
500.948	2256.62
503.841	2201.5
506.734	2214
509.626	2189.95
512.519	2190.64
515.412	2203.12
518.305	2227.55
521.197	2185.88
524.09	2151.4
526.983	2182.59
529.875	2197.31
532.768	2175.8
535.661	2123.09
538.553	2153.1
541.446	2183.24
544.339	2133.23
547.231	2133.79
550.124	2183.15
553.017	2115.71
555.909	2139.81
558.802	2135.4
561.695	2081.74
564.588	2094.54
567.48	2115.23
570.373	2114.55
573.266	2064.69
576.158	2099.27
579.051	2073.51
581.944	2075.04
584.836	2109.09
587.729	2058.33
590.622	2054.47
593.515	2066.72
596.407	2075.62
599.3	2073.03
602.193	2025.71
605.085	2072.28
607.978	2070.46
610.871	2057.56
613.763	2048.7
616.656	2058.93
619.549	2044.99
622.442	2041.65
625.334	2028.68
628.227	2009.34
631.12	2006.55
634.012	1984.14
636.905	2023.4
639.798	2034.99
642.69	2003.25
645.583	1978.97
648.476	2013.27
651.369	1980.95
654.261	1964.97
657.154	1962.06
660.047	2026.65
662.939	1985.98
665.832	2017.66
668.725	2033.67
671.617	2032.99
674.51	1972.16
677.403	1992.18
680.296	1973.69
683.188	1957.48
686.081	1997
688.974	1969.13
691.866	1983.36
694.759	1984.96
697.652	1919.67
700.544	1934.68
703.437	1912.35
706.33	1896.88
709.222	1879.61
712.115	1852.96
715.008	1866
717.901	1870.07
720.793	1825.92
723.686	1849.28
726.579	1781.73
729.471	1745.7
732.364	1737.74
735.257	1699.57
738.149	1653.09
741.042	1647.81
743.935	1615.55
746.828	1611.11
749.72	1583.81
752.613	1576.46
755.506	1576.8
758.398	1550.6
761.291	1522.68
764.184	1499.36
767.076	1496.39
769.969	1462.51
772.862	1448.06
775.755	1447.18
778.647	1388.27
781.54	1419.57
784.433	1386.3
787.325	1401.06
790.218	1378.84
793.111	1386.61
796.003	1362.8
798.896	1351.77
801.789	1341.17
804.682	1332.07
807.574	1317.92
810.467	1304.36
813.36	1319.87
816.252	1316.11
819.145	1335.33
822.038	1300.36
824.93	1307.94
827.823	1303.22
830.716	1331.49
833.609	1329.27
836.501	1311.08
839.394	1300.53
842.287	1314.99
845.179	1326.9
848.072	1341.42
850.965	1326.05
853.857	1371.34
856.75	1319.79
859.643	1324.59
862.536	1353.84
865.428	1332.4
868.321	1357.57
871.214	1365.2
874.106	1366.54
876.999	1346.63
879.892	1356.92
882.784	1382.6
885.677	1359.71
888.57	1325.49
891.463	1364
894.355	1368.12
897.248	1371.57
900.141	1365.49
903.033	1399.35
905.926	1416.27
908.819	1412.15
911.711	1388.51
914.604	1390.57
917.497	1364.79
920.39	1413.64
923.282	1425.38
926.175	1385.75
929.068	1393.9
931.96	1410.98
934.853	1386.8
937.746	1355.4
940.638	1373.45
943.531	1377.77
946.424	1379.87
949.317	1410.19
952.209	1386.44
955.102	1367.27
957.995	1356.52
960.887	1379.69
963.78	1362.04
966.673	1375.54
969.565	1359.44
972.458	1330.14
975.351	1381.17
978.244	1389.13
981.136	1377.56
984.029	1395.14
986.922	1361.92
989.814	1357.25
992.707	1362.31
995.6	1315.46
998.492	1298.02
1001.38	1306.53
1004.28	1315.18
1007.17	1285.55
1010.06	1268.49
1012.96	1274.14
1015.85	1248.35
1018.74	1305.03
1021.63	1251.79
1024.53	1254.21
1027.42	1244.37
1030.31	1266.7
1033.2	1237.4
1036.1	1240.68
1038.99	1240.11
1041.88	1241.56
1044.78	1214.46
1047.67	1236.74
1050.56	1218.66
1053.45	1219.92
1056.35	1190.61
1059.24	1219.46
1062.13	1176.84
1065.02	1152.28
1067.92	1177.72
1070.81	1164.71
1073.7	1172.59
1076.6	1165.73
1079.49	1173.92
1082.38	1163.72
1085.27	1160.17
1088.17	1185.64
1091.06	1182.73
1093.95	1169.83
1096.84	1128.97
1099.74	1157.54
1102.63	1110.14
1105.52	1152.64
1108.41	1111.43
1111.31	1128.1
1114.2	1128.52
1117.09	1140.37
1119.99	1113.41
1122.88	1125.6
1125.77	1140.63
1128.66	1098.78
1131.56	1121.6
1134.45	1089.5
1137.34	1057.2
1140.23	1065.56
1143.13	1100.44
1146.02	1085.93
1148.91	1079.6
1151.81	1106.62
1154.7	1099.96
1157.59	1092.77
1160.48	1108.74
1163.38	1097
1166.27	1084.64
1169.16	1050.66
1172.05	1063.68
1174.95	1053.08
1177.84	1081.89
1180.73	1070.11
1183.62	1065.37
1186.52	1076.05
1189.41	1113.49
1192.3	1101.25
1195.2	1103.15
1198.09	1099.1
1200.98	1101.83
1203.87	1089.36
1206.77	1092.73
1209.66	1086.72
1212.55	1075.96
1215.44	1111.95
1218.34	1086.9
1221.23	1109.79
1224.12	1069.35
1227.02	1098.24
1229.91	1075.34
1232.8	1073.66
1235.69	1082.81
1238.59	1092.51
1241.48	1094.33
1244.37	1098.2
1247.26	1108.23
1250.16	1087.97
1253.05	1108.47
1255.94	1084.97
1258.84	1089.53
1261.73	1089.48
1264.62	1058.16
1267.51	1094.03
1270.41	1125.97
1273.3	1129.76
1276.19	1085.9
1279.08	1091.6
1281.98	1127.09
1284.87	1124.68
1287.76	1115.45
1290.65	1083.87
1293.55	1135.51
1296.44	1114.74
