Measurement: Raman, 780 nm, unoriented, Raman Data Processed
Mineral: Tremolite
Rruff sample: R061087
Ideal chemistry: [box]Ca_2_Mg_5_Si_8_O_22_(OH)_2_
Locality: Turret, Chaffee County, Colorado, USA
Source: Michael Scott
Description: White radiating tufts of acicular crystals
Raman shift (cm-1)	intensity
104.939	0
108.313	4.48535
111.688	8.89453
115.063	22.1675
118.438	73.6436
121.813	119.405
125.187	101.793
128.562	24.8545
131.937	0.418945
135.312	0.092285
138.687	3.15381
142.061	8.45264
145.436	27.7471
148.811	19.7681
152.186	49.8403
155.561	63.0444
158.936	104.498
162.31	100.681
165.685	30.9614
169.06	13.9346
172.435	46.7837
175.81	80.2163
179.185	130.492
182.559	46.2671
185.934	19.6841
189.309	22.9399
192.684	9.52002
196.059	3.63428
199.433	12.479
202.808	30.3535
206.183	34.5151
209.558	36.3975
212.933	75.0396
216.308	92.0112
219.682	125.053
223.057	176.891
226.432	120.692
229.807	111.777
233.182	105.29
236.556	78.2158
239.931	39.7749
243.306	31.251
246.681	51.5425
250.056	54.0034
253.43	36.7153
256.805	33.4492
260.18	42.0342
263.555	51.04
266.93	50.9541
270.305	34.731
273.679	57.9443
277.054	70.5078
280.429	82.0942
283.804	73.0195
287.179	60.6548
290.553	33.5923
293.928	12.9717
297.303	7.77734
300.678	23.5654
304.053	19.7183
307.428	6.22266
310.802	7.94482
314.177	6.61475
317.552	3.68897
320.927	3.78906
324.302	11.356
327.676	8.87451
331.051	16.4121
334.426	43.0068
337.801	5.83203
341.176	19.1846
344.551	31.9419
347.925	17.7534
351.3	40.6406
354.675	49.5225
358.05	36.751
361.425	24.898
364.8	43.8081
368.174	77.4209
371.549	54.5478
374.924	23.7051
378.299	16.0205
381.674	6.67871
385.048	19.5283
388.423	16.0762
391.798	73.6914
395.173	76.2715
398.548	32.7827
401.923	9.15234
405.297	1.17773
408.672	7.45801
412.047	3.55127
415.422	0.420898
418.796	37.479
422.171	12.4658
425.546	1.73047
428.921	14.2822
432.296	6.2832
435.671	20.1099
439.045	13.6211
442.42	4.16992
445.795	3.35156
449.17	4.79639
452.545	23.8994
455.92	29.6289
459.294	22.4556
462.669	17.4795
466.044	18.7852
469.419	33.3545
472.794	40.9531
476.168	35.4243
479.543	39.6255
482.918	21.0332
486.293	45.248
489.668	43.127
493.043	46.8535
496.417	30.5962
499.792	21.9844
503.167	22.3135
506.542	35.6641
509.917	40.0688
513.291	49.001
516.666	47.6763
520.041	38.7602
523.416	45.3994
526.791	42.1431
530.165	37.9458
533.54	28.4976
536.915	38.3203
540.29	2.50098
543.665	30.2539
547.04	11.5815
550.414	23.3852
553.789	19.5493
557.164	1.49316
560.539	9.63428
563.914	8.98682
567.288	15.7002
570.663	22.1909
574.038	19.3823
577.413	29.3423
580.788	23.0781
584.163	29.6597
587.537	16.0981
590.912	14.5156
594.287	23.145
597.662	11.6504
601.037	39.1489
604.412	27.3037
607.786	33.4907
611.161	4.104
614.536	7.53369
617.911	13.686
621.286	5.07617
624.66	4.32812
628.035	0.171387
631.41	21.2026
634.785	16.2695
638.16	29.2163
641.534	12.4385
644.909	1.26318
648.284	16.2949
651.659	28.6421
655.034	53.0913
658.409	52.7295
661.783	86.812
665.158	105.688
668.533	165.428
671.908	272.138
675.283	279.164
678.658	159.479
682.032	76.3379
685.407	54.4048
688.782	42.415
692.157	24.523
695.532	14.6357
698.906	24.3384
702.281	7.4917
705.656	14.6714
709.031	19.7461
712.406	15.9961
715.78	23.3877
719.155	0.291016
722.53	13.8716
725.905	4.81348
729.28	23.9248
732.654	9.95166
736.029	17.9219
739.404	19.4941
742.779	40.1074
746.154	9.02881
749.529	22.5107
752.903	19.1763
756.278	8.94629
759.653	17.0474
763.028	19.6118
766.403	15.5532
769.778	21.3682
773.152	4.37744
776.527	2.0791
779.902	7.41748
783.277	12.8135
786.652	9.49463
790.026	23.5254
793.401	28.1475
796.776	26.7661
800.151	14.269
803.526	31.273
806.9	26.8877
810.275	27.7564
813.65	55.001
817.025	49.479
820.4	40.0259
823.775	39.105
827.149	41.7642
830.524	29.8472
833.899	43.6914
837.274	49.2656
840.649	38.3955
844.024	35.1982
847.398	30.1421
850.773	47.3784
854.148	30.0859
857.523	28.5825
860.898	43.979
864.272	34.5508
867.647	34.9443
871.022	29.4561
874.397	22.4331
877.772	11.0161
881.146	24.1602
884.521	24.1265
887.896	15.6123
891.271	13.6704
894.646	1.82764
898.021	19.2944
901.395	3.85205
904.77	23.5698
908.145	19.9868
911.52	16.2676
914.895	17.6289
918.269	11.7549
921.644	0.935059
925.019	42.7671
928.394	53.9624
931.769	36.5029
935.144	48.6397
938.518	24.6235
941.893	10.3379
945.268	15.1074
948.643	20.7266
952.018	23.2793
955.393	9.69092
958.767	3.55225
962.142	5.0625
965.517	5.63623
968.892	16.9854
972.266	0.28418
975.641	4.29492
979.016	11.3267
982.391	13.0024
985.766	20.1748
989.141	3.4209
992.515	12.3628
995.89	4.94531
999.265	15.3198
1002.64	27.5581
1006.01	0.161621
1009.39	3.29883
1012.76	37.5523
1016.14	39.9458
1019.51	30.6333
1022.89	38.2734
1026.26	32.7681
1029.64	48.7778
1033.01	55.3428
1036.39	29.4116
1039.76	24.8955
1043.14	17.3384
1046.51	22.5601
1049.89	34.3296
1053.26	65.124
1056.64	69.3071
1060.01	100.781
1063.39	84.6406
1066.76	53.4946
1070.14	49.9473
1073.51	34.4531
1076.89	29.2773
1080.26	58.2212
1083.63	88.813
1087.01	150.164
1090.38	76.5493
1093.76	10.125
1097.13	21.4136
1100.51	24.3999
1103.88	6.96484
1107.26	43.7656
1110.63	5.73731
1114.01	2.41309
1117.38	4.47998
1120.76	18.3086
1124.13	9.08105
1127.51	8.01367
1130.88	8.22266
1134.26	16.562
1137.63	37.4248
1141.01	19.1396
1144.38	38.7847
1147.76	15.331
1151.13	31.7949
1154.51	24.5435
1157.88	33.4727
1161.26	24.7944
1164.63	9.66065
1168.01	40.2563
1171.38	41.313
1174.76	30.2456
1178.13	36.5185
1181.51	25.5332
1184.88	13.6455
1188.26	27.8643
1191.63	17.793
1195.01	26.9116
1198.38	15.8828
1201.75	19.5659
1205.13	24.5288
1208.5	17.0811
1211.88	26.3638
1215.25	17.9058
1218.63	14.3423
1222	34.7344
1225.38	8.8374
1228.75	5.71582
1232.13	1.55762
1235.5	13.1133
1238.88	1.83398
1242.25	3.04932
1245.63	26.4463
1249	5.13623
1252.38	9.40283
1255.75	19.0137
1259.13	26.3848
1262.5	27.1084
1265.88	24.2012
1269.25	21.4243
1272.62	15.7656
1276	22.7705
1279.38	10.9023
