Measurement: Raman, 785 nm, unoriented, Raman Data RAW
Mineral: Tremolite
Rruff sample: R070422
Ideal chemistry: [box]Ca_2_Mg_5_Si_8_O_22_(OH)_2_
Locality: Merilani Hills, Arusha, Tanzania
Source: Steve Ulatowski
Description: Green gemmy fragment
Measured chemistry: ([box]_0.74_Na_0.15_K_0.11_)_Σ=1_(Ca_1.96_Na_0.04_)_Σ=2_(Mg_4.55_Al_0.41_V_0.04_)_Σ=5_(Si_7.33_Al_0.67_)_Σ=8_O_22_((OH)_1.80_F_0.20_)_Σ=2_
Raman shift (cm-1)	intensity
163.938	37165
166.83	39776.1
169.723	42039.6
172.616	43488.4
175.508	43758.4
178.401	44131.7
181.294	44185.5
184.186	44166.1
187.079	44697.8
189.972	45182.7
192.864	45652.5
195.757	46211.9
198.65	46840.9
201.543	47074.2
204.435	47050.1
207.328	47200.8
210.221	47225.2
213.113	47327.9
216.006	47531.7
218.899	48026.4
221.792	48648.8
224.684	48981.4
227.577	49168.2
230.47	48934.5
233.362	48908.1
236.255	49044.4
239.148	49291.7
242.041	49628.5
244.933	49860.1
247.826	49864.5
250.719	49975.2
253.611	49841.4
256.504	50123.8
259.397	50556
262.289	50729.7
265.182	50962.8
268.075	51002.9
270.967	50906.8
273.86	51122.7
276.753	51155.2
279.646	51324.9
282.538	51663.7
285.431	51813.4
288.324	52074
291.216	52069.9
294.109	52053.6
297.002	51992.9
299.894	52152.7
302.787	52330.1
305.68	52453.5
308.572	52756.9
311.465	52842.6
314.358	52937
317.251	52876.9
320.143	52904.7
323.036	53048.4
325.929	53181
328.821	53388.3
331.714	53489.5
334.607	53546.8
337.5	53461.8
340.392	53399.7
343.285	53486.3
346.178	53574.2
349.07	53736.9
351.963	54011.3
354.856	54110.8
357.748	54158.2
360.641	54008.7
363.534	54144.6
366.426	54095.9
369.319	54081.6
372.212	54515.4
375.105	54749.9
377.997	54812.8
380.89	54627.1
383.783	54911.8
386.675	54781.3
389.568	54708.8
392.461	54937.7
395.353	55118
398.246	55100.3
401.139	55271.2
404.032	55404.3
406.924	55126.9
409.817	55039.1
412.71	55090.3
415.602	55392
418.495	55406.4
421.388	55795.6
424.281	55628.1
427.173	55560.3
430.066	55601.6
432.959	55351.3
435.851	55554.2
438.744	55616.2
441.637	55906
444.529	55906.1
447.422	55975
450.315	55881.2
453.208	55907.1
456.1	55871.1
458.993	55677.8
461.886	56086.1
464.778	56023.4
467.671	56263.2
470.564	56256.9
473.457	56135.8
476.349	56249.7
479.242	56182.9
482.135	56136.4
485.027	56188.4
487.92	56237.6
490.813	56389.1
493.705	56572.3
496.598	56384.6
499.491	56528.6
502.384	56319
505.276	56358.5
508.169	56549.2
511.062	56616.5
513.954	56719.9
516.847	56811.9
519.74	56722.3
522.632	56532.2
525.525	56534.8
528.418	56595
531.311	56747.6
534.203	56788.9
537.096	57015.1
539.989	56978.6
542.881	56814.2
545.774	56828.7
548.667	56814.1
551.559	56809.1
554.452	56892.6
557.345	56682.4
560.237	57152.8
563.13	57031.6
566.023	57091.2
568.915	56998.7
571.808	57014.9
574.701	57202.9
577.594	57049
580.486	57167.1
583.379	57229.6
586.272	57346.3
589.164	57206.4
592.057	57273.5
594.95	57187.9
597.842	57256.8
600.735	57281.2
603.628	57160.4
606.521	57319.8
609.413	57422
612.306	57263.2
615.199	57337.7
618.091	57189.1
620.984	57248.1
623.877	57354.7
626.769	57407.9
629.662	57464.9
632.555	57434.2
635.448	57271.5
638.34	57228.5
641.233	57158.1
644.126	57212.2
647.018	57407.8
649.911	57320.7
652.804	57342.1
655.697	57621.9
658.589	57496.8
661.482	57561.1
664.375	57469.1
667.267	57499.1
670.16	57666.6
673.053	57586.6
675.945	57568.6
678.838	57607.4
681.731	57676.3
684.624	57350.3
687.516	57271.2
690.409	57230.6
693.302	57126.6
696.194	57277.7
699.087	57295.2
701.98	57215.8
704.872	57335.2
707.765	57173
710.658	57055.1
713.551	56942.2
716.443	57012.8
719.336	57143.6
722.229	57027.7
725.121	57130.6
728.014	56925.8
730.907	57022.1
733.799	56843.8
736.692	56659.2
739.585	56781.5
742.477	56742
745.37	56756.5
748.263	56755.5
751.156	56734.8
754.048	56842.3
756.941	56470.6
759.834	56625.5
762.726	56538.6
765.619	56477.5
768.512	56498.2
771.404	56501.1
774.297	56403.6
777.19	56460
780.083	56284.5
782.975	56287.8
785.868	56124.9
788.761	56190.5
791.653	56073.1
794.546	56161.8
797.439	55984.7
800.332	55945.9
803.224	55902.1
806.117	55880.8
809.01	56093.5
811.902	55895.3
814.795	55853.2
817.688	55958.4
820.58	56030.2
823.473	55633.6
826.366	55706.9
829.259	55707.9
832.151	55569.9
835.044	55534.7
837.937	55427
840.829	55610.7
843.722	55498.9
846.615	55470.5
849.507	55495
852.4	55353.7
855.293	55425.5
858.186	55015.7
861.078	55202.5
863.971	55330.5
866.864	54983.6
869.756	55293.6
872.649	55058.8
875.542	55027.8
878.434	54972.9
881.327	54892.3
884.22	54676.4
887.112	54867
890.005	54979.3
892.898	54733.8
895.791	54683.4
898.683	54771.7
901.576	54492.8
904.469	54523
907.361	54632
910.254	54580.1
913.147	54566.6
916.04	54508.9
918.932	54504.1
921.825	54286.9
924.718	54350.6
927.61	54278.1
930.503	54371.9
933.396	54190.1
936.288	54051.5
939.181	54178.7
942.074	53938.7
944.967	54027.2
947.859	53810.2
950.752	53866.7
953.645	53770.7
956.537	53589.3
959.43	53836.6
962.323	53505
965.216	53540.3
968.108	53553.3
971.001	53378.8
973.894	53328.1
976.786	53251.9
979.679	53298.6
982.572	53402.2
985.464	53343.6
988.357	53222.9
991.25	53089.8
994.143	53099.7
997.035	52898.4
999.928	53050.8
1002.82	52872.9
1005.71	52853.6
1008.61	52796
1011.5	52640.6
1014.39	52634
1017.28	52538.2
1020.18	52736.3
1023.07	52679.1
1025.96	52506.4
1028.86	52458.9
1031.75	52190.7
1034.64	52372.2
1037.53	52146.6
1040.43	52071.2
1043.32	52212
1046.21	51983.7
1049.1	52066.6
1052	51891.6
1054.89	51982.8
1057.78	52111.4
1060.67	52017.8
1063.57	51745.8
1066.46	51686.7
1069.35	51614.3
1072.24	51669.6
1075.14	51647.8
1078.03	51461.4
1080.92	51391.3
1083.82	51298.8
1086.71	51205.9
1089.6	51184.2
1092.49	50998.6
1095.39	51083.4
1098.28	50905.2
1101.17	51100.2
1104.07	50847.5
1106.96	50765.2
1109.85	50747.8
1112.74	50615.3
1115.64	50568.4
1118.53	50527.5
1121.42	50474.6
1124.31	50388.2
1127.21	50426.3
1130.1	50282.2
1132.99	50323.8
1135.88	50080.8
1138.78	50118.1
1141.67	50038.4
1144.56	49820.3
1147.46	49966.4
1150.35	49884.3
1153.24	49796.3
1156.13	49595.6
1159.03	49529.6
1161.92	49532
1164.81	49374.6
1167.7	49293.1
1170.6	49169.7
1173.49	48982.4
1176.38	49170.8
1179.28	49097.5
1182.17	49002.2
1185.06	48857.2
1187.95	48817
1190.85	48625.1
1193.74	48776.9
1196.63	48530.8
1199.52	48598.2
1202.42	48466.8
1205.31	48395.6
1208.2	48405.4
1211.1	48236
1213.99	48278.4
1216.88	48299.6
1219.77	48260.4
1222.67	48033.6
1225.56	47865.3
1228.45	47777.1
1231.34	47825.5
1234.24	47647.6
1237.13	47547.6
1240.02	47308.4
1242.91	47496.2
