Measurement: Raman, 532 nm, unoriented, Raman Data Processed
Mineral: Tremolite
Rruff sample: R061087
Ideal chemistry: [box]Ca_2_Mg_5_Si_8_O_22_(OH)_2_
Locality: Turret, Chaffee County, Colorado, USA
Source: Michael Scott
Description: White radiating tufts of acicular crystals
Raman shift (cm-1)	intensity
140.205	0
143.58	103.541
146.955	91.0684
150.33	113.901
153.705	198.487
157.079	304.014
160.454	571.561
163.829	266.302
167.204	117.56
170.579	205.162
173.953	394.518
177.328	702.128
180.703	459.43
184.078	102.108
187.453	10.8115
190.828	10.5156
194.202	3.99512
197.577	10.3271
200.952	11.5391
204.327	25.4404
207.702	107.344
211.077	285.607
214.451	434.96
217.826	602.025
221.201	953.027
224.576	951.486
227.951	535.018
231.325	590.068
234.7	555.293
238.075	302.697
241.45	124.772
244.825	93.793
248.2	173.332
251.574	266.207
254.949	112.779
258.324	119.811
261.699	170.83
265.074	190.469
268.448	106.686
271.823	184.84
275.198	241.316
278.573	342.998
281.948	344.223
285.322	294.668
288.697	186.529
292.072	90.4883
295.447	40.4082
298.822	46.8086
302.197	112.742
305.571	86.7988
308.946	27.3908
312.321	38.9062
315.696	15.9883
319.071	16.7178
322.445	33.9062
325.82	63.0391
329.195	95.8223
332.57	103.781
335.945	129.94
339.32	145.144
342.694	165.297
346.069	231.986
349.444	252.627
352.819	265.471
356.194	178.283
359.568	165.541
362.943	219.848
366.318	358.844
369.693	466.019
373.068	337.568
376.442	259.113
379.817	144.555
383.192	134.783
386.567	175.459
389.942	353.324
393.317	519.394
396.691	468.076
400.066	204.984
403.441	134.764
406.816	100.676
410.191	173.266
413.565	289.322
416.94	261.322
420.315	132.795
423.69	66.7812
427.065	64.0273
430.44	93.9375
433.814	93.6641
437.189	41.6328
440.564	22.5938
443.939	17.9004
447.314	22.7461
450.688	8.31641
454.063	28.4609
457.438	24.3438
460.813	23.3184
464.188	34.5859
467.563	7.64844
470.937	3.83008
474.312	48.0156
477.687	22.5254
481.062	3.72656
484.437	33.4609
487.812	75.8184
491.186	85.9785
494.561	17.9434
497.936	64.084
501.311	95.2402
504.686	77.3633
508.06	116.504
511.435	133.168
514.81	174.727
518.185	172.055
521.56	202.205
524.934	166.959
528.309	223.723
531.684	260.982
535.059	154.381
538.434	107.471
541.809	50.8398
545.183	51.3711
548.558	83.4512
551.933	63.7734
555.308	87.9043
558.683	78.6699
562.058	28.1172
565.432	35.1484
568.807	47.4941
572.182	80.084
575.557	100.51
578.932	128.43
582.306	110.553
585.681	122.932
589.056	70.875
592.431	87.5957
595.806	0.582031
599.181	62.1133
602.555	47.2031
605.93	26.4082
609.305	31.3047
612.68	27.8301
616.055	0.957031
619.429	5.97852
622.804	18.752
626.179	15.6602
629.554	21.3008
632.929	15.2246
636.303	22.8984
639.678	17.4766
643.053	27.9941
646.428	132.008
649.803	251.775
653.178	326.672
656.552	411.258
659.927	538.514
663.302	861.807
666.677	1392.41
670.052	2092.75
673.427	2523.44
676.801	1731.17
680.176	867.707
683.551	444.393
686.926	319.387
690.301	289.685
693.675	195.68
697.05	142.5
700.425	88.3379
703.8	51.4902
707.175	52.1914
710.549	115.256
713.924	74.3281
717.299	12.2949
720.674	21.2305
724.049	23.248
727.423	37.4512
730.798	56.2773
734.173	71.3027
737.548	156.219
740.923	177.41
744.298	157.449
747.672	122.195
751.047	96.8379
754.422	87.5391
757.797	35.0156
761.172	43.3125
764.547	17.9102
767.921	0.210938
771.296	108.469
774.671	118.441
778.046	99.3438
781.421	156.789
784.795	107.609
788.17	71.6973
791.545	70.1445
794.92	93.8066
798.295	88.8731
801.669	93.418
805.044	53.3926
808.419	73.5625
811.794	84.959
815.169	76.7227
818.544	188.945
821.918	138.998
825.293	123.477
828.668	157.676
832.043	83.0117
835.418	139.434
838.793	162.949
842.167	118.625
845.542	109.312
848.917	90.4922
852.292	71.4062
855.667	23.8164
859.041	53.5586
862.416	108.441
865.791	129.984
869.166	192.629
872.541	63.7461
875.915	13.1719
879.29	8.96094
882.665	76.9414
886.04	16.4609
889.415	18.9727
892.79	66.0195
896.164	171.223
899.539	197.375
902.914	157.258
906.289	126.488
909.664	119.438
913.038	98.9375
916.413	136.504
919.788	176.484
923.163	333.785
926.538	493.176
929.913	485.137
933.287	380.231
936.662	226.223
940.037	214.984
943.412	304.305
946.787	245.195
950.162	146.824
953.536	60.8438
956.911	60.9609
960.286	232.023
963.661	153.977
967.036	46.4297
970.41	27.2773
973.785	59.1133
977.16	129.793
980.535	48.2461
983.91	27.75
987.284	32.2265
990.659	44.5469
994.034	38.7461
997.409	20.0938
1000.78	32.7031
1004.16	20.6406
1007.53	82.4102
1010.91	131.16
1014.28	227.582
1017.66	235.305
1021.03	222.832
1024.41	315.242
1027.78	478.781
1031.16	369.695
1034.53	236.973
1037.91	140.356
1041.28	196.41
1044.66	240.312
1048.03	282.785
1051.41	441.328
1054.78	611.297
1058.16	837.406
1061.53	893.664
1064.9	579.731
1068.28	434.398
1071.65	261.914
1075.03	285.012
1078.4	355.988
1081.78	487.066
1085.15	1131.88
1088.53	751.125
1091.9	213.75
1095.28	126.703
1098.65	129.828
1102.03	27.6016
1105.4	36.0898
1108.78	5.69141
1112.15	32.2422
1115.53	40.7773
1118.9	60.3398
1122.28	83.6836
1125.65	26.8516
1129.03	9.47266
1132.4	79.5156
1135.78	26.2734
1139.15	180.742
1142.53	125.035
1145.9	143.148
1149.28	99.0703
1152.65	179.055
1156.03	245.648
1159.4	265.188
1162.78	329.258
1166.15	379.441
1169.53	335.195
1172.9	305.316
1176.27	237.941
1179.65	319.953
1183.02	361.531
1186.4	369.477
1189.77	435.195
1193.15	503.797
1196.52	475.848
1199.9	453.633
1203.27	411.523
1206.65	368.375
1210.02	435.824
1213.4	346.356
1216.77	403.801
1220.15	344.305
1223.52	439.723
1226.9	287.316
1230.27	301.84
1233.65	204.625
1237.02	173.637
1240.4	181.144
1243.77	170.859
1247.14	227.066
1250.52	245.691
1253.89	269.449
1257.27	286.074
1260.64	302.41
1264.02	87.7617
1267.39	224.68
1270.77	71.6562
1274.14	76.5938
1277.52	37.9102
1280.89	36.8789
1284.27	79.5156
1287.64	143.441
1291.02	119.809
1294.39	68.6445
1297.77	1.96094
