Measurement: Raman, 780 nm, unoriented, Raman Data Processed
Mineral: Tridymite
Rruff sample: R160073
Ideal chemistry: SiO_2_
Locality: Synthetic
Description: Fine white powder
Raman shift (cm-1)	intensity
101.563	0
104.938	5.04141
108.313	3.05457
111.688	2.58292
115.063	3.30881
118.438	1.36755
121.812	7.20599
125.187	10.0792
128.562	13.9383
131.937	17.1523
135.312	19.5322
138.686	22.0245
142.061	16.0981
145.436	11.6363
148.811	7.07422
152.186	4.93984
155.56	1.03137
158.935	2.38925
162.31	0.027771
165.685	3.50783
169.06	5.87202
172.435	6.4196
175.809	8.88855
179.184	11.8933
182.559	16.2624
185.934	20.9403
189.309	24.2009
192.684	29.2667
196.058	33.4938
199.433	40.303
202.808	50.7495
206.183	59.0309
209.558	63.4426
212.932	63.6185
216.307	59.2163
219.682	57.2796
223.057	58.4612
226.432	53.0432
229.806	46.6353
233.181	34.429
236.556	25.3744
239.931	18.5708
243.306	16.2807
246.681	18.7642
250.055	20.3368
253.43	20.8254
256.805	18.1415
260.18	10.2792
263.555	5.69997
266.93	1.22311
270.304	1.59671
273.679	0.13839
277.054	2.77103
280.429	7.00798
283.804	11.2232
287.178	15.869
290.553	21.4528
293.928	25.6131
297.303	23.2929
300.678	18.9945
304.053	18.0522
307.427	15.7135
310.802	6.47418
314.177	4.44588
317.552	0.730797
320.927	0.688759
324.301	0.456703
327.676	1.04122
331.051	0.754852
334.426	2.78005
337.801	3.87163
341.175	10.7027
344.55	22.6533
347.925	34.5229
351.3	44.9158
354.675	55.1065
358.05	61.3543
361.424	61.199
364.799	62.6135
368.174	63.2405
371.549	62.0086
374.924	54.6881
378.298	48.9632
381.673	40.5367
385.048	34.242
388.423	30.6689
391.798	29.6025
395.173	27.4496
398.547	29.822
401.922	30.7669
405.297	27.7718
408.672	26.0591
412.047	23.0737
415.421	25.4558
418.796	31.0954
422.171	34.6587
425.546	33.7638
428.921	33.3985
432.296	35.0374
435.67	29.6021
439.045	17.9249
442.42	11.9028
445.795	11.7373
449.17	11.1741
452.545	10.5282
455.919	9.51762
459.294	5.80653
462.669	1.08518
466.044	0.282654
469.419	0.161114
472.793	2.08025
476.168	1.32371
479.543	0.558361
482.918	0.91518
486.293	0.457237
489.668	2.10619
493.042	2.04653
496.417	3.43565
499.792	4.49737
503.167	3.83554
506.542	4.77798
509.916	4.58609
513.291	4.82283
516.666	4.68401
520.041	5.03375
523.416	5.55173
526.79	5.39982
530.165	4.06652
533.54	4.19455
536.915	3.89909
540.29	2.39379
543.665	2.94266
547.039	2.61488
550.414	2.36913
553.789	1.52536
557.164	2.50227
560.539	1.95233
563.913	1.31982
567.288	1.04409
570.663	0.691959
574.038	0.682032
577.413	0.716616
580.788	0.033247
584.162	0.364744
587.537	1.23232
590.912	1.19357
594.287	0.037472
597.662	1.5571
601.037	0.366798
604.411	0.470209
607.786	0.316204
611.161	2.14651
614.536	1.01549
617.911	0.92132
621.285	0.34066
624.66	1.04577
628.035	0.45467
631.41	0.350006
634.785	0.236721
638.159	0.665234
641.534	0.186493
644.909	0.747286
648.284	0.083406
651.659	0.969997
655.034	0.053974
658.408	0.423841
661.783	0.221613
665.158	0.608341
668.533	0.823832
671.908	0.315781
675.283	1.02986
678.657	1.10399
682.032	0.508715
685.407	0.358292
688.782	0.161707
692.157	0.175167
695.531	0.40029
698.906	0.767611
702.281	0.709063
705.656	0.066229
709.031	0.536016
712.405	0.733286
715.78	0.664846
719.155	0.276207
722.53	0.374332
725.905	0.442371
729.279	0.067598
732.654	0.74892
736.029	0.574116
739.404	0.151714
742.779	0.957958
746.154	0.045578
749.528	0.686737
752.903	0.721386
756.278	0.747763
759.653	1.45691
763.028	2.07534
766.403	4.07786
769.777	7.44821
773.152	9.60847
776.527	12.8083
779.902	15.0764
783.277	17.1599
786.652	17.9235
790.026	15.9421
793.401	14.3986
796.776	11.872
800.151	8.61308
803.526	6.8888
806.9	4.98532
810.275	3.80417
813.65	3.32466
817.025	1.35927
820.4	2.32994
823.774	1.36267
827.149	1.91872
830.524	2.27605
833.899	0.579765
837.274	0.015413
840.649	0.602211
844.023	0.370131
847.398	0.801754
850.773	0.728487
854.148	0.320908
857.523	0.754803
860.898	1.25723
864.272	0.81739
867.647	1.10765
871.022	0.424202
874.397	1.17452
877.771	0.840567
881.146	1.48957
884.521	0.56222
887.896	0.129019
891.271	1.13312
894.646	1.45211
898.02	0.460787
901.395	0.048624
904.77	1.09095
908.145	0.729031
911.52	1.09173
914.894	1.43613
918.269	1.28316
921.644	1.44771
925.019	1.376
928.394	0.164209
931.769	0.517208
935.143	0.669146
938.518	0.768652
941.893	0.465187
945.268	1.13238
948.643	0.157478
952.018	1.15786
955.392	0.140127
958.767	0.034122
962.142	0.544359
965.517	0.149635
968.892	0.101088
972.266	0.522339
975.641	0.151781
979.016	0.74966
982.391	0.144821
985.766	1.44148
989.141	0.716167
992.515	0.749561
995.89	0.028933
999.265	1.38619
1002.64	0.295702
1006.01	1.22446
1009.39	1.23028
1012.76	1.74622
1016.14	1.51263
1019.51	1.66829
1022.89	1.31989
1026.26	2.24345
1029.64	1.95366
1033.01	1.76806
1036.39	1.39183
1039.76	2.87788
1043.14	1.75856
1046.51	2.40174
1049.89	1.62065
1053.26	3.29527
1056.64	4.0241
1060.01	6.46879
1063.39	7.20235
1066.76	7.36283
1070.14	8.37011
1073.51	8.39131
1076.89	8.11845
1080.26	5.67506
1083.63	5.13466
1087.01	4.48127
1090.38	3.90317
1093.76	3.16785
1097.13	2.35331
1100.51	1.61291
1103.88	1.08784
1107.26	0.584446
1110.63	1.07188
1114.01	0.169703
1117.38	0.160349
1120.76	1.02982
1124.13	0.388559
1127.51	0.258877
1130.88	0.03722
1134.26	0.213835
1137.63	0.21312
1141.01	0.385872
1144.38	0.090929
1147.76	0.037033
1151.13	0.140224
1154.51	1.32187
1157.88	0.071495
1161.26	1.0607
1164.63	0.432692
1168.01	1.06926
1171.38	0.92062
1174.76	0.949427
1178.13	0.582331
1181.51	1.23855
1184.88	1.09997
1188.26	1.50827
1191.63	1.23369
1195	1.69842
1198.38	1.60434
1201.75	1.31822
1205.13	2.55301
1208.5	0.764967
1211.88	1.65369
1215.25	1.88904
1218.63	1.71047
1222	0.797358
1225.38	1.25885
1228.75	0.554564
1232.13	1.84184
1235.5	1.07114
1238.88	0.193769
1242.25	1.23573
1245.63	0.529078
1249	0.925436
1252.38	1.21593
1255.75	1.25302
1259.13	0.905701
1262.5	1.3994
1265.88	0.683964
1269.25	1.48914
1272.62	0.875713
1276	0.45804
1279.38	1.26209
