Measurement: Raman, 532 nm, unoriented, Raman Data Processed
Mineral: Tridymite
Rruff sample: R160073
Ideal chemistry: SiO_2_
Locality: Synthetic
Description: Fine white powder
Raman shift (cm-1)	intensity
88.1367	0
91.5115	28.9648
94.8863	22.6677
98.2612	15.7412
101.636	1.79666
105.011	5.60812
108.386	10.8906
111.76	1.89209
115.135	8.57254
118.51	10.7516
121.885	17.8279
125.26	28.9071
128.635	43.1294
132.009	78.3803
135.384	112.658
138.759	167.571
142.134	184.187
145.509	190.7
148.883	189.22
152.258	168.639
155.633	142.385
159.008	113.399
162.383	93.6085
165.757	73.6677
169.132	53.3488
172.507	43.1013
175.882	34.3706
179.257	35.5518
182.632	50.3329
186.006	90.2071
189.381	132.974
192.756	177.034
196.131	221.436
199.506	245.362
202.881	253.579
206.255	268.093
209.63	274.757
213.005	242.115
216.38	203.502
219.755	185.596
223.129	177.835
226.504	163.672
229.879	142.208
233.254	104.237
236.629	65.6724
240.004	42.0327
243.378	30.0444
246.753	35.3957
250.128	42.5682
253.503	40.7933
256.878	30.3421
260.252	13.3097
263.627	8.4566
267.002	3.99731
270.377	12.2749
273.752	13.7095
277.127	2.72528
280.501	21.1363
283.876	47.3387
287.251	87.0947
290.626	121.883
294.001	125.406
297.375	111.539
300.75	95.8924
304.125	78.192
307.5	67.7843
310.875	34.8931
314.25	6.24756
317.624	8.4187
320.999	15.4831
324.374	1.09433
327.749	16.4179
331.124	24.6788
334.498	26.1829
337.873	28.8146
341.248	50.9152
344.623	108.217
347.998	190.349
351.373	275.246
354.747	338.373
358.122	368.642
361.497	341.9
364.872	305.712
368.247	279.284
371.621	259.507
374.996	239.286
378.371	224.234
381.746	217.551
385.121	223.658
388.495	253.259
391.87	297.657
395.245	355.412
398.62	414.3
401.995	461.67
405.37	446.705
408.744	384.67
412.119	339.921
415.494	350.386
418.869	380.036
422.244	369.059
425.618	309.621
428.993	259.123
432.368	227.665
435.743	185.129
439.118	120.844
442.493	88.6356
445.867	100.582
449.242	108.008
452.617	92.3514
455.992	82.5862
459.367	52.822
462.741	22.0206
466.116	4.047
469.491	3.16309
472.866	8.3053
476.241	8.31026
479.615	7.79144
482.99	5.53201
486.365	1.76633
489.74	3.01947
493.115	8.73436
496.49	13.1128
499.864	18.1355
503.239	19.2841
506.614	20.6624
509.989	22.3062
513.364	23.5055
516.739	25.0602
520.113	26.6249
523.488	27.9035
526.863	29.651
530.238	29.5355
533.613	26.8306
536.987	24.6251
540.362	21.9775
543.737	19.0758
547.112	13.8303
550.487	13.9548
553.861	12.4816
557.236	12.8688
560.611	9.5728
563.986	11.0688
567.361	9.71345
570.736	9.06551
574.11	8.13008
577.485	6.81937
580.86	6.04546
584.235	5.09129
587.61	5.48157
590.985	1.68416
594.359	4.84422
597.734	2.58221
601.109	3.8153
604.484	1.17589
607.859	1.49886
611.233	1.51055
614.608	3.76417
617.983	2.57931
621.358	1.61933
624.733	0.007721
628.107	0.576538
631.482	0.258064
634.857	0.413902
638.232	0.21611
641.607	0.980965
644.982	0.774132
648.356	0.920227
651.731	0.975555
655.106	0.428177
658.481	0.938614
661.856	0.733162
665.231	0.520531
668.605	0.374184
671.98	2.53964
675.355	0.060677
678.73	0.191551
682.105	1.54239
685.479	0.238808
688.854	0.652031
692.229	0.620461
695.604	2.35143
698.979	1.2827
702.354	0.762688
705.728	0.166534
709.103	0.296188
712.478	0.724815
715.853	0.620819
719.227	0.235703
722.602	0.106232
725.977	2.48482
729.352	2.63527
732.727	0.210541
736.102	1.55855
739.476	2.61672
742.851	3.0731
746.226	4.1265
749.601	8.67639
752.976	5.80142
756.351	8.10472
759.725	12.713
763.1	19.5072
766.475	32.6467
769.85	53.7869
773.225	80.8983
776.599	110.419
779.974	124.781
783.349	134.227
786.724	134.239
790.099	124.369
793.473	100.41
796.848	77.6461
800.223	58.2876
803.598	43.4062
806.973	31.6205
810.348	23.6948
813.722	19.2314
817.097	13.9166
820.472	14.408
823.847	11.6279
827.222	15.211
830.597	15.4916
833.971	10.3395
837.346	5.95503
840.721	1.80486
844.096	1.6479
847.471	0.133049
850.846	0.370506
854.22	0.330421
857.595	0.703743
860.97	0.616577
864.345	0.040222
867.72	0.29258
871.094	0.847992
874.469	0.595161
877.844	0.327087
881.219	1.74554
884.594	1.14571
887.968	3.07863
891.343	2.77725
894.718	3.61964
898.093	5.59672
901.468	6.49217
904.842	6.1752
908.217	5.36295
911.592	5.55169
914.967	5.84475
918.342	5.94949
921.717	6.99857
925.091	5.19653
928.466	5.11601
931.841	4.07345
935.216	3.43179
938.591	3.06846
941.966	2.22247
945.34	0.120392
948.715	0.039131
952.09	0.460976
955.465	1.00731
958.84	0.518639
962.214	0.060181
965.589	1.73507
968.964	0.164955
972.339	0.160614
975.714	0.305908
979.088	0.956009
982.463	1.6682
985.838	1.42977
989.213	3.30135
992.588	0.185997
995.963	1.56422
999.337	3.16991
1002.71	2.33273
1006.09	2.10399
1009.46	5.72157
1012.84	6.38502
1016.21	6.88984
1019.59	9.29774
1022.96	10.3289
1026.34	10.6542
1029.71	11.3172
1033.09	11.7591
1036.46	9.38927
1039.84	7.35667
1043.21	6.91547
1046.59	8.66575
1049.96	12.31
1053.33	16.737
1056.71	23.0166
1060.08	31.6321
1063.46	38.9507
1066.83	46.4969
1070.21	60.2774
1073.58	71.9263
1076.96	70.5264
1080.33	52.1452
1083.71	39.5404
1087.08	29.3379
1090.46	23.627
1093.83	20.5954
1097.21	17.094
1100.58	13.0208
1103.96	10.3518
1107.33	9.79656
1110.71	5.70987
1114.08	4.9289
1117.46	4.85838
1120.83	1.52565
1124.21	3.20856
1127.58	0.655632
1130.95	1.65417
1134.33	2.45237
1137.7	1.74644
1141.08	1.07391
1144.45	0.319366
1147.83	0.111145
1151.2	0.984924
1154.58	1.13989
1157.95	0.951393
1161.33	0.128304
1164.7	0.195488
1168.08	0.08326
1171.45	2.41745
1174.83	3.33643
1178.2	3.54211
1181.58	6.64459
1184.95	8.83948
1188.33	11.1985
1191.7	10.7692
1195.08	11.7897
1198.45	11.9058
1201.83	14.4053
1205.2	14.546
1208.58	12.9415
1211.95	7.84039
1215.33	8.30692
1218.7	7.4801
1222.08	6.91804
1225.45	3.39832
1228.83	3.71625
1232.2	4.2092
1235.58	4.29468
1238.95	2.95829
1242.32	3.1121
1245.7	3.63147
1249.07	4.4558
1252.45	2.48867
1255.82	2.24728
1259.2	2.35426
1262.57	1.54347
1265.95	1.31075
1269.32	0.926956
1272.7	0.256218
1276.07	0.475945
1279.45	1.43885
1282.82	2.08205
1286.2	2.03033
1289.57	1.77422
1292.95	0.182014
1296.32	0.669991
1299.7	0.394356
