Measurement: Raman, 532 nm, unoriented, Raman Data Processed
Mineral: Trinitite
Rruff sample: R160072
Locality: Fireball area of the first atomic bomb detonation at the Trinity test site, White Sands Missile Range, New Mexico, USA
Source: Jeremy Yeak
Description: Fragments of glass
Raman shift (cm-1)	intensity
139.241	0
142.616	3.02393
145.991	6.86426
149.365	8.71008
152.74	9.38098
156.115	16.0359
159.49	0.400635
162.865	7.16101
166.24	1.06897
169.614	1.54565
172.989	2.77588
176.364	3.53455
179.739	9.1969
183.114	8.68604
186.488	8.52258
189.863	7.72668
193.238	4.33228
196.613	1.44605
199.988	2.65784
203.363	6.86963
206.737	4.17017
210.112	8.32031
213.487	6.27564
216.862	5.71436
220.237	4.1731
223.612	1.81299
226.986	2.42432
230.361	0.764526
233.736	4.91418
237.111	8.8584
240.486	9.68408
243.86	6.26172
247.235	3.01465
250.61	4.48645
253.985	7.99133
257.36	12.4679
260.735	13.8315
264.109	16.8226
267.484	14.0818
270.859	14.303
274.234	19.7843
277.609	19.6541
280.983	21.5666
284.358	23.2749
287.733	23.6246
291.108	18.2333
294.483	12.5095
297.858	17.1392
301.232	11.3281
304.607	11.8232
307.982	9.09876
311.357	6.88965
314.732	0.458008
318.106	4.79627
321.481	5.14722
324.856	6.37805
328.231	2.06165
331.606	1.81055
334.981	1.10437
338.355	2.25964
341.73	2.52844
345.105	1.79761
348.48	0.626709
351.855	1.5199
355.229	4.4165
358.604	2.86523
361.979	2.09863
365.354	2.88184
368.729	6.11572
372.103	1.13818
375.478	0.524658
378.853	0.429932
382.228	2.71216
385.603	0.925659
388.978	1.94006
392.352	4.76904
395.727	9.82165
399.102	9.47559
402.477	15.292
405.852	11.1732
409.226	17.4243
412.601	23.4509
415.976	28.9445
419.351	36.1471
422.726	37.3575
426.101	48.2921
429.475	52.4391
432.85	64.8368
436.225	71.4957
439.6	78.2122
442.975	86.4522
446.349	100.232
449.724	105.86
453.099	113.318
456.474	125.45
459.849	133.54
463.224	132.77
466.598	137.902
469.973	141.493
473.348	150.936
476.723	158.647
480.098	163.626
483.473	170.862
486.847	172.863
490.222	176.181
493.597	172.973
496.972	169.521
500.347	155.965
503.721	147.326
507.096	129.403
510.471	109.785
513.846	95.1603
517.221	78.1038
520.596	60.1593
523.97	40.6298
527.345	30.1554
530.72	20.8479
534.095	12.4801
537.47	7.67957
540.844	1.43237
544.219	5.85364
547.594	4.04187
550.969	3.2771
554.344	1.47778
557.718	0.7229
561.093	5.39172
564.468	11.244
567.843	16.5143
571.218	23.0143
574.592	32.2614
577.967	30.8362
581.342	38.3407
584.717	38.1824
588.092	38.2666
591.467	34.3363
594.841	35.3397
598.216	30.5996
601.591	29.7443
604.966	24.9987
608.341	15.3473
611.716	7.11298
615.09	8.21533
618.465	3.55499
621.84	3.47906
625.215	0.664185
628.59	2.289
631.964	0.002014
635.339	1.87695
638.714	0.519958
642.089	0.14801
645.464	1.84235
648.838	10.7492
652.213	11.5637
655.588	14.568
658.963	12.3356
662.338	12.004
665.713	17.1197
669.087	16.9241
672.462	15.543
675.837	16.7648
679.212	15.0245
682.587	16.0378
685.962	11.5402
689.336	12.8423
692.711	6.65863
696.086	7.7196
699.461	5.94562
702.836	2.56805
706.21	1.99115
709.585	0.051941
712.96	0.789917
716.335	0.228455
719.71	1.73425
723.085	0.149963
726.459	0.697205
729.834	0.111267
733.209	2.34094
736.584	4.12347
739.959	4.31396
743.333	8.51666
746.708	8.68799
750.083	9.09436
753.458	9.9527
756.833	14.1845
760.207	19.1962
763.582	21.8902
766.957	26.2144
770.332	26.3903
773.707	32.1376
777.082	38.5908
780.456	40.1883
783.831	45.6428
787.206	44.1353
790.581	45.1249
793.956	43.9092
797.33	45.6863
800.705	46.5485
804.08	44.2695
807.455	44.4257
810.83	40.2513
814.205	40.5628
817.579	38.31
820.954	36.1868
824.329	32.344
827.704	26.387
831.079	22.2422
834.453	21.5873
837.828	18.1923
841.203	11.7333
844.578	7.70984
847.953	4.2262
851.328	5.87213
854.702	5.46558
858.077	1.98645
861.452	4.44611
864.827	3.40808
868.202	5.81714
871.577	5.1358
874.951	0.2677
878.326	0.130798
881.701	1.36658
885.076	2.24011
888.451	1.94
891.825	4.92206
895.2	4.08392
898.575	2.19409
901.95	0.254028
905.325	0.422058
908.699	0.558594
912.074	1.85724
915.449	5.07086
918.824	5.43842
922.199	6.78644
925.573	6.34821
928.948	6.89984
932.323	6.26447
935.698	5.88415
939.073	3.17664
942.448	2.95471
945.822	0.340088
949.197	1.20294
952.572	0.733643
955.947	1.41565
959.322	6.09229
962.697	6.89026
966.071	4.90161
969.446	9.05701
972.821	10.7676
976.196	15.5593
979.571	16.0472
982.945	16.9061
986.32	20.9857
989.695	21.4302
993.07	23.7707
996.445	26.3347
999.819	29.989
1003.19	31.2824
1006.57	37.5731
1009.94	41.4656
1013.32	43.5601
1016.69	49.1732
1020.07	49.4558
1023.44	49.1273
1026.82	54.2053
1030.19	57.583
1033.57	59.1853
1036.94	57.0832
1040.32	59.0875
1043.69	57.9511
1047.07	54.3568
1050.44	53.6337
1053.82	50.4298
1057.19	41.9875
1060.57	38.2517
1063.94	31.9309
1067.32	28.5441
1070.69	25.2653
1074.07	22.572
1077.44	19.6871
1080.82	11.0405
1084.19	13.7178
1087.57	10.9964
1090.94	4.46515
1094.31	6.51196
1097.69	1.66846
1101.06	3.04303
1104.44	2.76605
1107.81	3.3399
1111.19	1.87775
1114.56	0.295959
1117.94	0.861633
1121.31	0.331604
1124.69	2.60821
1128.06	1.50275
1131.44	0.880371
1134.81	0.183716
1138.19	2.92218
1141.56	3.74091
1144.94	2.92987
1148.31	3.58539
1151.69	4.15747
1155.06	4.72565
1158.44	5.38043
1161.81	6.07379
1165.19	10.5976
1168.56	10.4271
1171.93	8.8692
1175.31	9.31067
1178.68	10.3722
1182.06	13.6752
1185.43	13.5584
1188.81	12.7424
1192.18	13.4321
1195.56	13.937
1198.93	13.2994
1202.31	9.50159
1205.68	9.2392
1209.06	10.3281
1212.43	7.83038
1215.81	8.00336
1219.18	6.6272
1222.56	6.91113
1225.93	4.79846
1229.31	3.33057
1232.68	0.390869
1236.06	1.85175
1239.43	1.09351
1242.81	1.43414
1246.18	5.38123
1249.56	5.27844
1252.93	8.09454
1256.31	10.4993
1259.68	7.59717
1263.06	6.43994
1266.43	8.22894
1269.81	8.92206
1273.18	6.53259
1276.56	3.23206
1279.93	4.45111
1283.3	6.18768
1286.68	6.3205
1290.05	6.93512
1293.43	9.3396
1296.8	4.02649
1300.18	0.887573
