Measurement: Raman, 780 nm, unoriented, Raman Data Processed
Mineral: Trinitite
Rruff sample: R160072
Locality: Fireball area of the first atomic bomb detonation at the Trinity test site, White Sands Missile Range, New Mexico, USA
Source: Jeremy Yeak
Description: Fragments of glass
Raman shift (cm-1)	intensity
145.436	0
148.329	0.033264
151.222	0.433777
154.114	6.68378
157.007	2.77789
159.9	4.75671
162.792	6.48303
165.685	7.19861
168.578	3.85199
171.471	9.9989
174.363	4.29578
177.256	7.54974
180.149	5.94519
183.041	5.59143
185.934	5.07275
188.827	3.08911
191.72	0.284485
194.612	1.97827
197.505	0.323914
200.398	0.687073
203.29	2.25427
206.183	0.987488
209.076	3.42523
211.969	6.22449
214.861	3.65247
217.754	9.40533
220.647	7.32245
223.539	8.90265
226.432	9.56024
229.325	13.8339
232.217	11.0969
235.11	15.8901
238.003	16.1045
240.895	16.0261
243.788	18.1036
246.681	14.7189
249.574	14.3784
252.466	11.5941
255.359	13.0617
258.252	11.891
261.144	9.92718
264.037	9.54022
266.93	8.88946
269.822	5.51636
272.715	1.79083
275.608	3.39685
278.5	5.59125
281.393	3.57361
284.286	5.87378
287.179	1.42291
290.071	3.32355
292.964	1.77142
295.857	7.52045
298.75	2.5152
301.642	5.75665
304.535	5.34918
307.428	5.14563
310.32	3.17395
313.213	2.59644
316.106	2.49359
318.998	2.55225
321.891	2.32336
324.784	3.89514
327.676	2.38251
330.569	0.122131
333.462	1.95325
336.355	0.591187
339.247	2.55774
342.14	1.5296
345.033	1.00446
347.925	1.22888
350.818	1.40045
353.711	0.627014
356.603	1.58307
359.496	0.244873
362.389	0.904846
365.282	0.645203
368.174	1.60913
371.067	0.098694
373.96	0.159363
376.852	0.604431
379.745	1.47546
382.638	1.02411
385.531	0.522827
388.423	1.92096
391.316	1.88855
394.209	1.71973
397.101	2.2016
399.994	3.54456
402.887	2.77698
405.779	2.77783
408.672	4.24127
411.565	7.81287
414.457	7.92316
417.35	10.4853
420.243	13.8098
423.136	15.4405
426.028	16.9471
428.921	18.1613
431.814	19.7787
434.706	23.0089
437.599	27.3105
440.492	29.443
443.385	31.549
446.277	32.7571
449.17	37.0554
452.063	38.9746
454.955	40.2448
457.848	45.1699
460.741	42.2819
463.633	48.5342
466.526	47.9878
469.419	53.6348
472.312	56.4124
475.204	50.79
478.097	53.57
480.99	53.7319
483.882	54.7637
486.775	57.1531
489.668	57.6065
492.56	54.9085
495.453	56.6704
498.346	56.0546
501.238	50.721
504.131	47.1336
507.024	41.2602
509.917	37.308
512.809	31.7021
515.702	26.54
518.595	22.9575
521.487	17.8033
524.38	14.565
527.273	13.9916
530.165	6.84399
533.058	6.9397
535.951	2.9537
538.844	2.10001
541.736	0.614319
544.629	0.360626
547.522	1.07495
550.414	0.87854
553.307	1.26523
556.2	1.81155
559.092	1.6293
561.985	1.12311
564.878	4.57581
567.771	5.37213
570.663	7.77057
573.556	3.92053
576.449	9.78909
579.341	10.6738
582.234	10.5259
585.127	10.5334
588.019	9.60706
590.912	10.5547
593.805	9.14062
596.698	9.27957
599.59	9.69253
602.483	7.56531
605.376	8.15949
608.268	6.02576
611.161	2.21979
614.054	3.867
616.947	1.46295
619.839	0.127716
622.732	1.04877
625.625	1.32147
628.517	0.503998
631.41	1.21765
634.303	1.40888
637.195	2.79779
640.088	1.34265
642.981	4.99942
645.874	4.0274
648.766	2.2977
651.659	3.72806
654.552	5.95206
657.444	6.14856
660.337	3.03274
663.23	5.62933
666.122	6.54968
669.015	3.74957
671.908	5.59644
674.801	5.85825
677.693	4.83975
680.586	2.65414
683.479	4.24396
686.371	2.71896
689.264	3.07632
692.157	1.95828
695.049	4.38208
697.942	1.18778
700.835	0.799316
703.727	1.87439
706.62	0.153503
709.513	1.54712
712.406	2.49087
715.298	2.50211
718.191	0.673859
721.084	0.195862
723.976	1.65811
726.869	0.994354
729.762	0.773163
732.654	0.737518
735.547	0.891907
738.44	1.45718
741.333	0.579376
744.225	0.03479
747.118	3.17911
750.011	1.59293
752.903	3.38101
755.796	3.0109
758.689	5.33292
761.582	3.19074
764.474	4.62997
767.367	5.66068
770.26	5.04214
773.152	6.0213
776.045	5.66669
778.938	7.57272
781.83	7.94156
784.723	8.27685
787.616	7.92386
790.509	9.19427
793.401	9.27081
796.294	8.49338
799.187	9.16205
802.079	10.0742
804.972	10.9025
807.865	9.05682
810.757	7.99692
813.65	9.01901
816.543	6.51932
819.436	6.62756
822.328	7.34833
825.221	5.2933
828.114	3.89023
831.006	3.23288
833.899	4.03769
836.792	3.92285
839.684	2.73676
842.577	2.67102
845.47	3.06473
848.362	1.66013
851.255	1.22391
854.148	1.36835
857.041	2.60803
859.933	0.615356
862.826	1.19305
865.719	4.77347
868.611	4.69669
871.504	2.79804
874.397	1.38007
877.29	1.03982
880.182	1.18445
883.075	0.163086
885.968	0.207825
888.86	1.35052
891.753	1.59393
894.646	0.889984
897.538	1.3038
900.431	0.13678
903.324	0.194061
906.217	0.109406
909.109	1.1676
912.002	0.583435
914.895	0.534119
917.787	0.494629
920.68	1.21542
923.573	0.829926
926.466	1.4458
929.358	2.69785
932.251	2.15271
935.144	0.629761
938.036	2.60892
940.929	1.90863
943.822	0.713776
946.714	2.27173
949.607	1.38116
952.5	1.59665
955.393	1.85843
958.285	3.44632
961.178	2.91379
964.071	1.60104
966.963	0.7565
969.856	3.49432
972.749	4.04788
975.641	2.29858
978.534	5.10196
981.427	3.67886
984.319	7.55347
987.212	8.42148
990.105	6.15894
992.998	8.65067
995.89	8.8367
998.783	8.94562
1001.68	7.67807
1004.57	8.41361
1007.46	11.276
1010.35	10.9699
1013.25	13.4927
1016.14	12.1528
1019.03	12.8069
1021.92	14.3634
1024.82	13.6426
1027.71	13.8691
1030.6	14.5507
1033.49	14.1751
1036.39	14.2908
1039.28	14.7199
1042.17	12.659
1045.07	13.5853
1047.96	12.66
1050.85	10.5202
1053.74	11.1625
1056.64	10.4101
1059.53	12.2256
1062.42	10.5333
1065.32	9.64331
1068.21	5.35144
1071.1	7.47684
1073.99	7.65607
1076.89	5.70108
1079.78	6.87061
1082.67	5.94843
1085.56	4.71387
1088.46	1.64282
1091.35	2.27853
1094.24	1.46207
1097.13	2.76709
1100.03	2.62595
1102.92	0.280701
1105.81	2.1893
1108.71	1.39792
1111.6	0.61795
1114.49	1.1477
1117.38	1.12677
1120.28	0.027557
1123.17	1.07935
1126.06	1.11658
1128.95	0.726532
1131.85	3.15259
1134.74	0.778442
1137.63	2.64166
1140.53	0.277618
1143.42	2.39618
1146.31	2.19318
1149.2	2.15888
1152.1	2.41553
1154.99	3.80432
1157.88	5.36951
1160.77	4.82123
1163.67	6.34418
1166.56	4.70697
1169.45	4.67896
1172.35	7.91144
1175.24	4.63458
1178.13	6.35455
1181.02	6.09131
1183.92	3.82342
1186.81	5.04547
1189.7	3.17041
1192.59	4.83777
1195.49	2.45917
1198.38	5.02417
1201.27	3.98877
1204.16	3.80749
1207.06	1.91809
1209.95	3.88184
1212.84	2.85553
1215.73	2.47412
1218.63	1.03711
1221.52	0.04657
1224.41	1.44458
1227.31	1.48083
1230.2	0.451233
1233.09	1.78601
1235.98	1.1499
1238.88	0.108093
1241.77	0.627686
1244.66	3.69537
1247.56	0.804382
1250.45	1.30042
1253.34	1.72601
1256.23	3.59863
1259.13	3.02087
1262.02	3.11877
1264.91	2.53406
1267.8	1.67755
1270.7	3.3111
1273.59	2.89899
1276.48	2.24756
1279.38	0.684937
1282.27	0
