Measurement: Raman, 785 nm, unoriented, Raman Data RAW
Mineral: Triplite
Rruff sample: R060743
Ideal chemistry: Mn^2+^_2_(PO_4_)F
Locality: Shigar Valley, northeast of Skardu, Baltistan, Pakistan
Source: Herb Obodda
Description: Reddish-brown transparent fragment
Measured chemistry: (Mn^2+^_1.68_Fe^2+^_0.16_Ca_0.16_)_Σ=2_(P_1.00_O_4_)(F_0.71_(OH)_0.29_)_Σ=1_
Raman shift (cm-1)	intensity
80.997	5.421
90.639	5.713
100.282	5.538
109.924	4.976
119.566	10.821
129.208	54.676
138.851	109.395
148.493	186.412
158.135	186.623
167.778	176.816
177.42	176.481
187.062	195.986
196.705	172.921
206.347	195.357
215.99	257.271
225.632	262.482
235.274	311.433
244.917	331.671
254.559	246.626
264.201	217.338
273.844	264.71
283.486	259.772
293.128	245.874
302.771	210.304
312.413	215.504
322.055	206.798
331.698	205.127
341.34	197.256
350.982	189.06
360.625	191.622
370.267	184.855
379.909	181.169
389.552	194.343
399.194	209.069
408.836	232.418
418.478	405.848
428.121	546.145
437.763	490.586
447.405	690.369
457.048	520.231
466.69	268.017
476.333	178.522
485.975	140.829
495.617	123.651
505.26	107.321
514.902	96.856
524.544	93.882
534.187	88.405
543.829	91.568
553.471	85.327
563.114	110.517
572.756	196.562
582.398	233.102
592.041	502.363
601.683	572.95
611.325	434.076
620.968	202.26
630.61	106.733
640.252	81.197
649.895	74.223
659.537	68.096
669.179	69.215
678.822	69.497
688.464	64.67
698.106	63.229
707.749	68.416
717.391	64.667
727.033	63.854
736.676	60.282
746.318	64.526
755.96	51.346
765.603	58.129
775.245	59.036
784.887	60.455
794.53	59.705
804.172	66.931
813.814	68.516
823.457	65.289
833.099	62.159
842.741	62.282
852.384	58.03
862.026	55.849
871.668	60.162
881.311	62.682
890.953	61.368
900.595	67.919
910.238	67.101
919.88	76.841
929.522	81.349
939.165	102.56
948.807	145.465
958.449	293.709
968.092	1066.82
977.734	5930.41
987.376	2601.31
997.019	405.063
1006.66	309.195
1016.3	323.744
1025.95	369.347
1035.59	462.297
1045.23	350.907
1054.87	188.705
1064.52	161.528
1074.16	215.291
1083.8	134.87
1093.44	102.144
1103.08	85.47
1112.73	106.015
1122.37	207.492
1132.01	206.134
1141.65	93.35
1151.3	74.368
1160.94	70.425
1170.58	73.466
1180.22	69.939
1189.87	70.428
1199.51	64.233
1209.15	59.066
1218.79	54.269
1228.43	54.636
1238.08	52.795
1247.72	57.871
1257.36	52.362
1267	46.116
1276.65	44.338
1286.29	41.304
1295.93	44.145
1305.57	47.927
1315.22	42.975
1324.86	48.921
1334.5	40.408
1344.14	40.765
1353.79	35.681
1363.43	35.785
1373.07	38.867
1382.71	39.847
1392.35	39.555
1402	40.383
1411.64	39.493
1421.28	39.957
1430.92	41.971
1440.57	37.189
1450.21	40.131
1459.85	36.69
1469.49	34.526
1479.13	36.289
1488.78	32.946
1498.42	38.665
1508.06	36.226
1517.7	33.595
1527.35	37.976
1536.99	36.37
1546.63	37.83
1556.27	40.213
1565.92	41.336
1575.56	33.745
1585.2	35.967
1594.84	37.754
1604.49	33.11
1614.13	36.367
1623.77	36.446
1633.41	37.804
1643.06	32.759
1652.7	38.429
1662.34	32.351
1671.98	33.393
1681.62	39.543
1691.27	36.14
1700.91	32.892
1710.55	37.16
1720.19	34.57
1729.84	30.169
1739.48	30.753
1749.12	23.858
1758.76	25.116
1768.41	30.538
1778.05	31.701
1787.69	23.479
1797.33	21.326
1806.97	20.671
1816.62	20.087
1826.26	25.705
1835.9	22.295
1845.54	24.68
1855.19	24.813
1864.83	23.197
1874.47	20.672
1884.11	24.22
1893.76	23.677
1903.4	20.496
1913.04	19.167
1922.68	19.449
1932.33	15.999
1941.97	16.953
1951.61	19.702
1961.25	17.736
1970.89	19.811
1980.54	14.539
1990.18	16.481
1999.82	19.327
2009.46	18.998
2019.11	17.373
2028.75	19.448
2038.39	15.014
2048.03	15.495
2057.68	13.27
2067.32	15.593
2076.96	13.428
2086.6	14.549
2096.24	15.371
2105.89	16.649
2115.53	14.862
2125.17	14.137
2134.81	14.614
2144.46	14.603
2154.1	13.888
2163.74	13.125
2173.38	13.015
2183.03	10.627
2192.67	11.644
2202.31	12.634
2211.95	13.363
2221.59	13.036
2231.24	9.855
2240.88	11.18
2250.52	12.026
2260.16	11.693
2269.81	11.278
2279.45	10.328
2289.09	9.272
2298.73	9.546
2308.38	10.503
2318.02	8.073
2327.66	9.198
2337.3	10.296
2346.95	7.742
2356.59	8.642
2366.23	8.275
2375.87	6.63
2385.51	8.064
2395.16	6.85
2404.8	6.671
2414.44	7.814
2424.08	9.088
2433.73	9.405
2443.37	6.776
2453.01	8.022
2462.65	5.935
2472.3	4.801
2481.94	8.107
2491.58	7.271
2501.22	5.565
2510.86	6.634
2520.51	4.93
2530.15	5.614
2539.79	5.715
2549.43	3.977
2559.08	4.746
2568.72	3.882
2578.36	4.408
2588	6.516
2597.65	4.476
2607.29	5.099
2616.93	4.316
2626.57	4.27
2636.22	4.576
2645.86	4.97
2655.5	4.581
2665.14	5.891
2674.78	4.329
2684.43	2.567
2694.07	5.058
2703.71	5.082
2713.35	1.864
2723	3.351
2732.64	3.888
2742.28	4.4
2751.92	3.002
2761.57	4.094
2771.21	5.599
2780.85	5.225
2790.49	1.295
2800.14	2.114
2809.78	3.044
2819.42	4.985
2829.06	2.192
2838.7	0.967
2848.35	1.617
2857.99	3.804
2867.63	3.176
2877.27	5.656
2886.92	1.672
2896.56	2.99
2906.2	3.544
2915.84	1.228
2925.49	3.089
2935.13	0.904
2944.77	1.948
2954.41	1.563
2964.05	0.326
2973.7	0.527
2983.34	2.033
2992.98	1.646
3002.62	-0.548
3012.27	2.287
3021.91	1.584
3031.55	1.702
3041.19	2.634
3050.84	4.269
3060.48	1.434
3070.12	0.816
3079.76	2.072
3089.41	1.984
3099.05	0.53
3108.69	2.123
3118.33	-1.386
3127.97	1.544
3137.62	0.976
3147.26	1.458
3156.9	1.574
3166.54	3.5
3176.19	-0.458
3185.83	3.515
3195.47	-0.2
3205.11	1.304
3214.76	3.103
3224.4	3.296
3234.04	3.364
3243.68	1.268
3253.32	1.452
3262.97	-1.715
3272.61	1.043
3282.25	3.809
3291.89	0.846
3301.54	0.988
3311.18	-1.111
3320.82	0.861
3330.46	3.258
3340.11	-1.12
3349.75	1.264
3359.39	2.572
3369.03	-0.274
3378.68	-1.01
3388.32	2.67
3397.96	2.737
3407.6	1.045
3417.24	1.453
3426.89	0.728
