Measurement: Raman, 785 nm, unoriented, Raman Data RAW
Mineral: Tritomite-(Ce)
Rruff sample: R060046
Ideal chemistry: Ce_5_(SiO_4_,BO_4_)_3_(OH,O)
Locality: Langesundfjord, Norway
Source: University of Arizona Mineral Museum
Description: Aggregate of orange coarse amorphous fragments
Measured chemistry: (Ca_1.90_Sr_0.10_)_Σ=2_(Ce_0.91_La_0.91_Th_0.75_Zr_0.20_[box]_0.13_Fe^2+^_0.10_)_Σ=3_((SiO_4_)_2.45_(BO_4_)_0.55_)_Σ=3_(OH)
Raman shift (cm-1)	intensity
109.931	567.599
112.823	658.1
115.716	723.226
118.609	887.526
121.501	1126.58
124.394	1568.29
127.287	2179.12
130.18	2750.71
133.072	3216.39
135.965	3736.93
138.858	4630.37
141.75	6097.15
144.643	7918.94
147.536	9301.92
150.429	10108
153.321	10596.2
156.214	11121.6
159.107	12005.5
161.999	13240.1
164.892	14362.5
167.785	15366.7
170.677	16114.4
173.57	16700.6
176.463	17267.7
179.356	17978.9
182.248	18714.6
185.141	19242.8
188.034	19872.6
190.926	20482.3
193.819	21120.8
196.712	21840.5
199.604	22301.8
202.497	22967.9
205.39	23356.4
208.282	23863.9
211.175	24382.3
214.068	24942.8
216.961	25557.6
219.853	26371
222.746	26982.1
225.639	27541.7
228.531	28168.5
231.424	28822.1
234.317	29601.3
237.209	30386.3
240.102	31171.6
242.995	31999.3
245.888	32756.9
248.78	33524.8
251.673	34320.9
254.566	35379.1
257.458	36238.1
260.351	37211.8
263.244	38202.8
266.137	39172.1
269.029	39991.4
271.922	40961.9
274.815	41889.5
277.707	42958.5
280.6	43854.4
283.493	44800.4
286.385	45727.7
289.278	46434.8
292.171	47084.3
295.063	47647.6
297.956	48198.7
300.849	49058.4
303.742	49575.2
306.634	50041.9
309.527	50341.4
312.42	50599.9
315.312	50691.4
318.205	50759.7
321.098	50865.7
323.99	51054.7
326.883	50991.9
329.776	51084.9
332.669	50712.1
335.561	50438.5
338.454	49983.7
341.347	49785.8
344.239	49423.1
347.132	49160.3
350.025	48841.6
352.918	48457.1
355.81	48004.9
358.703	47540.7
361.596	46971.9
364.488	46727.1
367.381	46220
370.274	45909.1
373.166	45698.7
376.059	45181.4
378.952	44794.8
381.844	44104.5
384.737	43886
387.63	43491.2
390.523	43069.1
393.415	42962.2
396.308	42653.8
399.201	42252.1
402.093	41720.5
404.986	41285.7
407.879	41059.5
410.772	40707.5
413.664	40389.7
416.557	40337.1
419.45	40153.4
422.342	39553.4
425.235	39237.5
428.128	38803.5
431.02	38588.3
433.913	38236.6
436.806	37982.6
439.699	37721.7
442.591	37403.4
445.484	37041.2
448.377	36821.3
451.269	36487.9
454.162	36175.6
457.055	35883.1
459.947	35530.7
462.84	35292.5
465.733	35149.9
468.625	34691.9
471.518	34377
474.411	34041.3
477.304	33877.2
480.196	33502.3
483.089	33207.4
485.982	32906
488.874	32935.4
491.767	32618.4
494.66	32351.9
497.553	32047.3
500.445	31782.7
503.338	31422
506.231	31457
509.123	31210.8
512.016	30915
514.909	30662
517.802	30435.9
520.694	30194.3
523.587	30006.1
526.48	29709.7
529.372	29606
532.265	29383.8
535.158	29098.8
538.05	28920.3
540.943	28656.7
543.836	28374.6
546.729	28080.3
549.621	27977.8
552.514	27791.8
555.407	27493.2
558.299	27233.4
561.192	27166.5
564.085	26860.2
566.977	26626.3
569.87	26353.1
572.763	26304.9
575.655	25984.5
578.548	25828.4
581.441	25687.2
584.333	25448.8
587.226	25228.2
590.119	24928.3
593.012	24734
595.904	24521.5
598.797	24351.5
601.69	24459.8
604.582	23970.2
607.475	23701.3
610.368	23532.1
613.26	23307.9
616.153	23034.4
619.046	22866.2
621.939	22718.6
624.831	22453.1
627.724	22244.8
630.617	22087.5
633.509	21853.3
636.402	21660.7
639.295	21457.7
642.188	21239.5
645.08	21117
647.973	20810
650.866	20671.3
653.758	20414.7
656.651	20208.3
659.544	20017.9
662.436	19837.8
665.329	19570.3
668.222	19308.1
671.115	19159.7
674.007	18930.6
676.9	18773
679.793	18530.9
682.685	18290.5
685.578	18108.6
688.471	17724.8
691.363	17610.7
694.256	17362.5
697.149	17280.4
700.042	16868.1
702.934	16758.2
705.827	16463.6
708.72	16282.3
711.612	16051.5
714.505	15852
717.398	15726
720.29	15409.3
723.183	15175.5
726.076	15003.6
728.968	14796.5
731.861	14564.8
734.754	14328
737.647	14187
740.539	14009.6
743.432	13779.9
746.325	13599.1
749.217	13442.2
752.11	13245.5
755.003	13031.2
757.895	12856.5
760.788	12703
763.681	12591
766.574	12372.9
769.466	12227.3
772.359	12083.8
775.252	11957.2
778.144	11744.5
781.037	11675.9
783.93	11522.3
786.822	11366.9
789.715	11252.3
792.608	11069.8
795.501	11047.8
798.393	10810.7
801.286	10789.5
804.179	10697.8
807.071	10592
809.964	10511.7
812.857	10430.7
815.75	10387.3
818.642	10309.6
821.535	10230.1
824.428	10196.3
827.32	10145
830.213	10067.4
833.106	10051.4
835.998	10008.5
838.891	10065.5
841.784	10033.2
844.677	9973.04
847.569	9995.43
850.462	9915.77
853.355	9975.6
856.247	10003
859.14	10042.2
862.033	9993.41
864.925	10120.3
867.818	10145.1
870.711	10091.3
873.604	10224.1
876.496	10247.9
879.389	10360.2
882.282	10434.5
885.174	10532.7
888.067	10601.7
890.96	10728.3
893.852	10796.8
896.745	10955.9
899.638	11131.5
902.53	11265.5
905.423	11513.1
908.316	11623.8
911.209	11787.6
914.101	12050.6
916.994	12287.2
919.887	12524.5
922.779	12809
925.672	13060.7
928.565	13322.1
931.457	13675.7
934.35	14110.6
937.243	14410.5
940.136	14755.8
943.028	15263.5
945.921	15717.9
948.814	16062.2
951.706	16609.3
954.599	17229.1
957.492	17775.8
960.385	18326.4
963.277	19052
966.17	19818.8
969.063	20450.5
971.955	21370.6
974.848	22104.5
977.741	23093.7
980.633	24011.3
983.526	24980
986.419	26182.8
989.312	27289.8
992.204	28516.8
995.097	30004.9
997.99	31236.2
1000.88	32736.5
1003.77	34419.3
1006.67	36086.9
1009.56	37769.8
1012.45	39508.9
1015.35	41417.3
1018.24	43334.3
1021.13	45641.1
1024.02	47806
1026.92	50146.7
1029.81	52679.1
1032.7	55431.4
1035.6	57888.5
1038.49	60873.8
1041.38	63863
1044.27	67065.8
1047.17	70387.2
1050.06	73940.8
1052.95	77956.3
1055.84	81646.9
1058.74	85831.1
1061.63	90142.4
1064.52	94637.8
1067.41	99572.7
1070.31	104446
1073.2	109846
1076.09	114993
1078.98	121086
1081.88	127150
1084.77	133044
1087.66	139112
1090.56	146101
1093.45	153096
1096.34	160200
1099.23	167659
1102.13	174896
1105.02	181906
1107.91	190155
1110.81	197738
1113.7	205181
1116.59	213216
1119.48	220852
1122.38	229358
1125.27	237020
1128.16	244657
1131.05	252064
1133.95	259690
1136.84	266722
1139.73	273950
1142.62	281245
1145.52	287803
1148.41	295129
1151.3	301617
1154.19	308281
1157.09	313838
1159.98	320088
1162.87	325991
1165.77	331694
1168.66	336921
1171.55	342595
1174.44	346793
1177.34	351654
1180.23	355435
1183.12	359560
1186.02	363602
1188.91	367059
1191.8	370624
1194.69	374313
1197.59	377246
1200.48	380486
1203.37	383220
1206.26	386879
1209.16	391514
1212.05	394769
1214.94	398261
1217.84	403619
1220.73	409107
1223.62	414796
1226.51	419789
1229.41	427757
1232.3	435186
1235.19	443715
1238.08	452935
1240.98	462979
