Measurement: Raman, 785 nm, unoriented, Raman Data RAW
Mineral: Troilite
Rruff sample: R070242
Ideal chemistry: Fe^2+^S^2-^
Locality: Union Mine (Salt Lake-California Mine), Low Divide District, Del Norte County, California, USA
Source: Michael Scott
Description: Fine grained massive, brownish-gray with metallic luster
Raman shift (cm-1)	intensity
169.713	8933.71
172.606	9048.58
175.499	9293.92
178.391	9490.78
181.284	9633.88
184.177	9890.1
187.069	9947.77
189.962	10085
192.855	10298.6
195.748	10254.5
198.64	10452.1
201.533	10582.7
204.426	10640.4
207.318	10696.5
210.211	10649.8
213.104	10716.1
215.996	10711.8
218.889	10811.8
221.782	10943.9
224.674	10963.2
227.567	10950.3
230.46	10965.1
233.353	11011.5
236.245	11065.8
239.138	11175.9
242.031	11148.5
244.923	11260.7
247.816	11458.5
250.709	11236.1
253.601	11210.8
256.494	11238.6
259.387	11346.6
262.28	11428.9
265.172	11493.7
268.065	11501.8
270.958	11559.4
273.85	11651
276.743	11744.9
279.636	11851.4
282.529	11828.4
285.421	11880
288.314	11896
291.207	11959
294.099	11928.6
296.992	11950.7
299.885	11880.3
302.777	11865.9
305.67	11897.1
308.563	11936.3
311.455	11974.9
314.348	11930.7
317.241	11885.1
320.134	11964.1
323.026	11877.2
325.919	11883.2
328.812	11908.3
331.704	11945.3
334.597	11947.6
337.49	11889.2
340.382	11820
343.275	11872.1
346.168	11856.4
349.061	11774.3
351.953	11813.4
354.846	11890.2
357.739	11852.1
360.631	11905.9
363.524	11931.2
366.417	11901.6
369.31	11958
372.202	11965.6
375.095	12009.5
377.988	12020.8
380.88	12027.3
383.773	12019.2
386.666	12001.2
389.558	12003.9
392.451	12115.9
395.344	12079.9
398.236	11980.9
401.129	12044.6
404.022	12031.1
406.915	11983.3
409.807	11983.5
412.7	11904.9
415.593	11843.2
418.485	11916.5
421.378	11811.8
424.271	11810.2
427.163	11783.8
430.056	11732
432.949	11708.5
435.842	11681.4
438.734	11702.9
441.627	11667.9
444.52	11754.1
447.412	11752.3
450.305	11700.3
453.198	11677.4
456.091	11621.3
458.983	11694.5
461.876	11752
464.769	11698.6
467.661	11749.1
470.554	11736.1
473.447	11675.6
476.339	11688.8
479.232	11665.3
482.125	11613.1
485.017	11763.3
487.91	11665
490.803	11581.4
493.696	11666.6
496.588	11663.2
499.481	11612.3
502.374	11524.6
505.266	11571.1
508.159	11575.9
511.052	11514.9
513.944	11526.3
516.837	11542.1
519.73	11543.4
522.623	11500.6
525.515	11510.5
528.408	11477.3
531.301	11467.6
534.193	11512.8
537.086	11497.8
539.979	11495.9
542.871	11429.3
545.764	11523.1
548.657	11397.3
551.55	11442.2
554.442	11540.8
557.335	11407.2
560.228	11482.5
563.12	11480.7
566.013	11433.4
568.906	11501.2
571.798	11466.7
574.691	11493.5
577.584	11525.3
580.477	11583.9
583.369	11486.9
586.262	11510.7
589.155	11491.5
592.047	11422.2
594.94	11406.7
597.833	11496.4
600.726	11464.5
603.618	11461.6
606.511	11438.9
609.404	11453.7
612.296	11489.7
615.189	11394.5
618.082	11367.8
620.974	11380.6
623.867	11394.6
626.76	11444.8
629.653	11429.6
632.545	11303.5
635.438	11361.9
638.331	11359.8
641.223	11282.5
644.116	11243.2
647.009	11300.1
649.901	11333.6
652.794	11279.5
655.687	11320.3
658.58	11335.4
661.472	11273.8
664.365	11243.1
667.258	11234.9
670.15	11191.2
673.043	11215.1
675.936	11247.6
678.828	11160
681.721	11205.1
684.614	11123.6
687.506	11103.6
690.399	11118.4
693.292	11073.5
696.185	11112.3
699.077	11078.8
701.97	11016.8
704.863	11081.3
707.755	11056.6
710.648	10978.8
713.541	10907.3
716.433	11006.2
719.326	10919.1
722.219	10924.2
725.112	10844.1
728.004	10809.8
730.897	10819.9
733.79	10816.5
736.682	10802.8
739.575	10726
742.468	10738.1
745.361	10660.2
748.253	10720
751.146	10637.8
754.039	10651.6
756.931	10611.4
759.824	10603.2
762.717	10529.4
765.609	10511.7
768.502	10476.5
771.395	10498.5
774.288	10469.3
777.18	10488.8
780.073	10353
782.966	10378.8
785.858	10349.3
788.751	10391.5
791.644	10315.7
794.536	10305.4
797.429	10308.4
800.322	10302.9
803.215	10299.9
806.107	10275.4
809	10186.8
811.893	10257.2
814.785	10207
817.678	10157.5
820.571	10241.7
823.463	10181.2
826.356	10167.8
829.249	10139.1
832.141	10117.6
835.034	10147.5
837.927	10134.7
840.82	10043.3
843.712	10062.8
846.605	10046.7
849.498	10044.4
852.39	10039.5
855.283	10067.7
858.176	10059.5
861.068	10002.1
863.961	9960.96
866.854	9972.17
869.747	9953.41
872.639	10018.9
875.532	9915.97
878.425	9964.78
881.317	9935.58
884.21	9888.94
887.103	9922.99
889.995	9869.69
892.888	9833.96
895.781	9852.8
898.674	9897.33
901.566	9854.53
904.459	9857.9
907.352	9788.52
910.244	9819.14
913.137	9818.25
916.03	9770.34
918.923	9676.28
921.815	9733.48
924.708	9696.61
927.601	9714.07
930.493	9738.87
933.386	9744.72
936.279	9738.5
939.171	9663.04
942.064	9695.24
944.957	9662.04
947.85	9671.22
950.742	9640.17
953.635	9672.75
956.528	9618.95
959.42	9650.72
962.313	9602.74
965.206	9604.97
968.098	9595.65
970.991	9589.89
973.884	9504.03
976.777	9592.65
979.669	9602.56
982.562	9627.67
985.455	9554.49
988.347	9532.43
991.24	9472.64
994.133	9568.93
997.025	9517.44
999.918	9494.05
1002.81	9459.02
1005.7	9539.61
1008.6	9475
1011.49	9487.38
1014.38	9505.52
1017.27	9526.78
1020.17	9491.11
1023.06	9439.93
1025.95	9417.68
1028.85	9427.36
1031.74	9386.91
1034.63	9432.81
1037.52	9466.51
1040.42	9395.92
1043.31	9417.15
1046.2	9382.94
1049.09	9337.7
1051.99	9355.94
1054.88	9346.44
1057.77	9313.6
1060.66	9315.44
1063.56	9303.52
1066.45	9318.67
1069.34	9338.58
1072.24	9332.15
1075.13	9289.22
1078.02	9308.58
1080.91	9266.74
1083.81	9232.65
1086.7	9266.65
1089.59	9242.59
1092.48	9230.34
1095.38	9256.43
1098.27	9252
1101.16	9203.78
1104.06	9175.73
1106.95	9209.41
1109.84	9194.24
1112.73	9180.4
1115.63	9233.81
1118.52	9178.76
1121.41	9175.05
1124.3	9217.49
1127.2	9181.01
1130.09	9171.91
1132.98	9230.67
1135.88	9133.34
1138.77	9175
1141.66	9197.39
1144.55	9149
1147.45	9234.05
1150.34	9178.67
1153.23	9212.06
1156.12	9149.23
1159.02	9203.62
1161.91	9153.11
1164.8	9094.56
1167.69	9151.94
1170.59	9143.43
1173.48	9065.74
1176.37	9145.62
1179.27	9060.58
1182.16	9107.85
1185.05	9157.21
1187.94	9058.57
1190.84	9089.91
1193.73	9112.8
1196.62	9082.67
1199.51	9173.45
1202.41	9071.74
1205.3	9142.37
1208.19	9062.2
1211.09	9077.7
1213.98	9102.69
1216.87	9035.72
1219.76	9037.71
1222.66	9026.14
1225.55	9030.34
1228.44	8993.2
1231.33	9003.89
1234.23	8979.33
1237.12	9034.2
1240.01	8983.85
1242.9	8997.8
