Measurement: Raman, 780 nm, unoriented, Raman Data Processed
Mineral: Tschernichite
Rruff sample: R060482
Ideal chemistry: CaAl_2_Si_6_O_16_8H_2_O
Locality: Neer Road Pit, Goble, Columbia County, Oregon, USA
Source: Michael Scott
Description: Colorless steep dipyramidal tetragonal crystals
Raman shift (cm-1)	intensity
99.7559	16.3694
103.131	13.5867
106.505	18.1639
109.88	37.7283
113.255	27.2066
116.63	29.4764
120.005	12.1398
123.38	4.09656
126.754	4.11279
130.129	2.2005
133.504	0.742371
136.879	2.71069
140.254	19.8013
143.629	24.2349
147.003	33.5574
150.378	51.4691
153.753	64.7131
157.128	75.1929
160.503	69.5233
163.877	66.1946
167.252	58.4751
170.627	52.1894
174.002	44.4134
177.377	38.6951
180.751	32.8171
184.126	23.9302
187.501	18.3514
190.876	16.7346
194.251	14.626
197.625	17.7344
201	20.148
204.375	24.546
207.75	26.3707
211.125	30.0384
214.5	31.8885
217.874	30.5897
221.249	27.5312
224.624	24.9249
227.999	20.7686
231.374	20.7167
234.749	17.4084
238.123	18.3022
241.498	15.353
244.873	11.0502
248.248	11.8893
251.623	8.38593
254.997	2.30106
258.372	0.765594
261.747	0.795505
265.122	3.52731
268.497	2.84058
271.872	3.50821
275.246	-0.283316
278.621	4.58002
281.996	13.0722
285.371	23.2586
288.745	35.9217
292.12	48.0541
295.495	64.1848
298.87	76.6797
302.245	88.2131
305.62	93.9266
308.994	95.4609
312.369	90.4927
315.744	84.2779
319.119	77.4253
322.494	72.5904
325.868	67.6108
329.243	65.2801
332.618	66.2897
335.993	58.9017
339.368	51.674
342.743	40.5868
346.117	28.9494
349.492	15.7935
352.867	6.48245
356.242	0.267517
359.617	1.25046
362.991	0.517853
366.366	2.63696
369.741	8.40836
373.116	11.2158
376.491	14.8459
379.865	14.6919
383.24	17.6423
386.615	17.1288
389.99	16.1338
393.365	14.0882
396.74	12.5218
400.114	10.464
403.489	11.5095
406.864	14.618
410.239	22.2002
413.614	32.4132
416.988	47.9171
420.363	64.8293
423.738	86.0736
427.113	112.733
430.488	125.115
433.863	126.381
437.237	128.164
440.612	130.916
443.987	133.948
447.362	135.648
450.737	134.259
454.111	133.115
457.486	129.779
460.861	122.724
464.236	108.079
467.611	86.6548
470.986	61.7102
474.36	39.623
477.735	23.5474
481.11	10.4599
484.485	2.42995
487.86	0.989044
491.234	2.16608
494.609	3.43799
497.984	1.39159
501.359	0.291008
504.734	0.837852
508.108	4.03435
511.483	5.37704
514.858	8.18265
518.233	10.9757
521.608	12.5482
524.982	13.4271
528.357	14.3825
531.732	15.4485
535.107	15.32
538.482	16.4218
541.857	18.6397
545.231	16.8925
548.606	16.3652
551.981	13.2683
555.356	10.1991
558.731	8.44845
562.106	6.15885
565.48	5.27092
568.855	2.9128
572.23	2.19487
575.605	3.10343
578.98	1.34924
582.354	4.23985
585.729	1.22854
589.104	0.876129
592.479	1.40424
595.854	0.023483
599.229	1.45297
602.603	0.857323
605.978	0.542603
609.353	1.40227
612.728	0.982018
616.102	2.20738
619.477	2.17284
622.852	3.44061
626.227	3.98373
629.602	5.14834
632.977	6.06212
636.351	7.57647
639.726	10.2482
643.101	13.0856
646.476	15.1081
649.851	17.1281
653.226	20.8753
656.6	20.8797
659.975	21.4155
663.35	19.6742
666.725	17.9607
670.1	15.4197
673.474	14.6223
676.849	10.332
680.224	9.40623
683.599	8.99165
686.974	5.17084
690.348	4.34594
693.723	3.19761
697.098	2.2977
700.473	1.02581
703.848	0.527718
707.222	0.203308
710.597	0.779907
713.972	0.937302
717.347	0.408981
720.722	0.149124
724.097	0.397621
727.471	0.081894
730.846	0.766449
734.221	0.262519
737.596	0.473189
740.971	0.453022
744.346	0.164932
747.72	0.633461
751.095	1.72057
754.47	2.6041
757.845	3.05676
761.22	3.23183
764.594	4.67125
767.969	6.85036
771.344	7.50875
774.719	10.6951
778.094	13.1387
781.468	17.6603
784.843	21.2652
788.218	25.2061
791.593	31.4558
794.968	37.9039
798.342	43.3807
801.717	46.3531
805.092	46.0004
808.467	39.4645
811.842	30.4144
815.217	21.1193
818.591	14.0371
821.966	9.43276
825.341	6.65001
828.716	5.60545
832.091	4.9457
835.466	5.1067
838.84	4.25573
842.215	3.56773
845.59	4.42357
848.965	4.36691
852.34	4.39907
855.714	5.4901
859.089	4.24187
862.464	3.98519
865.839	4.8942
869.214	4.24142
872.588	5.76273
875.963	4.21253
879.338	4.64244
882.713	4.16371
886.088	3.0074
889.462	1.88274
892.837	2.98912
896.212	0.882813
899.587	0.925301
902.962	0.899948
906.337	0.494133
909.711	0.892586
913.086	0.205391
916.461	0.391209
919.836	0.156712
923.211	0.43578
926.585	0.945152
929.96	0.177891
933.335	0.167103
936.71	0.781189
940.085	0.170994
943.46	1.2822
946.834	1.5569
950.209	1.12838
953.584	1.48763
956.959	0.893879
960.334	1.44099
963.708	1.04317
967.083	1.31919
970.458	0.438148
973.833	0.105267
977.208	0.22123
980.582	0.105682
983.957	1.05538
987.332	0.711769
990.707	0.090668
994.082	0.461552
997.457	1.39963
1000.83	1.06701
1004.21	0.884579
1007.58	1.1219
1010.96	0.837631
1014.33	0.801437
1017.71	1.11729
1021.08	0.22879
1024.45	0.229202
1027.83	0.713327
1031.2	0.596848
1034.58	1.55984
1037.95	1.52484
1041.33	1.87335
1044.7	1.44394
1048.08	1.52909
1051.45	1.19024
1054.83	1.64737
1058.2	1.66406
1061.58	1.94029
1064.95	1.76776
1068.33	1.09164
1071.7	0.98365
1075.08	0.252953
1078.45	0.099457
1081.83	1.01382
1085.2	1.25605
1088.58	1.86694
1091.95	3.26134
1095.33	3.81738
1098.7	4.2084
1102.08	5.83013
1105.45	7.52654
1108.83	8.09269
1112.2	10.7421
1115.58	10.2532
1118.95	9.38505
1122.33	9.05682
1125.7	8.7771
1129.07	6.72532
1132.45	6.50204
1135.82	6.91313
1139.2	5.53363
1142.57	5.22363
1145.95	4.96866
1149.32	4.00536
1152.7	4.42583
1156.07	4.93769
1159.45	4.05597
1162.82	4.51938
1166.2	3.68157
1169.57	4.62862
1172.95	3.90014
1176.32	3.95583
1179.7	4.2152
1183.07	3.65569
1186.45	1.92379
1189.82	2.74055
1193.2	1.56282
1196.57	0.567654
1199.94	1.11636
1203.32	0.318539
1206.69	0.117931
1210.07	0.953979
1213.44	0.201122
1216.82	0.190575
1220.19	0.721012
1223.57	0.129494
1226.94	0.221378
1230.32	0.203957
1233.69	0.381569
1237.07	0.671227
1240.44	1.23206
1243.82	1.46407
1247.19	1.76916
1250.57	2.75218
1253.94	1.63866
1257.32	2.27528
1260.69	2.1395
1264.07	2.64503
1267.44	1.49547
1270.82	1.10827
1274.19	1.90951
1277.57	0.636383
1280.94	0.928776
1284.32	0.153332
