Measurement: Raman, 532 nm, unoriented, Raman Data Processed
Mineral: Tschernichite
Rruff sample: R060482
Ideal chemistry: CaAl_2_Si_6_O_16_8H_2_O
Locality: Neer Road Pit, Goble, Columbia County, Oregon, USA
Source: Michael Scott
Description: Colorless steep dipyramidal tetragonal crystals
Raman shift (cm-1)	intensity
89.7832	0
93.158	74.8188
96.5328	59.9699
99.9077	24.3879
103.282	3.52271
106.657	3.87335
110.032	83.8149
113.407	93.3917
116.782	147.446
120.157	166.917
123.531	160.408
126.906	166.043
130.281	155.662
133.656	166.676
137.031	154.625
140.405	174.929
143.78	186.745
147.155	188.069
150.53	204.095
153.905	209.484
157.28	209.391
160.654	178.51
164.029	155.739
167.404	128.936
170.779	110.723
174.154	95.4854
177.528	77.0603
180.903	64.3889
184.278	52.3818
187.653	48.6046
191.028	41.5832
194.403	40.2137
197.777	46.4523
201.152	50.1321
204.527	52.9633
207.902	53.4503
211.277	51.8619
214.651	50.4284
218.026	42.1417
221.401	36.1102
224.776	26.4751
228.151	23.7808
231.525	15.5896
234.9	12.9306
238.275	10.0946
241.65	7.00473
245.025	6.56976
248.4	2.39731
251.774	1.24448
255.149	5.28455
258.524	4.81494
261.899	4.39294
265.274	5.14441
268.649	4.40097
272.023	2.66565
275.398	4.41507
278.773	15.6882
282.148	24.9813
285.523	39.4303
288.897	62.1563
292.272	81.564
295.647	101.222
299.022	120.185
302.397	138.431
305.772	147.536
309.146	149.866
312.521	142.364
315.896	126.521
319.271	113.656
322.646	104.449
326.02	100.076
329.395	101.503
332.77	96.6919
336.145	90.7028
339.52	81.4182
342.894	64.8536
346.269	44.2338
349.644	26.323
353.019	13.443
356.394	5.02203
359.769	1.93524
363.143	2.24335
366.518	7.7229
369.893	11.6355
373.268	16.0352
376.643	23.869
380.017	27.1171
383.392	28.2067
386.767	28.1049
390.142	22.322
393.517	17.6094
396.892	10.9619
400.266	10.1948
403.641	12.2138
407.016	16.915
410.391	23.301
413.766	40.252
417.14	65.2704
420.515	92.2542
423.89	121.515
427.265	148.269
430.64	169.852
434.014	181.262
437.389	187.468
440.764	195.708
444.139	198.406
447.514	205.553
450.889	205.931
454.263	204.211
457.638	199.74
461.013	188.315
464.388	169.326
467.763	133.668
471.137	98.5089
474.512	62.6507
477.887	34.5407
481.262	18.887
484.637	12.6008
488.012	0.969666
491.386	4.78043
494.761	7.01556
498.136	4.68102
501.511	0.953094
504.886	1.57604
508.26	5.16251
511.635	8.54521
515.01	15.667
518.385	18.2387
521.76	21.872
525.135	25.3547
528.509	27.067
531.884	30.0059
535.259	31.0466
538.634	31.3484
542.009	32.7415
545.384	32.7066
548.758	29.2065
552.133	27.1334
555.508	20.6708
558.883	17.424
562.258	13.5302
565.632	10.2667
569.007	8.5228
572.382	7.75784
575.757	6.21057
579.132	4.6111
582.506	4.98367
585.881	3.50995
589.256	4.63295
592.631	3.00594
596.006	2.43988
599.381	2.86983
602.755	2.20624
606.13	1.98052
609.505	2.29138
612.88	2.21461
616.255	1.66524
619.63	1.45792
623.004	2.74013
626.379	4.47763
629.754	4.14992
633.129	7.21135
636.504	8.31105
639.878	12.3879
643.253	16.6211
646.628	20.7247
650.003	24.8625
653.378	28.6927
656.752	32.1101
660.127	30.9515
663.502	29.4731
666.877	28.7304
670.252	23.6633
673.626	19.7263
677.001	16.679
680.376	14.5677
683.751	11.7039
687.126	9.17375
690.501	7.34998
693.875	4.86459
697.25	3.58122
700.625	2.31436
704	0.407166
707.375	0.156021
710.75	1.38597
714.124	1.86939
717.499	0.8116
720.874	0.233948
724.249	0.866867
727.624	2.15161
730.998	0.145554
734.373	1.34007
737.748	0.513184
741.123	2.93456
744.498	3.1577
747.872	3.49037
751.247	6.16551
754.622	5.46278
757.997	9.37904
761.372	12.5885
764.747	12.4465
768.121	15.9163
771.496	19.0348
774.871	22.0759
778.246	28.8304
781.621	35.4338
784.995	42.7781
788.37	51.1487
791.745	61.5763
795.12	72.1339
798.495	80.4719
801.87	84.3579
805.244	80.1273
808.619	70.0964
811.994	52.0248
815.369	37.4878
818.744	26.2101
822.119	18.2532
825.493	12.8102
828.868	10.5358
832.243	12.2143
835.618	10.385
838.993	11.5375
842.367	12.466
845.742	13.7726
849.117	11.7372
852.492	14.211
855.867	13.0963
859.241	16.96
862.616	17.1413
865.991	14.294
869.366	13.0946
872.741	14.2578
876.115	14.6243
879.49	14.8782
882.865	13.145
886.24	10.0687
889.615	10.0278
892.99	12.5496
896.364	7.05522
899.739	4.79549
903.114	4.07127
906.489	2.81097
909.864	0.982132
913.239	0.074142
916.613	0.554199
919.988	0.382706
923.363	0.33017
926.738	0.131088
930.113	0.973801
933.487	0.956085
936.862	1.08492
940.237	1.46866
943.612	1.55133
946.987	2.49509
950.361	2.52345
953.736	3.43634
957.111	2.42101
960.486	2.81555
963.861	3.55832
967.236	2.35587
970.61	2.40584
973.985	3.73489
977.36	2.62665
980.735	1.30144
984.11	1.59152
987.485	1.60055
990.859	0.082901
994.234	0.338745
997.609	0.268417
1000.98	0.364349
1004.36	1.30659
1007.73	1.68472
1011.11	1.55771
1014.48	1.76964
1017.86	2.28497
1021.23	2.94879
1024.61	1.96771
1027.98	3.88058
1031.36	4.33575
1034.73	5.42534
1038.11	5.35342
1041.48	4.75578
1044.86	5.4611
1048.23	5.67015
1051.61	5.00702
1054.98	4.84874
1058.36	3.1048
1061.73	3.93239
1065.11	2.85675
1068.48	1.65192
1071.86	0.76033
1075.23	1.31511
1078.6	0.040543
1081.98	0.669128
1085.35	0.097672
1088.73	1.81564
1092.1	6.28143
1095.48	8.2774
1098.85	12.409
1102.23	15.3998
1105.6	19.0886
1108.98	20.0951
1112.35	22.3879
1115.73	22.9743
1119.1	24.1022
1122.48	23.8301
1125.85	21.441
1129.23	20.1215
1132.6	18.849
1135.98	17.3364
1139.35	15.5256
1142.73	14.9661
1146.1	13.774
1149.48	11.9534
1152.85	11.9358
1156.22	14.4075
1159.6	12.634
1162.97	13.3667
1166.35	12.4207
1169.72	12.7015
1173.1	12.7135
1176.47	11.7103
1179.85	10.883
1183.22	9.56029
1186.6	8.19369
1189.97	6.54813
1193.35	5.16093
1196.72	4.44572
1200.1	3.54738
1203.47	1.40057
1206.85	0.97126
1210.22	0.416374
1213.6	1.14804
1216.97	0.078323
1220.35	0.339912
1223.72	0.958672
1227.1	0.0308
1230.47	0.602707
1233.85	0.198235
1237.22	0.103661
1240.6	1.27572
1243.97	1.76513
1247.35	2.87608
1250.72	2.61416
1254.1	3.99322
1257.47	5.79662
1260.85	3.91225
1264.22	4.94041
1267.59	4.53497
1270.97	3.35824
1274.34	2.78703
1277.72	3.67859
1281.09	3.31136
1284.47	1.13497
1287.84	1.87634
1291.22	2.26792
1294.59	0.735214
1297.97	0.277756
1301.34	0.01062
