Measurement: Raman, 780 nm, unoriented, Raman Data RAW
Mineral: Tuperssuatsiaite
Rruff sample: R050223
Ideal chemistry: Na_2_(Fe^3+^,Mn^2+^)_3_Si_8_O_20_(OH)_2_4H_2_O
Locality: Aris phonolite, Windhoek, Namibia
Source: Marcus Origlieri
Description: Group of reddish brown radiating acicular crystals
Raman shift (cm-1)	intensity
92.3535	103.285
95.7283	105.081
99.1031	99.9048
102.478	95.3076
105.853	94.2447
109.228	93.7211
112.602	93.9559
115.977	94.0454
119.352	93.8982
122.727	94.1627
126.102	94.2572
129.476	94.7769
132.851	95.5503
136.226	96.2259
139.601	95.5999
142.976	96.1904
146.351	97.4423
149.725	95.7222
153.1	97.0678
156.475	96.2767
159.85	96.4626
163.225	97.2933
166.6	96.2777
169.974	96.3679
173.349	96.6306
176.724	97.2824
180.099	96.1326
183.474	96.5575
186.848	96.9039
190.223	96.0977
193.598	96.4303
196.973	95.782
200.348	96.7016
203.722	95.9814
207.097	96.6651
210.472	95.4236
213.847	95.915
217.222	97.1162
220.596	95.2036
223.971	95.0359
227.346	94.7419
230.721	94.8267
234.096	94.1848
237.471	93.8655
240.845	94.205
244.22	93.937
247.595	93.7511
250.97	93.5595
254.345	93.0585
257.719	93.3274
261.094	92.7996
264.469	92.3362
267.844	92.6033
271.219	92.3773
274.594	92.306
277.968	92.2612
281.343	90.6518
284.718	91.0886
288.093	91.013
291.468	91.8984
294.842	91.4002
298.217	90.3467
301.592	89.7395
304.967	89.6863
308.342	89.3149
311.717	88.4846
315.091	89.5231
318.466	88.6928
321.841	88.7373
325.216	87.4141
328.591	87.9863
331.966	88.2858
335.34	87.4678
338.715	86.9775
342.09	85.5964
345.465	86.7956
348.839	86.9436
352.214	85.8768
355.589	85.6727
358.964	84.8073
362.339	85.006
365.714	85.0788
369.088	84.3702
372.463	84.5654
375.838	84.8404
379.213	83.6495
382.588	83.2241
385.962	82.7707
389.337	82.1656
392.712	81.7362
396.087	82.0099
399.462	81.6905
402.837	82.268
406.211	82.0134
409.586	81.2985
412.961	80.673
416.336	81.0708
419.711	80.0605
423.086	79.0732
426.46	80.006
429.835	79.1012
433.21	79.2063
436.585	79.1924
439.96	79.1814
443.334	78.0762
446.709	78.4838
450.084	78.644
453.459	77.8815
456.834	76.5922
460.209	77.2301
463.583	77.3988
466.958	76.5888
470.333	77.1149
473.708	75.8161
477.083	75.7903
480.457	75.5635
483.832	75.0922
487.207	74.6688
490.582	74.2702
493.957	74.0057
497.332	74.2493
500.706	73.9225
504.081	72.7383
507.456	73.2896
510.831	72.7549
514.206	72.9359
517.58	72.4176
520.955	72.7922
524.33	71.5694
527.705	71.4753
531.08	70.5952
534.455	71.4231
537.829	70.3657
541.204	70.5713
544.579	70.0362
547.954	69.4106
551.329	69.6036
554.703	69.88
558.078	68.3097
561.453	67.9354
564.828	67.8967
568.203	68.0726
571.577	67.6785
574.952	67.9553
578.327	67.728
581.702	67.4855
585.077	67.3475
588.452	67.0531
591.826	67.0841
595.201	67.5173
598.576	65.9063
601.951	65.4555
605.326	65.3242
608.7	65.988
612.075	64.6373
615.45	65.394
618.825	63.9207
622.2	64.5806
625.574	64.0497
628.949	64.0538
632.324	63.4397
635.699	63.2355
639.074	62.8207
642.448	62.7764
645.823	62.8511
649.198	61.1238
652.573	60.9247
655.948	61.6135
659.323	60.9315
662.697	60.8536
666.072	60.2946
669.447	60.9302
672.822	60.3814
676.197	60.177
679.572	58.9637
682.946	59.4581
686.321	59.4704
689.696	58.7642
693.071	58.4877
696.446	58.4514
699.82	57.5447
703.195	57.2957
706.57	57.4884
709.945	57.0533
713.32	57.4939
716.694	56.9756
720.069	56.7282
723.444	56.4053
726.819	57.0982
730.194	56.3224
733.569	55.8788
736.943	55.8413
740.318	55.6918
743.693	55.0441
747.068	54.5979
750.443	55.2648
753.817	54.5218
757.192	54.163
760.567	54.5341
763.942	54.1067
767.317	53.9238
770.692	53.7154
774.066	54.02
777.441	54.3092
780.816	53.6549
784.191	52.8774
787.566	52.8887
790.941	53.3451
794.315	52.4814
797.69	53.081
801.065	52.1074
804.44	51.9606
807.815	51.9022
811.189	51.6268
814.564	51.5942
817.939	51.1065
821.314	51.2155
824.689	50.5826
828.063	50.1979
831.438	50.7541
834.813	50.5944
838.188	50.6251
841.563	50.3046
844.938	49.6966
848.312	49.924
851.687	49.959
855.062	49.6693
858.437	48.7189
861.812	48.5289
865.187	49.1974
868.561	48.9713
871.936	48.3733
875.311	48.0955
878.686	48.197
882.061	47.1453
885.435	47.8574
888.81	47.7954
892.185	47.7369
895.56	47.4875
898.935	47.4712
902.309	47.1774
905.684	46.6996
909.059	47.2535
912.434	47.2751
915.809	46.6121
919.183	46.6188
922.558	46.6751
925.933	46.3971
929.308	46.1473
932.683	46.3947
936.058	46.6472
939.432	46.204
942.807	46.0992
946.182	45.9767
949.557	46.0105
952.932	45.5535
956.307	45.4774
959.681	44.707
963.056	44.8526
966.431	45.2654
969.806	44.8465
973.181	44.0412
976.555	44.5811
979.93	44.7498
983.305	43.9752
986.68	43.9589
990.055	43.7405
993.429	43.7403
996.804	43.9723
1000.18	43.5239
1003.55	43.211
1006.93	43.6405
1010.3	43.3195
1013.68	43.4102
1017.05	42.9989
1020.43	42.9912
1023.8	42.8728
1027.18	43.4439
1030.55	42.3307
1033.93	43.1185
1037.3	42.3078
1040.68	42.3191
1044.05	42.1448
1047.43	41.626
1050.8	40.982
1054.18	41.6795
1057.55	41.1475
1060.93	41.7184
1064.3	41.9775
1067.67	41.2272
1071.05	41.5643
1074.42	41.1338
1077.8	40.7366
1081.17	41.1032
1084.55	41.7922
1087.92	40.1641
1091.3	40.4536
1094.67	40.257
1098.05	40.407
1101.42	40.1586
1104.8	40.4043
1108.17	40.3487
1111.55	40.5944
1114.92	39.0681
1118.3	39.3683
1121.67	39.6277
1125.05	40.0176
1128.42	39.4008
1131.8	39.4157
1135.17	39.3086
1138.55	39.4659
1141.92	39.2047
1145.3	39.2906
1148.67	39.2276
1152.05	38.0767
1155.42	39.0028
1158.8	38.9213
1162.17	38.3831
1165.55	38.9752
1168.92	38.2768
1172.3	38.5073
1175.67	38.1417
1179.04	39.0301
1182.42	38.0259
1185.79	38.3995
1189.17	38.1666
1192.54	38.9942
1195.92	38.3902
1199.29	37.7312
1202.67	37.4014
1206.04	37.456
1209.42	37.4927
1212.79	37.6493
1216.17	38.8089
1219.54	37.0164
1222.92	37.4984
1226.29	36.9522
1229.67	37.2744
1233.04	37.2129
1236.42	37.1957
1239.79	37.2292
1243.17	37.436
1246.54	36.7589
1249.92	36.6995
1253.29	36.6408
1256.66	36.5056
1260.04	36.5459
1263.41	35.9018
1266.79	36.4117
1270.16	36.5039
1273.54	36.1733
1276.91	35.9171
1280.29	36.0802
1283.66	36.3746
