Measurement: Raman, 532 nm, unoriented, Raman Data Processed
Mineral: Uranopilite
Rruff sample: R060374
Ideal chemistry: (U^6+^O_2_)_6_S^6+^O_4_O_2_(OH)_6_14H_2_O
Locality: Apex mine, Lander County, Nevada, USA
Source: Michael Scott
Description: Mass of yellow acicular crystals
Raman shift (cm-1)	intensity
170.579	0
173.471	145.234
176.364	254.859
179.257	328.906
182.149	225.18
185.042	314.734
187.935	526.68
190.828	785.523
193.72	493.648
196.613	633.805
199.506	466.094
202.398	229.484
205.291	6.34375
208.184	105.984
211.077	565.93
213.969	880.984
216.862	679.344
219.755	338.625
222.647	288.258
225.54	287.383
228.433	247.195
231.325	283.812
234.218	258.977
237.111	355.391
240.004	91.8047
242.896	179.727
245.789	629.344
248.682	465.734
251.574	555.016
254.467	581.023
257.36	530.172
260.252	545.875
263.145	483.102
266.038	218.555
268.93	38.6016
271.823	236.633
274.716	336.031
277.609	466.609
280.501	165.269
283.394	59.3359
286.287	238.055
289.179	434.059
292.072	356.426
294.965	233.273
297.858	290.383
300.75	291.375
303.643	190.856
306.536	423.961
309.428	273.227
312.321	364.453
315.214	239.383
318.106	45.3789
320.999	101.309
323.892	201.519
326.784	264.402
329.677	141.481
332.57	186.59
335.463	111.977
338.355	165.086
341.248	370.137
344.141	421.406
347.033	366.269
349.926	334.981
352.819	239.211
355.712	33.7383
358.604	36.6523
361.497	126.82
364.39	171.363
367.282	323.305
370.175	171.367
373.068	37.6953
375.96	31.8477
378.853	88.5664
381.746	8.85156
384.639	184.562
387.531	250.453
390.424	241.562
393.317	258.438
396.209	433.934
399.102	352.644
401.995	465.398
404.887	507.856
407.78	394.75
410.673	532.047
413.565	544.012
416.458	456.352
419.351	419.223
422.244	127.516
425.136	228.488
428.029	359.574
430.922	196.926
433.814	217.023
436.707	365.094
439.6	350.766
442.493	43.2188
445.385	401.883
448.278	374.746
451.171	196.574
454.063	120.559
456.956	34.3086
459.849	227.137
462.741	325.863
465.634	397.859
468.527	197.481
471.42	436.668
474.312	86.0898
477.205	95.8164
480.098	120.359
482.99	104.68
485.883	70.5312
488.776	74.8359
491.668	23.6172
494.561	283.086
497.454	410.231
500.347	392.238
503.239	236.043
506.132	425.816
509.025	435.004
511.917	294.75
514.81	98.1836
517.703	1.40234
520.596	157.621
523.488	284.981
526.381	438.637
529.274	187.418
532.166	416.684
535.059	424.777
537.952	535.305
540.844	506.082
543.737	546.148
546.63	457.781
549.523	288.394
552.415	501.731
555.308	414.352
558.201	192.047
561.093	237.805
563.986	59.7344
566.879	236.516
569.771	56.0195
572.664	147.457
575.557	89.6484
578.449	0.703125
581.342	103.168
584.235	477.953
587.128	168.121
590.02	128.695
592.913	145.977
595.806	169.734
598.698	111.883
601.591	28.9844
604.484	19.9219
607.376	203.176
610.269	197.715
613.162	407.488
616.055	312.594
618.947	194.293
621.84	116.242
624.733	205.367
627.625	61.1836
630.518	39.2344
633.411	65.0586
636.303	86.7695
639.196	198.418
642.089	176.078
644.982	9.37891
647.874	26.6523
650.767	203.609
653.66	51.1016
656.552	51.7148
659.445	345.012
662.338	190.738
665.231	27.7344
668.123	351.297
671.016	603.34
673.909	422.168
676.801	111.934
679.694	58.5547
682.587	219.918
685.479	246.801
688.372	255.195
691.265	207.43
694.158	30.8633
697.05	159.586
699.943	63.7656
702.836	70.7812
705.728	22.25
708.621	137.57
711.514	67.8086
714.406	195.871
717.299	36.5664
720.192	184.445
723.085	76.6836
725.977	68.9883
728.87	45.3008
731.763	35.9258
734.655	375.629
737.548	492.902
740.441	324.801
743.333	205.898
746.226	168.176
749.119	228.746
752.011	118.766
754.904	280.875
757.797	293.199
760.69	315.957
763.582	341.43
766.475	255.223
769.368	208.773
772.26	153.512
775.153	150.731
778.046	186.961
780.938	263.07
783.831	286.559
786.724	141.891
789.617	251.25
792.509	274.894
795.402	355.812
798.295	246.941
801.187	303.363
804.08	301.371
806.973	387.519
809.865	326.133
812.758	540.012
815.651	738.398
818.544	974.715
821.436	1014.16
824.329	1295.64
827.222	1386.67
830.114	1969.32
833.007	2694.29
835.9	3214.31
838.793	3772.98
841.685	3757.13
844.578	3338.78
847.471	2275.59
850.363	1342.42
853.256	647.418
856.149	424.269
859.041	418.519
861.934	188.652
864.827	254.492
867.72	314.219
870.612	341.09
873.505	15.9727
876.398	17.8438
879.29	114.133
882.183	29.5859
885.076	149.219
887.968	221.449
890.861	195.316
893.754	129.535
896.646	81.8594
899.539	205.234
902.432	67.0781
905.325	57.5586
908.217	80.918
911.11	47.0508
914.003	188.019
916.895	196.043
919.788	175.023
922.681	29.2734
925.573	79.0781
928.466	122.676
931.359	221.957
934.252	230.367
937.144	227.613
940.037	111.551
942.93	162.754
945.822	45.7539
948.715	42.2344
951.608	88.1484
954.5	9.25391
957.393	109.66
960.286	33.8398
963.179	184.512
966.071	147.457
968.964	151.301
971.857	187.324
974.75	167.953
977.642	291.094
980.535	139.562
983.428	108.473
986.32	170.16
989.213	161.711
992.106	147.102
994.998	114.461
997.891	145.481
1000.78	245.664
1003.68	244.484
1006.57	355.68
1009.46	510.367
1012.36	617.648
1015.25	312.664
1018.14	42.5625
1021.03	164.934
1023.92	109.894
1026.82	52.2188
1029.71	140.184
1032.6	134.219
1035.5	129.996
1038.39	61.5586
1041.28	22.875
1044.17	147.16
1047.07	42.084
1049.96	6.58984
1052.85	31.5996
1055.74	192.451
1058.64	164.68
1061.53	150.33
1064.42	133.158
1067.32	130.719
1070.21	127.438
1073.1	29.543
1075.99	180.018
1078.89	99.7324
1081.78	127.478
1084.67	185.805
1087.57	178.666
1090.46	175.926
1093.35	156.562
1096.24	252.639
1099.14	353.113
1102.03	301.434
1104.92	258.346
1107.81	26.5332
1110.71	70.7578
1113.6	33.9277
1116.49	96.7285
1119.38	253.959
1122.28	274.67
1125.17	135.478
1128.06	6.14062
1130.95	22.1152
1133.85	132.945
1136.74	197.553
1139.63	165.875
1142.53	193.623
1145.42	318.109
1148.31	106.057
1151.2	26.5078
1154.1	11.2051
1156.99	88.6016
1159.88	173.144
1162.78	165.602
1165.67	44.8613
1168.56	87.25
1171.45	49.6309
1174.35	264.06
1177.24	246.426
1180.13	216.334
1183.02	172.875
1185.92	290.57
1188.81	392.016
1191.7	225.578
1194.6	250.18
1197.49	252.092
1200.38	246.158
1203.27	197.9
1206.17	29.5996
1209.06	114.562
1211.95	173.463
1214.84	156.607
1217.74	205.518
1220.63	145.086
1223.52	205.617
1226.41	119.072
1229.31	14.0039
1232.2	34.5293
1235.09	34.0449
1237.98	186.144
1240.88	79.3731
1243.77	151.883
1246.66	200.469
1249.56	245.529
1252.45	181.117
1255.34	212.438
1258.23	202.703
1261.13	345.086
1264.02	209.096
1266.91	158.348
1269.81	79.1348
1272.7	43.9941
1275.59	48.6855
1278.48	145.152
1281.38	218.144
1284.27	190.404
1287.16	94.3027
1290.05	9.04492
1292.95	52.084
1295.84	131.404
1298.73	34.4238
