Measurement: Raman, 532 nm, unoriented, Raman Data RAW
Mineral: Uranophane-alpha
Rruff sample: R070038
Ideal chemistry: Ca(U^6+^O_2_)_2_(SiO_3_OH)_2_5H_2_O
Locality: Kyzulsai Mo-U deposit, south Kazakhstan
Source: Michael Scott
Description: Lemon-yellow granular coating
Raman shift (cm-1)	intensity
173.806	38421
176.699	38613.7
179.591	38898
182.484	39189.1
185.377	39667.3
188.269	39962.6
191.162	40084.7
194.055	40457.6
196.947	40546.9
199.84	40853.4
202.733	41029.8
205.626	41330.6
208.518	41295
211.411	41418.8
214.304	41715.3
217.196	41918
220.089	42159.1
222.982	42215.9
225.875	42390.8
228.767	42533.4
231.66	42710.6
234.553	42645.1
237.445	43017.6
240.338	43097.8
243.231	43219.8
246.123	43245.9
249.016	43426.3
251.909	43557.5
254.801	43716.5
257.694	43757.5
260.587	43801.9
263.479	44014.2
266.372	44143.3
269.265	44123.1
272.158	44387.3
275.05	44414.4
277.943	44504
280.836	44583.2
283.728	44764.8
286.621	44670.4
289.514	44891
292.406	45053.6
295.299	45028.2
298.192	44901.3
301.085	45326.1
303.977	45316.8
306.87	45370.9
309.763	45438.1
312.655	45419.3
315.548	45546.3
318.441	45634.3
321.334	45731.3
324.226	45859.4
327.119	46016.5
330.012	45974.5
332.904	46043.9
335.797	46217.7
338.69	46217.8
341.582	46214.3
344.475	46325.6
347.368	46473.6
350.26	46321.9
353.153	46556.3
356.046	46700.3
358.938	46702.8
361.831	46736.8
364.724	46707.5
367.617	46788.9
370.509	46979.5
373.402	46967.5
376.295	46934
379.187	47077.7
382.08	47134
384.973	47302.2
387.865	47168.8
390.758	47333.3
393.651	47389.3
396.544	47447
399.436	47543.2
402.329	47471.8
405.222	47552.1
408.114	47538.5
411.007	47678.9
413.9	47673.1
416.793	47897.2
419.685	47955.6
422.578	47836.2
425.471	47893
428.363	48032.5
431.256	48094.9
434.149	48071.8
437.041	48116.7
439.934	48199
442.827	48217.6
445.719	48200.8
448.612	48322.2
451.505	48523.2
454.398	48502.4
457.29	48416
460.183	48396.3
463.076	48618.1
465.968	48590.8
468.861	48810.6
471.754	48783.3
474.647	48791.4
477.539	48871.4
480.432	48883.2
483.325	48820.9
486.217	48836
489.11	48879.6
492.003	48883.9
494.895	48942.5
497.788	49043.5
500.681	49132.3
503.573	49144
506.466	49193.4
509.359	49246.2
512.251	49308.8
515.144	49294.8
518.037	49297.1
520.93	49469.2
523.822	49333.4
526.715	49424.5
529.608	49501.2
532.5	49572.9
535.393	49570.9
538.286	49701.4
541.178	49598.2
544.071	49735.5
546.964	49640.1
549.857	49641.4
552.749	49637.1
555.642	49648.1
558.535	49904.7
561.427	50098.2
564.32	49942.2
567.213	49876.8
570.106	49915.4
572.998	49984.8
575.891	50027.6
578.784	50072.9
581.676	50081.1
584.569	50181.7
587.462	50292.6
590.354	50279.4
593.247	50278.8
596.14	50283.4
599.033	50242.3
601.925	50199.9
604.818	50312.8
607.711	50294.2
610.603	50405.8
613.496	50408.1
616.389	50438.2
619.281	50585.3
622.174	50391.2
625.067	50523.3
627.959	50685.5
630.852	50663.4
633.745	50605.6
636.638	50690.3
639.53	50665.8
642.423	50706.7
645.316	50649.8
648.208	50602.1
651.101	50758.5
653.994	50719.3
656.886	50799.3
659.779	50607.8
662.672	50683.1
665.564	50612.8
668.457	50742.8
671.35	50668.1
674.243	50599.9
677.135	50608.8
680.028	50504.4
682.921	50668.2
685.813	50501
688.706	50512.4
691.599	50439.2
694.491	50274.5
697.384	50236.1
700.277	50508.4
703.17	50251
706.062	50210.7
708.955	50343.1
711.848	50162.9
714.74	50163.6
717.633	50232.6
720.526	50145
723.418	49987
726.311	49986.8
729.204	49952
732.096	50093.4
734.989	49910.5
737.882	49871.1
740.775	49785.6
743.667	49828.7
746.56	49792.1
749.453	49605.7
752.345	49781.3
755.238	49646.9
758.131	49539.4
761.024	49587
763.916	49493.3
766.809	49469
769.702	49409.8
772.594	49374.2
775.487	49150.7
778.38	49249.9
781.272	49269.5
784.165	49018.5
787.058	49040.7
789.951	49180
792.843	48973
795.736	48765.7
798.629	48957
801.521	48657.3
804.414	48764.2
807.307	48673.7
810.199	48657.6
813.092	48610.6
815.985	48474.4
818.877	48415.7
821.77	48381.2
824.663	48351.8
827.556	47953
830.448	48141.8
833.341	48057.1
836.234	48256.9
839.126	48258.6
842.019	47993.3
844.912	48032.5
847.804	47853.1
850.697	47603.8
853.59	47489.4
856.482	47380.9
859.375	47404.7
862.268	47227.6
865.161	47158.7
868.053	47202
870.946	46932.1
873.839	46923.4
876.731	46832.3
879.624	46802.5
882.517	46866.3
885.409	46682.1
888.302	46589.7
891.195	46519
894.088	46412.9
896.98	46449.6
899.873	46325.5
902.766	46207.9
905.658	46173.9
908.551	46112.7
911.444	46001.2
914.337	45875
917.229	45789.9
920.122	45606.9
923.015	45620.6
925.907	45488.7
928.8	45428.5
931.693	45231.6
934.585	45267
937.478	45135.9
940.371	45034.6
943.263	45090.4
946.156	44920
949.049	44764.6
951.942	44770.2
954.834	44599.7
957.727	44501.5
960.62	44408.2
963.512	44348.5
966.405	44209.1
969.298	44225.8
972.19	44074.9
975.083	43970.8
977.976	43952.6
980.869	43824.4
983.761	43694.6
986.654	43592.9
989.547	43535.4
992.439	43491.1
995.332	43375
998.225	43376.8
1001.12	43093.7
1004.01	43039.3
1006.9	42999.8
1009.79	42864.9
1012.69	42732.8
1015.58	42648.5
1018.47	42589.4
1021.37	42440.3
1024.26	42314.9
1027.15	42367
1030.04	42184.4
1032.94	41982.7
1035.83	41945.8
1038.72	41865.8
1041.62	41710.7
1044.51	41612.8
1047.4	41853.7
1050.29	41555.2
1053.19	41309.7
1056.08	41264.6
1058.97	41232.4
1061.86	41092.3
1064.76	41056.8
1067.65	40886.4
1070.54	40899.2
1073.43	40772.4
1076.33	40601.6
1079.22	40517.5
1082.11	40360.8
1085.01	40354.9
1087.9	40246.1
1090.79	40064.9
1093.68	40058.6
1096.58	40063.7
1099.47	39964.9
1102.36	39781.4
1105.26	39698.9
1108.15	39619.5
1111.04	39477.2
1113.93	39323.1
1116.83	39326.5
1119.72	39213
1122.61	39149.9
1125.5	39091.5
1128.4	38986.7
1131.29	38864.1
1134.18	38878.2
1137.07	38714.5
1139.97	38660.7
1142.86	38439.6
1145.75	38482.6
1148.64	38517
1151.54	38398.8
1154.43	38321.3
1157.32	38047.4
1160.22	37988.3
1163.11	37944.2
1166	37853.9
1168.89	37724.3
1171.79	37778.1
1174.68	37555.5
1177.57	37440.5
1180.46	37222.5
1183.36	37169.4
1186.25	37349
1189.14	37243.1
1192.04	37093.4
1194.93	37035.6
1197.82	37060.5
1200.71	36689
1203.61	36711.2
1206.5	36527
1209.39	36390.8
1212.28	36336.9
1215.18	36341.2
1218.07	36199.7
1220.96	36274.7
1223.86	36121.9
1226.75	36051.3
1229.64	36063.2
1232.53	35966
1235.43	35781.2
1238.32	35692.9
1241.21	35551.8
1244.1	35567.5
1247	35544.8
1249.89	35363.9
1252.78	35349.3
1255.67	35235
1258.57	35091.5
1261.46	35050.4
1264.35	34952.4
1267.25	34979.7
1270.14	34823.4
1273.03	34811.5
1275.92	34671.7
1278.82	34679.1
1281.71	34557.3
1284.6	34443.1
1287.49	34530.9
1290.39	34332.7
1293.28	34157.6
1296.17	34204.3
1299.07	34025.5
1301.96	33922.1
1304.85	33876.8
1307.74	33702.2
1310.64	33671.3
1313.53	33658.5
