Measurement: Raman, 780 nm, unoriented, Raman Data Processed
Mineral: Uranopilite
Rruff sample: R060374
Ideal chemistry: (U^6+^O_2_)_6_S^6+^O_4_O_2_(OH)_6_14H_2_O
Locality: Apex mine, Lander County, Nevada, USA
Source: Michael Scott
Description: Mass of yellow acicular crystals
Raman shift (cm-1)	intensity
119.884	0
123.259	6.96008
126.633	35.8668
130.008	40.0583
133.383	56.771
136.758	91.094
140.133	87.5196
143.508	47.5283
146.882	19.3989
150.257	29.4808
153.632	63.2322
157.007	105.494
160.382	151.654
163.756	176.725
167.131	195.612
170.506	224.946
173.881	262.898
177.256	294.713
180.631	311.755
184.005	307.49
187.38	288.724
190.755	249.11
194.13	203.427
197.505	152.613
200.88	100.179
204.254	48.5527
207.629	3.17542
211.004	15.8765
214.379	10.6056
217.754	10.2332
221.128	12.0354
224.503	0.674927
227.878	1.47485
231.253	17.046
234.628	49.0007
238.002	76.4236
241.377	104.326
244.752	136.669
248.127	153.002
251.502	175.653
254.877	175.841
258.251	137.267
261.626	84.064
265.001	53.064
268.376	27.8572
271.751	10.4428
275.125	7.02808
278.5	13.1029
281.875	32.5804
285.25	55.9532
288.625	71.5039
292	69.3519
295.374	66.1351
298.749	59.1069
302.124	53.0919
305.499	54.6071
308.874	71.8398
312.248	89.292
315.623	98.2023
318.998	100.294
322.373	95.8634
325.748	80.8768
329.123	52.9905
332.497	46.481
335.872	34.7064
339.247	27.1262
342.622	20.0031
345.997	25.8395
349.372	14.1019
352.746	11.9851
356.121	9.2533
359.496	2.60339
362.871	1.24084
366.246	5.802
369.62	3.57251
372.995	2.49451
376.37	3.29907
379.745	5.85266
383.12	12.4385
386.495	15.1174
389.869	30.8718
393.244	36.5072
396.619	45.6093
399.994	55.3185
403.369	55.3101
406.743	55.4094
410.118	53.0206
413.493	48.3945
416.868	39.7692
420.243	29.8682
423.618	21.3754
426.992	13.0382
430.367	4.3446
433.742	5.14954
437.117	3.40735
440.492	6.76196
443.866	0.235229
447.241	1.94141
450.616	6.23413
453.991	1.24939
457.366	5.07849
460.74	10.6725
464.115	12.9043
467.49	11.0226
470.865	15.8944
474.24	14.9827
477.615	17.6608
480.989	5.00659
484.364	4.16089
487.739	5.16101
491.114	11.0206
494.489	12.8287
497.863	17.0841
501.238	18.9095
504.613	20.1802
507.988	30.7513
511.363	36.0372
514.737	46.4065
518.112	70.4203
521.487	84.2643
524.862	108.229
528.237	137.222
531.612	173.948
534.986	213.059
538.361	239.328
541.736	262.569
545.111	274.558
548.486	272.45
551.861	264.888
555.235	240.245
558.61	212.907
561.985	161.487
565.36	114.913
568.735	77.7446
572.109	50.3453
575.484	36.5504
578.859	31.0659
582.234	24.795
585.609	13.7013
588.984	11.0109
592.358	6.89392
595.733	9.16834
599.108	16.4883
602.483	14.3651
605.858	9.56073
609.232	5.26349
612.607	4.14374
615.982	4.53326
619.357	7.90314
622.732	4.33197
626.107	0.605408
629.481	3.78235
632.856	1.05414
636.231	2.24341
639.606	5.07996
642.981	3.33905
646.356	4.66638
649.73	5.85815
653.105	15.5826
656.48	21.4168
659.855	32.8936
663.23	31.8466
666.604	26.3237
669.979	17.4587
673.354	7.15778
676.729	12.511
680.104	11.2248
683.479	12.4438
686.853	10.4885
690.228	3.11902
693.603	3.35175
696.978	10.1708
700.352	5.07117
703.727	10.6153
707.102	10.6626
710.477	9.20294
713.852	3.91406
717.227	8.50385
720.601	8.97516
723.976	6.85431
727.351	5.64496
730.726	5.17096
734.101	0.882874
737.476	1.34638
740.85	4.87219
744.225	0.871399
747.6	0.32135
750.975	2.03235
754.35	1.63385
757.724	3.86249
761.099	0.869995
764.474	0.893982
767.849	1.94501
771.224	1.20874
774.598	7.42932
777.973	7.82343
781.348	12.4047
784.723	18.6791
788.098	33.1099
791.473	41.6179
794.847	61.4225
798.222	95.7699
801.597	129.649
804.972	184.15
808.347	265.085
811.722	387.948
815.096	555.136
818.471	706.028
821.846	821.514
825.221	1008.74
828.596	1362.47
831.971	1889.34
835.345	2370.79
838.72	2786.76
842.095	2864.69
845.47	2057.86
848.845	987.283
852.219	427.043
855.594	198.312
858.969	105.54
862.344	59.8511
865.719	33.1748
869.093	16.376
872.468	11.6542
875.843	5.69342
879.218	0.82843
882.593	0.537842
885.967	0.013184
889.342	5.12451
892.717	2.75287
896.092	5.12524
899.467	2.77539
902.842	2.5741
906.216	0.320435
909.591	1.06018
912.966	0.188049
916.341	4.22015
919.716	2.19226
923.091	1.21124
926.465	3.13245
929.84	1.66504
933.215	4.55444
936.59	10.5629
939.965	5.73206
943.339	1.65362
946.714	0.046387
950.089	3.67596
953.464	2.04394
956.839	0.070618
960.213	0.061646
963.588	3.39545
966.963	6.51178
970.338	0.743591
973.713	3.06165
977.088	4.12323
980.462	9.75879
983.837	9.14752
987.212	12.1904
990.587	18.0439
993.962	21.3116
997.337	39.0983
1000.71	68.2831
1004.09	120.765
1007.46	239.196
1010.84	339.885
1014.21	177.827
1017.59	62.3563
1020.96	27.358
1024.34	14.9023
1027.71	11.4026
1031.09	6.0072
1034.46	8.29022
1037.83	3.94934
1041.21	4.93005
1044.58	1.44458
1047.96	1.59399
1051.33	1.15216
1054.71	2.35577
1058.08	5.21283
1061.46	1.02795
1064.83	1.39026
1068.21	1.71265
1071.58	0.77948
1074.96	5.64886
1078.33	7.30035
1081.71	15.3817
1085.08	24.6266
1088.46	32.7206
1091.83	48.4922
1095.21	57.3603
1098.58	62.6078
1101.96	57.6462
1105.33	55.2942
1108.71	60.277
1112.08	71.346
1115.45	81.1803
1118.83	76.3009
1122.2	58.9937
1125.58	39.6594
1128.95	27.523
1132.33	28.4949
1135.7	32.9497
1139.08	38.5938
1142.45	41.3544
1145.83	36.9664
1149.2	27.6092
1152.58	13.9575
1155.95	6.15234
1159.33	4.32153
1162.7	1.35797
1166.08	0.757385
1169.45	1.29315
1172.83	0.667542
1176.2	0.742676
1179.58	0.06366
1182.95	0.444763
1186.33	1.76776
1189.7	3.36426
1193.08	2.45196
1196.45	1.35077
1199.83	0.09491
1203.2	4.9444
1206.58	3.78998
1209.95	4.07965
1213.33	5.34021
1216.7	6.4917
1220.07	5.91095
1223.45	5.51215
1226.82	1.99927
1230.2	1.06305
1233.57	0.839539
1236.95	2.11969
1240.32	3.51526
1243.7	2.83362
1247.07	0.476685
1250.45	1.68012
1253.82	3.67285
1257.2	3.79639
1260.57	6.04633
1263.95	2.80188
1267.32	3.88605
1270.7	1.75116
1274.07	1.21869
1277.45	1.91266
1280.82	1.13617
