Measurement: Raman, 532 nm, unoriented, Raman Data Processed
Mineral: Utahite
Rruff sample: R190036
Ideal chemistry: MgCu^2+^_4_Zn^2+^_2_Te^6+^_3_O_14_(OH)_4_6H_2_O
Locality: Tombstone, Cochise County, Arizona, USA
Source: Peter Megaw
Description: Blue acicular crystals found as isolated crystals, or as sprays, associated with quartz and greenish dugganite
Raman shift (cm-1)	intensity
88.1367	0
91.5115	13.9497
94.8863	6.21924
98.2612	0.08905
101.636	21.0071
105.011	83.2471
108.386	170.799
111.76	179.552
115.135	170.816
118.51	259.574
121.885	412.488
125.26	343.854
128.635	287.931
132.009	340.028
135.384	475.036
138.759	482.502
142.134	284.228
145.509	202.65
148.883	222.666
152.258	247.011
155.633	252.18
159.008	216.629
162.383	180.38
165.757	130.65
169.132	65.7784
172.507	15.0099
175.882	13.8844
179.257	19.191
182.632	2.70142
186.006	27.273
189.381	79.4274
192.756	171.736
196.131	196.84
199.506	145.303
202.881	132.834
206.255	163.729
209.63	240.082
213.005	369.294
216.38	544.269
219.755	800.698
223.129	1093.56
226.504	1403.3
229.879	1703.93
233.254	1956.03
236.629	1712.96
240.004	1203.47
243.378	827.282
246.753	595.094
250.128	447.432
253.503	361.067
256.878	307.173
260.252	256.715
263.627	210.918
267.002	154.666
270.377	105.152
273.752	70.2949
277.127	48.8569
280.501	39.0198
283.876	37.7375
287.251	33.2211
290.626	23.8076
294.001	3.38568
297.375	6.5177
300.75	21.6017
304.125	33.7745
307.5	25.9734
310.875	7.9317
314.25	24.9334
317.624	33.8685
320.999	16.7364
324.374	17.1086
327.749	58.889
331.124	123.639
334.498	197.726
337.873	246.872
341.248	224.997
344.623	136.967
347.998	65.1789
351.373	26.9117
354.747	30.9564
358.122	58.0981
361.497	111.424
364.872	169.745
368.247	215.542
371.621	244.141
374.996	259.375
378.371	275.542
381.746	309.271
385.121	341.104
388.495	331.94
391.87	287.955
395.245	272.026
398.62	257.591
401.995	250.29
405.37	221.222
408.744	246.819
412.119	340.773
415.494	488.013
418.869	675.581
422.244	870.731
425.618	911.723
428.993	756.995
432.368	498.849
435.743	284.968
439.118	162.132
442.493	96.1466
445.867	74.2587
449.242	69.7464
452.617	82.6746
455.992	116.036
459.367	165.062
462.741	203.395
466.116	199.646
469.491	167.018
472.866	150.11
476.241	157.154
479.615	164.726
482.99	134.641
486.365	80.606
489.74	21.7148
493.115	6.37506
496.49	26.3727
499.864	24.189
503.239	14.6975
506.614	6.16937
509.989	36.2013
513.364	70.4172
516.739	122.062
520.113	170.871
523.488	226.314
526.863	260.897
530.238	299.74
533.613	339.786
536.987	395.8
540.362	460.35
543.737	517.16
547.112	560.483
550.487	569.33
553.861	482.663
557.236	355.664
560.611	245.255
563.986	155.197
567.361	109.39
570.736	89.5577
574.11	78.3133
577.485	78.1684
580.86	67.0681
584.235	53.6907
587.61	36.5604
590.985	3.13861
594.359	15.5444
597.734	10.4618
601.109	0.279785
604.484	38.5598
607.859	103.87
611.233	205.061
614.608	361.135
617.983	615.051
621.358	976.901
624.733	1514.62
628.107	2256.83
631.482	3106.46
634.857	3630.78
638.232	3447.09
641.607	2727.49
644.982	1997.75
648.356	1443.59
651.731	1031.02
655.106	737.087
658.481	523.373
661.856	365.994
665.231	244.129
668.605	155.563
671.98	93.7887
675.355	30.4383
678.73	5.21191
682.105	14.2484
685.479	26.6832
688.854	8.06921
692.229	21.3749
695.604	68.5858
698.979	122.081
702.354	195.933
705.728	293.988
709.103	390.821
712.478	437.451
715.853	402.747
719.227	315.847
722.602	247.03
725.977	247.098
729.352	283.921
732.727	342.83
736.102	395.984
739.476	414.849
742.851	435.901
746.226	472.807
749.601	556.991
752.976	692.478
756.351	911.013
759.725	1248.65
763.1	1749.45
766.475	2399.39
769.85	3186.97
773.225	3873.46
776.599	3873.37
779.974	3009.81
783.349	1941.01
786.724	1160.24
790.099	697.721
793.473	432.436
796.848	263.736
800.223	157.419
803.598	86.219
806.973	43.4136
810.348	16.8116
813.722	1.52066
817.097	8.66843
820.472	9.38153
823.847	8.57767
827.222	7.40091
830.597	4.8064
833.971	3.21683
837.346	5.33826
840.721	10.769
844.096	17.8744
847.471	22.3775
850.846	26.3682
854.22	30.8541
857.595	32.4673
860.97	36.3253
864.345	41.0012
867.72	43.2016
871.094	48.2033
874.469	43.3847
877.844	38.7795
881.219	36.8261
884.594	32.142
887.968	26.9956
891.343	23.3481
894.718	20.2538
898.093	19.8951
901.468	17.6686
904.842	21.1781
908.217	14.4495
911.592	11.526
914.967	12.8159
918.342	9.78308
921.717	10.86
925.091	7.40361
928.466	4.38203
931.841	3.09671
935.216	2.9276
938.591	0.144196
941.966	1.08972
945.34	0.862976
948.715	0.170685
952.09	3.29117
955.465	2.41571
958.84	6.32928
962.214	12.1418
965.589	14.7707
968.964	23.9354
972.339	30.151
975.714	42.6664
979.088	45.0517
982.463	54.9154
985.838	62.9258
989.213	62.3879
992.588	63.4054
995.963	57.0463
999.337	51.9849
1002.71	43.1613
1006.09	31.5019
1009.46	24.8292
1012.84	15.4877
1016.21	3.6943
1019.59	2.94629
1022.96	0.115784
1026.34	0.039154
1029.71	1.59055
1033.09	2.41592
1036.46	0.941147
1039.84	0.018311
1043.21	3.97368
1046.59	9.80948
1049.96	11.8465
1053.33	19.4899
1056.71	26.4137
1060.08	38.5632
1063.46	40.5925
1066.83	53.9265
1070.21	59.1751
1073.58	64.0819
1076.96	73.3887
1080.33	82.7101
1083.71	89.7922
1087.08	101.504
1090.46	113.397
1093.83	119.796
1097.21	117.055
1100.58	108.204
1103.96	82.4923
1107.33	62.6986
1110.71	45.2963
1114.08	27.4667
1117.46	20.6595
1120.83	18.466
1124.21	10.1008
1127.58	6.7908
1130.95	4.40706
1134.33	4.31602
1137.7	6.29323
1141.08	7.27846
1144.45	7.9736
1147.83	6.87763
1151.2	5.9478
1154.58	7.008
1157.95	8.4716
1161.33	7.72417
1164.7	5.10217
1168.08	8.1671
1171.45	4.42018
1174.83	1.16945
1178.2	6.09154
1181.58	2.61293
1184.95	3.80336
1188.33	0.114227
1191.7	0.752182
1195.08	0.638809
1198.45	2.22742
1201.83	0.750534
1205.2	3.0087
1208.58	1.48263
1211.95	0.040176
1215.33	0.401093
1218.7	0.446533
1222.08	3.88699
1225.45	1.76689
1228.83	0.750854
1232.2	1.84512
1235.58	2.47058
1238.95	4.22121
1242.32	2.1832
1245.7	5.91806
1249.07	7.93201
1252.45	5.08197
1255.82	7.01099
1259.2	5.26904
1262.57	4.59618
1265.95	4.95311
1269.32	6.75589
1272.7	7.08781
1276.07	3.16791
1279.45	4.70807
1282.82	1.70616
1286.2	3.78014
1289.57	0.292206
1292.95	5.924
1296.32	1.19165
1299.7	2.29983
