Measurement: Raman, 780 nm, unoriented, Raman Data Processed
Mineral: Utahite
Rruff sample: R190036
Ideal chemistry: MgCu^2+^_4_Zn^2+^_2_Te^6+^_3_O_14_(OH)_4_6H_2_O
Locality: Tombstone, Cochise County, Arizona, USA
Source: Peter Megaw
Description: Blue acicular crystals found as isolated crystals, or as sprays, associated with quartz and greenish dugganite
Raman shift (cm-1)	intensity
95.2959	0
98.6707	10.5611
102.046	6.32782
105.42	11.1553
108.795	17.6642
112.17	0.286621
115.545	5.41611
118.92	3.13153
122.294	6.91791
125.669	12.0919
129.044	18.2856
132.419	12.7743
135.794	9.80371
139.168	8.75415
142.543	2.36472
145.918	0.140167
149.293	4.52328
152.668	1.52277
156.043	9.06256
159.417	10.9733
162.792	20.9529
166.167	19.7584
169.542	19.5311
172.917	16.7548
176.292	21.6555
179.666	19.3537
183.041	22.3214
186.416	25.674
189.791	21.5056
193.166	24.152
196.54	24.5925
199.915	16.2391
203.29	24.8895
206.665	20.3913
210.04	26.9069
213.415	18.5183
216.789	22.6158
220.164	23.4389
223.539	27.4365
226.914	26.9333
230.289	21.5213
233.663	28.518
237.038	27.9603
240.413	25.8084
243.788	19.5345
247.163	22.4006
250.537	17.9652
253.912	18.6569
257.287	14.6446
260.662	11.6779
264.037	9.82101
267.412	9.43306
270.786	10.7619
274.161	4.71765
277.536	1.76119
280.911	2.15738
284.286	1.97488
287.661	3.01073
291.035	0.912308
294.41	1.08124
297.785	1.33751
301.16	3.12352
304.535	1.91158
307.909	1.51924
311.284	1.80727
314.659	8.31508
318.034	2.94582
321.409	1.24615
324.784	5.80734
328.158	0.697433
331.533	8.45859
334.908	8.23405
338.283	8.21446
341.658	5.35001
345.032	3.89511
348.407	6.23441
351.782	0.079468
355.157	0.937164
358.532	1.42036
361.906	0.50174
365.281	2.27324
368.656	4.93691
372.031	1.26022
375.406	6.40056
378.781	6.65221
382.155	8.55971
385.53	6.66953
388.905	9.33014
392.28	13.2736
395.655	18.211
399.029	14.2121
402.404	18.8492
405.779	27.4108
409.154	29.1685
412.529	37.0344
415.904	37.8241
419.278	40.5277
422.653	48.5471
426.028	36.5845
429.403	31.3139
432.778	21.457
436.152	20.0189
439.527	10.1013
442.902	8.52228
446.277	7.39004
449.652	6.27124
453.027	3.79787
456.401	9.57795
459.776	8.19746
463.151	5.64486
466.526	2.81042
469.901	5.82629
473.276	1.63309
476.65	1.41311
480.025	0.552246
483.4	3.55256
486.775	2.64866
490.15	8.06978
493.524	1.18886
496.899	7.56205
500.274	2.9584
503.649	3.8435
507.024	5.12929
510.399	0.665855
513.773	3.31862
517.148	3.22822
520.523	4.73779
523.898	5.74116
527.273	12.0572
530.647	11.9047
534.022	9.79013
537.397	13.6092
540.772	12.126
544.147	5.4492
547.521	8.57816
550.896	8.70216
554.271	10.1557
557.646	11.1551
561.021	5.12446
564.396	5.29461
567.77	3.27433
571.145	2.28915
574.52	2.85214
577.895	3.82083
581.27	5.50303
584.644	4.97453
588.019	2.25708
591.394	1.20381
594.769	2.62248
598.144	0.696716
601.519	5.51348
604.893	7.1497
608.268	14.4968
611.643	12.9228
615.018	9.2263
618.393	12.085
621.768	13.7515
625.142	24.1363
628.517	21.9789
631.892	30.6573
635.267	29.3195
638.642	28.9602
642.016	21.6884
645.391	19.9569
648.766	7.9447
652.141	10.6461
655.516	8.00442
658.89	13.2813
662.265	3.86047
665.64	1.37923
669.015	2.95303
672.39	1.54687
675.765	0.717041
679.139	0.398819
682.514	2.12929
685.889	2.28802
689.264	5.12593
692.639	2.70737
696.014	5.85233
699.388	2.15015
702.763	7.10571
706.138	9.58305
709.513	13.474
712.888	16.526
716.262	14.9372
719.637	12.5611
723.012	13.3737
726.387	17.6972
729.762	23.1942
733.136	21.7275
736.511	21.9051
739.886	26.9534
743.261	21.7832
746.636	16.8054
750.011	13.1593
753.385	16.4382
756.76	13.5109
760.135	22.0972
763.51	26.3586
766.885	42.3639
770.26	40.6609
773.634	35.6974
777.009	28.3511
780.384	18.6137
783.759	9.06281
787.134	2.52296
790.508	6.46758
793.883	3.08392
797.258	2.02351
800.633	2.37373
804.008	1.78226
807.383	0.499672
810.757	0.016754
814.132	0.437218
817.507	6.14214
820.882	2.63659
824.257	7.45672
827.631	5.22003
831.006	1.61791
834.381	7.51147
837.756	8.64734
841.131	4.01968
844.505	8.39134
847.88	7.35429
851.255	6.76635
854.63	7.53704
858.005	7.52828
861.38	8.14665
864.754	10.7071
868.129	9.28916
871.504	2.65884
874.879	8.45416
878.254	8.80255
881.629	3.49541
885.003	1.71656
888.378	3.48229
891.753	7.71807
895.128	11.4368
898.503	3.44865
901.877	0.713264
905.252	3.91395
908.627	6.54516
912.002	5.07129
915.377	2.16715
918.751	2.16033
922.126	4.06699
925.501	2.86761
928.876	1.41174
932.251	4.29282
935.625	7.65255
939	0.235245
942.375	7.82962
945.75	2.98822
949.125	5.72265
952.5	0.875191
955.875	9.83424
959.249	9.986
962.624	4.00979
965.999	9.2833
969.374	1.59242
972.749	5.81077
976.123	3.93765
979.498	1.34272
982.873	9.74417
986.248	3.02147
989.623	1.29523
992.997	11.7689
996.372	3.50439
999.747	3.78639
1003.12	3.54535
1006.5	0.770752
1009.87	2.34779
1013.25	8.06781
1016.62	1.53206
1020	4.39954
1023.37	5.99234
1026.75	10.0012
1030.12	12.065
1033.49	7.65333
1036.87	8.71746
1040.24	8.01893
1043.62	6.5505
1046.99	0.504547
1050.37	7.6722
1053.74	0.870003
1057.12	10.3609
1060.49	4.44362
1063.87	11.0177
1067.24	5.73463
1070.62	5.81558
1073.99	12.3281
1077.37	7.45387
1080.74	7.55915
1084.12	1.08179
1087.49	3.46771
1090.87	7.54159
1094.24	9.68623
1097.62	6.46012
1100.99	8.55269
1104.37	0.502762
1107.74	0.360016
1111.12	8.12686
1114.49	1.38145
1117.87	1.41061
1121.24	3.26752
1124.62	6.71927
1127.99	7.31284
1131.37	4.14249
1134.74	4.03941
1138.12	5.67263
1141.49	7.22867
1144.86	5.89158
1148.24	11.4933
1151.61	2.81018
1154.99	5.21907
1158.36	7.09959
1161.74	6.30045
1165.11	6.01514
1168.49	6.87824
1171.86	8.26701
1175.24	0.060371
1178.61	7.58562
1181.99	12.3074
1185.36	6.45208
1188.74	13.7495
1192.11	15.8912
1195.49	3.27024
1198.86	6.89631
1202.24	5.62952
1205.61	6.95017
1208.99	8.0306
1212.36	7.22729
1215.73	8.99725
1219.11	5.34763
1222.48	9.13992
1225.86	4.43907
1229.23	7.10136
1232.61	4.68276
1235.98	2.28561
1239.36	5.89375
1242.73	7.32691
1246.11	11.463
1249.48	12.3847
1252.86	5.3486
1256.23	7.6944
1259.61	11.8904
1262.98	0.426659
1266.36	9.47273
1269.73	4.31763
1273.11	9.75883
1276.48	0.769264
1279.86	13.4388
