Measurement: Raman, 785 nm, unoriented, Raman Data RAW
Mineral: Vauquelinite
Rruff sample: R060926
Ideal chemistry: Cu^2+^Pb^2+^_2_(Cr^6+^O_4_)(P^5+^O_4_)(OH)
Locality: Hardshell mine, Patagonia, Arizona, USA
Source: Bob Jenkins
Description: Apple-green tabular crystals
Raman shift (cm-1)	intensity
91.1547	286.107
94.5295	253.755
97.9043	243.713
101.279	217.427
104.654	224.612
108.029	230.491
111.404	243.177
114.778	236.371
118.153	277.361
121.528	410.176
124.903	640.953
128.278	786.127
131.653	824.583
135.027	847.63
138.402	1050.21
141.777	1284.63
145.152	1544.17
148.527	1596.01
151.901	1524.96
155.276	1441.79
158.651	1407.14
162.026	1492.75
165.401	1534.22
168.775	1496.84
172.15	1494.45
175.525	1412.78
178.9	1365.25
182.275	1360.41
185.65	1397.19
189.024	1406.28
192.399	1389.44
195.774	1398.08
199.149	1382.29
202.524	1339.44
205.899	1262.25
209.273	1199.97
212.648	1147.05
216.023	1093.56
219.398	1078.74
222.773	1031.74
226.147	1028.25
229.522	1009.06
232.897	997.679
236.272	992.069
239.647	972.121
243.021	955.741
246.396	951.004
249.771	951.545
253.146	942.419
256.521	921.905
259.896	927.57
263.27	944.837
266.645	952.632
270.02	986.825
273.395	982.189
276.77	1021.02
280.144	1083.3
283.519	1094.16
286.894	1140.05
290.269	1185.66
293.644	1329.19
297.019	1424.04
300.393	1546.05
303.768	1668.08
307.143	1755.04
310.518	1842.69
313.892	2052.21
317.267	2475.77
320.642	3086.27
324.017	4101.66
327.392	5582.16
330.767	6952.85
334.141	7718.04
337.516	7484.9
340.891	7468.77
344.266	8321.42
347.641	9612.67
351.015	10170.1
354.39	8980.82
357.765	6781.27
361.14	5060.58
364.515	4291.88
367.89	4152.62
371.264	4374
374.639	4683.66
378.014	4503.05
381.389	3883.96
384.764	3080.95
388.139	2379.42
391.513	1954.2
394.888	1713.98
398.263	1588.76
401.638	1458.03
405.013	1355.27
408.387	1275.85
411.762	1233.43
415.137	1165.82
418.512	1091.1
421.887	1047.4
425.262	976.982
428.636	943.48
432.011	910.067
435.386	903.405
438.761	909.949
442.136	911.157
445.51	900.627
448.885	924.7
452.26	923.627
455.635	960.566
459.01	939.378
462.384	912.46
465.759	848.089
469.134	771.64
472.509	722.955
475.884	672.63
479.259	634.42
482.633	617.782
486.008	603.66
489.383	574.836
492.758	539.684
496.133	535.282
499.507	528.429
502.882	511.522
506.257	501.693
509.632	500.208
513.007	497.086
516.381	487.284
519.756	470.371
523.131	473.096
526.506	467.173
529.881	459.021
533.256	420.251
536.63	436.68
540.005	455.527
543.38	432.936
546.755	419.165
550.13	437.942
553.505	415.464
556.879	412.524
560.254	428.193
563.629	425.877
567.004	390.979
570.379	373.67
573.753	392.289
577.128	404.859
580.503	374.96
583.878	382.695
587.253	368.406
590.627	395.992
594.002	396.705
597.377	411.309
600.752	413.999
604.127	374.535
607.501	405.622
610.876	396.165
614.251	404.284
617.626	390.461
621.001	408.73
624.376	414.747
627.75	408.712
631.125	401.841
634.5	415.954
637.875	401.533
641.25	444.487
644.625	439.66
647.999	540.206
651.374	460.573
654.749	458.844
658.124	448.593
661.499	464.029
664.873	461.037
668.248	457.755
671.623	469.938
674.998	465.739
678.373	469.461
681.747	496.488
685.122	462.283
688.497	505.707
691.872	522.125
695.247	517.837
698.621	527.589
701.996	532.155
705.371	523.82
708.746	572.888
712.121	587.035
715.496	632.794
718.87	647.127
722.245	654.87
725.62	698.911
728.995	742.552
732.37	753.089
735.745	822.109
739.119	880.169
742.494	979.198
745.869	989.421
749.244	1131.27
752.619	1184.79
755.993	1329.66
759.368	1496.3
762.743	1652.61
766.118	1839.31
769.493	2072.91
772.867	2367.5
776.242	2729.42
779.617	3107.79
782.992	3475.86
786.367	3830.37
789.742	4229.83
793.116	4730.87
796.491	5363.39
799.866	5990.56
803.241	7159.56
806.616	8595.57
809.99	10613.3
813.365	13090
816.74	15790.1
820.115	17945.9
823.49	18673.8
826.865	18020
830.239	16096.7
833.614	13665.4
836.989	11348
840.364	9415.98
843.739	7916.4
847.113	6653.13
850.488	5657.51
853.863	4755.83
857.238	4152.81
860.613	3580.2
863.987	3237.24
867.362	3015.33
870.737	2835.21
874.112	2654.85
877.487	2546.27
880.862	2373.27
884.236	2134.79
887.611	1975.83
890.986	1845.35
894.361	1694.14
897.736	1507.93
901.111	1404.73
904.485	1280.8
907.86	1109.59
911.235	1026.69
914.61	958.758
917.985	930.906
921.359	904.687
924.734	925.548
928.109	905.467
931.484	906.129
934.859	868.831
938.234	795.647
941.608	763.368
944.983	696.608
948.358	678.98
951.733	669.132
955.107	655.271
958.482	630.439
961.857	653.789
965.232	626.247
968.607	575.549
971.982	574.303
975.356	543.187
978.731	518.022
982.106	512.013
985.481	496.457
988.856	457.919
992.231	431.734
995.605	445.024
998.98	438.486
1002.36	431.974
1005.73	439.827
1009.11	423.393
1012.48	421.518
1015.85	419.029
1019.23	399.14
1022.6	401.588
1025.98	380.288
1029.35	379.827
1032.73	363.573
1036.1	376.616
1039.48	395.192
1042.85	400.231
1046.23	385.291
1049.6	376.191
1052.98	393.648
1056.35	377.061
1059.73	372.837
1063.1	354.716
1066.48	346.89
1069.85	356.852
1073.23	372.09
1076.6	347.087
1079.98	335.477
1083.35	339.44
1086.72	343.16
1090.1	340.96
1093.47	331.543
1096.85	317.557
1100.22	318.723
1103.6	332.029
1106.97	326.758
1110.35	325.46
1113.72	325.003
1117.1	324.196
1120.47	319.999
1123.85	319.262
1127.22	323.324
1130.6	317.22
1133.97	333.083
1137.35	313.802
1140.72	327.06
1144.1	340.024
1147.47	309.148
1150.85	339.694
1154.22	333.702
1157.6	342.368
1160.97	352.364
1164.35	284.877
1167.72	317.332
1171.1	329.712
1174.47	298.148
1177.85	334.42
1181.22	335.401
1184.6	337.262
1187.97	312.777
1191.35	299.123
1194.72	332.147
1198.09	311.56
1201.47	311.57
1204.84	265.714
1208.22	308.648
1211.59	326.976
1214.97	318.504
1218.34	309.545
1221.72	317.677
1225.09	329.18
1228.47	313.77
1231.84	288.705
1235.22	247.384
1238.59	277.866
1241.97	289.389
1245.34	310.059
1248.72	295.934
1252.09	310.386
1255.47	326.032
1258.84	307.098
1262.22	311.85
1265.59	296.511
1268.96	292.767
