Measurement: Raman, 514 nm, unoriented, Raman Data RAW
Mineral: Vauxite
Rruff sample: X060017
Ideal chemistry: Fe^2+^Al_2_(PO_4_)_2_(OH)_2_6H_2_O
Locality: Siglo XX mine, Llallagua, Bustillos, Potosi, Bolivia
Source: University of Arizona Mineral Museum
Description: Single crystal
Raman shift (cm-1)	intensity
117.132	13077.7
122.191	13520
127.246	14050.7
132.298	13952.3
137.345	13917.3
142.389	14625.3
147.43	14361.3
152.467	13895.3
157.5	13772
162.53	13954.7
167.556	14399
172.578	15192.3
177.597	16161
182.612	16152
187.623	15387
192.631	15160.3
197.635	14883.3
202.636	15317.3
207.633	14913
212.626	14425
217.616	14337.7
222.602	14660
227.585	14928
232.564	15149.3
237.539	15125
242.511	14851.7
247.479	14641.3
252.444	14643
257.405	14707.5
262.362	14832.7
267.316	14965.7
272.266	14889.7
277.213	15277
282.156	15363.7
287.096	15033.7
292.032	14869
296.964	14896
301.893	14972.3
306.818	14976
311.74	15098.7
316.658	15472.3
321.572	15837
326.483	16370.7
331.391	16682.3
336.295	16038.7
341.195	15525.3
346.092	15448
350.985	15310
355.875	15325.3
360.761	15516
365.644	15751.3
370.523	15924
375.398	15932
380.27	15746.3
385.139	15753.7
390.004	15865.7
394.865	16076
399.723	16261.3
404.577	16136.7
409.428	15967.3
414.275	16095.3
419.119	16236.3
423.959	16225.7
428.796	16316
433.629	16344.3
438.459	16603.4
443.285	16674
448.108	16872.7
452.927	17100.7
457.743	17015.3
462.555	17139
467.364	17114.7
472.169	17105
476.971	17183.7
481.769	17103.3
486.564	17098
491.355	17355.3
496.143	17459
500.928	17490.3
505.708	17380.7
510.486	17404.3
515.26	17570
520.03	17642
524.797	18123
529.561	18887
534.321	19655.7
539.077	18905.9
543.83	18296
548.58	18036
553.326	17980.3
558.069	18050.2
562.808	18240.3
567.544	18390.3
572.276	18358
577.005	18276
581.731	18332
586.453	18241.3
591.171	18376.7
595.887	18368.7
600.598	18484
605.307	18576.3
610.011	18691.7
614.713	18908.7
619.411	19104.3
624.105	19191.7
628.797	19263.3
633.484	19339
638.169	19295.7
642.85	19441.7
647.527	19275.7
652.201	19218.7
656.872	19024.7
661.539	19069
666.203	18945.3
670.863	18966.7
675.52	18989.3
680.174	19037.7
684.824	18943.7
689.471	19091
694.115	19167.7
698.755	19172.7
703.391	19179.7
708.025	19232.3
712.654	19494
717.281	19431.3
721.904	19516.3
726.524	19524.3
731.14	19564
735.753	19645
740.363	19796
744.969	19861.7
749.572	19818.3
754.171	20016
758.768	20039.3
763.36	20096.3
767.95	20182.7
772.536	20230
777.119	20160
781.698	20232
786.274	20291
790.847	20532.7
795.416	20489.3
799.982	20503.7
804.545	20584.7
809.104	20703.3
813.66	20575.7
818.213	20748.3
822.762	20829.3
827.308	20730.3
831.85	20877.3
836.39	20884.3
840.926	20908.9
845.458	20971.3
849.987	21084.4
854.513	21155.5
859.036	21100.2
863.555	21327
868.071	21383.1
872.584	21488.9
877.094	21555.3
881.6	21737.4
886.102	21840.1
890.602	22028.5
895.098	22118.3
899.591	22355.1
904.081	22477.5
908.567	22542.6
913.05	22510.5
917.53	22420.9
922.006	22473.6
926.479	22450.5
930.949	22457
935.416	22570.1
939.879	22602.6
944.339	22685.8
948.795	22858.5
953.249	22941.9
957.699	23245.5
962.146	23671.6
966.59	24275.6
971.03	24917.8
975.467	25254.6
979.901	25010.3
984.331	24230.3
988.759	23988.3
993.183	24166.2
997.603	24707.4
1002.02	24931.8
1006.44	24977.5
1010.85	24937.7
1019.24	24810
1023.73	25553.3
1028.22	26312.7
1032.7	26193
1037.19	25841.7
1041.67	25674.7
1046.14	25386
1050.62	24890.7
1055.09	24696.3
1059.56	24366.7
1064.02	24297.3
1068.48	24220.7
1072.94	24016.3
1077.39	23961
1081.85	23696.7
1086.3	23840
1090.74	23792
1095.18	24008.7
1099.62	23809
1104.06	24112.7
1108.49	24250.7
1112.92	24122
1117.35	24119
1121.77	24121
1126.19	24182.7
1130.61	24288.3
1135.02	24156.4
1139.43	24323.7
1143.84	24500
1148.24	24466
1152.64	24828.3
1157.04	25016
1161.44	25039
1165.83	24861.7
1170.22	24847.3
1174.61	24816
1178.99	24860.3
1183.37	24755.3
1187.74	24794
1192.12	24893.3
1196.49	24783.3
1200.86	24882
1205.22	24998.3
1209.58	24918
1213.94	25026.7
1218.29	25053.3
1222.64	25101
1226.99	25237.3
1231.34	25254.7
1235.68	25311
1240.02	25410.7
1244.36	25258
1248.69	25406.7
1253.02	25383.7
1257.35	25500
1261.67	25568
1265.99	25593
1270.31	25769.3
1274.62	25746.7
1278.93	25728.7
1283.24	25644.3
1287.55	25798
1291.85	25716.7
1296.15	25822
1300.44	25992.7
1304.74	26094.3
1309.03	25999.3
1313.32	26107
1317.6	26071.7
1321.88	26090.7
1326.16	26317.3
1330.43	26296
1334.7	26259.7
1338.97	26212.3
1343.24	26452.3
1347.5	26451
1351.76	26495.7
1356.02	26471
1360.27	26592.7
1364.52	26775.7
1368.77	26669.3
1373.01	26854
1377.25	26744.7
1381.49	26829.3
1385.73	27033.7
1389.96	26988
1394.19	27059.3
1398.41	27070.7
1402.64	27068
1406.86	27181.3
1411.08	27240.3
1415.29	27205.3
1419.5	27277.3
1423.71	27320
1427.91	27332
1432.12	27448.3
1436.31	27586.3
1440.51	27647.3
1444.7	27500.7
1448.89	27727.3
1453.08	27777
1457.26	27883.7
1461.44	27872.3
1465.62	27860.7
1469.8	27926.3
1473.97	28020.7
1478.14	27990
1482.3	28120.7
1486.47	28137.7
1490.63	28131.7
1494.78	28127.3
1498.94	28158
1503.09	28181
1507.24	28315
1511.38	28315
1515.53	28313.7
1519.66	28466.3
1523.8	28369.3
1527.93	28473.3
1532.06	28642
1536.19	28771.3
1540.32	28632.7
1544.44	28734.3
1548.56	28842
1552.67	28768.7
1556.78	28874.3
1560.89	28893.3
1565	28913.3
1569.1	28857
1573.2	29129.3
1577.3	29056.3
1581.39	29058
1585.49	29115
1589.58	29281.7
1593.66	29274.3
1597.74	29219.7
1601.82	29234
1605.9	29324.3
1609.97	29402.7
1614.05	29536
1618.12	29478.3
1622.18	29426.7
1626.24	29572.3
1630.3	29618.7
1634.36	29597.3
1638.41	29657
1642.46	29724.3
1646.51	29747.3
1650.56	29758.7
1654.6	29793
1658.64	29930
1662.67	30028.7
