Measurement: Raman, 780 nm, unoriented, Raman Data Processed
Mineral: Vesignieite
Rruff sample: R120149
Ideal chemistry: Cu^2+^_3_Ba(V^5+^O_4_)_2_(OH)_2_
Locality: Mina Milpillas, Municipio de Santa Cruz, Sonora, Mexico
Source: Marcus Origlieri
Description: Olive green druse of platy crystals, some with pseudohexagonal outlines, associated with malachite
Raman shift (cm-1)	intensity
90.2353	0
93.6102	22.0526
96.985	22.6103
100.36	14.3456
103.735	13.6829
107.109	13.9979
110.484	9.43861
113.859	13.1778
117.234	16.5608
120.609	14.9541
123.984	11.4114
127.358	5.40585
130.733	1.83212
134.108	0.079758
137.483	1.28305
140.858	2.04631
144.232	1.10765
147.607	1.95436
150.982	11.1862
154.357	22.0484
157.732	29.5379
161.107	38.2717
164.481	46.4524
167.856	54.1553
171.231	59.4872
174.606	58.096
177.981	50.6698
181.355	41.736
184.73	37.1571
188.105	30.8691
191.48	25.5144
194.855	19.7082
198.229	13.9077
201.604	11.0966
204.979	7.68032
208.354	5.76572
211.729	3.25427
215.103	3.64388
218.478	0.702042
221.853	0.532387
225.228	0.966438
228.603	1.03013
231.978	0.790619
235.352	0.88488
238.727	0.290199
242.102	0.477066
245.477	1.6859
248.852	1.97917
252.226	1.61513
255.601	5.2769
258.976	7.24214
262.351	10.9706
265.726	16.5613
269.101	23.2783
272.475	32.5022
275.85	43.7711
279.225	60.2447
282.6	82.1299
285.975	105.742
289.349	131.851
292.724	162.266
296.099	191.548
299.474	215.147
302.849	226.306
306.224	218.931
309.598	193.999
312.973	166.802
316.348	145.497
319.723	127.053
323.098	112.2
326.472	101.43
329.847	87.4473
333.222	71.0415
336.597	57.7741
339.972	45.331
343.346	37.2988
346.721	31.9037
350.096	26.7359
353.471	21.7695
356.846	18.4041
360.221	13.9391
363.595	11.4399
366.97	9.59261
370.345	6.87117
373.72	4.32173
377.095	2.89768
380.469	1.3271
383.844	0.780579
387.219	0.006138
390.594	0.703224
393.969	1.68762
397.344	0.96582
400.718	0.9963
404.093	0.356171
407.468	0.262604
410.843	0.534042
414.217	1.71582
417.592	2.19365
420.967	3.49687
424.342	5.25694
427.717	6.81142
431.092	8.7602
434.466	11.4975
437.841	14.4031
441.216	19.7157
444.591	24.1927
447.966	27.6682
451.341	31.98
454.715	33.1945
458.09	32.3437
461.465	31.7843
464.84	27.4248
468.215	24.2483
471.589	20.6556
474.964	17.5815
478.339	12.9736
481.714	11.3872
485.089	9.19408
488.463	8.13076
491.838	7.27429
495.213	7.11805
498.588	6.60627
501.963	6.21415
505.337	6.59273
508.712	5.5441
512.087	3.52766
515.462	2.99501
518.837	2.17358
522.212	1.15292
525.586	1.33237
528.961	0.899986
532.336	0.07914
535.711	0.189392
539.086	0.053577
542.46	0.105141
545.835	0.224007
549.21	0.691692
552.585	0.371689
555.96	0.031277
559.335	0.319099
562.709	0.141899
566.084	0.924698
569.459	0.556183
572.834	0.044033
576.209	0.270195
579.583	0.826321
582.958	0.481377
586.333	0.897625
589.708	1.04403
593.083	1.87863
596.457	0.528252
599.832	1.30493
603.207	0.562504
606.582	1.75569
609.957	1.97108
613.332	2.79744
616.706	2.28228
620.081	1.94828
623.456	2.41452
626.831	2.24339
630.206	1.99637
633.58	2.14358
636.955	2.00135
640.33	2.65316
643.705	3.23938
647.08	3.03783
650.455	3.75835
653.829	3.77091
657.204	3.73201
660.579	4.04288
663.954	2.88657
667.329	3.71321
670.703	3.21457
674.078	2.5895
677.453	2.30498
680.828	2.54021
684.203	1.95995
687.577	1.04054
690.952	0.842857
694.327	0.410858
697.702	0.52002
701.077	0.644829
704.452	1.59101
707.826	0.49567
711.201	0.955753
714.576	0.198547
717.951	1.78761
721.326	2.7453
724.7	5.06973
728.075	6.03655
731.45	9.02497
734.825	10.8894
738.2	11.1428
741.574	11.5708
744.949	9.64058
748.324	7.43517
751.699	4.8298
755.074	2.20083
758.449	1.06337
761.823	1.67329
765.198	1.81113
768.573	1.51714
771.948	0.780304
775.323	2.0397
778.697	5.82064
782.072	11.2629
785.447	19.3669
788.822	29.1675
792.197	44.3671
795.572	63.5659
798.946	86.9451
802.321	116.716
805.696	150.15
809.071	183.385
812.446	206.976
815.82	216.504
819.195	207.731
822.57	182.739
825.945	154.914
829.32	137.932
832.694	130.306
836.069	136.03
839.444	156.462
842.819	183.829
846.194	220.113
849.569	248.401
852.943	244.773
856.318	200.534
859.693	137.483
863.068	88.9393
866.443	58.6138
869.817	38.6966
873.192	25.662
876.567	17.6899
879.942	12.5988
883.317	8.76578
886.692	7.74178
890.066	6.13619
893.441	4.4167
896.816	5.56419
900.191	4.41032
903.566	3.1737
906.94	0.724136
910.315	1.25604
913.69	0.843182
917.065	0.351368
920.44	0.458099
923.814	0.531174
927.189	1.42318
930.564	0.157921
933.939	0.44717
937.314	0.399693
940.689	0.16412
944.063	0.41663
947.438	1.38824
950.813	0.457069
954.188	1.71536
957.563	1.61127
960.937	2.61903
964.312	3.28252
967.687	3.54195
971.062	3.45363
974.437	4.24075
977.812	3.80221
981.186	3.26451
984.561	3.90008
987.936	4.11144
991.311	3.92045
994.686	3.27619
998.06	3.70343
1001.43	3.66259
1004.81	3.52873
1008.18	3.79425
1011.56	3.34931
1014.93	3.09362
1018.31	3.10929
1021.68	3.44087
1025.06	3.62725
1028.43	4.11465
1031.81	3.19216
1035.18	2.95456
1038.56	2.7117
1041.93	2.4712
1045.31	2.45068
1048.68	2.45942
1052.06	2.43268
1055.43	1.84431
1058.81	1.42365
1062.18	1.89292
1065.56	1.2084
1068.93	1.19303
1072.31	2.38007
1075.68	2.34103
1079.06	0.973118
1082.43	0.774868
1085.81	0.294292
1089.18	1.03432
1092.56	0.697451
1095.93	0.868946
1099.31	0.120588
1102.68	0.296446
1106.05	0.391623
1109.43	0.53413
1112.8	0.551764
1116.18	1.30742
1119.55	0.589262
1122.93	0.739697
1126.3	0.314222
1129.68	0.343327
1133.05	0.590536
1136.43	0.129126
1139.8	0.039263
1143.18	0.172794
1146.55	0.20598
1149.93	0.444328
1153.3	0.625889
1156.68	0.589651
1160.05	0.312677
1163.43	0.225409
1166.8	1.11465
1170.18	0.964611
1173.55	0.713686
1176.93	0.843956
1180.3	0.680731
1183.67	0.082493
1187.05	1.03462
1190.42	0.739424
1193.8	0.110706
1197.17	0.784597
1200.55	0.574228
1203.92	0.152351
1207.3	0.017916
1210.67	0.440653
1214.05	0.558784
1217.42	0.508724
1220.8	0.655756
1224.17	0.656984
1227.55	0.066154
1230.92	0.407389
1234.3	0.21517
1237.67	1.08631
1241.05	0.483952
1244.42	0.590643
1247.8	0.520969
1251.17	0.212524
1254.55	0.071625
1257.92	0.49728
1261.3	0.086397
1264.67	0.23662
1268.05	0.789917
1271.42	0.44647
1274.8	0.350517
1278.17	0.385918
1281.55	0.079023
