Measurement: Raman, 532 nm, unoriented, Raman Data Processed
Mineral: Vesignieite
Rruff sample: R120149
Ideal chemistry: Cu^2+^_3_Ba(V^5+^O_4_)_2_(OH)_2_
Locality: Mina Milpillas, Municipio de Santa Cruz, Sonora, Mexico
Source: Marcus Origlieri
Description: Olive green druse of platy crystals, some with pseudohexagonal outlines, associated with malachite
Raman shift (cm-1)	intensity
89.8438	0
93.2186	5.30481
96.5934	2.57535
99.9682	4.7094
103.343	0.876999
106.718	5.72145
110.093	8.83853
113.468	10.5376
116.842	5.91327
120.217	1.69989
123.592	11.1675
126.967	6.6331
130.342	10.4902
133.716	6.51678
137.091	5.25563
140.466	5.27496
143.841	0.100014
147.216	1.65958
150.59	0.799301
153.965	0.699486
157.34	1.60294
160.715	4.37763
164.09	5.34294
167.464	3.39867
170.839	1.82734
174.214	4.11198
177.589	0.491173
180.964	2.17898
184.339	5.24925
187.713	13.4938
191.088	19.5879
194.463	21.8674
197.838	20.416
201.213	18.2462
204.588	17.573
207.962	21.9239
211.337	19.6258
214.712	18.7682
218.087	15.4387
221.462	14.2232
224.836	13.5671
228.211	11.4452
231.586	7.4726
234.961	6.17496
238.336	3.31181
241.71	1.852
245.085	0.243889
248.46	0.66111
251.835	1.06532
255.21	0.782974
258.585	1.27604
261.959	1.15208
265.334	0.361099
268.709	1.89238
272.084	4.22574
275.459	8.34352
278.834	15.4279
282.208	23.5351
285.583	37.484
288.958	56.3353
292.333	82.7567
295.708	116.044
299.082	157.198
302.457	197.446
305.832	215.343
309.207	199.725
312.582	157.057
315.957	122.213
319.331	107.556
322.706	105.082
326.081	117.006
329.456	135.273
332.831	142.058
336.205	122.082
339.58	87.4338
342.955	58.826
346.33	43.6714
349.705	37.0639
353.079	33.2314
356.454	29.2189
359.829	23.9647
363.204	18.8132
366.579	15.1946
369.954	11.116
373.328	7.92612
376.703	6.40736
380.078	3.53377
383.453	2.18393
386.828	2.06899
390.202	2.3161
393.577	0.947262
396.952	0.291031
400.327	1.17916
403.702	1.99567
407.077	1.79467
410.451	0.57317
413.826	0.707447
417.201	0.722984
420.576	0.864876
423.951	4.93541
427.325	2.36185
430.7	4.04538
434.075	6.16268
437.45	9.92604
440.825	13.9764
444.2	19.2054
447.574	27.2266
450.949	38.0732
454.324	50.9441
457.699	65.2751
461.074	79.9255
464.448	88.8221
467.823	84.7018
471.198	71.8273
474.573	56.3943
477.948	42.9402
481.322	31.2935
484.697	22.4475
488.072	15.9451
491.447	12.9989
494.822	10.8553
498.197	9.53833
501.571	9.57148
504.946	11.9236
508.321	12.4074
511.696	13.0291
515.071	12.188
518.446	7.95036
521.82	5.06595
525.195	3.1899
528.57	2.3077
531.945	1.15469
535.32	0.759998
538.694	3.35678
542.069	0.121399
545.444	0.274761
548.819	0.309258
552.194	0.45612
555.568	0.234501
558.943	0.482777
562.318	0.342308
565.693	0.58437
569.068	0.041977
572.443	0.602367
575.817	0.215652
579.192	0.106766
582.567	0.248585
585.942	0.14233
589.317	0.015953
592.692	0.068363
596.066	0.186024
599.441	0.834286
602.816	0.375095
606.191	1.38398
609.566	2.04158
612.94	1.91547
616.315	2.3913
619.69	2.80699
623.065	2.71116
626.44	2.8055
629.814	2.6394
633.189	1.64276
636.564	2.0725
639.939	1.72374
643.314	1.4867
646.688	2.1405
650.063	2.4378
653.438	2.70152
656.813	3.50804
660.188	3.3851
663.563	3.74952
666.937	3.44305
670.312	3.99302
673.687	3.4623
677.062	4.32495
680.437	4.76042
683.812	6.47045
687.186	4.92016
690.561	5.73759
693.936	4.08756
697.311	2.03022
700.686	0.9137
704.06	0.275913
707.435	0.157768
710.81	0.564789
714.185	0.817165
717.56	0.675339
720.934	2.31089
724.309	5.89345
727.684	10.7124
731.059	17.8508
734.434	27.8755
737.809	43.9271
741.183	63.339
744.558	85.662
747.933	100.51
751.308	97.3303
754.683	77.1713
758.058	51.198
761.432	31.3835
764.807	18.0967
768.182	7.95739
771.557	1.75473
774.932	1.95895
778.306	3.37384
781.681	3.13388
785.056	1.23241
788.431	2.15745
791.806	12.68
795.181	22.2984
798.555	38.7883
801.93	67.3164
805.305	113.368
808.68	186.839
812.055	295.554
815.429	435.516
818.804	580.89
822.179	649.594
825.554	568.206
828.929	416.609
832.303	292.257
835.678	215.059
839.053	181.337
842.428	190.088
845.803	250.918
849.178	361.719
852.552	560.905
855.927	783.452
859.302	719.321
862.677	413.425
866.052	215.899
869.427	123.036
872.801	77.1958
876.176	53.12
879.551	37.743
882.926	30.1151
886.301	29.1818
889.675	28.7403
893.05	26.7851
896.425	19.8739
899.8	13.5902
903.175	12.0568
906.549	10.6039
909.924	4.88368
913.299	0.233635
916.674	1.90125
920.049	1.9295
923.423	1.48785
926.798	1.15911
930.173	0.248863
933.548	2.8828
936.923	3.08352
940.298	2.0867
943.672	0.177128
947.047	0.010643
950.422	1.05167
953.797	0.240936
957.172	0.034679
960.547	1.02804
963.921	1.36085
967.296	2.84011
970.671	3.60715
974.046	3.98465
977.421	4.07119
980.795	3.67923
984.17	4.73226
987.545	4.47401
990.92	4.92571
994.295	5.8276
997.669	6.77872
1001.04	7.54943
1004.42	7.34369
1007.79	7.80648
1011.17	7.55523
1014.54	7.39755
1017.92	7.06464
1021.29	6.39696
1024.67	5.66675
1028.04	5.97615
1031.42	6.23668
1034.79	6.83975
1038.17	7.089
1041.54	8.17447
1044.92	9.28414
1048.29	9.18806
1051.67	8.35439
1055.04	6.7067
1058.42	5.37237
1061.79	4.15141
1065.17	3.73718
1068.54	2.60164
1071.92	2.47821
1075.29	1.68294
1078.66	1.65871
1082.04	1.37962
1085.41	0.991543
1088.79	1.47139
1092.16	0.330704
1095.54	0.991905
1098.91	0.904404
1102.29	0.418037
1105.66	0.856747
1109.04	0.945766
1112.41	0.032513
1115.79	0.605572
1119.16	0.152702
1122.54	0.058834
1125.91	0.270767
1129.29	0.011272
1132.66	0.172695
1136.04	0.168087
1139.41	0.39122
1142.79	0.128143
1146.16	0.198647
1149.54	0.099586
1152.91	0.158085
1156.29	0.276211
1159.66	0.451195
1163.04	0.117245
1166.41	0.191059
1169.79	0.790638
1173.16	1.22939
1176.54	1.34507
1179.91	1.75164
1183.28	1.18432
1186.66	1.74334
1190.03	1.90833
1193.41	1.40826
1196.78	1.57123
1200.16	1.37342
1203.53	1.66452
1206.91	1.13546
1210.28	1.60474
1213.66	0.813873
1217.03	0.365608
1220.41	0.303593
1223.78	0.430141
1227.16	0.872303
1230.53	0.016945
1233.91	0.035662
1237.28	0.367405
1240.66	0.178082
1244.03	0.806744
1247.41	0.546364
1250.78	0.472076
1254.16	0.933958
1257.53	0.42831
1260.9	0.352221
1264.28	0.324787
1267.65	0.362444
1271.03	0.017927
1274.4	0.712004
1277.78	0.355959
1281.15	0.256645
1284.53	0.40855
1287.9	0.834921
1291.28	0.723131
1294.65	0.683781
1298.03	0.688068
1301.4	0.134916
