Measurement: Raman, 532 nm, unoriented, Raman Data Processed
Mineral: Wendwilsonite
Rruff sample: R180013
Ideal chemistry: Ca_2_Mg(As^5+^O_4_)_2_2H_2_O
Locality: Bou Azzer, Morrocco
Source: Wendell Wilson
Description: Red vitreous crystals. Photo from Wendell Wilson
Measured chemistry: Ca_1.97_(Mg_0.48_Co_0.25_Zn_0.22_Ni_0.03_)_Σ=0.98_(As_1.01_O_4_)_2_·2H_2_O
Raman shift (cm-1)	intensity
88.1367	0
91.5115	104.318
94.8863	23.8234
98.2612	10.7864
101.636	57.8696
105.011	235.931
108.386	85.9557
111.76	0.747437
115.135	16.678
118.51	60.8724
121.885	125.964
125.26	307.482
128.635	105.404
132.009	107.276
135.384	137.278
138.759	185.228
142.134	252.483
145.509	184.849
148.883	158.332
152.258	149.832
155.633	164.196
159.008	202.952
162.383	258.027
165.757	244.642
169.132	235.313
172.507	282.364
175.882	367.305
179.257	486.127
182.632	637.297
186.006	663.637
189.381	640.002
192.756	568.762
196.131	509.227
199.506	524.687
202.881	570.807
206.255	523.727
209.63	419.7
213.005	310.846
216.38	201.425
219.755	136.129
223.129	139.324
226.504	151.901
229.879	102.279
233.254	80.3685
236.629	92.2855
240.004	121.618
243.378	147.232
246.753	135.931
250.128	79.5023
253.503	21.7323
256.878	5.88196
260.252	13.42
263.627	15.8861
267.002	15.1134
270.377	6.73804
273.752	1.66089
277.127	9.65723
280.501	23.0747
283.876	40.9219
287.251	39.0256
290.626	17.6201
294.001	25.3414
297.375	61.4009
300.75	123.114
304.125	190.351
307.5	174.59
310.875	140.247
314.25	112.798
317.624	157.001
320.999	225.577
324.374	346.694
327.749	524.848
331.124	821.475
334.498	1252.35
337.873	1622.71
341.248	1487.17
344.623	1093.55
347.998	933.995
351.373	944.867
354.747	1034.49
358.122	1017.52
361.497	780.37
364.872	506.242
368.247	294.662
371.621	175.654
374.996	122.466
378.371	85.5405
381.746	29.2213
385.121	1.61206
388.495	28.4353
391.87	15.9192
395.245	19.2033
398.62	76.8523
401.995	167.913
405.37	220.211
408.744	167.853
412.119	128.648
415.494	164.671
418.869	217.748
422.244	258.006
425.618	306.724
428.993	262.163
432.368	179.695
435.743	117.397
439.118	107.717
442.493	131.731
445.867	223.139
449.242	327.566
452.617	383.183
455.992	275.651
459.367	182.098
462.741	181.703
466.116	218.118
469.491	286.414
472.866	358.042
476.241	370.935
479.615	331.244
482.99	299.279
486.365	234.105
489.74	168.092
493.115	111.629
496.49	79.2941
499.864	42.6641
503.239	19.0521
506.614	3.0531
509.989	7.40942
513.364	1.21838
516.739	4.63721
520.113	5.36877
523.488	0.027832
526.863	4.48804
530.238	0.598145
533.613	13.1655
536.987	21.4999
540.362	9.97876
543.737	22.14
547.112	11.4428
550.487	22.606
553.861	33.1007
557.236	34.0891
560.611	17.4707
563.986	21.6211
567.361	29.05
570.736	25.2947
574.11	31.1854
577.485	9.75623
580.86	14.5808
584.235	15.2015
587.61	16.3744
590.985	4.70105
594.359	2.03784
597.734	3.39246
601.109	10.14
604.484	5.59265
607.859	10.9806
611.233	8.83728
614.608	3.67798
617.983	12.092
621.358	6.20093
624.733	2.95483
628.107	2.70288
631.482	5.88428
634.857	14.2003
638.232	22.5984
641.607	17.6561
644.982	24.1291
648.356	11.2704
651.731	36.4739
655.106	39.3215
658.481	45.9585
661.856	44.6588
665.231	39.5093
668.605	50.2008
671.98	40.5326
675.355	24.3372
678.73	18.3829
682.105	13.9431
685.479	17.0319
688.854	34.692
692.229	24.1359
695.604	52.2102
698.979	63.9287
702.354	62.777
705.728	79.8662
709.103	88.3333
712.478	91.199
715.853	97.2039
719.227	97.1342
722.602	94.9099
725.977	78.4038
729.352	58.2935
732.727	44.6208
736.102	26.2053
739.476	1.62769
742.851	18.5464
746.226	36.2771
749.601	37.3423
752.976	37.5095
756.351	16.2424
759.725	2.62744
763.1	30.0757
766.475	115.712
769.85	192.226
773.225	338.163
776.599	480.323
779.974	662.215
783.349	790.186
786.724	869.525
790.099	873.015
793.473	814.857
796.848	732.272
800.223	653.596
803.598	549.469
806.973	592.081
810.348	861.039
813.722	1435.98
817.097	2380.99
820.472	3858.72
823.847	5656.73
827.222	6432.56
830.597	5579.97
833.971	4998.03
837.346	5046.95
840.721	5159.67
844.096	4621.74
847.471	3460.61
850.846	2482.26
854.22	1930.75
857.595	1678.08
860.97	1603.02
864.345	1569.03
867.72	1520.33
871.094	1235.77
874.469	877.04
877.844	581.418
881.219	411.375
884.594	321.208
887.968	278.3
891.343	168.851
894.718	66.0696
898.093	13.0847
901.468	15.0947
904.842	19.3252
908.217	16.9385
911.592	27.8013
914.967	19.6985
918.342	19.8508
921.717	1.28272
925.091	1.11084
928.466	7.15356
931.841	23.7505
935.216	13.3149
938.591	19.6074
941.966	37.2043
945.34	40.9741
948.715	48.4595
952.09	59.478
955.465	67.3325
958.84	70.5295
962.214	59.9739
965.589	77.3828
968.964	77.7339
972.339	64.6191
975.714	77.0134
979.088	70.4553
982.463	58.3938
985.838	56.7468
989.213	37.9338
992.588	39.1606
995.963	39.7188
999.337	37.8093
1002.71	31.7612
1006.09	25.3227
1009.46	30.6602
1012.84	35.5063
1016.21	3.58545
1019.59	12.0171
1022.96	2.78125
1026.34	20.0771
1029.71	17.1218
1033.09	22.7253
1036.46	32.5742
1039.84	9.81787
1043.21	8.92163
1046.59	12.8535
1049.96	10.5349
1053.33	16.019
1056.71	26.2825
1060.08	31.2012
1063.46	32.9807
1066.83	42.5574
1070.21	44.5173
1073.58	52.2444
1076.96	34.7651
1080.33	19.2898
1083.71	22.802
1087.08	27.7585
1090.46	4.2356
1093.83	7.68042
1097.21	12.165
1100.58	27.8071
1103.96	31.4739
1107.33	7.72339
1110.71	1.73828
1114.08	10.252
1117.46	2.85986
1120.83	18.5913
1124.21	15.0286
1127.58	7.26099
1130.95	0.028809
1134.33	3.53882
1137.7	15.4817
1141.08	14.2043
1144.45	19.2183
1147.83	13.2805
1151.2	7.28516
1154.58	1.14356
1157.95	21.6345
1161.33	17.3069
1164.7	11.2734
1168.08	12.2844
1171.45	4.57861
1174.83	17.7146
1178.2	12.0227
1181.58	7.62109
1184.95	25.1077
1188.33	16.9644
1191.7	8.51343
1195.08	22.1941
1198.45	10.2097
1201.83	21.7873
1205.2	15.0518
1208.58	17.9666
1211.95	11.9395
1215.33	25.6895
1218.7	19.0359
1222.08	12.6211
1225.45	17.825
1228.83	11.6738
1232.2	4.11621
1235.58	2.36548
1238.95	23.2266
1242.32	27.5647
1245.7	29.2217
1249.07	19.2014
1252.45	18.9233
1255.82	25.0906
1259.2	28.9429
1262.57	29.2188
1265.95	12.3391
1269.32	9.43433
1272.7	4.9082
1276.07	13.9878
1279.45	10.294
1282.82	20.2549
1286.2	23.8484
1289.57	7.49609
1292.95	17.7166
1296.32	1.67236
1299.7	6.37085
