Measurement: Raman, 780 nm, unoriented, Raman Data Processed
Mineral: Wendwilsonite
Rruff sample: R180010
Ideal chemistry: Ca_2_Mg(As^5+^O_4_)_2_2H_2_O
Locality: Bou Azzer, Morrocco
Source: Wendell Wilson
Description: Red fragments. Photo from Wendell Wilson
Measured chemistry: Ca_1.99_(Mg_0.52_Co_0.38_Zn_0.07_Ni_0.01_)_Σ=0.98_(AsO_4_)_2_·2H_2_O
Raman shift (cm-1)	intensity
93.3674	0
96.7422	25.6357
100.117	147.774
103.492	1002.47
106.867	693.521
110.242	64.5015
113.616	28.749
116.991	1.36548
120.366	18.6497
123.741	158.605
127.116	81.7319
130.49	10.794
133.865	15.481
137.24	38.1575
140.615	192.247
143.99	70.761
147.364	41.1091
150.739	42.8831
154.114	165.556
157.489	279.407
160.864	409.004
164.239	593.328
167.613	808.206
170.988	1064.54
174.363	1400.85
177.738	1810.28
181.113	2381.81
184.488	2784.06
187.862	2726.05
191.237	2286.93
194.612	1532.92
197.987	1035.84
201.362	883.873
204.736	797.715
208.111	617.708
211.486	444.631
214.861	295.078
218.236	245.586
221.611	252.221
224.985	322.961
228.36	351.234
231.735	428.642
235.11	609.329
238.485	704.278
241.859	518.914
245.234	358.962
248.609	208.788
251.984	68.4177
255.359	5.44556
258.733	36.3723
262.108	40.5632
265.483	24.635
268.858	13.4255
272.233	34.7131
275.608	90.1211
278.982	188.905
282.357	366.816
285.732	409.631
289.107	271.821
292.482	252.181
295.856	417.699
299.231	692.061
302.606	1126.62
305.981	1128.3
309.356	927.94
312.731	906.448
316.105	1080.31
319.48	1525.57
322.855	2189.19
326.23	3027.63
329.605	4365.81
332.979	6411.62
336.354	8794.19
339.729	9299.58
343.104	6968.72
346.479	4917.67
349.854	3982.18
353.228	3561.99
356.603	3138.85
359.978	2411.08
363.353	1532.59
366.728	917.474
370.103	520.37
373.477	330.144
376.852	232.577
380.227	100.094
383.602	9.18774
386.977	19.2173
390.351	42.6697
393.726	33.6917
397.101	16.8464
400.476	114.957
403.851	213.733
407.226	202.44
410.6	135.456
413.975	146.444
417.35	216.186
420.725	309.809
424.1	347.243
427.474	325.96
430.849	191.407
434.224	82.7737
437.599	29.1055
440.974	34.5667
444.349	112.877
447.723	212.036
451.098	336.854
454.473	280.367
457.848	137.702
461.223	92.3479
464.597	106.787
467.972	161.221
471.347	244.011
474.722	295.25
478.097	337.952
481.471	342.245
484.846	302.133
488.221	239.175
491.596	167.813
494.971	85.5444
498.346	48.2725
501.72	27.6951
505.095	9.54175
508.47	9.52539
511.845	5.11816
515.22	30.8777
518.595	7.67725
521.969	1.19311
525.344	6.40796
528.719	2.65308
532.094	3.31494
535.469	4.3103
538.843	13.3677
542.218	9.45801
545.593	4.1875
548.968	15.4163
552.343	24.7898
555.717	33.4312
559.092	39.1572
562.467	42.5708
565.842	26.4424
569.217	24.6218
572.592	24.2468
575.966	24.1584
579.341	21.3887
582.716	33.876
586.091	12.49
589.466	6.24829
592.841	7.06055
596.215	18.4241
599.59	18.0413
602.965	7.65625
606.34	13.7634
609.715	2.51978
613.089	2.31519
616.464	4.14087
619.839	6.32617
623.214	17.0352
626.589	7.71216
629.963	0.056396
633.338	11.2529
636.713	6.46729
640.088	4.98022
643.463	19.5193
646.838	18.8906
650.212	22.1724
653.587	37.8247
656.962	41.2664
660.337	40.873
663.712	63.1375
667.087	63.5906
670.461	58.8843
673.836	57.8259
677.211	67.4595
680.586	91.1113
683.961	106.837
687.335	133.698
690.71	164.141
694.085	218.42
697.46	291.628
700.835	334.111
704.21	367.359
707.584	381.093
710.959	338.906
714.334	280.83
717.709	213.182
721.084	159.615
724.458	120.177
727.833	91.5173
731.208	62.3328
734.583	30.2798
737.958	3.59546
741.332	5.6228
744.707	15.1575
748.082	25.9851
751.457	46.8059
754.832	39.5964
758.207	23.8391
761.581	1.01929
764.956	50.8018
768.331	94.0562
771.706	158.746
775.081	255.637
778.455	326.677
781.83	387.7
785.205	417.768
788.58	466.271
791.955	521.772
795.33	631.585
798.704	774.6
802.079	934.417
805.454	1272.9
808.829	1915.28
812.204	3038.76
815.578	4723.86
818.953	7063.94
822.328	9996.38
825.703	12218
829.078	11825.5
832.453	11306.2
835.827	11309.5
839.202	11204.5
842.577	10185.9
845.952	7933.05
849.327	5596.61
852.702	4059.88
856.076	3212.86
859.451	2812.68
862.826	2624.84
866.201	2456.32
869.576	2162.2
872.95	1634.38
876.325	1105.79
879.7	763.868
883.075	549.159
886.45	449.447
889.824	345.049
893.199	189.3
896.574	78.2959
899.949	18.1255
903.324	8.48657
906.698	29.2793
910.073	33.146
913.448	32.8806
916.823	29.8342
920.198	21.4448
923.573	4.65064
926.947	3.35596
930.322	13.8594
933.697	16.968
937.072	31.0159
940.447	41.6055
943.822	46.9658
947.196	63.7004
950.571	62.5583
953.946	83.6052
957.321	100.639
960.696	105.198
964.07	112.541
967.445	99.1023
970.82	101.93
974.195	92.4783
977.57	98.5464
980.945	92.9971
984.319	72.8074
987.694	53.1943
991.069	47.1511
994.444	41.4634
997.819	34.3855
1001.19	26.2231
1004.57	32.7893
1007.94	23.666
1011.32	17.771
1014.69	29.1567
1018.07	26.0178
1021.44	21.6392
1024.82	15.3384
1028.19	10.3317
1031.57	8.04419
1034.94	13.1334
1038.32	27.3616
1041.69	18.2124
1045.07	28.3378
1048.44	16.5839
1051.82	17.6392
1055.19	31.041
1058.57	31.036
1061.94	39.8274
1065.32	50.9197
1068.69	32.4086
1072.07	41.4935
1075.44	32.261
1078.81	32.0653
1082.19	24.0759
1085.56	5.61609
1088.94	16.8457
1092.31	2.34143
1095.69	12.8312
1099.06	10.7096
1102.44	1.76892
1105.81	0.094727
1109.19	13.0985
1112.56	6.03943
1115.94	2.38306
1119.31	4.43762
1122.69	6.8927
1126.06	8.77991
1129.44	3.35535
1132.81	4.65942
1136.19	11.5886
1139.56	15.0044
1142.94	15.5676
1146.31	8.7168
1149.68	8.85877
1153.06	17.032
1156.43	25.6016
1159.81	14.2078
1163.18	10.193
1166.56	26.9049
1169.93	24.9347
1173.31	25.9485
1176.68	12.7223
1180.06	3.58813
1183.43	11.5153
1186.81	25.7615
1190.18	8.4967
1193.56	25.7725
1196.93	8.61548
1200.31	21.202
1203.68	15.3097
1207.06	20.7946
1210.43	12.0128
1213.81	17.4578
1217.18	22.9156
1220.56	21.7096
1223.93	14.2527
1227.31	5.10644
1230.68	1.53174
1234.06	17.7124
1237.43	6.6853
1240.81	20.1361
1244.18	0.229004
1247.56	21.2352
1250.93	4.78149
1254.31	7.11084
1257.68	1.76269
1261.05	9.04358
1264.43	22.4825
1267.8	8.8783
1271.18	2.74499
1274.55	10.4067
1277.93	14.0492
1281.3	3.07654
