Measurement: Raman, 532 nm, unoriented, Raman Data Processed
Mineral: Wendwilsonite
Rruff sample: R180009
Ideal chemistry: Ca_2_Mg(As^5+^O_4_)_2_2H_2_O
Locality: Bou Azzer, Morrocco
Source: Wendell Wilson
Description: Red vitreous crystals. Photo from Wendell Wilson
Measured chemistry: Ca_1.98_(Mg_0.53_Zn_0.27_Co_0.18_Ni_0.02_)_Σ=1.00_(AsO_4_)_2_·2H_2_O
Raman shift (cm-1)	intensity
88.1367	0
91.5115	184.542
94.8863	33.4402
98.2612	0.752869
101.636	219.862
105.011	944.992
108.386	244.453
111.76	3.56702
115.135	9.54596
118.51	16.0327
121.885	79.8298
125.26	514.93
128.635	116.497
132.009	62.4032
135.384	68.3254
138.759	106.804
142.134	219.631
145.509	127.386
148.883	100.2
152.258	96.3123
155.633	88.7194
159.008	108.622
162.383	158.451
165.757	123.686
169.132	93.4525
172.507	122.749
175.882	184.881
179.257	294.51
182.632	476.036
186.006	590.024
189.381	844.123
192.756	1021.74
196.131	731.027
199.506	622.958
202.881	686.731
206.255	592.441
209.63	447.303
213.005	355.811
216.38	258.341
219.755	158.286
223.129	178.681
226.504	284.125
229.879	233.408
233.254	240.286
236.629	330.24
240.004	400.51
243.378	451.605
246.753	470.61
250.128	278.991
253.503	126.721
256.878	35.5081
260.252	7.91583
263.627	25.2283
267.002	26.0372
270.377	3.65198
273.752	11.0035
277.127	11.6577
280.501	59.0328
283.876	174.052
287.251	164.368
290.626	68.4351
294.001	88.2417
297.375	243.19
300.75	582.902
304.125	824.158
307.5	535.508
310.875	280.038
314.25	106.869
317.624	37.2436
320.999	14.8079
324.374	34.3846
327.749	95.7561
331.124	237.037
334.498	514.02
337.873	904.48
341.248	1028.2
344.623	816.125
347.998	755.111
351.373	902.356
354.747	1163.62
358.122	1264.84
361.497	1021.45
364.872	667.067
368.247	424.835
371.621	351.769
374.996	404.564
378.371	380.1
381.746	192.067
385.121	42.3918
388.495	22.3505
391.87	35.2322
395.245	8.72376
398.62	54.7964
401.995	181.533
405.37	294.892
408.744	201.262
412.119	84.0731
415.494	75.5429
418.869	145.39
422.244	258.845
425.618	396.403
428.993	439.257
432.368	358.511
435.743	320.512
439.118	409.61
442.493	659.536
445.867	1191
449.242	2158.56
452.617	3149.43
455.992	2426.03
459.367	1228.98
462.741	686.984
466.116	513.038
469.491	536.262
472.866	634.992
476.241	708.076
479.615	726.88
482.99	731.984
486.365	648.658
489.74	488.866
493.115	333.727
496.49	222.936
499.864	137.527
503.239	86.2495
506.614	47.7924
509.989	27.9313
513.364	9.52191
516.739	1.36597
520.113	8.56708
523.488	4.28479
526.863	4.28735
530.238	7.66644
533.613	5.51788
536.987	3.82159
540.362	0.365784
543.737	1.89368
547.112	3.89667
550.487	12.7253
553.861	10.2545
557.236	15.2346
560.611	19.2642
563.986	17.8447
567.361	22.2774
570.736	27.6682
574.11	28.4952
577.485	32.4456
580.86	22.3911
584.235	24.2542
587.61	19.0008
590.985	13.9616
594.359	12.3423
597.734	13.3384
601.109	9.21417
604.484	5.03326
607.859	12.066
611.233	8.06543
614.608	10.403
617.983	4.53601
621.358	5.68036
624.733	5.95984
628.107	1.04999
631.482	1.3302
634.857	0.520996
638.232	0.725586
641.607	6.57397
644.982	2.43372
648.356	5.42487
651.731	8.88806
655.106	11.8477
658.481	17.4628
661.856	13.2333
665.231	19.684
668.605	27.9739
671.98	30.8533
675.355	23.7116
678.73	31.4059
682.105	34.9724
685.479	47.8267
688.854	64.4532
692.229	83.4739
695.604	117.793
698.979	159.226
702.354	204.954
705.728	260.772
709.103	294.684
712.478	294.942
715.853	252.948
719.227	203.995
722.602	163.766
725.977	131.348
729.352	100.952
732.727	68.569
736.102	55.84
739.476	30.3026
742.851	9.54956
746.226	2.77051
749.601	9.22107
752.976	20.4635
756.351	23.8746
759.725	23.7461
763.1	22.2357
766.475	15.5878
769.85	0.046997
773.225	31.7261
776.599	85.0099
779.974	156.758
783.349	235.013
786.724	304.419
790.099	335.604
793.473	342.973
796.848	351.524
800.223	356.623
803.598	379.027
806.973	461.75
810.348	714.118
813.722	1231.42
817.097	2217.25
820.472	4197.2
823.847	7944.96
827.222	10455.9
830.597	8313.36
833.971	7235.92
837.346	7815.18
840.721	8989.01
844.096	8883.68
847.471	6906.63
850.846	5016.46
854.22	3927.9
857.595	3480.07
860.97	3475.86
864.345	3688.93
867.72	3769.58
871.094	3319.86
874.469	2456.39
877.844	1694.69
881.219	1187.98
884.594	960.457
887.968	891.185
891.343	624.808
894.718	311.464
898.093	153.685
901.468	82.6409
904.842	30.8859
908.217	4.0404
911.592	16.2131
914.967	19.0496
918.342	28.8138
921.717	25.5222
925.091	19.2833
928.466	8.68481
931.841	3.86585
935.216	6.97107
938.591	2.94067
941.966	20.0064
945.34	26.9805
948.715	31.6331
952.09	52.4898
955.465	63.8185
958.84	78.7457
962.214	102.051
965.589	122.598
968.964	148.191
972.339	168.102
975.714	174.734
979.088	168.226
982.463	135.564
985.838	100.651
989.213	70.4791
992.588	56.3341
995.963	44.2279
999.337	28.2301
1002.71	24.5649
1006.09	23.8846
1009.46	22.421
1012.84	13.1216
1016.21	9.61084
1019.59	11.9755
1022.96	11.021
1026.34	12.9657
1029.71	7.18567
1033.09	16.4631
1036.46	12.1328
1039.84	3.51953
1043.21	8.6698
1046.59	5.41479
1049.96	9.0105
1053.33	10.1915
1056.71	17.5093
1060.08	12.5648
1063.46	11.7588
1066.83	8.4596
1070.21	14.6903
1073.58	16.5653
1076.96	13.8578
1080.33	7.30566
1083.71	11.3403
1087.08	9.98852
1090.46	6.26868
1093.83	5.98364
1097.21	9.71973
1100.58	8.81128
1103.96	12.4585
1107.33	2.82727
1110.71	0.154907
1114.08	1.69202
1117.46	5.32471
1120.83	11.4907
1124.21	4.13232
1127.58	0.172485
1130.95	0.585938
1134.33	1.66382
1137.7	6.74915
1141.08	4.99805
1144.45	2.12183
1147.83	5.07519
1151.2	1.67163
1154.58	4.54272
1157.95	0.733643
1161.33	8.38635
1164.7	0.078491
1168.08	1.01636
1171.45	5.05701
1174.83	9.86267
1178.2	7.2981
1181.58	6.91138
1184.95	7.68262
1188.33	8.29712
1191.7	11.8009
1195.08	11.4017
1198.45	7.64648
1201.83	9.41187
1205.2	3.20483
1208.58	4.67957
1211.95	7.72498
1215.33	5.52673
1218.7	11.2133
1222.08	4.41992
1225.45	4.99585
1228.83	9.57556
1232.2	4.62769
1235.58	4.09985
1238.95	6.09875
1242.32	10.1567
1245.7	8.79724
1249.07	11.5767
1252.45	6.51233
1255.82	4.6416
1259.2	7.28015
1262.57	5.70532
1265.95	7.49194
1269.32	2.31226
1272.7	3.37976
1276.07	4.83228
1279.45	2.54883
1282.82	5.21057
1286.2	0.674805
1289.57	7.474
1292.95	1.43713
1296.32	4.36072
1299.7	2.5553
