Measurement: Raman, 780 nm, unoriented, Raman Data Processed
Mineral: Wendwilsonite
Rruff sample: R180012
Ideal chemistry: Ca_2_Mg(As^5+^O_4_)_2_2H_2_O
Locality: Bou Azzer, Morrocco
Source: Wendell Wilson
Description: Red vitreous mineral. Photo from Wendell Wilson
Measured chemistry: Ca_1.99_(Mg_0.66_Co_0.26_Zn_0.05_Ni_0.03_)_Σ=1.00_(AsO_4_)_2_·2H_2_O
Raman shift (cm-1)	intensity
87.582	0
90.9569	345.294
94.3317	287.954
97.7065	107.588
101.081	509.045
104.456	1265.06
107.831	371.944
111.206	42.1805
114.581	24.2781
117.955	24.399
121.33	17.5092
124.705	128.131
128.08	18.3302
131.455	2.12048
134.829	12.9452
138.204	62.3137
141.579	164.596
144.954	9.06677
148.329	50.8644
151.704	107.386
155.078	177.269
158.453	243.252
161.828	314.469
165.203	384.79
168.578	426.302
171.952	498.509
175.327	615.686
178.702	757.675
182.077	960.435
185.452	1052.6
188.827	1045.34
192.201	939.706
195.576	780.949
198.951	755.126
202.326	816.021
205.701	770.509
209.076	615.406
212.45	464.018
215.825	335.069
219.2	279.248
222.575	292.96
225.95	317.819
229.324	284.748
232.699	278.664
236.074	339.355
239.449	374.597
242.824	348.963
246.198	304.07
249.573	214.505
252.948	101.627
256.323	33.7106
259.698	8.0791
263.073	3.30957
266.447	12.7328
269.822	25.0253
273.197	24.8923
276.572	10.3507
279.947	32.5195
283.322	88.8721
286.696	84.6421
290.071	64.5472
293.446	99.1052
296.821	208.113
300.196	370.462
303.57	501.902
306.945	416.966
310.32	276.246
313.695	206.307
317.07	211.299
320.445	312.897
323.819	456.934
327.194	677.783
330.569	1052.98
333.944	1592.13
337.319	2164.16
340.693	2239.3
344.068	1778.5
347.443	1504.7
350.818	1523.8
354.193	1635.66
357.567	1602.36
360.942	1289.87
364.317	844.705
367.692	513.967
371.067	316.987
374.442	236.92
377.816	168.924
381.191	70.5237
384.566	2.04883
387.941	31.6378
391.316	26.7368
394.69	12.4929
398.065	68.6199
401.44	146.358
404.815	199.051
408.19	157.427
411.565	114.797
414.939	136.48
418.314	215.786
421.689	296.185
425.064	361.088
428.439	333.526
431.813	272.721
435.188	287.949
438.563	349.032
441.938	511.2
445.313	801.051
448.688	1193.13
452.062	1390.61
455.437	999.259
458.812	550.196
462.187	345.177
465.562	302.405
468.937	341.859
472.311	396.123
475.686	433.157
479.061	435.445
482.436	422.856
485.81	361.08
489.185	278.081
492.56	181.702
495.935	114.113
499.31	72.9528
502.685	37.5951
506.059	7.20093
509.434	2.23096
512.809	3.73303
516.184	9.53076
519.559	2.54028
522.933	0.634399
526.308	10.205
529.683	9.26715
533.058	1.10992
536.433	1.23566
539.808	1.00061
543.182	12.3757
546.557	9.39362
549.932	20.0054
553.307	24.2798
556.682	24.9035
560.057	29.0022
563.431	34.5872
566.806	30.1506
570.181	30.2442
573.556	27.0521
576.931	34.9531
580.305	30.7222
583.68	31.5844
587.055	23.2501
590.43	13.1622
593.805	21.6151
597.18	15.5432
600.554	12.9471
603.929	7.90405
607.304	6.00244
610.679	2.93414
614.054	1.75861
617.428	3.66309
620.803	3.26599
624.178	1.08557
627.553	1.35297
630.928	6.75586
634.303	4.09778
637.677	8.18372
641.052	9.75842
644.427	21.9062
647.802	8.53314
651.177	14.0731
654.552	24.4073
657.926	24.1157
661.301	20.95
664.676	26.4878
668.051	31.097
671.426	27.9695
674.8	24.4729
678.175	29.3283
681.55	36.3378
684.925	46.3506
688.3	64.2949
691.674	87.5842
695.049	106.132
698.424	140.15
701.799	180.443
705.174	193.695
708.548	198.012
711.923	193.362
715.298	165.114
718.673	128.184
722.048	107.11
725.423	82.4037
728.797	62.8485
732.172	40.7633
735.547	21.2787
738.922	11.4148
742.297	8.65894
745.672	9.74756
749.046	22.5074
752.421	18.9219
755.796	24.0975
759.171	18.536
762.546	13.4874
765.92	10.114
769.295	44.9492
772.67	89.2316
776.045	127.908
779.42	186.578
782.795	227.641
786.169	265.722
789.544	292.513
792.919	355.019
796.294	407.928
799.669	449.326
803.043	510.917
806.418	666.952
809.793	1050.01
813.168	1749.49
816.543	2758.13
819.918	4298.77
823.292	6240.84
826.667	7418.12
830.042	7008.38
833.417	6711.72
836.792	6728.58
840.166	6737.79
843.541	6175.65
846.916	4862.46
850.291	3640.72
853.666	2902.4
857.04	2595.96
860.415	2548.96
863.79	2593.35
867.165	2555.06
870.54	2225.69
873.915	1675.97
877.289	1148.62
880.664	807.103
884.039	595.687
887.414	480.945
890.789	331.841
894.163	177.389
897.538	86.5908
900.913	31.6848
904.288	8.99622
907.663	6.73096
911.038	16.047
914.412	22.0574
917.787	10.7619
921.162	29.6653
924.537	11.2366
927.912	5.078
931.287	7.9552
934.661	9.12244
938.036	15.8283
941.411	26.9686
944.786	36.1707
948.161	50.5243
951.535	63.3077
954.91	75.02
958.285	97.4509
961.66	104.524
965.035	116.717
968.409	132.138
971.784	139.805
975.159	144.902
978.534	133.504
981.909	112.487
985.284	94.3953
988.658	63.2278
992.033	42.654
995.408	35.304
998.783	21.8383
1002.16	21.8997
1005.53	19.7106
1008.91	19.0672
1012.28	13.3724
1015.66	11.639
1019.03	12.47
1022.41	14.718
1025.78	4.85248
1029.16	4.83301
1032.53	4.18634
1035.91	9.74463
1039.28	8.41968
1042.66	17.566
1046.03	17.5826
1049.4	7.31921
1052.78	12.4893
1056.15	11.3738
1059.53	23.4141
1062.9	31.475
1066.28	49.5128
1069.65	50.074
1073.03	44.2175
1076.4	33.0782
1079.78	27.9752
1083.15	12.186
1086.53	15.5824
1089.9	11.3251
1093.28	8.31702
1096.65	10.4834
1100.03	17.0651
1103.4	7.30725
1106.78	5.10046
1110.15	0.687317
1113.53	2.36511
1116.9	1.72186
1120.28	5.87189
1123.65	4.19769
1127.03	1.05121
1130.4	0.041687
1133.78	3.4906
1137.15	14.7232
1140.53	11.8583
1143.9	15.0989
1147.28	13.9271
1150.65	19.9296
1154.03	18.7272
1157.4	5.13281
1160.77	9.69659
1164.15	11.0496
1167.52	10.2431
1170.9	11.3636
1174.27	13.0574
1177.65	8.98468
1181.02	6.15338
1184.4	2.26526
1187.77	20.6534
1191.15	0.415771
1194.52	0.974548
1197.9	12.7902
1201.27	0.380249
1204.65	6.89972
1208.02	13.6114
1211.4	9.68487
1214.77	8.21954
1218.15	11.6466
1221.52	20.7696
1224.9	7.48517
1228.27	13.1655
1231.64	1.87402
1235.02	4.00043
1238.39	13.6582
1241.77	3.78937
1245.14	9.76855
1248.52	9.39423
1251.89	3.57806
1255.27	4.92615
1258.64	6.85724
1262.02	11.5763
1265.39	17.9576
1268.77	10.3319
1272.14	9.16016
1275.52	8.29791
1278.89	2.2475
1282.27	0
