Measurement: Raman, 780 nm, unoriented, Raman Data Processed
Mineral: Wendwilsonite
Rruff sample: R180014
Ideal chemistry: Ca_2_Mg(As^5+^O_4_)_2_2H_2_O
Locality: Bou Azzer, Morrocco
Source: Wendell Wilson
Description: Red vitreous crystals. Photo from Wendell Wilson
Measured chemistry: Ca_1.96_(Mg_0.48_Co_0.26_Zn_0.23_Ni_0.02_)_Σ=0.99_(As_1.01_O_4_)_2_·2H_2_O
Raman shift (cm-1)	intensity
87.582	0
90.9569	453.498
94.3317	367.819
97.7065	12.8709
101.081	178.895
104.456	314.356
107.831	69.0913
111.206	23.0349
114.581	5.56848
117.955	20.6949
121.33	67.0591
124.705	132.622
128.08	69.3206
131.455	31.8599
134.829	4.28638
138.204	21.3208
141.579	0.598633
144.954	20.4506
148.329	63.7671
151.704	142.867
155.078	240.921
158.453	323.078
161.828	397.563
165.203	405.403
168.578	404.557
171.952	447.638
175.327	514.24
178.702	631.117
182.077	726.707
185.452	737.161
188.827	656.406
192.201	525.444
195.576	390.997
198.951	353.848
202.326	369.2
205.701	349.325
209.076	275.55
212.45	189.349
215.825	134.071
219.2	117.969
222.575	123.779
225.95	138.848
229.324	127.988
232.699	139.026
236.074	169.129
239.449	157.94
242.824	129.2
246.198	83.7813
249.573	37.8658
252.948	3.8421
256.323	1.52411
259.698	15.1049
263.073	4.04596
266.447	3.60913
269.822	6.44495
273.197	5.82812
276.572	40.8062
279.947	88.8382
283.322	117.451
286.696	77.0418
290.071	35.9625
293.446	44.9158
296.821	96.9085
300.196	184.402
303.57	224.062
306.945	152.512
310.32	131.998
313.695	129.574
317.07	178.645
320.445	304.886
323.819	466.343
327.194	693.977
330.569	1062.71
333.944	1565.96
337.319	1990.96
340.693	1763.86
344.068	1159.36
347.443	787.273
350.818	631.647
354.193	577.007
357.567	509.683
360.942	376.293
364.317	237.973
367.692	143.924
371.067	93.1357
374.442	67.5903
377.816	44.1192
381.191	14.4198
384.566	3.58136
387.941	3.69159
391.316	11.3838
394.69	7.64105
398.065	1.92432
401.44	38.4065
404.815	53.9943
408.19	51.9191
411.565	37.7324
414.939	53.1987
418.314	74.7794
421.689	90.2458
425.064	98.7776
428.439	84.2625
431.813	62.8025
435.188	62.4464
438.563	74.2274
441.938	114.633
445.313	179.835
448.688	253.79
452.062	282.249
455.437	191.727
458.812	114.977
462.187	105.778
465.562	120.975
468.937	154.63
472.311	180.581
475.686	177.355
479.061	161.804
482.436	144.801
485.81	122.013
489.185	99.4371
492.56	64.4098
495.935	43.1946
499.31	26.7325
502.685	14.0235
506.059	6.18265
509.434	7.60129
512.809	1.64609
516.184	0.850861
519.559	5.15714
522.933	7.43744
526.308	5.8819
529.683	0.799652
533.058	10.244
536.433	7.62112
539.808	9.2222
543.182	5.36114
546.557	11.136
549.932	12.1906
553.307	18.4662
556.682	17.4303
560.057	9.43588
563.431	13.6275
566.806	16.8079
570.181	15.0571
573.556	13.7123
576.931	6.47064
580.305	6.96695
583.68	10.4153
587.055	1.61026
590.43	3.10547
593.805	0.934845
597.18	3.6857
600.554	3.94367
603.929	4.27032
607.304	8.12308
610.679	2.67471
614.054	12.864
617.428	0.810455
620.803	8.30722
624.178	1.59018
627.553	2.56342
630.928	0.947754
634.303	6.77365
637.677	14.0932
641.052	7.53189
644.427	8.31824
647.802	19.4302
651.177	18.8297
654.552	12.1832
657.926	15.7409
661.301	18.5914
664.676	25.0087
668.051	18.9352
671.426	19.7855
674.8	18.1639
678.175	18.04
681.55	21.4675
684.925	24.2398
688.3	32.6656
691.674	54.2917
695.049	71.8523
698.424	91.8008
701.799	112.622
705.174	129.551
708.548	137.558
711.923	122.112
715.298	109.011
718.673	90.4008
722.048	73.7818
725.423	69.3059
728.797	47.4783
732.172	33.7358
735.547	23.5969
738.922	11.5709
742.297	3.72467
745.672	4.88886
749.046	7.71921
752.421	11.9153
755.796	10.4133
759.171	9.53598
762.546	1.02414
765.92	5.37909
769.295	22.7397
772.67	48.0753
776.045	59.6668
779.42	78.7094
782.795	110.233
786.169	130.636
789.544	177.262
792.919	215.111
796.294	247.922
799.669	260.668
803.043	263.279
806.418	303.774
809.793	443.842
813.168	682.937
816.543	1046.1
819.918	1627.32
823.292	2364.41
826.667	2711.38
830.042	2487.18
833.417	2239
836.792	2007.52
840.166	1842
843.541	1584.09
846.916	1228.19
850.291	911.4
853.666	740.271
857.04	677.577
860.415	690.371
863.79	719.391
867.165	726.268
870.54	629.982
873.915	468.131
877.289	317.36
880.664	219.321
884.039	162.33
887.414	135.5
890.789	92.5519
894.163	49.7032
897.538	20.6143
900.913	10.9197
904.288	6.8978
907.663	6.4476
911.038	6.78177
914.412	7.65677
917.787	1.55283
921.162	4.96156
924.537	7.41888
927.912	8.71831
931.287	6.18455
934.661	9.11392
938.036	13.1013
941.411	9.27695
944.786	13.3998
948.161	11.5783
951.535	24.4912
954.91	15.6178
958.285	25.0198
961.66	29.811
965.035	35.3529
968.409	36.3247
971.784	36.9525
975.159	29.0931
978.534	23.121
981.909	23.2186
985.284	17.4438
988.658	10.8147
992.033	7.94334
995.408	2.1819
998.783	10.369
1002.16	6.74931
1005.53	7.20845
1008.91	5.29127
1012.28	4.68538
1015.66	9.86556
1019.03	3.74231
1022.41	10.743
1025.78	16.8634
1029.16	7.51308
1032.53	4.89444
1035.91	2.10829
1039.28	3.63147
1042.66	2.09982
1046.03	10.9627
1049.4	6.08229
1052.78	3.81665
1056.15	13.9505
1059.53	4.29178
1062.9	5.08871
1066.28	10.6887
1069.65	11.9459
1073.03	7.88736
1076.4	3.41739
1079.78	4.48503
1083.15	1.42499
1086.53	3.3121
1089.9	2.5117
1093.28	9.05041
1096.65	4.2886
1100.03	10.2986
1103.4	2.36545
1106.78	10.0544
1110.15	7.33769
1113.53	3.32227
1116.9	6.89496
1120.28	1.10821
1123.65	4.42169
1127.03	2.04306
1130.4	18.063
1133.78	6.1394
1137.15	7.54375
1140.53	4.44339
1143.9	10.897
1147.28	6.44536
1150.65	12.9847
1154.03	16.9082
1157.4	12.4865
1160.77	6.7766
1164.15	17.0565
1167.52	7.39986
1170.9	16.1573
1174.27	7.91853
1177.65	14.6614
1181.02	7.8022
1184.4	9.18132
1187.77	11.9931
1191.15	17.4873
1194.52	7.18666
1197.9	8.89313
1201.27	6.76317
1204.65	7.90396
1208.02	11.6057
1211.4	4.19849
1214.77	6.93932
1218.15	1.2236
1221.52	7.09125
1224.9	5.4789
1228.27	13.1527
1231.64	0.964645
1235.02	2.75905
1238.39	3.99188
1241.77	1.12256
1245.14	11.4092
1248.52	3.36116
1251.89	5.17129
1255.27	0.951004
1258.64	8.92003
1262.02	10.8419
1265.39	6.29404
1268.77	5.67477
1272.14	0.511475
1275.52	2.71652
1278.89	9.53561
1282.27	0
