Measurement: Raman, 780 nm, unoriented, Raman Data Processed
Mineral: Wendwilsonite
Rruff sample: R180011
Ideal chemistry: Ca_2_Mg(As^5+^O_4_)_2_2H_2_O
Locality: Bou Azzer, Morrocco
Source: Wendell Wilson
Description: Red vitreous crystals. Photo from Wendell Wilson
Measured chemistry: Ca_2.00_(Mg_0.50_Co_0.42_Zn_0.03_Ni_0.03_)_Σ=0.98_(AsO_4_)_2_·2H_2_O
Raman shift (cm-1)	intensity
94.8138	0
98.1886	3.50488
101.563	76.9238
104.938	286.458
108.313	61.2087
111.688	2.98633
115.063	86.4584
118.438	142.558
121.812	280.821
125.187	520.559
128.562	60.0198
131.937	12.9003
135.312	0.48645
138.686	27.7175
142.061	54.0953
145.436	34.3313
148.811	50.1907
152.186	102.509
155.56	198.823
158.935	309.541
162.31	370.301
165.685	340.962
169.06	349.493
172.435	419.655
175.809	519.632
179.184	660.677
182.559	810.366
185.934	892.184
189.309	938.409
192.684	801.922
196.058	482.28
199.433	338.084
202.808	315.707
206.183	286.229
209.558	236.096
212.932	162.655
216.307	124.638
219.682	109.693
223.057	125.629
226.432	142.424
229.806	155.682
233.181	198.34
236.556	241.245
239.931	231.527
243.306	228.232
246.681	160.29
250.055	60.9191
253.43	1.56653
256.805	13.2886
260.18	24.4189
263.555	4.73877
266.93	4.30823
270.304	7.3385
273.679	33.5013
277.054	71.3638
280.429	136.448
283.804	184.699
287.178	128.052
290.553	85.5085
293.928	99.9142
297.303	163.912
300.678	263.468
304.053	321.821
307.427	238.227
310.802	183.555
314.177	151.932
317.552	192.173
320.927	268.91
324.301	401.693
327.676	603.574
331.051	877.804
334.426	1255.55
337.801	1492.59
341.175	1300.41
344.55	985.266
347.925	862.821
351.3	901.276
354.675	971.493
358.05	923.142
361.424	736.555
364.799	513.295
368.174	376.367
371.549	318.144
374.924	309.034
378.298	222.287
381.673	110.936
385.048	38.9329
388.423	6.1228
391.798	17.0732
395.173	22.7604
398.547	1.31482
401.922	23.5987
405.297	37.2552
408.672	31.2714
412.047	32.5918
415.421	63.3917
418.796	108.746
422.171	146.964
425.546	200.787
428.921	240.703
432.296	319.394
435.67	465.581
439.045	667.931
442.42	945.163
445.795	1348.55
449.17	1834.3
452.545	1914.56
455.919	1295.65
459.294	716.654
462.669	455.696
466.044	373.109
469.419	338.571
472.793	326.872
476.168	302.531
479.543	255.403
482.918	210.877
486.293	150.321
489.668	113.146
493.042	73.4846
496.417	46.5968
499.792	25.8996
503.167	21.6755
506.542	0.024109
509.916	3.02014
513.291	0.672485
516.666	8.15124
520.041	7.07227
523.416	0.736755
526.79	1.82495
530.165	1.20087
533.54	6.35486
536.915	6.94885
540.29	3.79981
543.665	9.57147
547.039	6.17297
550.414	11.054
553.789	12.7121
557.164	19.1895
560.539	15.8602
563.913	16.9755
567.288	15.3774
570.663	13.8735
574.038	11.68
577.413	16.6594
580.788	13.3749
584.162	8.39246
587.537	1.9024
590.912	0.034546
594.287	8.04694
597.662	4.84936
601.037	1.48248
604.411	0.016724
607.786	1.28302
611.161	2.73065
614.536	7.2085
617.911	0.044922
621.285	0.338867
624.66	5.28577
628.035	6.03925
631.41	13.994
634.785	10.0283
638.159	22.2819
641.534	21.3568
644.909	26.4013
648.284	24.7295
651.659	38.5379
655.034	48.733
658.408	49.4254
661.783	45.1741
665.158	50.4232
668.533	40.5615
671.908	40.1892
675.283	35.6374
678.657	43.7611
682.032	48.5538
685.407	59.0583
688.782	83.1669
692.157	117.251
695.531	151.376
698.906	198.378
702.281	234.869
705.656	260.271
709.031	274.206
712.405	257.941
715.78	216.936
719.155	176.063
722.53	140.003
725.905	106.598
729.279	82.4559
732.654	48.3166
736.029	29.9547
739.404	10.6039
742.779	0.200623
746.154	11.4026
749.528	22.957
752.903	23.7639
756.278	26.5151
759.653	15.059
763.028	4.4574
766.403	18.0977
769.777	54.0588
773.152	97.9214
776.527	133.901
779.902	165.022
783.277	185.111
786.652	201.954
790.026	222.032
793.401	261.009
796.776	319.078
800.151	406.319
803.526	530.34
806.9	755.446
810.275	1159.94
813.65	1805.92
817.025	2635.29
820.4	3665.91
823.774	4619.6
827.149	4767.31
830.524	4420.15
833.899	4402.46
837.274	4700
840.649	4835.05
844.023	4388.19
847.398	3480.01
850.773	2706.73
854.148	2318.77
857.523	2196.13
860.898	2248.71
864.272	2350.64
867.647	2328.68
871.022	2019.12
874.397	1520.25
877.771	1047.53
881.146	707.604
884.521	484.587
887.896	351.903
891.271	226.535
894.646	133.234
898.02	68.8287
901.395	33.3026
904.77	3.42413
908.145	10.8559
911.52	9.4184
914.894	22.3207
918.269	15.2067
921.644	12.9421
925.019	9.22449
928.394	0.273926
931.769	0.260437
935.143	15.722
938.518	12.048
941.893	26.0656
945.268	29.9081
948.643	34.7426
952.018	47.8972
955.392	60.9304
958.767	78.0147
962.142	90.0953
965.517	96.2098
968.892	108.272
972.266	112.349
975.641	99.8492
979.016	91.904
982.391	78.5992
985.766	52.5723
989.141	41.4363
992.515	25.1451
995.89	30.6489
999.265	16.9575
1002.64	14.9805
1006.01	14.1202
1009.39	10.4169
1012.76	16.1935
1016.14	10.8395
1019.51	5.93823
1022.89	8.60907
1026.26	10.0978
1029.64	7.47797
1033.01	5.82715
1036.39	8.9137
1039.76	7.36737
1043.14	6.50165
1046.51	15.1668
1049.89	6.27918
1053.26	4.70734
1056.64	14.4969
1060.01	29.5341
1063.39	26.1649
1066.76	50.4935
1070.14	42.5052
1073.51	40.5864
1076.89	30.4368
1080.26	12.5831
1083.63	9.03687
1087.01	6.17285
1090.38	4.17596
1093.76	1.93384
1097.13	2.57635
1100.51	4.60681
1103.88	0.370667
1107.26	3.13513
1110.63	2.70514
1114.01	0.630066
1117.38	2.87732
1120.76	0.748779
1124.13	0.438477
1127.51	1.94104
1130.88	1.08868
1134.26	9.44214
1137.63	2.33777
1141.01	5.229
1144.38	6.01355
1147.76	4.23352
1151.13	9.46826
1154.51	5.45953
1157.88	4.59863
1161.26	11.2599
1164.63	4.22241
1168.01	6.393
1171.38	9.15387
1174.76	11.056
1178.13	5.07581
1181.51	8.33948
1184.88	5.47876
1188.26	8.69788
1191.63	3.90106
1195	4.44397
1198.38	9.55292
1201.75	6.14722
1205.13	5.14374
1208.5	2.94885
1211.88	10.6187
1215.25	5.72846
1218.63	3.33783
1222	15.0723
1225.38	5.22992
1228.75	8.53522
1232.13	4.69232
1235.5	7.82068
1238.88	5.44098
1242.25	0.773376
1245.63	8.81616
1249	5.85175
1252.38	6.14502
1255.75	6.46082
1259.13	2.36676
1262.5	0.605408
1265.88	8.28638
1269.25	11.4312
1272.62	2.95355
1276	5.85053
1279.38	0.023071
