Measurement: Raman, 532 nm, unoriented, Raman Data Processed
Mineral: Wendwilsonite
Rruff sample: R180008
Ideal chemistry: Ca_2_Mg(As^5+^O_4_)_2_2H_2_O
Locality: Bou Azzer, Morrocco
Source: Wendell Wilson
Description: Red crystals associated with colorless calcite
Measured chemistry: Ca_1.97_(Mg_0.55_Co_0.38_Ni_0.03_Mn_0.02_Cu_0.01_)_Σ=0.99_(AsO_4_)_2_·2H_2_O
Raman shift (cm-1)	intensity
88.1367	0
91.5115	43.5153
94.8863	4.49371
98.2612	5.12175
101.636	72.178
105.011	131.207
108.386	32.2254
111.76	8.26602
115.135	0.131531
118.51	15.6415
121.885	68.9562
125.26	160.352
128.635	6.018
132.009	4.10654
135.384	15.4795
138.759	50.6723
142.134	65.2441
145.509	62.2589
148.883	75.9386
152.258	105.414
155.633	147.798
159.008	223.294
162.383	265.541
165.757	211.365
169.132	203.103
172.507	260.809
175.882	335.731
179.257	435.82
182.632	533.984
186.006	591.894
189.381	601.246
192.756	452.681
196.131	266.096
199.506	217.641
202.881	228.413
206.255	216.764
209.63	173.659
213.005	118.505
216.38	73.8113
219.755	64.0453
223.129	82.8275
226.504	104.736
229.879	115.1
233.254	147.274
236.629	181.474
240.004	175.859
243.378	164.13
246.753	105.707
250.128	40.1864
253.503	1.08435
256.878	11.7231
260.252	17.7272
263.627	13.3915
267.002	0.593628
270.377	17.6193
273.752	41.1041
277.127	74.9954
280.501	134.288
283.876	175.799
287.251	113.955
290.626	65.2658
294.001	81.7986
297.375	145.15
300.75	231.84
304.125	237.753
307.5	140.619
310.875	84.4029
314.25	77.8127
317.624	98.4586
320.999	172.483
324.374	300.348
327.749	475.133
331.124	713.26
334.498	1047.56
337.873	1254.39
341.248	1014.76
344.623	668.408
347.998	511.596
351.373	492.743
354.747	499.789
358.122	466.402
361.497	351.412
364.872	258.717
368.247	208.561
371.621	217.528
374.996	231.301
378.371	179.279
381.746	86.1634
385.121	26.6119
388.495	2.04309
391.87	13.7488
395.245	13.618
398.62	1.88022
401.995	15.4008
405.37	16.6826
408.744	12.4469
412.119	18.4082
415.494	37.7466
418.869	61.2132
422.244	90.9285
425.618	118.095
428.993	156.809
432.368	226.543
435.743	374.441
439.118	584.984
442.493	877.662
445.867	1293.3
449.242	1716.26
452.617	1659.1
455.992	993.632
459.367	522.782
462.741	322.065
466.116	249.535
469.491	230.518
472.866	221.323
476.241	193.321
479.615	161.837
482.99	135.171
486.365	95.4065
489.74	64.7957
493.115	41.843
496.49	25.0258
499.864	10.51
503.239	3.8526
506.614	0.470306
509.989	1.68454
513.364	4.5665
516.739	3.64426
520.113	2.92481
523.488	1.79535
526.863	2.09503
530.238	4.55039
533.613	5.26971
536.987	6.91043
540.362	10.6753
543.737	9.75824
547.112	10.6008
550.487	10.4647
553.861	11.5511
557.236	14.6174
560.611	8.8132
563.986	11.9256
567.361	12.892
570.736	10.9436
574.11	6.27234
577.485	4.03647
580.86	4.45987
584.235	1.72827
587.61	7.47842
590.985	2.96469
594.359	3.2626
597.734	0.88501
601.109	1.43073
604.484	0.737885
607.859	4.18314
611.233	2.34705
614.608	4.43832
617.983	4.24011
621.358	4.71219
624.733	4.33814
628.107	12.1605
631.482	9.95471
634.857	15.5445
638.232	15.2362
641.607	14.1012
644.982	20.9357
648.356	29.055
651.731	32.7731
655.106	37.8333
658.481	40.6433
661.856	41.2238
665.231	43.1547
668.605	45.6624
671.98	51.038
675.355	51.8674
678.73	56.4273
682.105	64.2618
685.479	81.5333
688.854	111.177
692.229	145.068
695.604	198.286
698.979	253.589
702.354	310.908
705.728	352.828
709.103	358.318
712.478	323.43
715.853	261.82
719.227	203.786
722.602	155.214
725.977	116.055
729.352	85.7219
732.727	61.6357
736.102	45.1329
739.476	23.358
742.851	14.0132
746.226	5.19629
749.601	5.77307
752.976	10.6795
756.351	11.3557
759.725	17.3838
763.1	18.4002
766.475	10.069
769.85	5.80878
773.225	7.73767
776.599	19.5709
779.974	33.7099
783.349	51.296
786.724	86.333
790.099	128.532
793.473	176.767
796.848	240.862
800.223	293.401
803.598	360.515
806.973	500.68
810.348	768.38
813.722	1228.93
817.097	1886.11
820.472	2801.15
823.847	3804.1
827.222	4394.8
830.597	4639.16
833.971	4940.48
837.346	5249.08
840.721	5376.02
844.096	4831.48
847.471	3849.5
850.846	3135.97
854.22	2841.85
857.595	2875.76
860.97	3108.48
864.345	3340.29
867.72	3302.24
871.094	2767.65
874.469	1991.68
877.844	1340.76
881.219	891.39
884.594	608.954
887.968	428.153
891.343	278.767
894.718	171.947
898.093	107.713
901.468	60.2073
904.842	35.9055
908.217	10.8644
911.592	3.17859
914.967	9.30212
918.342	9.06506
921.717	12.6965
925.091	14.8788
928.466	10.0591
931.841	0.593567
935.216	0.524414
938.591	4.7876
941.966	9.93231
945.34	15.7579
948.715	27.4182
952.09	38.1309
955.465	48.5864
958.84	64.8967
962.214	83.0443
965.589	101.606
968.964	113.64
972.339	124.567
975.714	119.1
979.088	104.176
982.463	80.9263
985.838	50.269
989.213	34.3652
992.588	26.4603
995.963	18.342
999.337	14.9086
1002.71	22.0294
1006.09	8.68225
1009.46	9.42755
1012.84	9.9129
1016.21	5.64087
1019.59	0.361084
1022.96	3.18842
1026.34	7.43988
1029.71	6.44562
1033.09	5.41626
1036.46	10.6301
1039.84	10.5006
1043.21	10.4251
1046.59	5.74182
1049.96	8.74268
1053.33	10.5428
1056.71	12.0327
1060.08	10.4576
1063.46	12.7291
1066.83	10.3563
1070.21	12.4301
1073.58	12.7496
1076.96	7.58734
1080.33	6.46307
1083.71	9.66388
1087.08	9.43689
1090.46	12.3195
1093.83	15.9927
1097.21	14.6009
1100.58	11.5997
1103.96	6.32379
1107.33	1.33856
1110.71	0.876282
1114.08	3.49762
1117.46	3.66174
1120.83	0.660095
1124.21	1.52118
1127.58	0.442505
1130.95	0.187744
1134.33	2.81097
1137.7	0.88678
1141.08	0.727661
1144.45	4.96899
1147.83	2.83557
1151.2	0.997314
1154.58	1.81531
1157.95	1.55237
1161.33	2.28357
1164.7	2.22571
1168.08	2.19592
1171.45	0.677673
1174.83	2.211
1178.2	4.40631
1181.58	3.86426
1184.95	0.998962
1188.33	4.32489
1191.7	4.92779
1195.08	4.31232
1198.45	5.42505
1201.83	5.78217
1205.2	2.51642
1208.58	4.40967
1211.95	5.94055
1215.33	5.35992
1218.7	4.99341
1222.08	4.38867
1225.45	1.9093
1228.83	0.074219
1232.2	1.60205
1235.58	0.092163
1238.95	3.58661
1242.32	6.0741
1245.7	4.83911
1249.07	4.76032
1252.45	4.14691
1255.82	4.35394
1259.2	4.53003
1262.57	4.71875
1265.95	4.86414
1269.32	5.11743
1272.7	0.197266
1276.07	2.42938
1279.45	1.88892
1282.82	4.19952
1286.2	4.30328
1289.57	3.31006
1292.95	4.07623
1296.32	1.41534
1299.7	1.41779
