Measurement: Raman, 780 nm, unoriented, Raman Data Processed
Mineral: Wendwilsonite
Rruff sample: R180008
Ideal chemistry: Ca_2_Mg(As^5+^O_4_)_2_2H_2_O
Locality: Bou Azzer, Morrocco
Source: Wendell Wilson
Description: Red crystals associated with colorless calcite
Measured chemistry: Ca_1.97_(Mg_0.55_Co_0.38_Ni_0.03_Mn_0.02_Cu_0.01_)_Σ=0.99_(AsO_4_)_2_·2H_2_O
Raman shift (cm-1)	intensity
87.582	0
90.9569	75.6823
94.3317	43.5347
97.7065	0.722626
101.081	51.7467
104.456	114.069
107.831	5.3865
111.206	6.87994
114.581	12.7189
117.955	16.3922
121.33	40.1574
124.705	84.8176
128.08	1.12875
131.455	5.16864
134.829	1.22324
138.204	13.7467
141.579	22.7179
144.954	18.1959
148.329	31.4916
151.704	56.6331
155.078	83.4637
158.453	125.637
161.828	157.402
165.203	137.942
168.578	132.118
171.952	153.871
175.327	194.39
178.702	240.671
182.077	292.913
185.452	318.017
188.827	307.117
192.201	238.579
195.576	152.373
198.951	128.348
202.326	140.264
205.701	139.511
209.076	108.483
212.45	72.785
215.825	45.7797
219.2	38.9096
222.575	43.0977
225.95	46.0254
229.324	35.749
232.699	42.3555
236.074	48.6084
239.449	49.5183
242.824	46.947
246.198	35.1673
249.573	16.5167
252.948	3.47559
256.323	5.09908
259.698	5.85496
263.073	4.35574
266.447	0.151581
269.822	1.2818
273.197	6.96237
276.572	14.793
279.947	35.7561
283.322	54.1754
286.696	36.2148
290.071	20.1413
293.446	26.1071
296.821	44.8953
300.196	70.0788
303.57	84.4775
306.945	60.0109
310.32	41.2989
313.695	37.4218
317.07	51.4066
320.445	82.1632
323.819	121.653
327.194	178.859
330.569	279.567
333.944	431.686
337.319	542.443
340.693	463.968
344.068	316.593
347.443	259.251
350.818	265.603
354.193	293.695
357.567	284.486
360.942	219.549
364.317	137.22
367.692	83.6621
371.067	57.5394
374.442	49.1603
377.816	35.4586
381.191	13.434
384.566	1.19269
387.941	4.03827
391.316	3.54688
394.69	4.17117
398.065	0.20166
401.44	12.871
404.815	14.7735
408.19	10.338
411.565	9.0191
414.939	14.9791
418.314	30.735
421.689	40.7287
425.064	40.2273
428.439	38.5685
431.813	33.1354
435.188	46.4886
438.563	65.7087
441.938	100.818
445.313	165.354
448.688	252.256
452.062	275.943
455.437	175.196
458.812	92.9213
462.187	59.4141
465.562	54.1804
468.937	59.7923
472.311	68.1663
475.686	68.0707
479.061	59.5468
482.436	52.6028
485.81	42.0912
489.185	30.6878
492.56	19.7967
495.935	10.771
499.31	6.34312
502.685	0.878342
506.059	0.300659
509.434	0.141785
512.809	0.46846
516.184	1.38933
519.559	0.400818
522.933	2.21405
526.308	3.84128
529.683	3.29417
533.058	7.3438
536.433	9.28851
539.808	7.83887
543.182	9.1665
546.557	8.47159
549.932	10.1495
553.307	8.69771
556.682	8.27972
560.057	8.36797
563.431	6.03494
566.806	3.8781
570.181	3.07266
573.556	2.95172
576.931	3.09358
580.305	2.65457
583.68	3.10445
587.055	0.961121
590.43	0.228622
593.805	3.60431
597.18	0.809479
600.554	0.573639
603.929	0.5896
607.304	0.15918
610.679	0.973236
614.054	1.93004
617.428	0.458603
620.803	0.04628
624.178	4.4019
627.553	3.52139
630.928	2.89276
634.303	5.1609
637.677	7.00305
641.052	6.05952
644.427	7.71002
647.802	9.1097
651.177	10.4069
654.552	12.5887
657.926	13.0266
661.301	15.3797
664.676	15.5854
668.051	14.5422
671.426	13.6026
674.8	9.76335
678.175	10.8859
681.55	11.2615
684.925	13.6784
688.3	18.1492
691.674	23.0453
695.049	32.1333
698.424	41.7861
701.799	51.1767
705.174	62.6936
708.548	65.4851
711.923	60.2449
715.298	50.2103
718.673	40.2452
722.048	34.549
725.423	27.2002
728.797	19.7287
732.172	12.9744
735.547	7.66524
738.922	5.0145
742.297	3.06203
745.672	2.22701
749.046	3.54156
752.421	6.52751
755.796	5.13959
759.171	3.87508
762.546	1.77193
765.92	1.54781
769.295	10.492
772.67	15.4049
776.045	25.4124
779.42	35.504
782.795	45.198
786.169	55.9461
789.544	65.9714
792.919	85.5043
796.294	110.283
799.669	119.992
803.043	124.815
806.418	156.732
809.793	215.263
813.168	320.804
816.543	481.095
819.918	704.068
823.292	983.64
826.667	1096.64
830.042	1000.97
833.417	934.435
836.792	898.251
840.166	880.024
843.541	788.807
846.916	619.93
850.291	481.093
853.666	411.917
857.04	399.979
860.415	429.051
863.79	468.515
867.165	478.369
870.54	422.032
873.915	311.209
877.289	206.831
880.664	138.248
884.039	97.8031
887.414	70.8158
890.789	43.6571
894.163	21.5059
897.538	14.1969
900.913	4.71382
904.288	0.397339
907.663	3.5304
911.038	4.03563
914.412	4.96999
917.787	3.86169
921.162	4.93585
924.537	1.12396
927.912	2.6872
931.287	5.10091
934.661	5.53772
938.036	5.71416
941.411	3.89009
944.786	4.27864
948.161	3.63931
951.535	6.4577
954.91	8.26141
958.285	12.3511
961.66	13.1559
965.035	15.1605
968.409	18.689
971.784	17.1488
975.159	16.6194
978.534	14.9027
981.909	12.39
985.284	7.01227
988.658	5.43831
992.033	4.27962
995.408	4.065
998.783	2.40167
1002.16	3.28673
1005.53	1.91308
1008.91	0.17144
1012.28	2.47778
1015.66	2.22845
1019.03	0.8993
1022.41	0.930695
1025.78	1.24547
1029.16	0.895439
1032.53	0.42247
1035.91	1.64202
1039.28	1.08737
1042.66	1.60369
1046.03	2.06239
1049.4	2.07557
1052.78	1.40638
1056.15	2.76746
1059.53	3.85927
1062.9	1.64686
1066.28	2.6264
1069.65	2.10323
1073.03	4.01936
1076.4	2.4025
1079.78	4.20174
1083.15	5.91401
1086.53	8.6265
1089.9	13.2847
1093.28	22.4127
1096.65	28.4544
1100.03	16.8354
1103.4	6.09412
1106.78	2.39797
1110.15	3.08462
1113.53	1.58907
1116.9	0.48027
1120.28	1.24405
1123.65	1.37552
1127.03	1.22864
1130.4	0.703125
1133.78	0.312668
1137.15	0.97084
1140.53	1.30434
1143.9	1.14223
1147.28	0.117294
1150.65	0.330025
1154.03	1.55839
1157.4	2.39811
1160.77	0.140259
1164.15	1.04172
1167.52	1.68839
1170.9	1.35339
1174.27	0.857437
1177.65	1.63036
1181.02	0.903137
1184.4	1.96128
1187.77	2.16833
1191.15	1.73101
1194.52	1.62626
1197.9	2.41592
1201.27	0.211143
1204.65	2.01151
1208.02	1.26223
1211.4	2.64406
1214.77	1.36119
1218.15	1.06385
1221.52	2.91105
1224.9	2.28954
1228.27	1.38567
1231.64	2.2345
1235.02	1.7264
1238.39	0.777527
1241.77	1.4287
1245.14	2.69334
1248.52	1.51991
1251.89	2.32561
1255.27	2.67902
1258.64	1.4771
1262.02	2.46495
1265.39	2.10018
1268.77	0.807884
1272.14	0.480865
1275.52	1.77525
1278.89	1.33588
1282.27	0
