Measurement: Raman, 532 nm, unoriented, Raman Data Processed
Mineral: Wendwilsonite
Rruff sample: R180011
Ideal chemistry: Ca_2_Mg(As^5+^O_4_)_2_2H_2_O
Locality: Bou Azzer, Morrocco
Source: Wendell Wilson
Description: Red vitreous crystals. Photo from Wendell Wilson
Measured chemistry: Ca_2.00_(Mg_0.50_Co_0.42_Zn_0.03_Ni_0.03_)_Σ=0.98_(AsO_4_)_2_·2H_2_O
Raman shift (cm-1)	intensity
88.1367	0
91.5115	39.8671
94.8863	2.87915
98.2612	37.6746
101.636	216.567
105.011	488.216
108.386	178.142
111.76	7.1265
115.135	11.7197
118.51	0.575592
121.885	5.92123
125.26	92.3624
128.635	32.9586
132.009	42.7987
135.384	61.4498
138.759	121.582
142.134	184.015
145.509	82.5405
148.883	58.981
152.258	70.7012
155.633	74.9086
159.008	83.3189
162.383	101.493
165.757	137.605
169.132	163.356
172.507	224.574
175.882	307.477
179.257	418.401
182.632	552.683
186.006	654.431
189.381	701.601
192.756	636.087
196.131	518.16
199.506	492.363
202.881	522.082
206.255	475.469
209.63	393.771
213.005	310.187
216.38	217.875
219.755	173.654
223.129	194.265
226.504	215.836
229.879	196.722
233.254	224.435
236.629	262.304
240.004	286.25
243.378	295.659
246.753	254.702
250.128	152.211
253.503	70.5358
256.878	20.2969
260.252	12.7578
263.627	12.4019
267.002	19.6313
270.377	15.8677
273.752	7.10986
277.127	5.80566
280.501	34.5667
283.876	75.8479
287.251	87.1407
290.626	110.389
294.001	167.336
297.375	320.22
300.75	555.059
304.125	659.588
307.5	463.164
310.875	268.092
314.25	164.261
317.624	131.56
320.999	134.662
324.374	200.939
327.749	321.255
331.124	507.875
334.498	792.571
337.873	1093.43
341.248	1214.86
344.623	1282.95
347.998	1494.53
351.373	1847.02
354.747	2219.41
358.122	2216.88
361.497	1787.61
364.872	1224.9
368.247	816.947
371.621	593.36
374.996	492.789
378.371	360.36
381.746	170.981
385.121	52.3141
388.495	14.1867
391.87	25.2024
395.245	12.5114
398.62	20.7302
401.995	71.3604
405.37	103.493
408.744	68.282
412.119	63.4385
415.494	99.328
418.869	182.786
422.244	258.397
425.618	321.496
428.993	348.672
432.368	391.755
435.743	563.774
439.118	875.058
442.493	1319.41
445.867	2027.18
449.242	2823.5
452.617	2959.72
455.992	1985.83
459.367	1025.97
462.741	604.011
466.116	421.945
469.491	389.451
472.866	390.243
476.241	398.225
479.615	371.939
482.99	341.082
486.365	270.939
489.74	191.096
493.115	126.436
496.49	82.188
499.864	45.0546
503.239	15.279
506.614	1.05341
509.989	0.752808
513.364	10.3075
516.739	12.4827
520.113	2.81799
523.488	4.44733
526.863	6.38641
530.238	1.53174
533.613	0.626526
536.987	19.0425
540.362	14.4024
543.737	9.28986
547.112	16.0944
550.487	18.3217
553.861	8.92175
557.236	24.7547
560.611	27.1288
563.986	36.0195
567.361	37.8008
570.736	31.4358
574.11	28.375
577.485	24.5582
580.86	23.7161
584.235	23.0016
587.61	15.4353
590.985	19.6755
594.359	9.67169
597.734	10.7009
601.109	8.22235
604.484	8.21002
607.859	4.93384
611.233	16.13
614.608	14.9401
617.983	11.6028
621.358	7.93329
624.733	4.25464
628.107	6.05335
631.482	1.38037
634.857	7.14746
638.232	13.4943
641.607	10.3533
644.982	21.6266
648.356	25.9236
651.731	34.1476
655.106	32.7758
658.481	46.3447
661.856	49.9056
665.231	37.7056
668.605	53.5604
671.98	51.7594
675.355	54.7673
678.73	40.4141
682.105	55.3577
685.479	73.1162
688.854	91.6454
692.229	121.913
695.604	166.226
698.979	215.163
702.354	274.095
705.728	311.543
709.103	318.864
712.478	301.622
715.853	255.981
719.227	194.942
722.602	144.285
725.977	114.136
729.352	80.1361
732.727	63.4015
736.102	40.0514
739.476	17.3541
742.851	0.388916
746.226	0.581665
749.601	15.4725
752.976	36.6802
756.351	44.33
759.725	35.8184
763.1	29.224
766.475	22.832
769.85	24.1088
773.225	67.6719
776.599	120.85
779.974	165.133
783.349	216.628
786.724	249.788
790.099	300.729
793.473	377.639
796.848	458.62
800.223	577.038
803.598	760.169
806.973	1136.77
810.348	1879.25
813.722	3157.63
817.097	5044.54
820.472	7786.42
823.847	10849.9
827.222	12780.9
830.597	13159.6
833.971	13733.7
837.346	14637.7
840.721	15051.8
844.096	13692.3
847.471	10781.2
850.846	8249.67
854.22	6857.49
857.595	6348.88
860.97	6353.97
864.345	6516.73
867.72	6284.94
871.094	5302.02
874.469	3876.97
877.844	2631.53
881.219	1782.15
884.594	1259.34
887.968	917.878
891.343	607.376
894.718	355.52
898.093	203.138
901.468	108.91
904.842	47.9507
908.217	0.563843
911.592	28.3578
914.967	34.3038
918.342	46.8082
921.717	41.1537
925.091	28.7346
928.466	13.4082
931.841	0.322266
935.216	6.95825
938.591	16.9367
941.966	25.0322
945.34	51.1146
948.715	77.6268
952.09	111.751
955.465	143.371
958.84	176.679
962.214	232.628
965.589	273.587
968.964	311.13
972.339	337.99
975.714	343.724
979.088	314.721
982.463	265.858
985.838	191.194
989.213	129.316
992.588	104.756
995.963	68.7645
999.337	49.8426
1002.71	26.9144
1006.09	39.0759
1009.46	30.1875
1012.84	17.8179
1016.21	16.429
1019.59	10.8195
1022.96	12.9716
1026.34	8.28711
1029.71	15
1033.09	19.0454
1036.46	11.3417
1039.84	10.9025
1043.21	25.9508
1046.59	17.9736
1049.96	17.0175
1053.33	23.264
1056.71	49.7516
1060.08	55.8049
1063.46	62.9722
1066.83	87.3352
1070.21	90.3979
1073.58	93.6103
1076.96	64.6495
1080.33	39.9552
1083.71	27.0411
1087.08	22.8839
1090.46	9.06384
1093.83	7.07666
1097.21	12.7147
1100.58	17.5452
1103.96	1.36462
1107.33	4.37988
1110.71	7.51965
1114.08	0.944214
1117.46	4.32617
1120.83	13.5455
1124.21	13.0043
1127.58	11.4932
1130.95	7.48364
1134.33	1.69617
1137.7	0.956299
1141.08	11.0369
1144.45	6.33545
1147.83	14.127
1151.2	7.65076
1154.58	5.47729
1157.95	8.88501
1161.33	7.02698
1164.7	11.7023
1168.08	10.269
1171.45	8.70105
1174.83	15.7999
1178.2	20.2722
1181.58	12.3037
1184.95	15.1543
1188.33	17.8604
1191.7	19.1702
1195.08	12.6661
1198.45	15.5663
1201.83	11.9591
1205.2	9.44922
1208.58	4.06348
1211.95	6.24451
1215.33	14.0977
1218.7	13.0247
1222.08	21.3772
1225.45	16.7434
1228.83	19.2411
1232.2	10.9343
1235.58	4.24707
1238.95	2.75037
1242.32	6.93091
1245.7	17.9475
1249.07	18.0421
1252.45	12.6683
1255.82	6.56274
1259.2	6.06189
1262.57	11.9147
1265.95	6.8418
1269.32	6.81873
1272.7	0.270386
1276.07	6.85181
1279.45	2.64356
1282.82	4.24316
1286.2	14.6522
1289.57	11.7681
1292.95	4.66638
1296.32	4.59656
1299.7	3.35461
