Measurement: Raman, 532 nm, unoriented, Raman Data Processed
Mineral: Wendwilsonite
Rruff sample: R180010
Ideal chemistry: Ca_2_Mg(As^5+^O_4_)_2_2H_2_O
Locality: Bou Azzer, Morrocco
Source: Wendell Wilson
Description: Red fragments. Photo from Wendell Wilson
Measured chemistry: Ca_1.99_(Mg_0.52_Co_0.38_Zn_0.07_Ni_0.01_)_Σ=0.98_(AsO_4_)_2_·2H_2_O
Raman shift (cm-1)	intensity
88.1367	0
91.5115	41.3728
94.8863	0.588196
98.2612	12.5533
101.636	116.983
105.011	261.604
108.386	66.1971
111.76	7.34183
115.135	4.52188
118.51	6.38403
121.885	16.2837
125.26	53.2335
128.635	37.7568
132.009	51.4111
135.384	61.3207
138.759	95.346
142.134	124.295
145.509	76.9904
148.883	80.9516
152.258	83.9595
155.633	88.4037
159.008	96.6975
162.383	111.097
165.757	148.281
169.132	200.305
172.507	266.577
175.882	362.091
179.257	475.985
182.632	600.069
186.006	660.976
189.381	627.619
192.756	523.216
196.131	367.292
199.506	298.232
202.881	283.434
206.255	247.44
209.63	180.062
213.005	148.311
216.38	97.2484
219.755	64.6553
223.129	77.888
226.504	90.874
229.879	81.4991
233.254	102.021
236.629	138.361
240.004	145.912
243.378	126.383
246.753	107.07
250.128	58.8627
253.503	19.525
256.878	4.54199
260.252	9.61261
263.627	16.3352
267.002	10.4606
270.377	6.32819
273.752	9.28815
277.127	20.3689
280.501	51.3066
283.876	82.7947
287.251	62.13
290.626	35.6924
294.001	45.3752
297.375	89.9704
300.75	172.972
304.125	243.437
307.5	218.366
310.875	175.095
314.25	161.381
317.624	189.236
320.999	282.019
324.374	425.286
327.749	645.661
331.124	975.021
334.498	1443.62
337.873	1817.97
341.248	1641.38
344.623	1161.67
347.998	887.264
351.373	773.357
354.747	722.212
358.122	603.725
361.497	431.333
364.872	262.088
368.247	140.906
371.621	72.2836
374.996	26.0845
378.371	7.61224
381.746	2.5647
385.121	12.9302
388.495	10.2294
391.87	8.8302
395.245	35.8513
398.62	87.8804
401.995	158.978
405.37	177.16
408.744	136.969
412.119	99.9113
415.494	111.995
418.869	156.353
422.244	210.604
425.618	240.216
428.993	198.406
432.368	117.042
435.743	47.0617
439.118	19.8306
442.493	15.9521
445.867	41.3214
449.242	71.4866
452.617	100.267
455.992	66.0459
459.367	44.5942
462.741	56.8022
466.116	84.5419
469.491	122.155
472.866	176.011
476.241	208.546
479.615	232.512
482.99	227.224
486.365	192.825
489.74	144.086
493.115	95.9735
496.49	54.4219
499.864	34.303
503.239	19.6693
506.614	12.1333
509.989	7.26544
513.364	3.13824
516.739	8.90863
520.113	2.49615
523.488	0.374023
526.863	0.216675
530.238	0.780212
533.613	1.48926
536.987	2.38641
540.362	1.26587
543.737	2.51056
547.112	7.36255
550.487	8.30969
553.861	10.3422
557.236	5.58044
560.611	12.009
563.986	14.5338
567.361	14.549
570.736	23.1443
574.11	15.1821
577.485	15.875
580.86	10.8661
584.235	17.3598
587.61	7.77142
590.985	9.92041
594.359	1.81799
597.734	5.49396
601.109	1.66547
604.484	11.481
607.859	9.41943
611.233	16.335
614.608	2.30499
617.983	11.9109
621.358	4.22052
624.733	10.7641
628.107	6.93109
631.482	5.00543
634.857	11.9084
638.232	12.6534
641.607	7.79333
644.982	9.59039
648.356	14.4497
651.731	22.7227
655.106	22.0667
658.481	22.07
661.856	28.3786
665.231	20.3837
668.605	30.0172
671.98	22.1096
675.355	22.9954
678.73	28.5732
682.105	34.746
685.479	47.4404
688.854	49.1413
692.229	57.1524
695.604	74.9618
698.979	85.1672
702.354	94.4071
705.728	104.128
709.103	101.479
712.478	82.9561
715.853	64.4587
719.227	50.2799
722.602	38.121
725.977	17.9355
729.352	10.8762
732.727	5.43243
736.102	1.65002
739.476	4.9765
742.851	9.98804
746.226	21.0466
749.601	15.0225
752.976	8.30127
756.351	9.63055
759.725	5.70013
763.1	26.8603
766.475	55.6642
769.85	115.85
773.225	171.017
776.599	228.073
779.974	263.423
783.349	279.169
786.724	272.136
790.099	271.254
793.473	276.026
796.848	290.687
800.223	314.881
803.598	342.909
806.973	482.382
810.348	778.273
813.722	1318.14
817.097	2101.55
820.472	3159.88
823.847	4239.63
827.222	4309.18
830.597	3623.31
833.971	3394.77
837.346	3356.52
840.721	3199.18
844.096	2694.92
847.471	1970.24
850.846	1378.84
854.22	1034.32
857.595	867.32
860.97	779.439
864.345	749.894
867.72	687.373
871.094	572.807
874.469	410.737
877.844	295.507
881.219	234.721
884.594	234.383
887.968	235.345
891.343	146.803
894.718	54.4598
898.093	21.8019
901.468	4.56457
904.842	5.63739
908.217	7.71905
911.592	15.4522
914.967	24.2419
918.342	14.0757
921.717	13.4002
925.091	1.57678
928.466	9.91858
931.841	16.8776
935.216	9.55096
938.591	22.5376
941.966	23.9042
945.34	25.2455
948.715	27.6075
952.09	34.6649
955.465	39.2995
958.84	40.4601
962.214	50.2414
965.589	53.8341
968.964	48.4057
972.339	53.1774
975.714	48.8304
979.088	40.0947
982.463	29.9844
985.838	21.6594
989.213	20.604
992.588	14.3868
995.963	19.7368
999.337	15.6547
1002.71	14.2494
1006.09	10.3157
1009.46	12.3048
1012.84	9.42413
1016.21	9.96228
1019.59	8.17731
1022.96	6.24615
1026.34	5.28906
1029.71	13.7922
1033.09	9.95862
1036.46	8.6358
1039.84	10.3291
1043.21	7.59576
1046.59	1.36572
1049.96	6.99622
1053.33	9.48419
1056.71	12.2599
1060.08	21.5394
1063.46	15.2896
1066.83	17.3989
1070.21	17.2733
1073.58	19.6569
1076.96	7.07074
1080.33	2.4798
1083.71	8.79498
1087.08	6.48602
1090.46	0.804382
1093.83	0.103333
1097.21	6.78186
1100.58	0.103577
1103.96	2.93671
1107.33	3.3241
1110.71	2.90301
1114.08	2.99792
1117.46	4.93506
1120.83	3.17212
1124.21	9.54889
1127.58	4.6228
1130.95	1.34302
1134.33	4.57526
1137.7	4.27637
1141.08	1.47766
1144.45	15.6148
1147.83	12.843
1151.2	1.40723
1154.58	2.63208
1157.95	2.64722
1161.33	1.62048
1164.7	5.29535
1168.08	3.82458
1171.45	7.42694
1174.83	17.1582
1178.2	17.8869
1181.58	11.3526
1184.95	14.6457
1188.33	11.0421
1191.7	13.3025
1195.08	11.3943
1198.45	12.1294
1201.83	7.21307
1205.2	10.3036
1208.58	2.80035
1211.95	10.2025
1215.33	14.2273
1218.7	19.4847
1222.08	4.8374
1225.45	9.74622
1228.83	11.1985
1232.2	6.65381
1235.58	2.89893
1238.95	11.8758
1242.32	16.9337
1245.7	15.6675
1249.07	14.7418
1252.45	11.9553
1255.82	13.514
1259.2	9.55371
1262.57	18.8756
1265.95	14.4413
1269.32	3.28943
1272.7	5.46216
1276.07	4.21155
1279.45	13.9263
1282.82	11.1405
1286.2	7.72021
1289.57	0.740967
1292.95	8.78003
1296.32	1.84607
1299.7	2.74121
