Measurement: Raman, 532 nm, unoriented, Raman Data Processed
Mineral: Wendwilsonite
Rruff sample: R180014
Ideal chemistry: Ca_2_Mg(As^5+^O_4_)_2_2H_2_O
Locality: Bou Azzer, Morrocco
Source: Wendell Wilson
Description: Red vitreous crystals. Photo from Wendell Wilson
Measured chemistry: Ca_1.96_(Mg_0.48_Co_0.26_Zn_0.23_Ni_0.02_)_Σ=0.99_(As_1.01_O_4_)_2_·2H_2_O
Raman shift (cm-1)	intensity
88.1367	0
91.5115	52.3817
94.8863	20.0188
98.2612	0.06897
101.636	50.1136
105.011	73.3559
108.386	46.492
111.76	8.98297
115.135	0.036926
118.51	9.41122
121.885	25.631
125.26	91.504
128.635	16.6727
132.009	11.531
135.384	22.4798
138.759	40.53
142.134	55.2511
145.509	54.0233
148.883	70.701
152.258	86.8715
155.633	132.908
159.008	182.097
162.383	241.126
165.757	209.852
169.132	160.617
172.507	177.179
175.882	227.69
179.257	300.272
182.632	386.55
186.006	406.188
189.381	381.843
192.756	310.59
196.131	234.168
199.506	227.603
202.881	275.023
206.255	287.256
209.63	242.978
213.005	148.665
216.38	85.2864
219.755	60.7152
223.129	70.5714
226.504	90.0059
229.879	65.1855
233.254	72.9779
236.629	91.9196
240.004	95.1825
243.378	81.6564
246.753	54.4813
250.128	18.1612
253.503	4.05771
256.878	10.6481
260.252	14.8851
263.627	5.25265
267.002	2.35379
270.377	20.4723
273.752	33.2031
277.127	58.4445
280.501	104.58
283.876	137.456
287.251	106.665
290.626	48.1495
294.001	53.975
297.375	95.9982
300.75	169.368
304.125	206.018
307.5	155.694
310.875	113.359
314.25	94.6507
317.624	111.572
320.999	188.963
324.374	310.043
327.749	483.521
331.124	714.894
334.498	1080.83
337.873	1415.87
341.248	1308.68
344.623	878.46
347.998	623.922
351.373	541.627
354.747	517.121
358.122	473.763
361.497	363.71
364.872	244.605
368.247	150.764
371.621	112.045
374.996	100.082
378.371	78.7117
381.746	38.1619
385.121	13.1396
388.495	8.61764
391.87	12.2475
395.245	12.8249
398.62	1.65228
401.995	22.2318
405.37	32.806
408.744	26.3376
412.119	17.0845
415.494	24.9182
418.869	43.0273
422.244	51.5514
425.618	69.8858
428.993	58.3749
432.368	53.0031
435.743	70.7949
439.118	114.479
442.493	177.201
445.867	283.891
449.242	390.068
452.617	420.439
455.992	292.265
459.367	194.499
462.741	164.337
466.116	188.145
469.491	226.856
472.866	259.154
476.241	264.022
479.615	244.286
482.99	228.189
486.365	175.51
489.74	127.256
493.115	81.7798
496.49	59.9181
499.864	32.0911
503.239	15.1754
506.614	8.70607
509.989	2.70976
513.364	1.83142
516.739	4.23219
520.113	2.51389
523.488	1.13602
526.863	2.34485
530.238	0.550598
533.613	6.2943
536.987	1.06874
540.362	8.84247
543.737	5.18163
547.112	9.62669
550.487	5.01332
553.861	8.69403
557.236	11.8004
560.611	7.8167
563.986	11.315
567.361	12.5189
570.736	12.7864
574.11	11.1272
577.485	8.19348
580.86	9.741
584.235	8.4046
587.61	6.20828
590.985	5.37338
594.359	3.09061
597.734	5.02469
601.109	5.78925
604.484	0.884323
607.859	9.00935
611.233	7.19612
614.608	3.67097
617.983	6.84857
621.358	3.93893
624.733	0.086273
628.107	1.3638
631.482	1.62625
634.857	3.203
638.232	10.2182
641.607	20.7028
644.982	13.2963
648.356	12.3728
651.731	20.751
655.106	26.4517
658.481	26.1228
661.856	28.8872
665.231	23.233
668.605	26.6381
671.98	26.5309
675.355	29.5025
678.73	30.4481
682.105	31.4958
685.479	36.1878
688.854	50.8131
692.229	62.2741
695.604	102.147
698.979	128.573
702.354	159.656
705.728	183.267
709.103	194.011
712.478	179.802
715.853	158.448
719.227	141.568
722.602	118.126
725.977	95.2065
729.352	77.5936
732.727	59.5374
736.102	35.547
739.476	18.8366
742.851	8.31308
746.226	0.016113
749.601	9.55692
752.976	14.0209
756.351	12.9874
759.725	17.1689
763.1	14.7968
766.475	1.30743
769.85	9.18088
773.225	22.7884
776.599	48.599
779.974	66.4284
783.349	98.1816
786.724	144.814
790.099	206.231
793.473	280.734
796.848	348.716
800.223	383.947
803.598	407.896
806.973	489.551
810.348	716.046
813.722	1153.34
817.097	1805.89
820.472	2805.77
823.847	3927.17
827.222	4418.31
830.597	4018.62
833.971	3610.15
837.346	3212.34
840.721	2917.93
844.096	2561
847.471	2015.62
850.846	1589.11
854.22	1379.65
857.595	1339.14
860.97	1430.07
864.345	1530.9
867.72	1533.53
871.094	1324.97
874.469	973.462
877.844	679.27
881.219	474.645
884.594	364.629
887.968	284
891.343	190.846
894.718	99.9231
898.093	45.734
901.468	20.672
904.842	6.86511
908.217	2.0524
911.592	16.4897
914.967	10.8908
918.342	11.1586
921.717	11.5591
925.091	5.67856
928.466	3.15012
931.841	0.56662
935.216	1.21085
938.591	3.35965
941.966	11.6311
945.34	14.0855
948.715	24.1169
952.09	26.6137
955.465	27.2003
958.84	39.0593
962.214	37.7356
965.589	48.914
968.964	55.0464
972.339	50.8675
975.714	49.8121
979.088	40.8784
982.463	37.7804
985.838	31.509
989.213	22.8963
992.588	19.6724
995.963	13.8164
999.337	10.0837
1002.71	9.82037
1006.09	10.119
1009.46	10.4347
1012.84	9.84161
1016.21	7.7025
1019.59	1.97765
1022.96	7.43582
1026.34	12.6074
1029.71	9.62627
1033.09	15.4228
1036.46	17.327
1039.84	11.8114
1043.21	9.77473
1046.59	7.95621
1049.96	8.30852
1053.33	9.74754
1056.71	12.5373
1060.08	8.22818
1063.46	9.31221
1066.83	10.7983
1070.21	10.3083
1073.58	12.1128
1076.96	9.91672
1080.33	7.73851
1083.71	6.83527
1087.08	10.4285
1090.46	2.77469
1093.83	2.4956
1097.21	9.50787
1100.58	4.16333
1103.96	12.7558
1107.33	1.51344
1110.71	2.82164
1114.08	0.111099
1117.46	6.86085
1120.83	2.77463
1124.21	7.82333
1127.58	5.81561
1130.95	4.03612
1134.33	0.734085
1137.7	1.48712
1141.08	1.85393
1144.45	9.13377
1147.83	1.85191
1151.2	6.22681
1154.58	0.720612
1157.95	8.41347
1161.33	6.13469
1164.7	5.64738
1168.08	4.40683
1171.45	5.00494
1174.83	8.95387
1178.2	4.23261
1181.58	1.07205
1184.95	7.50311
1188.33	5.33533
1191.7	2.79669
1195.08	6.03085
1198.45	3.1962
1201.83	0.104156
1205.2	8.21558
1208.58	2.08872
1211.95	10.4931
1215.33	1.56451
1218.7	0.733917
1222.08	5.85461
1225.45	11.3803
1228.83	3.31607
1232.2	5.44833
1235.58	0.126007
1238.95	6.26614
1242.32	5.08151
1245.7	9.98059
1249.07	6.94299
1252.45	3.89163
1255.82	4.37073
1259.2	1.20056
1262.57	9.09116
1265.95	3.12402
1269.32	3.35635
1272.7	3.03744
1276.07	10.025
1279.45	4.91043
1282.82	4.72971
1286.2	6.31403
1289.57	1.20108
1292.95	5.85059
1296.32	0.050659
1299.7	2.25726
