Measurement: Raman, 780 nm, unoriented, Raman Data Processed
Mineral: Wendwilsonite
Rruff sample: R180009
Ideal chemistry: Ca_2_Mg(As^5+^O_4_)_2_2H_2_O
Locality: Bou Azzer, Morrocco
Source: Wendell Wilson
Description: Red vitreous crystals. Photo from Wendell Wilson
Measured chemistry: Ca_1.98_(Mg_0.53_Zn_0.27_Co_0.18_Ni_0.02_)_Σ=1.00_(AsO_4_)_2_·2H_2_O
Raman shift (cm-1)	intensity
87.582	0
90.9569	244.843
94.3317	183.022
97.7065	471.915
101.081	3182.74
104.456	3187.58
107.831	248.47
111.206	3.8938
114.581	57.4133
117.955	32.3052
121.33	520.12
124.705	716.063
128.08	22.2622
131.455	34.3749
134.829	24.2601
138.204	313.604
141.579	325.8
144.954	11.8563
148.329	79.2712
151.704	207.819
155.078	353.339
158.453	504.095
161.828	617.244
165.203	585.874
168.578	637.862
171.952	790.646
175.327	1082.59
178.702	1643.53
182.077	2260.52
185.452	2770.77
188.827	3335
192.201	2684.25
195.576	1846.12
198.951	1782.94
202.326	1772.24
205.701	1421.91
209.076	1083.09
212.45	839.861
215.825	549.119
219.2	489.106
222.575	649.201
225.95	727.241
229.324	685.111
232.699	888.815
236.074	1138.25
239.449	1153.69
242.824	1253.81
246.198	921.904
249.573	440.539
252.948	162.219
256.323	28.226
259.698	29.0934
263.073	52.4967
266.447	57.6534
269.822	51.186
273.197	14.1916
276.572	154.385
279.947	410.777
283.322	616.056
286.696	382.332
290.071	340.798
293.446	703.262
296.821	1588.09
300.196	2729.98
303.57	2235.32
306.945	1120.88
310.32	550.131
313.695	315.801
317.07	216.056
320.445	254.628
323.819	446.33
327.194	875.69
330.569	1715.9
333.944	3139.81
337.319	4156.97
340.693	3848.17
344.068	3517.32
347.443	4055.53
350.818	5254.94
354.193	6222.62
357.567	5727.6
360.942	4051.94
364.317	2613.78
367.692	1873.6
371.067	1694.96
374.442	1721.68
377.816	1183.29
381.191	507.87
384.566	135.505
387.941	48.8005
391.316	91.1097
394.69	61.7203
398.065	89.0876
401.44	299.024
404.815	345.485
408.19	147.658
411.565	107.503
414.939	230.582
418.314	487.303
421.689	702.281
425.064	856.04
428.439	858.807
431.813	844.867
435.188	1067.89
438.563	1705.23
441.938	3057.19
445.313	5640.87
448.688	9543.35
452.062	10205
455.437	5839.17
458.812	2802.84
462.187	1569.97
465.562	1163.09
468.937	1146.09
472.311	1233.09
475.686	1263.13
479.061	1207.51
482.436	1087.9
485.81	850.206
489.185	584.197
492.56	393.301
495.935	226.848
499.31	141.616
502.685	66.6472
506.059	25.5266
509.434	2.75769
512.809	10.1198
516.184	16.3717
519.559	13.7601
522.933	11.2896
526.308	9.06177
529.683	9.06592
533.058	2.11719
536.433	10.0593
539.808	13.4452
543.182	31.3109
546.557	34.6247
549.932	50.8135
553.307	61.367
556.682	54.4768
560.057	54.2532
563.431	61.118
566.806	65.6794
570.181	68.6738
573.556	64.6111
576.931	60.74
580.305	53.9225
583.68	37.1644
587.055	26.1769
590.43	18.4516
593.805	24.1883
597.18	16.5902
600.554	20.6009
603.929	28.0863
607.304	12.9617
610.679	14.3538
614.054	8.6424
617.428	0.581909
620.803	1.57648
624.178	7.9599
627.553	1.36981
630.928	2.69232
634.303	4.16083
637.677	10.9746
641.052	10.1529
644.427	13.4766
647.802	28.7328
651.177	35.6317
654.552	45.5251
657.926	61.2011
661.301	62.3101
664.676	82.6178
668.051	76.5257
671.426	85.0907
674.8	85.9492
678.175	103.51
681.55	124.984
684.925	144.386
688.3	203.266
691.674	264.631
695.049	372.19
698.424	520.447
701.799	666.505
705.174	785.74
708.548	837.159
711.923	770.826
715.298	649.218
718.673	508.541
722.048	397.345
725.423	295.118
728.797	227.954
732.172	152.12
735.547	110.336
738.922	54.4946
742.297	28.6781
745.672	3.57056
749.046	31.1628
752.421	50.6241
755.796	65.314
759.171	66.5448
762.546	49.0559
765.92	20.7693
769.295	28.6873
772.67	113.816
776.045	258.494
779.42	416.52
782.795	574.91
786.169	684.916
789.544	741.098
792.919	757.212
796.294	771.57
799.669	804.466
803.043	928.789
806.418	1269.7
809.793	1995.21
813.168	3431.98
816.543	6317.09
819.918	11985
823.292	20303.7
826.667	22846.2
830.042	19765
833.417	19932.8
836.792	23389.7
840.166	25965
843.541	22768.3
846.916	16654
850.291	12277.3
853.666	10078.1
857.04	9424.09
860.415	9852.06
863.79	10418.3
867.165	9969.12
870.54	8078.27
873.915	5606.7
877.289	3694.06
880.664	2550.12
884.039	1915.66
887.414	1447.27
890.789	883.786
894.163	469.172
897.538	260.058
900.913	120.483
904.288	53.3944
907.663	17.3718
911.038	42.6869
914.412	56.0219
917.787	59.5093
921.162	64.3601
924.537	38.2081
927.912	2.53375
931.287	20.5721
934.661	15.0317
938.036	36.3758
941.411	48.4344
944.786	73.7144
948.161	108.498
951.535	145.784
954.91	187.246
958.285	241.548
961.66	299.726
965.035	381.248
968.409	455.836
971.784	509.468
975.159	518.299
978.534	460.717
981.909	351.032
985.284	246.191
988.658	165.821
992.033	121.004
995.408	85.7333
998.783	70.1659
1002.16	53.9565
1005.53	38.3263
1008.91	28.023
1012.28	34.5393
1015.66	29.2115
1019.03	17.6039
1022.41	17.4344
1025.78	5.51514
1029.16	1.90732
1032.53	8.80472
1035.91	8.79205
1039.28	12.4161
1042.66	11.4938
1046.03	19.4928
1049.4	11.2986
1052.78	13.3151
1056.15	15.5202
1059.53	29.4068
1062.9	18.3033
1066.28	24.4744
1069.65	17.1137
1073.03	18.3914
1076.4	13.5304
1079.78	12.4584
1083.15	13.8018
1086.53	10.5113
1089.9	12.8228
1093.28	2.79993
1096.65	1.96689
1100.03	4.1983
1103.4	0.365265
1106.78	6.43903
1110.15	4.92352
1113.53	0.473145
1116.9	5.10532
1120.28	1.37567
1123.65	8.2117
1127.03	2.78381
1130.4	1.83185
1133.78	3.43582
1137.15	0.739777
1140.53	0.47348
1143.9	14.8593
1147.28	1.97644
1150.65	5.05301
1154.03	1.88443
1157.4	3.10864
1160.77	3.26312
1164.15	1.50079
1167.52	4.60568
1170.9	1.45117
1174.27	5.31668
1177.65	8.45282
1181.02	0.298889
1184.4	4.55368
1187.77	7.91721
1191.15	1.73251
1194.52	7.42334
1197.9	3.30994
1201.27	10.0171
1204.65	3.05869
1208.02	4.08472
1211.4	12.6178
1214.77	12.8137
1218.15	11.6475
1221.52	9.42023
1224.9	9.72519
1228.27	2.80011
1231.64	2.18954
1235.02	9.88648
1238.39	6.12552
1241.77	4.72507
1245.14	3.59576
1248.52	3.185
1251.89	3.44013
1255.27	13.762
1258.64	6.69519
1262.02	10.0389
1265.39	12.2627
1268.77	5.76093
1272.14	5.57172
1275.52	12.8991
1278.89	0.315643
1282.27	0
