Measurement: Raman, 780 nm, unoriented, Raman Data Processed
Mineral: Wendwilsonite
Rruff sample: R180013
Ideal chemistry: Ca_2_Mg(As^5+^O_4_)_2_2H_2_O
Locality: Bou Azzer, Morrocco
Source: Wendell Wilson
Description: Red vitreous crystals. Photo from Wendell Wilson
Measured chemistry: Ca_1.97_(Mg_0.48_Co_0.25_Zn_0.22_Ni_0.03_)_Σ=0.98_(As_1.01_O_4_)_2_·2H_2_O
Raman shift (cm-1)	intensity
87.582	0
90.9569	577.96
94.3317	685.704
97.7065	329.231
101.081	679.88
104.456	817.639
107.831	77.095
111.206	53.1196
114.581	19.4968
117.955	36.7781
121.33	192.916
124.705	234.904
128.08	1.14697
131.455	30.3235
134.829	12.4294
138.204	64.9695
141.579	97.8564
144.954	14.9695
148.329	30.2295
151.704	99.564
155.078	180.435
158.453	274.401
161.828	362.268
165.203	351.512
168.578	383.41
171.952	447.26
175.327	565.927
178.702	787.116
182.077	981.09
185.452	1011.69
188.827	971.973
192.201	859.481
195.576	771.246
198.951	789.675
202.326	848.049
205.701	685.439
209.076	532.889
212.45	388.975
215.825	273.867
219.2	226.554
222.575	264.293
225.95	247.106
229.324	186.743
232.699	199.953
236.074	211.414
239.449	243.943
242.824	260.375
246.198	234.73
249.573	121.145
252.948	44.541
256.323	24.134
259.698	3.40527
263.073	5.10962
266.447	1.09253
269.822	17.9988
273.197	10.4514
276.572	0.783447
279.947	32.501
283.322	48.3438
286.696	48.218
290.071	31.552
293.446	58.1826
296.821	119.789
300.196	231.061
303.57	294.322
306.945	256.749
310.32	196.667
313.695	171.925
317.07	203.089
320.445	304.697
323.819	436.113
327.194	659.852
330.569	1020.24
333.944	1512.76
337.319	1847.8
340.693	1581.14
344.068	1174.56
347.443	1026.58
350.818	1046.84
354.193	1112.18
357.567	1021.08
360.942	750.259
364.317	446.372
367.692	275.208
371.067	193.112
374.442	169
377.816	131.273
381.191	48.467
384.566	13.8645
387.941	29.7683
391.316	9.38403
394.69	5.60474
398.065	77.5239
401.44	170.337
404.815	201.602
408.19	147.553
411.565	137.373
414.939	179.261
418.314	243.556
421.689	306.25
425.064	317.183
428.439	278.651
431.813	195.1
435.188	157.464
438.563	184.648
441.938	266.587
445.313	410.394
448.688	611.751
452.062	665.06
455.437	464.487
458.812	313.132
462.187	295.633
465.562	357.154
468.937	446.947
472.311	540.178
475.686	533.044
479.061	501.104
482.436	422.513
485.81	340.54
489.185	256.693
492.56	178.904
495.935	105.219
499.31	62.5137
502.685	36.9019
506.059	18.5991
509.434	10.0786
512.809	0.877441
516.184	10.0872
519.559	4.7605
522.933	6.09326
526.308	2.54004
529.683	0.668701
533.058	2.04712
536.433	17.0779
539.808	1.10815
543.182	12.4546
546.557	2.80688
549.932	22.8957
553.307	22.1521
556.682	29.166
560.057	23.6611
563.431	24.2666
566.806	12.3103
570.181	15.2297
573.556	23.7669
576.931	24.155
580.305	29.5747
583.68	31.2781
587.055	10.1946
590.43	10.9739
593.805	4.16504
597.18	21.3074
600.554	19.7085
603.929	3.13769
607.304	4.15479
610.679	2.28394
614.054	18.7688
617.428	6.06299
620.803	12.5063
624.178	2.87036
627.553	9.21411
630.928	13.062
634.303	23.4236
637.677	22.4031
641.052	8.62695
644.427	8.83008
647.802	18.9028
651.177	25.3914
654.552	27.4282
657.926	32.7988
661.301	27.2461
664.676	26.8481
668.051	19.2629
671.426	26.5198
674.8	14.6067
678.175	19.323
681.55	18.9092
684.925	11.321
688.3	20.478
691.674	24.573
695.049	47.9292
698.424	59.0452
701.799	70.8276
705.174	95.239
708.548	97.2041
711.923	93.2022
715.298	91.6868
718.673	85.6934
722.048	91.7459
725.423	90.2898
728.797	85.7002
732.172	49.2678
735.547	28.99
738.922	5.19409
742.297	16.9956
745.672	19.4766
749.046	25.3308
752.421	32.0515
755.796	19.7766
759.171	11.196
762.546	5.67822
765.92	40.6035
769.295	97.5208
772.67	183.095
776.045	276.364
779.42	383.418
782.795	490.492
786.169	553.175
789.544	582.42
792.919	594.479
796.294	604.074
799.669	602.357
803.043	683.061
806.418	863.163
809.793	1304.61
813.168	2108.28
816.543	3358.01
819.918	5296.89
823.292	7606.96
826.667	8137.69
830.042	6843.82
833.417	6158.64
836.792	6270.64
840.166	6311.26
843.541	5441.53
846.916	4012.24
850.291	2917.92
853.666	2306.6
857.04	2050.37
860.415	1970.29
863.79	1943.99
867.165	1811.4
870.54	1469.25
873.915	1045.65
877.289	698.08
880.664	510.541
884.039	410.981
887.414	323.956
890.789	194.732
894.163	87.4214
897.538	37.6899
900.913	2.18726
904.288	17.0175
907.663	28.389
911.038	17.2333
914.412	13.1782
917.787	13.6591
921.162	13.9458
924.537	11.9122
927.912	3.0343
931.287	17.0107
934.661	17.2375
938.036	31.0861
941.411	32.4921
944.786	47.4225
948.161	42.1964
951.535	59.8245
954.91	55.494
958.285	65.2715
961.66	76.8005
965.035	81.116
968.409	81.7343
971.784	68.717
975.159	74.7532
978.534	61.9676
981.909	59.4051
985.284	44.8158
988.658	24.2975
992.033	31.5364
995.408	23.0614
998.783	22.8779
1002.16	19.2974
1005.53	22.6659
1008.91	15.6558
1012.28	17.3137
1015.66	22.318
1019.03	14.8584
1022.41	14.9595
1025.78	16.3852
1029.16	18.1829
1032.53	7.75635
1035.91	5.88245
1039.28	11.3326
1042.66	8.52759
1046.03	19.3243
1049.4	12.0483
1052.78	16.3198
1056.15	21.8284
1059.53	27.0477
1062.9	37.5776
1066.28	45.292
1069.65	37.814
1073.03	47.6737
1076.4	26.6612
1079.78	26.092
1083.15	14.5242
1086.53	16.9899
1089.9	13.8525
1093.28	12.0415
1096.65	4.61804
1100.03	7.36047
1103.4	0.523193
1106.78	8.30371
1110.15	3.33508
1113.53	1.83106
1116.9	5.55615
1120.28	7.95923
1123.65	2.90552
1127.03	3.96594
1130.4	2.15869
1133.78	4.02881
1137.15	15.0154
1140.53	2.89392
1143.9	15.2799
1147.28	10.9778
1150.65	17.0632
1154.03	21.0848
1157.4	22.8805
1160.77	12.5078
1164.15	13.199
1167.52	16.6753
1170.9	28.3844
1174.27	15.2366
1177.65	19.7916
1181.02	9.56543
1184.4	19.6243
1187.77	20.983
1191.15	19.5176
1194.52	18.9479
1197.9	20.7436
1201.27	7.02332
1204.65	6.90418
1208.02	17.5254
1211.4	8.23193
1214.77	14.0995
1218.15	4.02332
1221.52	17.366
1224.9	16.5554
1228.27	5.51965
1231.64	6.92688
1235.02	5.55518
1238.39	9.99341
1241.77	4.55432
1245.14	10.0344
1248.52	1.29041
1251.89	3.50769
1255.27	5.69104
1258.64	12.4819
1262.02	26.673
1265.39	15.5095
1268.77	13.5518
1272.14	1.5791
1275.52	17.7375
1278.89	3.37878
1282.27	0
