Measurement: Raman, 532 nm, unoriented, Raman Data RAW
Mineral: Wendwilsonite
Rruff sample: R180012
Ideal chemistry: Ca_2_Mg(As^5+^O_4_)_2_2H_2_O
Locality: Bou Azzer, Morrocco
Source: Wendell Wilson
Description: Red vitreous mineral. Photo from Wendell Wilson
Measured chemistry: Ca_1.99_(Mg_0.66_Co_0.26_Zn_0.05_Ni_0.03_)_Σ=1.00_(AsO_4_)_2_·2H_2_O
Raman shift (cm-1)	intensity
88.1367	667.408
91.5115	653.077
94.8863	567.305
98.2612	563.353
101.636	679.792
105.011	922.702
108.386	621.581
111.76	459.784
115.135	451.387
118.51	472.36
121.885	487.324
125.26	581.539
128.635	529.705
132.009	547.669
135.384	574.93
138.759	643.439
142.134	713.948
145.509	620.2
148.883	596.986
152.258	610.804
155.633	618.748
159.008	631.222
162.383	655.176
165.757	697.509
169.132	730.319
172.507	806.112
175.882	900.531
179.257	1022.07
182.632	1162.62
186.006	1270.03
189.381	1323.19
192.756	1263.03
196.131	1150.31
199.506	1129.64
202.881	1161.06
206.255	1111.67
209.63	1026
213.005	937.729
216.38	843.616
219.755	802.671
223.129	829.067
226.504	856.546
229.879	843.329
233.254	876.78
236.629	920.355
240.004	950.018
243.378	965.263
246.753	930.256
250.128	833.835
253.503	758.362
256.878	714.462
260.252	687.935
263.627	695.339
267.002	695.811
270.377	708.03
273.752	725.951
277.127	748.31
280.501	786.452
283.876	837.087
287.251	857.784
290.626	890.489
294.001	956.939
297.375	1119.36
300.75	1363.76
304.125	1477.85
307.5	1290.97
310.875	1105.42
314.25	1011.05
317.624	989.929
320.999	1010.25
324.374	1094.53
327.749	1234.22
331.124	1436.77
334.498	1724.93
337.873	2028.86
341.248	2156.74
344.623	2232.42
347.998	2451.25
351.373	2810.66
354.747	3189.59
358.122	3193.21
361.497	2769.69
364.872	2212.3
368.247	1809.24
371.621	1590.09
374.996	1493.48
378.371	1364.37
381.746	1177.58
385.121	1060.7
388.495	995.185
391.87	984.741
395.245	997.875
398.62	1031.25
401.995	1081.4
405.37	1112.4
408.744	1075.47
412.119	1068.35
415.494	1101.45
418.869	1181.56
422.244	1253.29
425.618	1312.07
428.993	1334.5
432.368	1372.43
435.743	1538.9
439.118	1844.28
442.493	2282.4
445.867	2983.91
449.242	3780.41
452.617	3913.32
455.992	2931.73
459.367	1957.98
462.741	1523.97
466.116	1331.16
469.491	1288.97
472.866	1278.79
476.241	1275.29
479.615	1239.41
482.99	1199.91
486.365	1121.19
489.74	1032.86
493.115	959.699
496.49	906.868
499.864	862.059
503.239	824.892
506.614	801.289
509.989	794.749
513.364	778.608
516.739	770.448
520.113	774.715
523.488	768.334
526.863	774.881
530.238	763.234
533.613	761.013
536.987	777.944
540.362	771.102
543.737	764.266
547.112	769.626
550.487	771.037
553.861	761.25
557.236	777.419
560.611	780.652
563.986	791.2
567.361	796.093
570.736	793.368
574.11	798.532
577.485	802.428
580.86	807.456
584.235	812.889
587.61	812.099
590.985	824.446
594.359	821.316
597.734	828.099
601.109	831.617
604.484	838.045
607.859	841.53
611.233	859.83
614.608	865.578
617.983	869.18
621.358	872.704
624.733	867.491
628.107	884.758
631.482	886.842
634.857	899.158
638.232	911.635
641.607	914.328
644.982	931.004
648.356	940.53
651.731	954.08
655.106	958.207
658.481	977.562
661.856	987.452
665.231	981.769
668.605	1004.64
671.98	1009.95
675.355	1020.24
678.73	1012.79
682.105	1033.43
685.479	1053.09
688.854	1072
692.229	1098.19
695.604	1137.65
698.979	1180.48
702.354	1235.44
705.728	1275.41
709.103	1291.91
712.478	1288.4
715.853	1257.79
719.227	1212.56
722.602	1178.46
725.977	1165.59
729.352	1149.57
732.727	1151.48
736.102	1147.45
739.476	1144.78
742.851	1147.92
746.226	1169.68
749.601	1177.87
752.976	1181.01
756.351	1199.04
759.725	1234.52
763.1	1269.04
766.475	1303.88
769.85	1379.38
773.225	1451.32
776.599	1532.58
779.974	1604.57
783.349	1683.31
786.724	1743.17
790.099	1820.29
793.473	1923.47
796.848	2031.57
800.223	2180.08
803.598	2395.19
806.973	2806.11
810.348	3582.35
813.722	4895.06
817.097	6814.29
820.472	9580.65
823.847	12660.7
827.222	14602.8
830.597	14989.7
833.971	15570.3
837.346	16479.1
840.721	16896.2
844.096	15538
847.471	12626.6
850.846	10092.8
854.22	8693.98
857.595	8172.2
860.97	8156.43
864.345	8297.12
867.72	8037.34
871.094	7030.99
874.469	5582.23
877.844	4313.81
881.219	3439.57
884.594	2893.21
887.968	2530.03
891.343	2198.06
894.718	1924.31
898.093	1749.34
901.468	1631.91
904.842	1547.23
908.217	1474.55
911.592	1422.3
914.967	1391.99
918.342	1355.66
921.717	1338.35
925.091	1328.8
928.466	1323.19
931.841	1316.89
935.216	1304.33
938.591	1295.96
941.966	1286.52
945.34	1295.28
948.715	1305.25
952.09	1323.32
955.465	1338.56
958.84	1356.24
962.214	1397.58
965.589	1423.98
968.964	1449.97
972.339	1471.8
975.714	1479.16
979.088	1452.75
982.463	1411.68
985.838	1339.82
989.213	1279.77
992.588	1254.94
995.963	1219.99
999.337	1200.34
1002.71	1174.95
1006.09	1183.83
1009.46	1171.8
1012.84	1156.88
1016.21	1153.57
1019.59	1146.58
1022.96	1147.92
1026.34	1142.97
1029.71	1149.76
1033.09	1153.95
1036.46	1146.06
1039.84	1145.6
1043.21	1160.57
1046.59	1152.39
1049.96	1151.03
1053.33	1156.74
1056.71	1182.99
1060.08	1189.43
1063.46	1197.49
1066.83	1222.89
1070.21	1228.13
1073.58	1232.94
1076.96	1205.1
1080.33	1183.48
1083.71	1173.35
1087.08	1171.02
1090.46	1158.48
1093.83	1158.57
1097.21	1166.45
1100.58	1172.97
1103.96	1158.72
1107.33	1154.99
1110.71	1168.87
1114.08	1162.44
1117.46	1169.78
1120.83	1181.19
1124.21	1182.9
1127.58	1183.68
1130.95	1167.03
1134.33	1178.64
1137.7	1180.38
1141.08	1192.96
1144.45	1178.11
1147.83	1201.21
1151.2	1197.72
1154.58	1198.38
1157.95	1204.56
1161.33	1205.57
1164.7	1213.32
1168.08	1215.42
1171.45	1217
1174.83	1227.25
1178.2	1234.38
1181.58	1229.28
1184.95	1235.15
1188.33	1241.37
1191.7	1247.17
1195.08	1243.91
1198.45	1250.18
1201.83	1249.99
1205.2	1251.62
1208.58	1249.38
1211.95	1254.71
1215.33	1265.57
1218.7	1267.65
1222.08	1279.17
1225.45	1277.32
1228.83	1282.94
1232.2	1277.84
1235.58	1265.85
1238.95	1276.22
1242.32	1283.88
1245.7	1298.22
1249.07	1301.42
1252.45	1299.13
1255.82	1296.03
1259.2	1298.52
1262.57	1307.36
1265.95	1305.3
1269.32	1309.06
1272.7	1304.97
1276.07	1315.11
1279.45	1313.85
1282.82	1318.46
1286.2	1331.84
1289.57	1333.58
1292.95	1333.86
1296.32	1340.81
1299.7	1347.66
