Measurement: Raman, 532 nm, unoriented, Raman Data Processed
Mineral: Wheatleyite
Rruff sample: R160084
Ideal chemistry: Na_2_Cu^2+^((C_2_)^6+^O_4_)_2_2H_2_O
Locality: Rowley mine, Maricopa County, Arizona, USA
Source: Danielle Sotomayor and Keith Wentz
Description: Aggregates of parallel pale blue thin bladed crystals, associated with blue to dark blue tabular antipinite
Raman shift (cm-1)	intensity
146.473	0
149.365	9.52734
152.258	2.09033
155.151	14.9795
158.044	38.7458
160.936	58.5254
163.829	79.657
166.722	103.197
169.614	131.002
172.507	162.287
175.4	166.912
178.293	124.265
181.185	70.8186
184.078	32.9175
186.971	14.9175
189.863	8.83667
192.756	1.99707
195.649	2.60522
198.542	4.59326
201.434	1.14014
204.327	2.23706
207.22	3.78906
210.112	2.95264
213.005	10.8521
215.898	6.84814
218.79	5.60205
221.683	5.48804
224.576	4.22949
227.469	13.4741
230.361	21.959
233.254	38.396
236.147	59.4319
239.039	78.5957
241.932	92.1045
244.825	83.0115
247.717	65.6926
250.61	38.6047
253.503	23.1733
256.396	19.4949
259.288	12.7117
262.181	11.7393
265.074	5.41675
267.966	2.38818
270.859	4.36475
273.752	7.39526
276.644	17.4375
279.537	11.1877
282.43	8.82349
285.322	15.1235
288.215	11.1943
291.108	8.39746
294.001	1.22827
296.893	2.42334
299.786	5.14209
302.679	6.74854
305.571	7.51147
308.464	2.15723
311.357	1.08765
314.25	2.73584
317.142	1.55615
320.035	12.3628
322.928	8.68384
325.82	12.2468
328.713	11.0293
331.606	6.69873
334.498	12.5391
337.391	12.3276
340.284	9.12695
343.176	3.17993
346.069	4.82959
348.962	7.38818
351.855	4.3335
354.747	7.12549
357.64	5.92627
360.533	3.27734
363.425	7.86597
366.318	9.09253
369.211	12.4334
372.103	5.58301
374.996	8.44067
377.889	4.56592
380.782	8.65112
383.674	9.36108
386.567	11.5352
389.46	11.1221
392.352	6.05493
395.245	12.2512
398.138	13.1287
401.031	10.2607
403.923	3.93481
406.816	2.59228
409.709	0.548584
412.601	4.83765
415.494	12.4568
418.387	4.9751
421.279	2.75488
424.172	0.973389
427.065	5.85644
429.957	2.24829
432.85	4.23779
435.743	1.01416
438.636	4.21924
441.528	0.941895
444.421	1.8374
447.314	7.12744
450.206	5.53735
453.099	4.54785
455.992	6.38843
458.885	6.64233
461.777	5.37671
464.67	2.88696
467.563	5.93359
470.455	0.424805
473.348	6.55713
476.241	4.49439
479.133	2.51465
482.026	1.7439
484.919	3.90259
487.812	13.6128
490.704	11.4123
493.597	3.66455
496.49	0.408691
499.382	3.16919
502.275	13.7754
505.168	10.3565
508.06	7.77197
510.953	4.72534
513.846	4.37231
516.739	5.90698
519.631	2.73389
522.524	0.802979
525.417	6.99609
528.309	6.23267
531.202	16.0608
534.095	17.571
536.987	20.6924
539.88	19.3618
542.773	23.8247
545.665	31.0393
548.558	41.1091
551.451	52.2165
554.344	62.6921
557.236	79.3154
560.129	91.241
563.022	104.653
565.914	111.388
568.807	80.8791
571.7	60.4104
574.592	42.5727
577.485	36.1743
580.378	36.0847
583.271	34.469
586.163	32.2307
589.056	24.5415
591.949	14.4915
594.841	8.1062
597.734	7.92188
600.627	5.36231
603.519	5.14844
606.412	9.82373
609.305	6.45142
612.198	3.76953
615.09	10.0942
617.983	10.029
620.876	6.86499
623.768	7.28833
626.661	5.1438
629.554	4.18579
632.447	9.48242
635.339	8.08374
638.232	0.176758
641.125	1.02466
644.017	0.564941
646.91	4.42017
649.803	6.79639
652.695	7.44409
655.588	8.67725
658.481	5.98706
661.374	3.01538
664.266	1.11719
667.159	0.89209
670.052	3.52832
672.944	1.54272
675.837	0.901855
678.73	0.890625
681.622	0.025879
684.515	5.76367
687.408	13.6372
690.301	6.47363
693.193	7.39429
696.086	23.3957
698.979	12.9507
701.871	7.5354
704.764	5.99902
707.657	5.10767
710.549	6.04004
713.442	10.7219
716.335	12.5288
719.227	5.41992
722.12	8.94604
725.013	3.28394
727.906	7.2937
730.798	9.76099
733.691	7.13647
736.584	7.68042
739.476	3.14893
742.369	10.0806
745.262	7.25732
748.154	5.87012
751.047	7.03369
753.94	3.7417
756.833	1.90918
759.725	0.006348
762.618	1.91821
765.511	3.604
768.403	1.59155
771.296	12.206
774.189	7.8125
777.082	10.177
779.974	13.552
782.867	15.1892
785.76	11.5994
788.652	14.4888
791.545	16.2834
794.438	18.4334
797.33	16.8518
800.223	22.6111
803.116	12.2476
806.009	13.7651
808.901	9.12378
811.794	8.45605
814.687	5.38892
817.579	12.5105
820.472	19.6997
823.365	13.5691
826.257	11.46
829.15	9.23193
832.043	7.05273
834.936	12.5422
837.828	11.0557
840.721	15.1184
843.614	17.158
846.506	6.72436
849.399	11.2908
852.292	15.1055
855.184	9.02637
858.077	18.9624
860.97	41.3257
863.863	28.148
866.755	13.7351
869.648	18.9795
872.541	8.30054
875.433	3.27197
878.326	4.68604
881.219	4.1394
884.111	13.2747
887.004	4.8064
889.897	4.40771
892.79	9.82104
895.682	20.8735
898.575	28.9226
901.468	22.7195
904.36	30.532
907.253	28.9553
910.146	16.0557
913.038	11.4099
915.931	12.1431
918.824	11.3923
921.717	18.1863
924.609	16.7915
927.502	22.0964
930.395	13.2456
933.287	11.3523
936.18	11.3538
939.073	8.1731
941.966	15.467
944.858	9.28223
947.751	8.02051
950.644	2.10498
953.536	0.595215
956.429	0.318359
959.322	7.09961
962.214	8.19482
965.107	0.144775
968	0.918457
970.893	0.232178
973.785	3.30225
976.678	13.6838
979.571	7.92383
982.463	11.2466
985.356	12.0122
988.249	16.5447
991.141	18.1116
994.034	14.4453
996.927	6.50049
999.819	0.731201
1002.71	4.66699
1005.61	2.85718
1008.5	7.39429
1011.39	6.38721
1014.28	6.91894
1017.18	10.2402
1020.07	3.03101
1022.96	0.498535
1025.85	9.14844
1028.75	8.23682
1031.64	4.36475
1034.53	7.26782
1037.42	0.318848
1040.32	9.77637
1043.21	11.9053
1046.1	15.7349
1048.99	15.4866
1051.89	11.8142
1054.78	7.90405
1057.67	13.8789
1060.57	13.4771
1063.46	10.6997
1066.35	5.78125
1069.24	10.7446
1072.14	8.67602
1075.03	9.65088
1077.92	7.7688
1080.82	16.8655
1083.71	9.36694
1086.6	16.9534
1089.49	11.375
1092.39	11.845
1095.28	3.24243
1098.17	4.65356
1101.06	3.45288
1103.96	9.70557
1106.85	5.75977
1109.74	15.1599
1112.63	5.87646
1115.53	12.6938
1118.42	3.26953
1121.31	0.861816
1124.21	1.25561
1127.1	4.90161
1129.99	5.2771
1132.88	0.044189
1135.78	2.60132
1138.67	10.8687
1141.56	13.2979
1144.45	8.37598
1147.35	9.6333
1150.24	7.54053
1153.13	10.6025
1156.03	6.91211
1158.92	14.6394
1161.81	17.2688
1164.7	18.1545
1167.6	14.1641
1170.49	17.9924
1173.38	12.6126
1176.27	12.354
1179.17	12.9463
1182.06	11.5657
1184.95	18.2947
1187.85	17.1209
1190.74	26.9075
1193.63	24.2485
1196.52	23.2087
1199.42	18.1167
1202.31	15.2832
1205.2	15.7229
1208.09	14.2752
1210.99	15.2859
1213.88	16.658
1216.77	12.3054
1219.66	13.4917
1222.56	20.0418
1225.45	12.8147
1228.34	5.38281
1231.24	7.88232
1234.13	3.63672
1237.02	4.54126
1239.91	2.9707
1242.81	1.20312
1245.7	2.54419
1248.59	7.19556
1251.48	6.44702
1254.38	16.8772
1257.27	19.6899
1260.16	19.3523
1263.06	25.4849
1265.95	25.5808
1268.84	9.76074
1271.73	8.92065
1274.63	2.53052
1277.52	1.11157
1280.41	6.71753
1283.3	4.99487
1286.2	6.56543
1289.09	11.0498
1291.98	12.623
1294.88	0.105957
1297.77	5.61963
1300.66	0
