Measurement: Raman, 780 nm, unoriented, Raman Data Processed
Mineral: Wheatleyite
Rruff sample: R160084
Ideal chemistry: Na_2_Cu^2+^((C_2_)^6+^O_4_)_2_2H_2_O
Locality: Rowley mine, Maricopa County, Arizona, USA
Source: Danielle Sotomayor and Keith Wentz
Description: Aggregates of parallel pale blue thin bladed crystals, associated with blue to dark blue tabular antipinite
Raman shift (cm-1)	intensity
146.883	0
149.775	0.422546
152.668	2.04694
155.561	11.3075
158.453	17.2753
161.346	31.7416
164.239	42.4855
167.132	55.0335
170.024	72.658
172.917	83.2075
175.81	66.3484
178.702	40.5278
181.595	21.4298
184.488	12.7564
187.381	5.29803
190.273	1.73822
193.166	0.991455
196.059	0.21405
198.951	0.339294
201.844	1.78265
204.737	1.11517
207.629	4.70264
210.522	4.24896
213.415	3.18726
216.308	3.16364
219.2	7.4295
222.093	4.67011
224.986	8.65283
227.878	11.4499
230.771	14.3075
233.664	16.8513
236.556	24.1732
239.449	31.1452
242.342	36.3115
245.234	31.0311
248.127	25.1511
251.02	14.613
253.913	10.9556
256.805	7.59662
259.698	3.22742
262.591	3.02692
265.483	2.62048
268.376	1.38757
271.269	0.676208
274.161	3.40002
277.054	3.59088
279.947	3.66901
282.84	3.97656
285.732	4.01459
288.625	3.49506
291.518	3.06555
294.41	4.36389
297.303	1.05786
300.196	3.03473
303.089	1.99445
305.981	4.34924
308.874	1.078
311.767	2.18512
314.659	2.94251
317.552	1.44482
320.445	3.24622
323.337	0.991577
326.23	4.14569
329.123	1.89532
332.015	0.858276
334.908	3.5368
337.801	4.11462
340.694	0.355286
343.586	0.970276
346.479	1.41101
349.372	1.49945
352.264	0.558655
355.157	2.55243
358.05	4.89294
360.942	0.808899
363.835	1.61529
366.728	3.05975
369.621	3.38354
372.513	1.53424
375.406	1.33301
378.299	1.90088
381.191	4.6239
384.084	10.4823
386.977	9.71435
389.87	6.3266
392.762	4.05218
395.655	0.816284
398.548	2.59216
401.44	3.91467
404.333	3.99188
407.226	0.621948
410.118	1.63416
413.011	3.10303
415.904	0.831726
418.796	0.74646
421.689	1.36273
424.582	0.400391
427.475	4.263
430.367	2.57269
433.26	1.88428
436.153	0.956421
439.045	2.66235
441.938	1.70935
444.831	2.10217
447.724	6.52338
450.616	5.49359
453.509	7.4165
456.402	6.95435
459.294	6.62061
462.187	5.3927
465.08	3.54858
467.972	3.30798
470.865	3.74835
473.758	5.64716
476.651	3.69482
479.543	4.9848
482.436	3.25647
485.329	8.20868
488.221	4.0589
491.114	5.94855
494.007	5.29413
496.899	4.6897
499.792	2.28345
502.685	0.421204
505.577	3.32861
508.47	2.4375
511.363	2.98224
514.256	1.04163
517.148	0.929993
520.041	0.358276
522.934	0.967712
525.826	1.86182
528.719	0.081055
531.612	3.71899
534.505	0.192383
537.397	3.72638
540.29	2.20557
543.183	4.14789
546.075	8.22272
548.968	10.9383
551.861	14.7817
554.753	16.1312
557.646	24.8766
560.539	31.4081
563.432	38.108
566.324	37.3619
569.217	27.2556
572.11	16.9732
575.002	12.0043
577.895	12.0713
580.788	11.6623
583.681	13.4556
586.573	9.42096
589.466	5.70459
592.359	0.493774
595.251	1.84076
598.144	3.86853
601.037	4.47278
603.929	2.31586
606.822	1.64612
609.715	1.18396
612.607	0.122986
615.5	2.98578
618.393	2.77649
621.286	3.36163
624.178	1.27466
627.071	3.367
629.964	1.27887
632.856	2.90375
635.749	3.81256
638.642	3.28503
641.534	1.23236
644.427	0.50354
647.32	1.37494
650.213	1.56262
653.105	0.609802
655.998	4.50561
658.891	0.681274
661.783	0.801086
664.676	0.688538
667.569	3.15704
670.462	2.677
673.354	2.53925
676.247	0.921082
679.14	3.13605
682.032	0.736938
684.925	1.75311
687.818	0.241028
690.71	4.38989
693.603	0.910706
696.496	4.23822
699.389	0.42981
702.281	1.28155
705.174	1.33228
708.067	1.03674
710.959	1.54279
713.852	1.82666
716.745	0.610168
719.637	0.612
722.53	2.3465
725.423	0.845215
728.316	1.51013
731.208	1.31049
734.101	0.478088
736.994	2.98987
739.886	0.87854
742.779	1.74829
745.672	1.53149
748.564	4.24713
751.457	0.231506
754.35	0.917419
757.242	0.650146
760.135	0.480957
763.028	1.49445
765.921	0.816956
768.813	2.83905
771.706	0.720276
774.599	2.26263
777.491	1.32367
780.384	0.887207
783.277	0.799255
786.169	2.17914
789.062	5.3147
791.955	3.39014
794.848	2.37274
797.74	4.01532
800.633	3.68903
803.526	2.51147
806.418	3.71411
809.311	4.8913
812.204	0.703796
815.096	5.85004
817.989	0.922974
820.882	1.90607
823.775	1.98761
826.667	1.86945
829.56	2.87231
832.453	4.15442
835.345	5.48859
838.238	4.50598
841.131	5.16284
844.024	4.88019
846.916	5.37366
849.809	3.37146
852.702	5.19336
855.594	6.12237
858.487	8.57306
861.38	16.9484
864.272	5.27881
867.165	2.28229
870.058	4.06238
872.951	2.46466
875.843	0.144775
878.736	0.043213
881.629	2.13818
884.521	2.28162
887.414	2.41107
890.307	3.4278
893.199	1.87836
896.092	1.32611
898.985	5.23151
901.878	6.85059
904.77	8.56854
907.663	5.72711
910.556	3.16473
913.448	1.70319
916.341	2.13678
919.234	0.425659
922.126	2.2309
925.019	4.10577
927.912	2.18744
930.804	3.2243
933.697	0.615967
936.59	0.13147
939.483	1.23279
942.375	0.188721
945.268	1.39368
948.161	0.448975
951.053	0.944153
953.946	1.06574
956.839	2.07019
959.731	0.025757
962.624	2.38141
965.517	0.145569
968.41	4.83386
971.302	0.652283
974.195	2.11328
977.088	3.53375
979.98	3.74902
982.873	6.76141
985.766	9.45734
988.659	12.5222
991.551	14.0198
994.444	7.4519
997.337	6.73639
1000.23	5.47778
1003.12	4.26239
1006.01	3.45087
1008.91	0.55957
1011.8	3.07165
1014.69	1.84106
1017.59	1.50012
1020.48	2.80151
1023.37	0.739014
1026.26	2.10413
1029.16	2.27033
1032.05	2.78003
1034.94	3.06854
1037.83	3.91632
1040.73	2.4162
1043.62	1.90662
1046.51	1.85089
1049.4	1.8822
1052.3	2.53479
1055.19	1.8197
1058.08	4.86432
1060.98	3.85699
1063.87	2.6261
1066.76	2.30139
1069.65	4.03137
1072.55	3.37085
1075.44	1.8609
1078.33	3.73077
1081.22	3.21197
1084.12	2.05633
1087.01	1.18536
1089.9	3.13666
1092.8	3.66559
1095.69	0.645813
1098.58	2.97339
1101.47	4.52661
1104.37	1.6474
1107.26	2.83099
1110.15	2.79999
1113.05	0.712097
1115.94	0.10022
1118.83	1.94025
1121.72	1.93665
1124.62	1.69403
1127.51	1.23071
1130.4	2.37085
1133.29	3.86621
1136.19	4.16357
1139.08	2.77624
1141.97	2.62921
1144.86	3.40436
1147.76	4.98675
1150.65	3.31018
1153.54	2.30774
1156.43	1.85504
1159.33	3.2677
1162.22	4.77875
1165.11	2.36792
1168.01	4.91309
1170.9	5.6253
1173.79	5.99396
1176.68	1.98151
1179.58	3.28467
1182.47	3.96716
1185.36	3.3103
1188.26	2.41974
1191.15	4.26044
1194.04	5.38135
1196.93	2.4101
1199.83	3.38086
1202.72	1.47681
1205.61	3.07599
1208.5	2.58752
1211.4	0.735657
1214.29	4.00769
1217.18	1.98419
1220.08	1.23596
1222.97	3.89386
1225.86	0.578613
1228.75	0.622681
1231.64	1.16254
1234.54	5.79028
1237.43	2.03833
1240.32	0.797974
1243.22	3.28302
1246.11	0.975952
1249	2.53973
1251.89	2.40851
1254.79	5.14777
1257.68	6.34747
1260.57	9.12103
1263.46	9.76697
1266.36	6.76715
1269.25	2.66303
1272.14	4.02399
1275.04	3.19769
1277.93	1.07214
1280.82	3.67145
