Measurement: Raman, 532 nm, unoriented, Raman Data Processed
Mineral: Wherryite
Rruff sample: R141161
Ideal chemistry: Pb^2+^_7_Cu^2+^_2_(S^6+^O_4_)_4_(SiO_4_)_2_(OH)_2_
Locality: Mammoth-St Anthony mine, Tiger, Pinal County, Arizona, USA
Source: Benjamin N. Schumer
Description: Pale green acicular crystals, associated with blue diaboleite
Raman shift (cm-1)	intensity
88.1367	0
91.5115	10.7098
94.8863	47.4703
98.2612	93.3416
101.636	102.652
105.011	68.0071
108.386	23.3384
111.76	2.57227
115.135	6.3053
118.51	14.6694
121.885	22.4917
125.26	18.1361
128.635	16.3195
132.009	19.8178
135.384	34.2286
138.759	40.2286
142.134	50.6354
145.509	61.821
148.883	64.3864
152.258	58.2858
155.633	58.5374
159.008	59.701
162.383	52.5556
165.757	47.9985
169.132	40.8453
172.507	43.8701
175.882	34.219
179.257	20.4624
182.632	14.4893
186.006	11.8643
189.381	15.8503
192.756	21.2501
196.131	26.1068
199.506	28.7008
202.881	28.9992
206.255	38.931
209.63	43.9898
213.005	49.8161
216.38	47.5361
219.755	35.0011
223.129	23.5336
226.504	11.5706
229.879	5.34189
233.254	0.807449
236.629	0.86087
240.004	1.00619
243.378	1.71744
246.753	2.33221
250.128	0.52533
253.503	1.60503
256.878	10.3198
260.252	16.3265
263.627	21.8806
267.002	28.9172
270.377	25.6347
273.752	16.5282
277.127	10.2549
280.501	9.05827
283.876	3.81891
287.251	3.82212
290.626	6.27213
294.001	4.83477
297.375	6.18477
300.75	7.9435
304.125	13.7452
307.5	18.7966
310.875	30.6468
314.25	36.1255
317.624	36.9845
320.999	34.6834
324.374	32.2016
327.749	31.0987
331.124	43.8418
334.498	53.8808
337.873	55.2493
341.248	46.4909
344.623	28.785
347.998	18.6441
351.373	9.08997
354.747	7.39515
358.122	0.52449
361.497	0.00985
364.872	1.15371
368.247	2.60014
371.621	0.718193
374.996	3.43559
378.371	9.10685
381.746	18.2536
385.121	32.0704
388.495	48.4231
391.87	58.5929
395.245	53.7477
398.62	38.2762
401.995	22.6082
405.37	13.1311
408.744	7.36743
412.119	10.5231
415.494	9.97601
418.869	17.6371
422.244	35.4017
425.618	63.8603
428.993	125.586
432.368	223.349
435.743	298.39
439.118	316.354
442.493	417.606
445.867	411.946
449.242	254.588
452.617	135.154
455.992	80.1469
459.367	59.0537
462.741	37.5506
466.116	19.6728
469.491	13.775
472.866	8.98839
476.241	7.50184
479.615	5.13054
482.99	3.3258
486.365	1.38577
489.74	1.89378
493.115	1.65232
496.49	0.213188
499.864	1.81149
503.239	0.660141
506.614	1.31434
509.989	1.9239
513.364	0.055496
516.739	0.571373
520.113	0.435249
523.488	1.99812
526.863	6.26691
530.238	12.8539
533.613	17.0487
536.987	16.7365
540.362	11.2817
543.737	5.78187
547.112	4.62212
550.487	4.42918
553.861	2.06825
557.236	2.84364
560.611	2.71986
563.986	3.00407
567.361	3.84196
570.736	2.44693
574.11	3.07635
577.485	2.59438
580.86	3.75185
584.235	5.89193
587.61	8.3304
590.985	15.2803
594.359	28.1299
597.734	41.4884
601.109	46.8675
604.484	41.5371
607.859	37.3723
611.233	34.3679
614.608	28.3048
617.983	13.0154
621.358	7.96532
624.733	5.62108
628.107	1.91555
631.482	4.64468
634.857	3.6413
638.232	2.6497
641.607	0.632126
644.982	2.00821
648.356	1.90146
651.731	0.672882
655.106	1.07734
658.481	0.596451
661.856	1.02179
665.231	1.11939
668.605	0.267448
671.98	1.31486
675.355	5.76015
678.73	3.62515
682.105	3.87558
685.479	1.87303
688.854	3.44914
692.229	0.355354
695.604	5.95358
698.979	1.66641
702.354	3.1237
705.728	2.91031
709.103	2.74969
712.478	5.3039
715.853	2.83653
719.227	2.12415
722.602	4.65546
725.977	3.63259
729.352	4.79598
732.727	3.51533
736.102	2.37402
739.476	1.4588
742.851	1.51732
746.226	1.09209
749.601	0.524071
752.976	0.291046
756.351	1.95886
759.725	2.54272
763.1	2.6525
766.475	0.821381
769.85	1.2028
773.225	3.79427
776.599	4.56448
779.974	4.34668
783.349	5.23227
786.724	8.13916
790.099	9.55174
793.473	11.0867
796.848	18.5801
800.223	28.9315
803.598	36.5566
806.973	46.1129
810.348	46.6707
813.722	53.8613
817.097	70.8154
820.472	80.6814
823.847	78.9677
827.222	99.7475
830.597	107.619
833.971	70.0198
837.346	38.6551
840.721	31.7115
844.096	15.0971
847.471	3.18749
850.846	0.999168
854.22	3.30791
857.595	1.28388
860.97	2.17141
864.345	5.43092
867.72	8.00282
871.094	13.4934
874.469	24.3301
877.844	43.3165
881.219	65.8666
884.594	79.6732
887.968	100.579
891.343	103.297
894.718	84.1323
898.093	55.2001
901.468	31.4166
904.842	13.7465
908.217	6.07394
911.592	1.81226
914.967	0.583847
918.342	1.24026
921.717	1.64072
925.091	3.84843
928.466	4.54279
931.841	2.60107
935.216	1.05918
938.591	4.5005
941.966	11.8743
945.34	22.696
948.715	45.782
952.09	85.7392
955.465	155.195
958.84	305.805
962.214	611.265
965.589	1161.42
968.964	1966.63
972.339	1966.29
975.714	905.214
979.088	378.072
982.463	188.285
985.838	103.575
989.213	62.3974
992.588	42.8686
995.963	29.914
999.337	24.0022
1002.71	18.623
1006.09	11.3851
1009.46	11.2689
1012.84	7.12106
1016.21	3.1497
1019.59	0.196579
1022.96	0.496902
1026.34	3.68784
1029.71	1.81449
1033.09	1.91607
1036.46	2.27121
1039.84	5.35973
1043.21	11.4333
1046.59	22.9782
1049.96	33.4513
1053.33	34.2366
1056.71	35.0297
1060.08	37.8237
1063.46	38.1608
1066.83	40.2737
1070.21	43.0376
1073.58	35.8186
1076.96	28.2746
1080.33	21.5156
1083.71	17.3976
1087.08	13.7654
1090.46	10.2998
1093.83	7.77549
1097.21	7.03144
1100.58	5.03828
1103.96	6.70514
1107.33	8.06648
1110.71	7.89961
1114.08	7.57838
1117.46	10.7256
1120.83	11.87
1124.21	6.93921
1127.58	6.08965
1130.95	2.37986
1134.33	1.26281
1137.7	1.12418
1141.08	0.732147
1144.45	0.464203
1147.83	0.10038
1151.2	0.936142
1154.58	1.12925
1157.95	2.20844
1161.33	2.83099
1164.7	1.353
1168.08	0.692604
1171.45	8.80843
1174.83	11.5363
1178.2	18.632
1181.58	29.4151
1184.95	39.1088
1188.33	26.6398
1191.7	14.7246
1195.08	8.82239
1198.45	7.54074
1201.83	3.97123
1205.2	5.23865
1208.58	3.16278
1211.95	5.20956
1215.33	4.16143
1218.7	4.80602
1222.08	3.4927
1225.45	2.7401
1228.83	0.914856
1232.2	2.06619
1235.58	1.10711
1238.95	0.919807
1242.32	1.46839
1245.7	2.10049
1249.07	0.238243
1252.45	1.73789
1255.82	3.56369
1259.2	3.14322
1262.57	4.38796
1265.95	0.78447
1269.32	2.61641
1272.7	0.837822
1276.07	0.450424
1279.45	2.39436
1282.82	4.02857
1286.2	0.939072
1289.57	1.39243
1292.95	1.61726
1296.32	3.00405
1299.7	0.03624
