Measurement: Raman, 780 nm, unoriented, Raman Data Processed
Mineral: Wherryite
Rruff sample: R141161
Ideal chemistry: Pb^2+^_7_Cu^2+^_2_(S^6+^O_4_)_4_(SiO_4_)_2_(OH)_2_
Locality: Mammoth-St Anthony mine, Tiger, Pinal County, Arizona, USA
Source: Benjamin N. Schumer
Description: Pale green acicular crystals, associated with blue diaboleite
Raman shift (cm-1)	intensity
97.2244	0
100.599	65.4888
103.974	65.8126
107.349	32.5798
110.724	2.80627
114.099	6.6579
117.473	23.1226
120.848	25.606
124.223	18.5572
127.598	10.8492
130.972	6.66071
134.347	13.4472
137.722	15.4953
141.097	11.1063
144.472	8.565
147.847	11.4002
151.221	3.52277
154.596	5.79736
157.971	22.2004
161.346	42.1631
164.721	43.4235
168.096	41.4312
171.47	46.6004
174.845	39.1246
178.22	32.9624
181.595	16.9261
184.97	17.9163
188.345	20.5792
191.719	24.8221
195.094	28.888
198.469	28.058
201.844	38.3984
205.219	45.3143
208.593	39.0851
211.968	46.446
215.343	44.6696
218.718	34.1901
222.093	13.6403
225.468	5.97577
228.842	14.1034
232.217	8.43271
235.592	5.23065
238.967	3.1503
242.341	5.75348
245.716	7.00678
249.091	5.99295
252.466	1.92926
255.841	9.11612
259.216	15.8219
262.591	23.8928
265.965	25.2099
269.34	17.4104
272.715	6.23297
276.09	5.80719
279.464	0.250641
282.839	1.35538
286.214	1.57471
289.589	0.541504
292.964	0.750031
296.339	5.59708
299.713	5.61139
303.088	16.4622
306.463	20.4341
309.838	28.8356
313.213	32.0189
316.587	31.2071
319.962	23.069
323.337	20.9337
326.712	23.74
330.087	33.1208
333.462	37.4194
336.837	34.774
340.211	24.6156
343.586	23.0216
346.961	15.2116
350.336	10.4634
353.711	9.03485
357.085	4.08081
360.46	2.92276
363.835	0.441345
367.21	1.34933
370.585	1.09198
373.959	7.84961
377.334	14.8931
380.709	23.8718
384.084	44.6866
387.459	59.9985
390.834	68.5585
394.208	62.1382
397.583	46.5977
400.958	36.0266
404.333	23.2119
407.708	25.0187
411.082	14.5046
414.457	10.9353
417.832	15.6027
421.207	22.1543
424.582	34.037
427.957	73.3514
431.331	128.13
434.706	172.543
438.081	202.481
441.456	279.585
444.831	291.126
448.205	195.014
451.58	110.619
454.955	63.9585
458.33	50.6097
461.705	27.5559
465.079	10.3281
468.454	15.1913
471.829	9.55191
475.204	6.81415
478.579	1.01974
481.954	3.9534
485.328	4.38892
488.703	4.83752
492.078	3.96426
495.453	0.760925
498.828	5.02664
502.202	0.703156
505.577	2.02438
508.952	0.669647
512.327	0.11618
515.702	4.28763
519.077	2.50565
522.451	1.64191
525.826	7.7225
529.201	14.058
532.576	20.0623
535.951	18.153
539.326	12.4773
542.7	6.49826
546.075	5.84106
549.45	6.43503
552.825	10.3112
556.2	11.679
559.574	9.67773
562.949	9.43674
566.324	6.13467
569.699	8.9892
573.074	2.63745
576.448	0.845093
579.823	3.67673
583.198	10.6693
586.573	12.462
589.948	16.9017
593.323	21.1873
596.697	34.098
600.072	61.4318
603.447	66.7845
606.822	51.9751
610.197	31.8553
613.572	21.6035
616.946	14.8261
620.321	7.94208
623.696	6.09204
627.071	2.57907
630.446	5.80603
633.82	1.07929
637.195	12.6449
640.57	6.07678
643.945	10.6667
647.32	5.13818
650.694	2.35764
654.069	2.69754
657.444	2.76038
660.819	1.32147
664.194	3.78067
667.569	7.96228
670.943	9.61462
674.318	6.73148
677.693	10.4855
681.068	5.06754
684.443	10.9042
687.817	5.75606
691.192	12.4029
694.567	5.31046
697.942	4.10342
701.317	3.17419
704.692	3.39626
708.066	6.73688
711.441	7.49219
714.816	7.59141
718.191	6.26991
721.566	3.09366
724.941	5.52962
728.315	7.70261
731.69	5.34786
735.065	3.29404
738.44	0.250534
741.815	4.2099
745.189	6.04463
748.564	6.44768
751.939	2.50954
755.314	1.2948
758.689	2.4341
762.063	2.05476
765.438	3.87236
768.813	3.90874
772.188	1.24794
775.563	6.56783
778.938	2.01981
782.312	1.0416
785.687	1.25294
789.062	4.61928
792.437	5.36047
795.812	12.1844
799.187	11.639
802.561	14.0054
805.936	14.3199
809.311	19.8141
812.686	14.6686
816.061	22.3467
819.435	36.0068
822.81	51.6014
826.185	78.3413
829.56	92.3852
832.935	64.1495
836.309	30.1036
839.684	12.5558
843.059	8.32686
846.434	4.31541
849.809	1.88455
853.184	1.09157
856.558	0.070404
859.933	5.04598
863.308	12.5094
866.683	12.8149
870.058	15.4469
873.433	37.2476
876.807	53.2227
880.182	68.061
883.557	77.2606
886.932	84.4818
890.307	83.3067
893.681	61.5639
897.056	40.456
900.431	29.3322
903.806	17.0622
907.181	11.0431
910.556	15.1584
913.93	4.16357
917.305	1.96254
920.68	5.199
924.055	2.19771
927.43	0.483322
930.804	2.47812
934.179	4.26146
937.554	4.99947
940.929	17.2046
944.304	28.1482
947.678	46.6368
951.053	77.3713
954.428	134.934
957.803	234.837
961.178	446.782
964.553	886.514
967.927	1484.81
971.302	1370.86
974.677	673.668
978.052	310.045
981.427	161.345
984.802	96.6005
988.176	55.4838
991.551	41.3993
994.926	21.525
998.301	19.4524
1001.68	13.8684
1005.05	12.1783
1008.42	4.23523
1011.8	11.3617
1015.17	2.19153
1018.55	5.53551
1021.92	2.9993
1025.3	0.844986
1028.67	0.115616
1032.05	1.7813
1035.42	5.68753
1038.8	4.7224
1042.17	13.3433
1045.55	16.4415
1048.92	27.1416
1052.3	25.5784
1055.67	33.6129
1059.05	30.2821
1062.42	25.2109
1065.8	22.207
1069.17	23.6738
1072.55	20.6103
1075.92	16.2184
1079.3	13.8782
1082.67	12.8074
1086.05	8.92473
1089.42	10.0503
1092.8	3.08693
1096.17	10.5663
1099.55	4.28268
1102.92	7.80518
1106.3	14.5312
1109.67	2.78726
1113.05	7.02956
1116.42	15.3269
1119.79	9.79303
1123.17	8.38751
1126.54	2.16544
1129.92	5.83093
1133.29	2.54822
1136.67	2.87128
1140.04	1.81811
1143.42	9.01128
1146.79	1.47765
1150.17	0.339279
1153.54	2.82095
1156.92	3.06784
1160.29	5.32936
1163.67	9.35036
1167.04	9.31957
1170.42	8.72859
1173.79	9.12407
1177.17	18.2425
1180.54	20.1977
1183.92	23.5234
1187.29	21.1336
1190.66	9.89587
1194.04	6.77966
1197.41	4.33069
1200.79	10.8268
1204.16	3.60065
1207.54	5.90137
1210.91	9.31241
1214.29	8.2955
1217.66	9.71668
1221.04	5.08524
1224.41	4.01846
1227.79	7.96503
1231.16	9.89441
1234.54	2.08725
1237.91	6.25952
1241.29	12.4589
1244.66	7.7561
1248.04	2.40088
1251.41	6.24451
1254.79	8.88156
1258.16	7.17572
1261.54	9.69498
1264.91	9.62598
1268.29	3.18033
1271.66	2.97144
1275.04	3.19336
1278.41	4.78629
1281.79	0.841919
