Measurement: Raman, 780 nm, unoriented, Raman Data Processed
Mineral: Whitmoreite
Rruff sample: R110175
Ideal chemistry: Fe^2+^Fe^3+^_2_(PO_4_)_2_(OH)_2_4H_2_O
Locality: Palermo #1 mine, North Groton, Grafton County, New Hampshire, USA
Source: Donald Doell
Description: Radial sprays of brown prismatic crystals associated with jahnsite, childrenite, and quartz
Raman shift (cm-1)	intensity
133.066	0
135.958	3.44196
138.851	8.74753
141.744	11.7519
144.636	13.2687
147.529	14.0257
150.422	11.6511
153.315	5.41391
156.207	1.32105
159.1	2.89349
161.993	0.380432
164.885	3.366
167.778	12.7019
170.671	15.8372
173.563	21.0684
176.456	20.5074
179.349	21.1263
182.242	16.583
185.134	17.586
188.027	12.1822
190.92	14.6181
193.812	13.2992
196.705	15.8643
199.598	23.319
202.49	28.3187
205.383	35.0401
208.276	38.451
211.168	46.8387
214.061	49.8043
216.954	52.0218
219.847	49.92
222.739	46.5226
225.632	48.5273
228.525	50.8378
231.417	48.2157
234.31	48.9365
237.203	47.5299
240.095	45.9318
242.988	51.2591
245.881	54.7506
248.774	63.9984
251.666	71.7731
254.559	77.0499
257.452	83.9485
260.344	92.2013
263.237	91.8939
266.13	87.2736
269.022	82.2933
271.915	73.5703
274.808	66.4007
277.701	57.248
280.593	53.3599
283.486	46.137
286.379	35.7757
289.271	26.9448
292.164	19.8037
295.057	14.2216
297.95	8.52567
300.842	3.67122
303.735	0.704498
306.628	0.783142
309.52	3.51708
312.413	2.14548
315.306	2.9976
318.198	1.23163
321.091	1.38847
323.984	3.36569
326.877	6.7088
329.769	11.9712
332.662	16.2492
335.555	20.0355
338.447	22.8746
341.34	27.3893
344.233	28.7273
347.125	30.0316
350.018	29.4984
352.911	28.6982
355.803	25.9585
358.696	21.025
361.589	19.292
364.482	17.0168
367.374	14.5549
370.267	9.5295
373.16	6.94104
376.052	2.913
378.945	1.44582
381.838	1.20561
384.731	0.633965
387.623	1.42175
390.516	1.25358
393.409	0.633369
396.301	1.00484
399.194	4.3762
402.087	5.92625
404.979	11.2729
407.872	15.6142
410.765	19.7977
413.658	20.6792
416.55	21.3611
419.443	18.7339
422.336	16.1521
425.228	14.0687
428.121	11.5152
431.014	9.1493
433.906	9.37015
436.799	8.69661
439.692	7.70623
442.584	7.34084
445.477	7.45642
448.37	12.2547
451.263	16.7566
454.155	25.4291
457.048	32.9963
459.941	45.588
462.833	55.445
465.726	66.8056
468.619	79.866
471.512	92.5658
474.404	105.338
477.297	117.105
480.19	125.826
483.082	135.339
485.975	133.475
488.868	129.467
491.76	123.915
494.653	109.593
497.546	95.0272
500.438	75.4295
503.331	61.5274
506.224	45.3861
509.117	31.7646
512.009	18.8707
514.902	10.2555
517.795	4.66502
520.687	0.582008
523.58	0.886398
526.473	0.957916
529.365	0.46373
532.258	2.89763
535.151	5.90597
538.044	12.1543
540.936	21.2585
543.829	30.3109
546.722	41.255
549.614	52.4212
552.507	52.0087
555.4	55.916
558.293	52.7148
561.185	51.0487
564.078	48.7135
566.971	51.8755
569.863	56.2176
572.756	57.3113
575.649	60.9401
578.541	61.6641
581.434	58.294
584.327	51.101
587.22	42.528
590.112	32.2202
593.005	23.68
595.898	15.8574
598.79	9.61656
601.683	5.02556
604.576	2.61408
607.468	1.9254
610.361	0.262497
613.254	0.664253
616.146	1.66154
619.039	0.811699
621.932	0.484657
624.825	0.06115
627.717	1.43677
630.61	1.22593
633.503	0.546577
636.395	2.53461
639.288	0.734924
642.181	3.34684
645.073	3.27354
647.966	3.18295
650.859	3.67496
653.752	5.92884
656.644	3.40518
659.537	5.06242
662.43	6.79688
665.322	7.45568
668.215	7.96928
671.108	8.20754
674	5.87254
676.893	6.34847
679.786	5.48358
682.679	5.63597
685.571	4.28447
688.464	4.18118
691.357	4.64354
694.249	3.48323
697.142	1.93277
700.035	2.33905
702.928	1.85313
705.82	2.40913
708.713	3.45014
711.606	1.79377
714.498	2.00185
717.391	2.4197
720.284	3.10093
723.176	2.32801
726.069	3.57796
728.962	4.66279
731.855	3.32042
734.747	3.16823
737.64	0.782845
740.533	2.78358
743.425	1.60103
746.318	2.66358
749.211	1.45049
752.103	0.832497
754.996	0.484879
757.889	0.435635
760.782	1.19301
763.674	0.647419
766.567	1.42648
769.46	0.961384
772.352	0.440319
775.245	0.212528
778.138	1.6361
781.03	0.62141
783.923	1.64374
786.816	0.156532
789.708	2.10306
792.601	0.521179
795.494	1.20137
798.387	0.028194
801.279	1.86363
804.172	0.988205
807.065	1.6079
809.957	1.01025
812.85	1.47173
815.743	0.986111
818.635	3.54468
821.528	1.95509
824.421	2.67751
827.314	3.62245
830.206	3.42395
833.099	2.48261
835.992	2.39276
838.884	2.85151
841.777	2.88647
844.67	1.93074
847.562	3.60343
850.455	3.96409
853.348	3.98754
856.241	2.99768
859.133	2.715
862.026	1.76005
864.919	2.9596
867.811	1.52286
870.704	0.466713
873.597	2.05239
876.49	1.25175
879.382	2.1641
882.275	0.057838
885.168	0.236172
888.06	0.123703
890.953	0.406952
893.846	0.680626
896.738	0.727982
899.631	0.262619
902.524	1.94972
905.417	1.33867
908.309	1.98412
911.202	1.20249
914.095	3.65266
916.987	3.82542
919.88	2.71606
922.773	3.73929
925.665	5.94759
928.558	7.815
931.451	9.01925
934.343	10.1579
937.236	13.7244
940.129	16.6496
943.022	23.0216
945.914	29.3592
948.807	42.6919
951.7	57.8276
954.592	77.282
957.485	103.167
960.378	134.371
963.27	170.634
966.163	212.897
969.056	265.759
971.949	305.173
974.841	303.349
977.734	256.924
980.627	197.246
983.519	147.888
986.412	115.237
989.305	89.3303
992.197	69.0524
995.09	52.7227
997.983	39.4601
1000.88	27.7388
1003.77	19.4323
1006.66	14.6936
1009.55	9.01123
1012.45	6.27301
1015.34	3.46795
1018.23	0.184776
1021.12	0.453487
1024.02	0.88385
1026.91	0.120804
1029.8	0.498444
1032.69	0.616589
1035.59	0.319534
1038.48	0.877281
1041.37	0.573448
1044.27	0.821529
1047.16	3.93668
1050.05	2.26898
1052.94	5.37977
1055.84	8.48716
1058.73	12.8021
1061.62	17.0831
1064.52	20.9318
1067.41	27.3303
1070.3	32.6488
1073.19	33.9663
1076.09	42.011
1078.98	52.7785
1081.87	70.2324
1084.76	84.6655
1087.66	87.6032
1090.55	75.9214
1093.44	62.0737
1096.34	49.6521
1099.23	41.6019
1102.12	33.1675
1105.01	27.3342
1107.91	21.8977
1110.8	18.2925
1113.69	14.3345
1116.58	12.3919
1119.48	9.90657
1122.37	6.82506
1125.26	3.39974
1128.15	5.80082
1131.05	4.02184
1133.94	3.41885
1136.83	4.34521
1139.72	3.48177
1142.62	4.32303
1145.51	6.61689
1148.4	8.39403
1151.3	10.2983
1154.19	10.6709
1157.08	15.7808
1159.97	19.0903
1162.87	21.9013
1165.76	24.5957
1168.65	25.4299
1171.55	23.7919
1174.44	23.7946
1177.33	19.5938
1180.22	15.9649
1183.12	11.5323
1186.01	8.34833
1188.9	6.49037
1191.79	4.52089
1194.69	1.79862
1197.58	0.613285
1200.47	0.652199
1203.37	0.168949
1206.26	0.586342
1209.15	0.972088
1212.04	0.496902
1214.93	2.24057
1217.83	0.506443
1220.72	0.079994
1223.61	0.817974
1226.51	0.269188
1229.4	0.321716
1232.29	0.828915
1235.18	3.19747
1238.08	4.24139
1240.97	3.27009
1243.86	4.00504
1246.76	4.47815
1249.65	4.02249
1252.54	2.44665
1255.43	2.44643
1258.33	2.91551
1261.22	0.931431
1264.11	0.539761
1267	2.85268
1269.9	1.904
1272.79	3.56042
1275.68	2.5312
1278.58	0.220982
1281.47	0.511421
1284.36	0.928734
