Measurement: Raman, 780 nm, unoriented, Raman Data Processed
Mineral: Whitlockite
Rruff sample: R080052
Ideal chemistry: Ca_9_Mg(PO_4_)_6_(PO_3_OH)
Locality: Palermo #1 Quarry, Groton, Grafton County, New Hampshire USA
Source: Mineralogical Museum, Harvard University
Description: Colorless granular massive, and as rhombohedra in cavities, associated with white rice-shaped fluorapatite, and colorless quartz. Type sample.
Measured chemistry: (Ca_8.81_Na_0.18_Sr_0.01_)_Σ=9.00_(Mg_0.62_Fe^3+^_0.34_Mn_0.02_Al_0.02_)_Σ=1.00_(P_1.00_O_4_)_6_(P_1.02_O_3_OH)
Raman shift (cm-1)	intensity
93.4668	0
96.8416	41.7176
100.216	44.7559
103.591	29.0131
106.966	20.3891
110.341	3.83539
113.716	0.894867
117.091	0.086609
120.465	4.5173
123.84	16.4088
127.215	36.8234
130.59	60.5168
133.965	82.8245
137.339	91.9283
140.714	90.5632
144.089	99.0001
147.464	103.547
150.839	96.816
154.214	91.4368
157.588	88.4198
160.963	78.8427
164.338	72.4227
167.713	59.6505
171.088	58.43
174.462	62.9079
177.837	53.9286
181.212	31.083
184.587	10.4725
187.962	3.89337
191.337	0.93454
194.711	3.86035
198.086	3.97842
201.461	0.84729
204.836	5.31058
208.211	12.447
211.585	17.894
214.96	26.6142
218.335	33.3473
221.71	40.5979
225.085	47.7601
228.459	46.1171
231.834	48.127
235.209	52.3073
238.584	57.4446
241.959	62.2064
245.333	67.0336
248.708	69.9158
252.083	68.8444
255.458	69.0616
258.833	73.0617
262.208	77.5236
265.582	81.271
268.957	83.8168
272.332	92.8681
275.707	101.788
279.082	114.609
282.457	127.857
285.831	129.88
289.206	118.121
292.581	99.5715
295.956	82.5773
299.331	66.293
302.705	51.8773
306.08	39.663
309.455	29.7826
312.83	18.5094
316.205	13.0377
319.579	8.1311
322.954	3.49329
326.329	1.59753
329.704	3.11999
333.079	1.13931
336.454	1.69235
339.828	2.66617
343.203	4.12918
346.578	1.56744
349.953	0.894653
353.328	1.69775
356.702	0.716766
360.077	7.3208
363.452	8.05041
366.827	15.5237
370.202	25.6576
373.577	41.7024
376.951	62.0217
380.326	90.155
383.701	134.467
387.076	191.715
390.451	264.072
393.825	344.574
397.2	446.291
400.575	562.534
403.95	643.907
407.325	643.244
410.7	542.667
414.074	441.841
417.449	369.705
420.824	314.644
424.199	283.199
427.574	277.072
430.948	287.862
434.323	292.302
437.698	282.938
441.073	281.712
444.448	271.896
447.822	250.705
451.197	211.041
454.572	171.663
457.947	145.317
461.322	120.517
464.697	99.0507
468.071	80.3547
471.446	72.4721
474.821	65.8704
478.196	64.2923
481.571	65.9376
484.945	55.7528
488.32	36.261
491.695	20.6148
495.07	7.98688
498.445	0.802551
501.82	2.36984
505.194	6.97255
508.569	5.90018
511.944	5.19376
515.319	4.39327
518.694	1.17302
522.068	3.47887
525.443	9.27203
528.818	19.9111
532.193	38.6988
535.568	56.6857
538.943	80.5551
542.317	111.098
545.692	135.072
549.067	153.176
552.442	159.009
555.817	152.57
559.192	141.002
562.566	123.111
565.941	91.6185
569.316	68.2848
572.691	45.8263
576.066	38.2647
579.44	42.4387
582.815	62.4977
586.19	97.4444
589.565	139.811
592.94	151.528
596.314	144.894
599.689	146.963
603.064	176.381
606.439	182.113
609.814	188.787
613.188	206.725
616.563	232.715
619.938	253.812
623.313	258.12
626.688	246.609
630.063	222.747
633.437	168.715
636.812	89.2546
640.187	35.923
643.562	14.1539
646.937	6.44217
650.312	1.7233
653.686	0.611282
657.061	1.31143
660.436	2.01601
663.811	1.24234
667.186	1.99484
670.56	0.359665
673.935	0.241013
677.31	0.305252
680.685	0.421982
684.06	2.01259
687.434	2.85544
690.809	0.005066
694.184	2.40469
697.559	4.92575
700.934	3.65062
704.308	5.63852
707.683	5.03451
711.058	3.50114
714.433	4.34961
717.808	3.74931
721.183	4.85103
724.557	4.60535
727.932	1.44136
731.307	3.42958
734.682	2.2524
738.057	1.37573
741.432	3.96291
744.806	1.83853
748.181	0.71727
751.556	3.44835
754.931	0.897552
758.306	0.174789
761.68	0.066895
765.055	1.64546
768.43	1.87196
771.805	3.01166
775.18	1.46275
778.554	2.22305
781.929	1.73853
785.304	3.40655
788.679	3.31715
792.054	5.181
795.429	2.80147
798.803	5.01469
802.178	3.79768
805.553	4.40353
808.928	11.2081
812.303	4.78423
815.678	7.94415
819.052	8.80609
822.427	8.93901
825.802	11.8508
829.177	10.6404
832.552	10.3733
835.926	12.5419
839.301	11.5914
842.676	10.5807
846.051	8.70595
849.426	8.1274
852.801	6.75156
856.175	6.40012
859.55	7.08334
862.925	1.87834
866.3	4.4066
869.675	0.956543
873.049	0.244904
876.424	2.27661
879.799	2.82471
883.174	2.22101
886.549	1.63869
889.923	0.034134
893.298	1.41949
896.673	0.121231
900.048	4.96471
903.423	16.2627
906.798	40.5535
910.172	77.3365
913.547	127.433
916.922	193.65
920.297	268.462
923.672	281.686
927.046	189.731
930.421	80.6751
933.796	34.2061
937.171	38.9442
940.546	76.1576
943.92	184.01
947.295	373.427
950.67	705.9
954.045	1263.55
957.42	2072.22
960.795	2877.7
964.169	3403.39
967.544	3622.7
970.919	2600.79
974.294	1322.5
977.669	561.929
981.043	306.979
984.418	243.606
987.793	226.381
991.168	200.162
994.543	156.502
997.918	95.6042
1001.29	42.9157
1004.67	7.38275
1008.04	2.08112
1011.42	1.68951
1014.79	4.02881
1018.17	3.45029
1021.54	3.5072
1024.92	6.38669
1028.29	5.14658
1031.67	5.21037
1035.04	2.49582
1038.41	1.3277
1041.79	1.77074
1045.16	0.679382
1048.54	0.824249
1051.91	0.512268
1055.29	1.1151
1058.66	4.29561
1062.04	9.28923
1065.41	13.055
1068.79	26.2796
1072.16	56.4228
1075.54	96.0237
1078.91	143.57
1082.29	204.796
1085.66	246.591
1089.04	245.791
1092.41	207.299
1095.79	165.534
1099.16	127.479
1102.54	97.7375
1105.91	72.4879
1109.29	46.2804
1112.66	28.456
1116.04	20.0482
1119.41	12.4022
1122.79	5.1571
1126.16	2.45032
1129.54	2.1161
1132.91	0.456467
1136.29	9.53725
1139.66	7.79881
1143.04	2.30977
1146.41	0.212265
1149.78	2.10086
1153.16	0.666641
1156.53	2.08261
1159.91	1.18477
1163.28	6.24924
1166.66	0.046707
1170.03	0.164825
1173.41	1.30479
1176.78	1.70172
1180.16	3.59361
1183.53	4.57993
1186.91	5.93527
1190.28	7.73845
1193.66	9.10632
1197.03	8.7084
1200.41	10.0471
1203.78	11.0831
1207.16	11.0446
1210.53	11.8218
1213.91	11.1265
1217.28	11.9872
1220.65	11.7814
1224.03	11.0777
1227.4	10.5597
1230.78	9.46921
1234.15	9.34782
1237.53	7.07774
1240.9	7.24889
1244.28	7.826
1247.65	7.7587
1251.03	5.70131
1254.4	6.23583
1257.78	5.03807
1261.15	3.32194
1264.53	2.42959
1267.9	3.81087
1271.28	2.23454
1274.65	0.698128
1278.03	0.554878
1281.4	1.73348
1284.78	2.17593
