Measurement: Raman, 532 nm, unoriented, Raman Data Processed
Mineral: Whitlockite
Rruff sample: R080052
Ideal chemistry: Ca_9_Mg(PO_4_)_6_(PO_3_OH)
Locality: Palermo #1 Quarry, Groton, Grafton County, New Hampshire USA
Source: Mineralogical Museum, Harvard University
Description: Colorless granular massive, and as rhombohedra in cavities, associated with white rice-shaped fluorapatite, and colorless quartz. Type sample.
Measured chemistry: (Ca_8.81_Na_0.18_Sr_0.01_)_Σ=9.00_(Mg_0.62_Fe^3+^_0.34_Mn_0.02_Al_0.02_)_Σ=1.00_(P_1.00_O_4_)_6_(P_1.02_O_3_OH)
Raman shift (cm-1)	intensity
93.7461	0
97.1209	10.6729
100.496	1.68389
103.871	10.6514
107.245	32.1067
110.62	47.5769
113.995	90.4222
117.37	161.665
120.745	216.235
124.119	260.251
127.494	300.144
130.869	387.098
134.244	465.233
137.619	478.835
140.994	444.229
144.368	416.736
147.743	399.139
151.118	369.027
154.493	332.6
157.868	299.116
161.242	260.411
164.617	227.32
167.992	196.74
171.367	184.17
174.742	178.086
178.117	159.914
181.491	109.834
184.866	67.3881
188.241	44.6105
191.616	24.4226
194.991	13.7501
198.365	3.02631
201.74	2.62811
205.115	5.35474
208.49	1.7363
211.865	1.42841
215.239	6.32935
218.614	12.6216
221.989	17.6699
225.364	22.9859
228.739	22.0498
232.114	20.7199
235.488	21.8848
238.863	31.249
242.238	38.9869
245.613	47.4127
248.988	50.9571
252.362	57.8419
255.737	63.497
259.112	75.1476
262.487	91.9437
265.862	99.9476
269.236	110.598
272.611	128.393
275.986	154.367
279.361	200.273
282.736	245.788
286.111	264.158
289.485	246.84
292.86	210.457
296.235	173.555
299.61	136.953
302.985	99.6754
306.36	69.5383
309.734	47.1844
313.109	27.525
316.484	13.5892
319.859	5.85593
323.234	1.74585
326.608	8.11102
329.983	5.00934
333.358	5.61188
336.733	4.54968
340.108	4.20935
343.483	5.41824
346.857	0.560059
350.232	0.589386
353.607	0.784302
356.982	7.08646
360.357	6.0607
363.731	21.9202
367.106	31.793
370.481	45.6976
373.856	68.6704
377.231	93.4714
380.606	130.654
383.98	186.002
387.355	269.833
390.73	389.324
394.105	534.327
397.48	710.239
400.854	930.545
404.229	1118.43
407.604	1151.73
410.979	992.101
414.354	804.356
417.728	666.439
421.103	564.002
424.478	498.172
427.853	488.303
431.228	505.742
434.603	520.931
437.977	513.881
441.352	505.013
444.727	495.643
448.102	460.73
451.477	390.093
454.851	321.488
458.226	268.367
461.601	225.065
464.976	183.672
468.351	152.487
471.726	134.353
475.1	121.647
478.475	119.313
481.85	124.228
485.225	111.163
488.6	74.5363
491.974	43.9262
495.349	18.1204
498.724	3.36761
502.099	4.90326
505.474	8.05664
508.849	8.51923
512.223	7.09302
515.598	6.33545
518.973	4.2872
522.348	3.12878
525.722	6.7872
529.097	25.7655
532.472	44.7116
535.847	84.6074
539.222	133.644
542.597	197.241
545.971	255.54
549.346	297.26
552.721	325.601
556.096	300.609
559.471	276.217
562.846	246.38
566.22	191.312
569.595	140.446
572.97	90.3178
576.345	62.484
579.72	61.2017
583.094	92.3195
586.469	153.845
589.844	234.487
593.219	270.638
596.594	254.543
599.968	256.762
603.343	303.74
606.718	316.357
610.093	312.027
613.468	348.807
616.843	398.236
620.217	458.717
623.592	478.435
626.967	488.702
630.342	460.099
633.717	376.311
637.091	206.508
640.466	85.5908
643.841	39.2647
647.216	17.773
650.591	8.82221
653.966	1.58838
657.34	0.603821
660.715	1.57007
664.09	2.09271
667.465	2.64123
670.84	3.75507
674.215	1.00037
677.589	1.87488
680.964	0.966675
684.339	2.12347
687.714	1.61377
691.089	6.3006
694.463	6.76019
697.838	6.53137
701.213	8.83771
704.588	8.52045
707.963	9.35309
711.337	7.75049
714.712	10.5147
718.087	12.4981
721.462	8.65387
724.837	10.5797
728.212	6.79968
731.586	8.93463
734.961	3.71918
738.336	5.71783
741.711	7.95245
745.086	6.08533
748.46	4.9325
751.835	5.45447
755.21	8.49194
758.585	1.05707
761.96	2.68817
765.335	2.99536
768.709	5.05286
772.084	5.77051
775.459	7.97412
778.834	6.75012
782.209	11.1352
785.583	9.05231
788.958	9.34479
792.333	11.6752
795.708	9.7674
799.083	7.92432
802.457	9.73401
805.832	13.3751
809.207	14.3833
812.582	15.1163
815.957	10.0349
819.332	15.1976
822.706	20.8665
826.081	25.5433
829.456	25.0363
832.831	26.5291
836.206	22.2145
839.58	23.4658
842.955	21.2124
846.33	18.6336
849.705	16.0587
853.08	16.1332
856.455	16.4917
859.829	9.57373
863.204	10.6074
866.579	8.33795
869.954	4.88623
873.329	3.68494
876.703	4.3858
880.078	5.90558
883.453	5.2536
886.828	6.26276
890.203	1.13818
893.577	0.668152
896.952	1.99982
900.327	7.86359
903.702	21.3079
907.077	59.6097
910.452	130.602
913.826	262.398
917.201	459.683
920.576	718.071
923.951	836.841
927.326	628.367
930.701	287.264
934.075	113.147
937.45	85.9282
940.825	128.024
944.2	254.482
947.575	550.165
950.949	1109.75
954.324	2257.42
957.699	4362.55
961.074	6903.82
964.449	8851.55
967.823	10229
971.198	8026.14
974.573	4196.55
977.948	1744.12
981.323	878.065
984.697	666.736
988.072	644.66
991.447	612.627
994.822	516.731
998.197	342.137
1001.57	167.547
1004.95	49.3288
1008.32	4.60492
1011.7	2.00861
1015.07	21.0948
1018.45	21.6325
1021.82	15.7628
1025.19	25.5123
1028.57	24.476
1031.94	24.9388
1035.32	12.387
1038.69	5.69421
1042.07	3.43628
1045.44	1.34137
1048.82	0.011658
1052.19	6.60742
1055.57	2.38654
1058.94	19.0723
1062.32	19.7667
1065.69	24.8375
1069.07	38.0194
1072.44	83.506
1075.82	159.507
1079.19	267.375
1082.57	399.159
1085.94	532.793
1089.32	576.978
1092.69	497.759
1096.07	396.803
1099.44	308.664
1102.82	234.472
1106.19	171.767
1109.57	125.451
1112.94	83.5264
1116.32	57.9671
1119.69	37.3945
1123.07	20.7162
1126.44	13.6531
1129.82	9.14551
1133.19	6.28113
1136.56	0.174316
1139.94	1.52295
1143.31	0.79187
1146.69	4.31024
1150.06	3.53223
1153.44	3.24512
1156.81	3.33508
1160.19	1.43549
1163.56	0.339539
1166.94	1.45404
1170.31	0.120667
1173.69	0.840454
1177.06	7.44403
1180.44	11.8272
1183.81	10.8313
1187.19	17.6267
1190.56	21.6763
1193.94	24.337
1197.31	24.1956
1200.69	24.6186
1204.06	24.673
1207.43	34.85
1210.81	33.3761
1214.18	27.2278
1217.56	32.0434
1220.93	33.2585
1224.31	31.3552
1227.68	27.1324
1231.06	18.3772
1234.43	22.9988
1237.81	18.1921
1241.18	17.4273
1244.56	17.7073
1247.93	17.9559
1251.31	16.7879
1254.68	18.1611
1258.06	13.7341
1261.43	13.0722
1264.81	15.064
1268.18	12.1869
1271.56	9.57233
1274.93	6.34625
1278.31	2.40082
1281.68	7.50909
1285.06	3.25128
1288.43	4.30182
1291.81	3.91986
1295.18	1.07873
1298.56	2.25159
1301.93	1.38745
1305.31	0
