Measurement: Raman, 780 nm, unoriented, Raman Data RAW
Mineral: Wilancookite
Rruff sample: R100091
Ideal chemistry: Ba_8_(Ba_3_Li_2_[box])Be_24_P_24_O_96_32H_2_O
Locality: Lavra Ponte do Piau√≠ complex granitic pegmatite, Itinga, Jequitinhonha, Minas Gerais, Brazil
Source: Luiz Menezes
Description: Colorless dodecahedra on mica, type sample
Raman shift (cm-1)	intensity
91.5332	3737.31
94.908	3777.93
98.2828	3555.28
101.658	3339.38
105.032	3282.35
108.407	3221.03
111.782	3163.46
115.157	3113.19
118.532	3053.27
121.907	3010.36
125.281	2962.3
128.656	2928.72
132.031	2885.54
135.406	2830.59
138.781	2782.81
142.155	2737.03
145.53	2711.26
148.905	2687.62
152.28	2658.75
155.655	2643.02
159.03	2619.5
162.404	2589.68
165.779	2540.42
169.154	2487.85
172.529	2446.96
175.904	2425.49
179.278	2400.34
182.653	2381.42
186.028	2371.25
189.403	2363.78
192.778	2351.05
196.153	2337.77
199.527	2330.79
202.902	2321.14
206.277	2317.63
209.652	2302.78
213.027	2296.92
216.401	2279.82
219.776	2271.25
223.151	2264.98
226.526	2261.85
229.901	2253.62
233.275	2235.7
236.65	2216.79
240.025	2204.52
243.4	2201.82
246.775	2184.99
250.15	2182.78
253.524	2180.87
256.899	2182.5
260.274	2189.83
263.649	2192.92
267.024	2182.06
270.399	2190.66
273.773	2203.9
277.148	2209.84
280.523	2218.33
283.898	2226.24
287.273	2243.03
290.647	2257.54
294.022	2242.73
297.397	2214.36
300.772	2181.98
304.147	2173.15
307.522	2164.25
310.896	2170.24
314.271	2188.1
317.646	2199.67
321.021	2203.55
324.396	2221.23
327.77	2230.38
331.145	2199.93
334.52	2151.51
337.895	2118.84
341.27	2090.13
344.644	2076.14
348.019	2074.11
351.394	2068.74
354.769	2080.94
358.144	2075.25
361.519	2065.96
364.893	2041.28
368.268	2040.27
371.643	2040.45
375.018	2029.86
378.393	2036.79
381.767	2049.64
385.142	2059.32
388.517	2069.2
391.892	2091.83
395.267	2109.01
398.642	2105.57
402.016	2103.7
405.391	2067.71
408.766	2035.53
412.141	2003.83
415.516	1993.33
418.89	1975.8
422.265	1977.05
425.64	1979.39
429.015	1989.27
432.39	2015.26
435.765	2026.31
439.139	2053.17
442.514	2064.68
445.889	2047.74
449.264	2018.3
452.639	1997.66
456.014	1977.13
459.388	1977.26
462.763	1965.48
466.138	1957.3
469.513	1944.87
472.887	1934.43
476.262	1919.84
479.637	1902.85
483.012	1893.36
486.387	1878.07
489.762	1865.99
493.136	1867.34
496.511	1875.66
499.886	1869.09
503.261	1866.16
506.636	1879.26
510.01	1883.55
513.385	1885.89
516.76	1873.4
520.135	1864.97
523.51	1879.91
526.885	1892.52
530.259	1915.52
533.634	1950.15
537.009	1976.16
540.384	2002.18
543.759	2023.68
547.134	2046.08
550.508	2047.38
553.883	2026.64
557.258	1999.11
560.633	2002.4
564.008	2024.98
567.382	2055.75
570.757	2089.37
574.132	2114.75
577.507	2134.92
580.882	2054.35
584.256	1911.11
587.631	1810.25
591.006	1745.46
594.381	1711.52
597.756	1693.36
601.131	1677.62
604.505	1663.95
607.88	1658.04
611.255	1648
614.63	1635.16
618.005	1626.42
621.38	1620.67
624.754	1616.76
628.129	1613.55
631.504	1598.25
634.879	1592.34
638.254	1585.27
641.628	1576.88
645.003	1572.62
648.378	1557.11
651.753	1547.36
655.128	1534.78
658.503	1529.46
661.877	1521.29
665.252	1510.12
668.627	1508.96
672.002	1507.79
675.377	1507.43
678.751	1497.37
682.126	1499.61
685.501	1492.82
688.876	1484.02
692.251	1480.67
695.625	1475.48
699	1466.46
702.375	1461.74
705.75	1450.81
709.125	1449.16
712.5	1438.69
715.874	1438.49
719.249	1426.87
722.624	1421.73
725.999	1416.87
729.374	1406.65
732.749	1411.11
736.123	1408.75
739.498	1402.54
742.873	1412.79
746.248	1403.77
749.623	1404.03
752.997	1395.48
756.372	1391.81
759.747	1389.52
763.122	1385.11
766.497	1380.37
769.871	1373.24
773.246	1376.15
776.621	1362.99
779.996	1362.4
783.371	1357.66
786.745	1348.67
790.12	1339.52
793.495	1323.61
796.87	1323.64
800.245	1313.33
803.62	1302.73
806.994	1303.37
810.369	1300.46
813.744	1289.48
817.119	1289.67
820.494	1282.44
823.869	1277.13
827.243	1272.83
830.618	1261.72
833.993	1253.47
837.368	1251.52
840.743	1248.55
844.117	1245.58
847.492	1246.49
850.867	1239.78
854.242	1233.97
857.617	1232.67
860.991	1228.13
864.366	1218.93
867.741	1209.88
871.116	1209.81
874.491	1206.56
877.866	1197.36
881.24	1190.66
884.615	1192.53
887.99	1186.77
891.365	1174.43
894.74	1171.18
898.115	1166.37
901.489	1165.72
904.864	1156.87
908.239	1147.04
911.614	1146.7
914.989	1144.73
918.363	1140.91
921.738	1135.71
925.113	1133.28
928.488	1126.64
931.863	1117.25
935.237	1115.23
938.612	1106.1
941.987	1111.76
945.362	1107.63
948.737	1101.53
952.112	1102.06
955.486	1100.01
958.861	1098.7
962.236	1094.28
965.611	1089.15
968.986	1100.6
972.361	1108.41
975.735	1111.28
979.11	1117.39
982.485	1132.62
985.86	1151.14
989.235	1183.76
992.609	1236.21
995.984	1324.43
999.359	1424.3
1002.73	1544.64
1006.11	1656.41
1009.48	1659.88
1012.86	1531.22
1016.23	1391.41
1019.61	1287.93
1022.98	1234.31
1026.36	1204.44
1029.73	1191.37
1033.11	1192.12
1036.48	1204.34
1039.86	1234.59
1043.23	1277.76
1046.61	1322.34
1049.98	1353.77
1053.36	1342.52
1056.73	1290.64
1060.11	1219.59
1063.48	1158.8
1066.86	1127.51
1070.23	1087.12
1073.61	1063.27
1076.98	1046.83
1080.36	1035.04
1083.73	1012.44
1087.1	1004.49
1090.48	998.62
1093.85	986.063
1097.23	975.649
1100.6	969.01
1103.98	965.308
1107.35	959.761
1110.73	957.107
1114.1	955.113
1117.48	951.575
1120.85	957.336
1124.23	962.742
1127.6	959.626
1130.98	968.037
1134.35	966.148
1137.73	973.32
1141.1	974.954
1144.48	978.086
1147.85	983.566
1151.23	983.412
1154.6	983.587
1157.97	973.136
1161.35	969.625
1164.72	963.152
1168.1	958.713
1171.47	950.827
1174.85	949.974
1178.22	950.422
1181.6	941.285
1184.97	930.834
1188.35	923.271
1191.72	917.936
1195.1	921.547
1198.47	913.829
1201.85	913.505
1205.22	909.514
1208.6	903.828
1211.97	902.366
1215.35	902.153
1218.72	900.865
1222.1	896.117
1225.47	896.694
1228.85	894.024
1232.22	895.198
1235.6	890.467
1238.97	884.225
1242.35	883.996
1245.72	883.011
1249.1	882.816
1252.47	878.467
1255.85	875.335
1259.22	881.973
1262.6	884.419
1265.97	877.832
1269.34	882.42
1272.72	883.034
1276.09	884.013
1279.47	886.158
1282.84	888.523
