Measurement: Raman, 532 nm, unoriented, Raman Data RAW
Mineral: Wilancookite
Rruff sample: R100091
Ideal chemistry: Ba_8_(Ba_3_Li_2_[box])Be_24_P_24_O_96_32H_2_O
Locality: Lavra Ponte do Piau√≠ complex granitic pegmatite, Itinga, Jequitinhonha, Minas Gerais, Brazil
Source: Luiz Menezes
Description: Colorless dodecahedra on mica, type sample
Raman shift (cm-1)	intensity
90.4922	77.9353
93.867	77.5301
97.2418	78.157
100.617	73.876
103.992	74.3157
107.366	73.1851
110.741	74.0058
114.116	75.1475
117.491	71.3638
120.865	74.5289
124.24	75.141
127.615	85.9716
130.99	135.21
134.365	192.533
137.74	357.752
141.114	678.587
144.489	1042.83
147.864	1320.23
151.239	1756.12
154.614	2310.17
157.988	2670.24
161.363	2903.73
164.738	3174.55
168.113	3322.51
171.488	3479.32
174.863	3542.62
178.237	3566.66
181.612	3601.36
184.987	3648.03
188.362	3685.8
191.737	3712.32
195.112	3724.26
198.486	3732.8
201.861	3753.91
205.236	3778.99
208.611	3786.84
211.986	3792.63
215.36	3806.06
218.735	3808.1
222.11	3797.04
225.485	3807.49
228.86	3817.24
232.234	3812.54
235.609	3800.91
238.984	3767.34
242.359	3776.54
245.734	3761.49
249.109	3773.48
252.483	3789.2
255.858	3804.99
259.233	3816.1
262.608	3818.32
265.983	3834.86
269.358	3862.24
272.732	3854.63
276.107	3869.15
279.482	3890.14
282.857	3923.09
286.232	3961.95
289.606	3999.7
292.981	4019.24
296.356	4001.56
299.731	3984.93
303.106	3985.26
306.481	3988.84
309.855	4031.6
313.23	4051.8
316.605	4090.98
319.98	4102.07
323.355	4151.01
326.729	4170.86
330.104	4153.21
333.479	4117.41
336.854	4098.2
340.229	4080.39
343.603	4083.9
346.978	4078.19
350.353	4091.57
353.728	4110.72
357.103	4137.36
360.478	4136.71
363.852	4126.44
367.227	4135.74
370.602	4128.87
373.977	4141.6
377.352	4158.38
380.726	4170.58
384.101	4210.22
387.476	4242.35
390.851	4278.99
394.226	4293.52
397.601	4328.45
400.975	4344.13
404.35	4338.16
407.725	4302.51
411.1	4273.97
414.475	4269.59
417.849	4268.46
421.224	4262.56
424.599	4279.19
427.974	4296.38
431.349	4338.86
434.724	4381.96
438.098	4434.29
441.473	4461.91
444.848	4462.95
448.223	4425.45
451.598	4405.81
454.972	4379.92
458.347	4379.19
461.722	4380.77
465.097	4408.49
468.472	4417.56
471.846	4390.63
475.221	4372.38
478.596	4357.92
481.971	4360.76
485.346	4359.02
488.721	4349.69
492.095	4353.94
495.47	4357.36
498.845	4378.63
502.22	4393.67
505.595	4418.11
508.969	4420.07
512.344	4423.79
515.719	4429.78
519.094	4429.15
522.469	4458.48
525.844	4496.2
529.218	4523.77
532.593	4577.57
535.968	4631.24
539.343	4692.36
542.718	4738.37
546.092	4787.3
549.467	4819.96
552.842	4812.84
556.217	4804.22
559.592	4844.26
562.967	4902.49
566.341	4982.84
569.716	5049.96
573.091	5093.17
576.466	5120.52
579.841	5048.19
583.216	4867.35
586.59	4690.06
589.965	4585.77
593.34	4524.01
596.715	4501.59
600.09	4491.26
603.464	4482.07
606.839	4483.37
610.214	4494.98
613.589	4486.79
616.964	4468.58
620.338	4454.57
623.713	4459.65
627.088	4447.96
630.463	4474.63
633.838	4458.42
637.212	4466.44
640.587	4449.11
643.962	4449.71
647.337	4468.23
650.712	4484.54
654.087	4484.56
657.461	4479.1
660.836	4497.08
664.211	4485.2
667.586	4489.27
670.961	4503
674.335	4508.23
677.71	4514.68
681.085	4518.98
684.46	4519.61
687.835	4508.83
691.21	4511.79
694.584	4527.66
697.959	4533.9
701.334	4540.32
704.709	4531.24
708.084	4533.98
711.458	4549.17
714.833	4543.61
718.208	4534.38
721.583	4525.53
724.958	4536.02
728.332	4544.83
731.707	4542.6
735.082	4544.62
738.457	4553.41
741.832	4545.86
745.207	4555.99
748.581	4568.15
751.956	4564.74
755.331	4565.94
758.706	4571.85
762.081	4559.59
765.456	4575.61
768.83	4567.61
772.205	4573.85
775.58	4580.46
778.955	4567.99
782.33	4567.28
785.704	4570.37
789.079	4575.54
792.454	4566.95
795.829	4565.38
799.204	4558.28
802.578	4555.16
805.953	4557.3
809.328	4554.39
812.703	4537.49
816.078	4547.86
819.453	4562.05
822.827	4554.78
826.202	4546.68
829.577	4551.71
832.952	4553.12
836.327	4559.9
839.702	4542.12
843.076	4556.33
846.451	4561.17
849.826	4561.39
853.201	4556.25
856.576	4562.87
859.95	4559.6
863.325	4570.96
866.7	4562.94
870.075	4561.84
873.45	4581.17
876.824	4586.43
880.199	4585.78
883.574	4573.49
886.949	4577.77
890.324	4595.29
893.698	4600.4
897.073	4611.28
900.448	4618.74
903.823	4611.73
907.198	4618.92
910.573	4619.15
913.947	4623.85
917.322	4639.1
920.697	4628.64
924.072	4640.31
927.447	4647.07
930.822	4646.87
934.196	4645.01
937.571	4652.41
940.946	4664.4
944.321	4668.03
947.696	4685.16
951.07	4690.97
954.445	4689.69
957.82	4721.54
961.195	4720.23
964.57	4723.73
967.944	4726.87
971.319	4750.16
974.694	4781.04
978.069	4819.63
981.444	4861.95
984.819	4906.6
988.193	4975.5
991.568	5083.34
994.943	5219.82
998.318	5454.91
1001.69	5760.01
1005.07	6051.97
1008.44	6179.58
1011.82	5982.36
1015.19	5663.38
1018.57	5419.95
1021.94	5288.93
1025.32	5202.19
1028.69	5190
1032.07	5193.5
1035.44	5220.61
1038.82	5280.11
1042.19	5369.3
1045.57	5470.42
1048.94	5587.52
1052.32	5621.35
1055.69	5525.7
1059.07	5389.93
1062.44	5259.65
1065.81	5136.23
1069.19	5074.95
1072.56	5044.8
1075.94	5012.7
1079.31	5008.21
1082.69	4986.3
1086.06	4963.5
1089.44	4951.23
1092.81	4946.81
1096.19	4939.48
1099.56	4927.9
1102.94	4930.23
1106.31	4932.19
1109.69	4947.08
1113.06	4942.47
1116.44	4949.61
1119.81	4959.72
1123.19	4987.36
1126.56	4970.26
1129.94	4999.22
1133.31	5017.54
1136.68	5030.48
1140.06	5046.83
1143.43	5057.07
1146.81	5063.18
1150.18	5086.44
1153.56	5101.51
1156.93	5101.44
1160.31	5087.21
1163.68	5080.75
1167.06	5088.63
1170.43	5076.17
1173.81	5085.68
1177.18	5095.98
1180.56	5079.48
1183.93	5089.79
1187.31	5070.95
1190.68	5055.69
1194.06	5071.83
1197.43	5094.18
1200.81	5086.02
1204.18	5087.58
1207.56	5086.99
1210.93	5104.03
1214.31	5108.06
1217.68	5115.72
1221.06	5118.9
1224.43	5128.53
1227.81	5134.09
1231.18	5152.72
1234.56	5140.18
1237.93	5142.2
1241.31	5152.31
1244.68	5151.93
1248.05	5185.92
1251.43	5206.86
1254.8	5206.91
1258.18	5214.63
1261.55	5212.58
1264.93	5218.97
1268.3	5239.38
1271.68	5247.6
1275.05	5250.77
1278.43	5245.3
1281.8	5258.96
1285.18	5268.2
1288.55	5268.62
1291.93	5285.37
1295.3	5313.02
1298.68	5334.54
1302.05	5348.61
