Measurement: Raman, 532 nm, unoriented, Raman Data RAW
Mineral: Willemite
Rruff sample: R060875
Ideal chemistry: Zn^2+^_2_SiO_4_
Locality: Franklin, Sussex County, New Jersey, USA
Source: Marcus Origlieri
Description: Yellowish brown massive
Measured chemistry: (Zn_1.76_Mn_0.23_Mg_0.01_)_Î£=2_Si_1.00_O_4_
Raman shift (cm-1)	intensity
171.181	204914
174.074	206107
176.966	207351
179.859	209327
182.752	210233
185.644	211124
188.537	211833
191.43	211995
194.323	211024
197.215	210842
200.108	210792
203.001	210573
205.893	211710
208.786	211483
211.679	210389
214.571	210448
217.464	210539
220.357	210769
223.25	209825
226.142	209171
229.035	209129
231.928	208730
234.82	207903
237.713	207199
240.606	206708
243.498	206421
246.391	206644
249.284	205945
252.177	204534
255.069	203029
257.962	202043
260.855	201921
263.747	202163
266.64	201153
269.533	200007
272.425	198817
275.318	198150
278.211	197528
281.103	197164
283.996	196073
286.889	194763
289.782	194207
292.674	192751
295.567	191615
298.46	190326
301.352	190444
304.245	190625
307.138	190731
310.031	189751
312.923	188547
315.816	187400
318.709	186442
321.601	185585
324.494	185648
327.387	185362
330.279	184849
333.172	184189
336.065	184076
338.957	183397
341.85	182945
344.743	181992
347.635	181848
350.528	182350
353.421	182120
356.314	181480
359.206	180965
362.099	180220
364.992	180545
367.884	179996
370.777	179910
373.67	180013
376.562	180403
379.455	179888
382.348	179670
385.241	179797
388.133	180509
391.026	180475
393.919	180140
396.811	179858
399.704	179677
402.597	179941
405.49	179770
408.382	179712
411.275	180289
414.168	180381
417.06	180970
419.953	180560
422.846	180198
425.738	179899
428.631	179876
431.524	179941
434.416	179762
437.309	180092
440.202	180226
443.094	180326
445.987	180212
448.88	179956
451.773	179671
454.665	179484
457.558	179170
460.451	178761
463.343	178917
466.236	178594
469.129	178616
472.022	178874
474.914	178188
477.807	177088
480.7	176629
483.592	177008
486.485	177406
489.378	176614
492.27	175728
495.163	174692
498.056	173876
500.949	173680
503.841	172882
506.734	172737
509.627	172248
512.519	171685
515.412	171087
518.305	170763
521.197	170446
524.09	169634
526.983	169218
529.875	168016
532.768	167249
535.661	165933
538.554	165265
541.446	164708
544.339	164151
547.232	163766
550.124	162636
553.017	161493
555.91	160155
558.802	159350
561.695	158976
564.588	158015
567.481	157662
570.373	156740
573.266	155857
576.159	155048
579.051	153457
581.944	152810
584.837	152372
587.729	151571
590.622	150696
593.515	150086
596.408	149058
599.3	148291
602.193	147568
605.086	147281
607.978	146922
610.871	146660
613.764	145858
616.656	145375
619.549	145010
622.442	144934
625.335	144424
628.227	143652
631.12	142965
634.013	141825
636.905	141652
639.798	140908
642.691	140237
645.583	140094
648.476	140207
651.369	140404
654.261	139886
657.154	139699
660.047	138744
662.94	137945
665.832	137677
668.725	138055
671.618	137533
674.51	137060
677.403	136269
680.296	136344
683.188	136448
686.081	136458
688.974	136429
691.866	136414
694.759	136368
697.652	135990
700.545	135632
703.437	135456
706.33	135248
709.223	135590
712.115	135252
715.008	135331
717.901	135487
720.793	135408
723.686	135471
726.579	135360
729.472	135215
732.364	135183
735.257	134927
738.15	134856
741.042	134795
743.935	135322
746.828	135664
749.721	135792
752.613	134963
755.506	134959
758.399	134831
761.291	134264
764.184	133744
767.077	133683
769.969	134342
772.862	134232
775.755	133599
778.648	133335
781.54	133133
784.433	132885
787.326	132465
790.218	132500
793.111	132506
796.004	132238
798.896	131908
801.789	131061
804.682	130812
807.574	130444
810.467	129897
813.36	129531
816.253	128754
819.145	128202
822.038	127359
824.931	126946
827.823	126394
830.716	125872
833.609	124492
836.501	123959
839.394	122911
842.287	122230
845.179	121250
848.072	120260
850.965	119353
853.857	118278
856.75	117712
859.643	117378
862.536	117010
865.428	116531
868.321	115577
871.214	115093
874.106	114550
876.999	113742
879.892	112644
882.784	111706
885.677	110892
888.57	110413
891.463	110138
894.355	110033
897.248	109385
900.141	108106
903.033	107413
905.926	106394
908.819	106104
911.712	105244
914.604	104530
917.497	103873
920.39	103221
923.282	102909
926.175	103007
929.068	102551
931.96	101890
934.853	101204
937.746	100789
940.639	100270
943.531	99629.3
946.424	99262.3
949.317	98725.4
952.209	98324.2
955.102	98251.5
957.995	97729.4
960.887	97455.7
963.78	97150
966.673	96889.2
969.566	96447.3
972.458	96255.4
975.351	96194.1
978.244	96060.3
981.136	95917.3
984.029	95673.2
986.922	95224.5
989.814	95203.8
992.707	94937.4
995.6	94846.1
998.492	94831.4
1001.38	94847.8
1004.28	94638.3
1007.17	94714.6
1010.06	94415.9
1012.96	94407
1015.85	94177.9
1018.74	94388.9
1021.63	94000.9
1024.53	94186.4
1027.42	94478.9
1030.31	94365.5
1033.2	94072.8
1036.1	94176.6
1038.99	94357.6
1041.88	94237.2
1044.78	93646.3
1047.67	93567.9
1050.56	93593.5
1053.45	93733.6
1056.35	93933.3
1059.24	93812.4
1062.13	93381.9
1065.03	92935.7
1067.92	92670.7
1070.81	92716.9
1073.7	92815.6
1076.6	92659.8
1079.49	92083.3
1082.38	92176.5
1085.27	91931.1
1088.17	91918.7
1091.06	91792.1
1093.95	91701.3
1096.84	91540.3
1099.74	91575
1102.63	91125.8
1105.52	91034.1
1108.41	90675.8
1111.31	90254.3
1114.2	89674
1117.09	89357.8
1119.99	88950.4
1122.88	88577.1
1125.77	88191.6
1128.66	88351.7
1131.56	88108.9
1134.45	87667.9
1137.34	87096.4
1140.23	86615.9
1143.13	86012.7
1146.02	85376
1148.91	84900.8
1151.81	84880.4
1154.7	84456.9
1157.59	83911.6
1160.48	83435
1163.38	82797.5
1166.27	82053.2
1169.16	81713
1172.05	81527.6
1174.95	81397.2
1177.84	80976.6
1180.73	80247.9
1183.62	80114.5
1186.52	79296.2
1189.41	78764.2
1192.3	77994.3
1195.2	77554.9
1198.09	77126.6
1200.98	76531.6
1203.87	76251.3
1206.77	75852.4
1209.66	75518.7
1212.55	75115.6
1215.44	74623.4
1218.34	73851.8
1221.23	73478
1224.12	72987.6
1227.02	73027.9
1229.91	72632.2
1232.8	72208.9
1235.69	72174.3
1238.59	71812.3
1241.48	71387.8
1244.37	71045.4
1247.26	70982.2
1250.16	70429
1253.05	70059.5
1255.94	69757.6
1258.84	69676.5
