Measurement: Raman, 785 nm, unoriented, Raman Data RAW
Mineral: Willemseite
Rruff sample: R061112
Ideal chemistry: Ni^2+^_3_Si_4_O_10_(OH)_2_
Locality: near Scotia Talc mine, Barberton Mountain, Transvaal, South Africa
Source: Michael Scott
Description: Green massive
Raman shift (cm-1)	intensity
195.074	105356
197.967	106631
200.859	107774
203.752	108474
206.645	108693
209.537	108822
212.43	109403
215.323	110104
218.215	110977
221.108	111787
224.001	112349
226.894	112121
229.786	112551
232.679	112847
235.572	113564
238.464	113794
241.357	114366
244.25	114618
247.143	114828
250.035	114798
252.928	114910
255.821	115444
258.713	115706
261.606	115840
264.499	116427
267.391	116266
270.284	116460
273.177	116424
276.07	116551
278.962	116643
281.855	117214
284.748	117270
287.64	117493
290.533	117248
293.426	117154
296.318	116937
299.211	117014
302.104	117291
304.997	117800
307.889	117845
310.782	117750
313.675	117318
316.567	117168
319.46	117080
322.353	117195
325.245	117391
328.138	117572
331.031	117523
333.923	117357
336.816	117098
339.709	116722
342.602	116500
345.494	116458
348.387	116735
351.28	116767
354.172	116768
357.065	116555
359.958	116482
362.851	115948
365.743	115945
368.636	115817
371.529	116070
374.421	116266
377.314	116028
380.207	115505
383.099	115046
385.992	114570
388.885	114564
391.777	114485
394.67	114624
397.563	114667
400.456	114244
403.348	113840
406.241	113702
409.134	113186
412.026	113307
414.919	113167
417.812	113003
420.704	112740
423.597	112657
426.49	112037
429.383	111742
432.275	111413
435.168	111652
438.061	111210
440.953	110944
443.846	110808
446.739	110584
449.632	110013
452.524	109954
455.417	109795
458.31	109252
461.202	109001
464.095	108918
466.988	108896
469.88	108656
472.773	108145
475.666	107836
478.558	107350
481.451	107021
484.344	106861
487.237	106529
490.129	106763
493.022	106253
495.915	105901
498.807	105330
501.7	104870
504.593	104796
507.486	104860
510.378	104346
513.271	104249
516.164	103774
519.056	103657
521.949	103038
524.842	102682
527.734	102626
530.627	102311
533.52	101884
536.413	101617
539.305	101463
542.198	101054
545.091	100589
547.983	100262
550.876	99953.4
553.769	99613.7
556.661	99562.2
559.554	99508.9
562.447	99280.7
565.34	98525.2
568.232	98189.8
571.125	97549.6
574.018	97614.8
576.91	97240.7
579.803	97011.8
582.696	97097.3
585.588	96662.3
588.481	96217.5
591.374	95865.9
594.266	95156.6
597.159	94951.3
600.052	95152.2
602.945	94520.6
605.837	94371.1
608.73	93686.3
611.623	93364
614.515	93232.5
617.408	92735.2
620.301	92550.3
623.193	92314.7
626.086	91917.7
628.979	91741.6
631.872	91427.9
634.764	91115.4
637.657	90711
640.55	90332.4
643.442	89906.4
646.335	89687.8
649.228	89416.9
652.12	89183.6
655.013	88624.8
657.906	88567.1
660.799	88038.6
663.691	87646.9
666.584	87413.4
669.477	87180.6
672.369	86701.4
675.262	86697.7
678.155	86343.4
681.048	85899.4
683.94	85508.5
686.833	85117.8
689.726	84598.3
692.618	84312.7
695.511	84405.4
698.404	84152.9
701.296	83572.8
704.189	83322.7
707.082	82831
709.975	82733.8
712.867	82287
715.76	81929.9
718.653	81614.6
721.545	81418.7
724.438	80907.2
727.331	80539.1
730.223	80206.7
733.116	79590
736.009	79361.3
738.902	79021.2
741.794	78944.2
744.687	78146.3
747.58	77931.1
750.472	77961
753.365	77510.6
756.258	76911.8
759.15	76528.2
762.043	76365.8
764.936	76095.9
767.828	75485.2
770.721	75410.6
773.614	75144.8
776.507	74626.3
779.399	74144
782.292	74048.8
785.185	73435.9
788.077	73450.4
790.97	73201.1
793.863	72628.3
796.755	72652.2
799.648	72037.1
802.541	71835.5
805.434	71287.7
808.326	71272.9
811.219	70816.1
814.112	70578.6
817.004	70279.5
819.897	69789.8
822.79	69715.3
825.683	69518.3
828.575	69203.2
831.468	68638.4
834.361	68149.6
837.253	68213.7
840.146	67889.4
843.039	67711.1
845.931	67448.2
848.824	66882.7
851.717	66504.4
854.61	66436.7
857.502	66231.9
860.395	66016.5
863.288	65492.7
866.18	65426.9
869.073	65032
871.966	64861.8
874.858	64514.1
877.751	64353.7
880.644	64145
883.537	63789.5
886.429	63474.4
889.322	63090
892.215	63022.6
895.107	62793.4
898	62518.8
900.893	62227.3
903.785	61820.1
906.678	61678.7
909.571	61254.6
912.463	61041.1
915.356	60931.8
918.249	60768.9
921.142	60491.8
924.034	60084.6
926.927	59946.1
929.82	59636.5
932.712	59282.6
935.605	59239.2
938.498	59014.3
941.39	58745.5
944.283	58483.8
947.176	58355.9
950.069	58083.8
952.961	57762.7
955.854	57504.8
958.747	57251.6
961.639	57004.5
964.532	56892.6
967.425	56798.8
970.317	56331.4
973.21	56080.6
976.103	55769.6
978.996	55796.8
981.888	55575.9
984.781	55360.7
987.674	55198
990.566	54865.8
993.459	54497.6
996.352	54428.1
999.245	54094.7
1002.14	53926.3
1005.03	53722.9
1007.92	53507.8
1010.82	53381.5
1013.71	53060.4
1016.6	52882.6
1019.49	52516.6
1022.39	52287.5
1025.28	52487.8
1028.17	52096.5
1031.06	51904
1033.96	51575.8
1036.85	51516.1
1039.74	51477.8
1042.63	50877.3
1045.53	50664.7
1048.42	50764.1
1051.31	50489.5
1054.21	50351.8
1057.1	50006.3
1059.99	49922
1062.88	49723.3
1065.78	49696.2
1068.67	49309.6
1071.56	49189.6
1074.45	48987.9
1077.35	48833.4
1080.24	48630.3
1083.13	48546.7
1086.03	48106.1
1088.92	47988
1091.81	47819.1
1094.7	47657.8
1097.6	47522.8
1100.49	47312.2
1103.38	47161.9
1106.27	47011.3
1109.17	46921.8
1112.06	46633.3
1114.95	46500.4
1117.85	46201.5
1120.74	46002.8
1123.63	45948.1
1126.52	45862.5
1129.42	45680.5
1132.31	45536
1135.2	45253.9
1138.09	45121.7
1140.99	44928.4
1143.88	44795.3
1146.77	44660.2
1149.66	44306
1152.56	44375.9
1155.45	44145.7
1158.34	44063.3
1161.24	43848.7
1164.13	43639.3
1167.02	43458.5
1169.91	43392.4
1172.81	43183.6
1175.7	43076.7
1178.59	42929.5
1181.48	42721.5
1184.38	42566
1187.27	42514.5
1190.16	42411.8
1193.06	42149.4
1195.95	42053.6
1198.84	41731.8
1201.73	41835
1204.63	41447.5
1207.52	41371.4
1210.41	41244.9
1213.3	41042.3
1216.2	40989.3
1219.09	40719.7
1221.98	40728.4
1224.88	40499.7
1227.77	40381.8
1230.66	40195.3
1233.55	39985.2
1236.45	39871.9
1239.34	39834.6
