Measurement: Raman, 780 nm, unoriented, Raman Data Processed
Mineral: Wolfeite
Rruff sample: R140864
Ideal chemistry: Fe^2+^_2_PO_4_(OH)
Locality: Hagendorf, Waidhaus, Vohenstrauß, Oberpfälzer Wald, Upper Palatinate, Bavaria, Germany
Source: Rock Currier
Description: Reddish brown, vitreous, bladed crystalline aggregates in parallel growth with dark brown triplite and bluish vivianite.
Raman shift (cm-1)	intensity
138.205	0
141.097	3.50617
143.99	2.43507
146.883	2.73065
149.775	10.9581
152.668	20.8372
155.561	23.9624
158.453	13.8005
161.346	10.5369
164.239	7.52982
167.132	3.87988
170.024	1.52637
172.917	1.12334
175.81	0.056625
178.702	1.56624
181.595	3.89409
184.488	3.00298
187.381	6.59003
190.273	8.56891
193.166	10.3778
196.059	10.8465
198.951	14.2344
201.844	15.1733
204.737	13.6182
207.629	10.3368
210.522	8.5551
213.415	8.96727
216.308	7.76682
219.2	7.1887
222.093	4.48428
224.986	2.82455
227.878	1.32298
230.771	1.57066
233.664	2.03185
236.556	2.73994
239.449	4.35137
242.342	4.19221
245.234	6.08827
248.127	5.27322
251.02	5.26472
253.913	4.60101
256.805	4.88009
259.698	4.11481
262.591	4.37909
265.483	3.61076
268.376	3.63842
271.269	3.06638
274.161	1.66422
277.054	3.87811
279.947	3.97189
282.84	4.77571
285.732	5.08617
288.625	6.1431
291.518	6.30365
294.41	5.54805
297.303	5.22122
300.196	4.05303
303.089	4.43748
305.981	4.29526
308.874	2.49891
311.767	2.83411
314.659	2.22878
317.552	2.14655
320.445	0.872589
323.337	1.06252
326.23	1.61003
329.123	0.398598
332.015	0.069595
334.908	0.322472
337.801	0.415138
340.694	0.014709
343.586	0.173584
346.479	0.376488
349.372	1.09144
352.264	1.08369
355.157	1.22236
358.05	0.693008
360.942	0.345917
363.835	0.244965
366.728	0.209846
369.621	0.099846
372.513	0.893967
375.406	0.715698
378.299	1.55846
381.191	2.39463
384.084	4.00819
386.977	4.4408
389.87	6.01933
392.762	8.02253
395.655	10.915
398.548	16.8707
401.44	21.4631
404.333	31.7032
407.226	42.4847
410.118	56.9288
413.011	68.9653
415.904	74.7969
418.796	76.623
421.689	71.7266
424.582	58.6649
427.475	43.2722
430.367	30.3117
433.26	22.2817
436.153	17.4488
439.045	15.3327
441.938	14.3436
444.831	15.2777
447.724	17.4069
450.616	17.9466
453.509	22.6594
456.402	24.706
459.294	27.8379
462.187	29.4413
465.08	25.0994
467.972	19.9675
470.865	15.3197
473.758	11.8711
476.651	9.07521
479.543	7.12986
482.436	5.94106
485.329	4.15086
488.221	3.9462
491.114	3.38803
494.007	2.70678
496.899	2.13515
499.792	1.09668
502.685	1.18218
505.577	0.663406
508.47	0.683849
511.363	0.278339
514.256	0.480618
517.148	0.169327
520.041	0.231579
522.934	0.03376
525.826	0.419949
528.719	0.48885
531.612	0.192879
534.505	0.168652
537.397	0.182404
540.29	0.865582
543.183	0.739929
546.075	2.45319
548.968	4.23111
551.861	6.41579
554.753	7.93918
557.646	10.1525
560.539	11.3301
563.432	12.3936
566.324	15.2635
569.217	17.0876
572.11	18.9078
575.002	18.8616
577.895	20.1566
580.788	20.943
583.681	22.4265
586.573	22.2942
589.466	23.0934
592.359	25.8479
595.251	28.4646
598.144	32.0059
601.037	34.7982
603.929	35.5771
606.822	34.1689
609.715	28.2571
612.607	21.287
615.5	14.3602
618.393	10.724
621.286	6.94256
624.178	4.66667
627.071	2.97243
629.964	1.42776
632.856	1.598
635.749	0.856312
638.642	0.846367
641.534	0.865112
644.427	0.580261
647.32	0.190285
650.213	0.465763
653.105	0.211826
655.998	0.3228
658.891	0.303673
661.783	0.645996
664.676	0.622803
667.569	0.542706
670.462	0.931892
673.354	0.398163
676.247	1.31718
679.14	1.29102
682.032	2.38306
684.925	2.14804
687.818	2.44468
690.71	2.87668
693.603	3.45319
696.496	4.20147
699.389	3.51179
702.281	3.59187
705.174	3.619
708.067	3.31872
710.959	3.33416
713.852	2.99326
716.745	2.4198
719.637	1.42279
722.53	1.41478
725.423	0.663689
728.316	0.868008
731.208	0.555187
734.101	1.19458
736.994	1.07479
739.886	1.52018
742.779	0.657742
745.672	0.822292
748.564	0.764359
751.457	0.73225
754.35	0.968292
757.242	0.715748
760.135	0.809395
763.028	1.08548
765.921	0.191425
768.813	0.177288
771.706	0.425224
774.599	0.18906
777.491	0.319256
780.384	0.460293
783.277	0.213604
786.169	0.166794
789.062	0.115421
791.955	0.507462
794.848	0.028584
797.74	0.304268
800.633	0.674557
803.526	0.796658
806.418	0.430187
809.311	0.381126
812.204	0.740852
815.096	0.831062
817.989	2.00911
820.882	0.710396
823.775	1.23044
826.667	1.08664
829.56	1.00771
832.453	1.06284
835.345	1.52618
838.238	1.44671
841.131	1.576
844.024	2.0707
846.916	2.23046
849.809	3.00753
852.702	3.02214
855.594	4.53155
858.487	4.17853
861.38	4.84843
864.272	5.18763
867.165	4.99149
870.058	4.94199
872.951	4.99586
875.843	4.28851
878.736	3.80505
881.629	3.60171
884.521	3.54475
887.414	2.4265
890.307	1.63435
893.199	1.55606
896.092	1.50499
898.985	0.798008
901.878	0.084709
904.77	0.013561
907.663	0.444088
910.556	0.535965
913.448	0.795357
916.341	0.640755
919.234	0.258049
922.126	0.784805
925.019	1.3686
927.912	3.98347
930.804	6.02655
933.697	9.77747
936.59	16.4197
939.483	27.429
942.375	41.7038
945.268	67.9402
948.161	105.055
951.053	158.69
953.946	218.894
956.839	272.662
959.731	272.898
962.624	239.165
965.517	233.028
968.41	284.953
971.302	361.272
974.195	335.438
977.088	199.741
979.98	99.3855
982.873	50.8783
985.766	27.3718
988.659	14.4868
991.551	8.00455
994.444	4.18432
997.337	2.48958
1000.23	0.865711
1003.12	0.696247
1006.01	1.29742
1008.91	2.25662
1011.8	5.27043
1014.69	7.37537
1017.59	7.4589
1020.48	6.62187
1023.37	5.31762
1026.26	3.73954
1029.16	2.2528
1032.05	2.49784
1034.94	1.53358
1037.83	1.64043
1040.73	1.56046
1043.62	2.54029
1046.51	2.48124
1049.4	3.27299
1052.3	6.01661
1055.19	8.97723
1058.08	12.2267
1060.98	11.7868
1063.87	8.63232
1066.76	3.40846
1069.65	1.30862
1072.55	0.562809
1075.44	0.267139
1078.33	1.35698
1081.22	2.57175
1084.12	4.69478
1087.01	7.26444
1089.9	7.40043
1092.8	7.08734
1095.69	4.73874
1098.58	3.02039
1101.47	2.0919
1104.37	1.76853
1107.26	1.67961
1110.15	1.38772
1113.05	0.632717
1115.94	0.033266
1118.83	0.40328
1121.72	0.039097
1124.62	0.498209
1127.51	0.444221
1130.4	0.051334
1133.29	0.120001
1136.19	0.720613
1139.08	0.544735
1141.97	0.969557
1144.86	1.43112
1147.76	1.76099
1150.65	1.89741
1153.54	1.9306
1156.43	2.61338
1159.33	3.23635
1162.22	2.43098
1165.11	2.77904
1168.01	2.95904
1170.9	3.23243
1173.79	2.87742
1176.68	3.03751
1179.58	2.73869
1182.47	2.86024
1185.36	2.65123
1188.26	1.97853
1191.15	1.71217
1194.04	2.0058
1196.93	1.81366
1199.83	1.34849
1202.72	1.70234
1205.61	1.83323
1208.5	1.22665
1211.4	1.77777
1214.29	1.88305
1217.18	2.0975
1220.08	1.75038
1222.97	1.27938
1225.86	0.881092
1228.75	1.56787
1231.64	0.905645
1234.54	1.12588
1237.43	1.32657
1240.32	1.14126
1243.22	0.633345
1246.11	0.578691
1249	0.609768
1251.89	0.473221
1254.79	0.648933
1257.68	0.359852
1260.57	0.546499
1263.46	0.506195
1266.36	0.538528
1269.25	0.265177
1272.14	0.386789
1275.04	0.528429
1277.93	0.6891
1280.82	0.005064
