Measurement: Raman, 532 nm, unoriented, Raman Data Processed
Mineral: Wolfeite
Rruff sample: R140864
Ideal chemistry: Fe^2+^_2_PO_4_(OH)
Locality: Hagendorf, Waidhaus, Vohenstrauß, Oberpfälzer Wald, Upper Palatinate, Bavaria, Germany
Source: Rock Currier
Description: Reddish brown, vitreous, bladed crystalline aggregates in parallel growth with dark brown triplite and bluish vivianite.
Raman shift (cm-1)	intensity
160.936	0
163.829	0.714188
166.722	0.116394
169.614	2.64999
172.507	3.72336
175.4	6.82523
178.293	9.06055
181.185	9.12259
184.078	9.49287
186.971	10.1803
189.863	9.54271
192.756	10.8735
195.649	15.828
198.542	21.4713
201.434	20.4041
204.327	16.6835
207.22	13.7809
210.112	12.0869
213.005	10.8557
215.898	8.79752
218.79	8.11923
221.683	4.93501
224.576	1.01753
227.469	1.01601
230.361	0.015518
233.254	0.237274
236.147	2.15932
239.039	3.40584
241.932	3.1554
244.825	3.6424
247.717	4.24666
250.61	5.76103
253.503	7.03732
256.396	9.5851
259.288	9.66324
262.181	10.7145
265.074	12.4647
267.966	13.6459
270.859	17.416
273.752	18.903
276.644	20.3046
279.537	21.3118
282.43	21.9614
285.322	23.796
288.215	22.9033
291.108	22.9293
294.001	18.3424
296.893	17.431
299.786	14.4464
302.679	12.5384
305.571	10.2045
308.464	9.36056
311.357	7.63286
314.25	6.27452
317.142	6.12685
320.035	4.05521
322.928	2.35976
325.82	2.30443
328.713	0.588867
331.606	0.579758
334.498	0.119446
337.391	0.161987
340.284	0.19632
343.176	0.416702
346.069	0.419373
348.962	1.41411
351.855	0.299561
354.747	1.17041
357.64	0.604851
360.533	1.38149
363.425	1.09357
366.318	0.054634
369.211	1.04378
372.103	2.36779
374.996	4.75425
377.889	6.07585
380.782	6.96712
383.674	8.73248
386.567	11.026
389.46	12.9407
392.352	16.2706
395.245	23.2684
398.138	32.9979
401.031	44.9258
403.923	62.1824
406.816	78.9066
409.709	99.4504
412.601	118.386
415.494	123.712
418.387	122.036
421.279	113.447
424.172	92.5743
427.065	69.7568
429.957	46.7486
432.85	33.4913
435.743	27.1891
438.636	22.8069
441.528	20.9589
444.421	20.8354
447.314	22.6737
450.206	23.9181
453.099	26.3295
455.992	29.5826
458.885	30.2578
461.777	29.0776
464.67	25.0008
467.563	19.5951
470.455	15.9164
473.348	12.3734
476.241	10.9496
479.133	9.33545
482.026	7.7772
484.919	7.75768
487.812	5.23919
490.704	4.33932
493.597	3.19027
496.49	2.3169
499.382	1.90819
502.275	0.87648
505.168	0.598953
508.06	0.200562
510.953	0.683983
513.846	0.443207
516.739	0.019043
519.631	1.67188
522.524	0.776634
525.417	0.763512
528.309	0.02552
531.202	0.607147
534.095	0.08802
536.987	1.23443
539.88	2.48875
542.773	3.94241
545.665	7.89423
548.558	11.157
551.451	14.9989
554.344	19.6384
557.236	24.7543
560.129	27.995
563.022	30.3582
565.914	35.0658
568.807	41.3704
571.7	46.375
574.592	49.4378
577.485	51.7872
580.378	53.9798
583.271	57.4224
586.163	62.7504
589.056	69.6088
591.949	77.399
594.841	87.2149
597.734	98.0189
600.627	106.242
603.519	108.888
606.412	102.341
609.305	85.537
612.198	64.0159
615.09	45.9013
617.983	32.092
620.876	22.2808
623.768	14.3492
626.661	8.58212
629.554	5.02425
632.447	4.12687
635.339	3.6609
638.232	2.15114
641.125	1.52306
644.017	2.4232
646.91	1.35904
649.803	1.33044
652.695	1.33392
655.588	0.659279
658.481	0.346863
661.374	0.380966
664.266	0.350952
667.159	0.39035
670.052	0.353401
672.944	0.939362
675.837	0.379799
678.73	0.855286
681.622	1.36319
684.515	2.15828
687.408	2.71195
690.301	4.08855
693.193	3.31131
696.086	3.14361
698.979	3.81354
701.871	4.46807
704.764	3.41776
707.657	2.96766
710.549	2.5368
713.442	2.23497
716.335	1.83032
719.227	0.846909
722.12	0.488052
725.013	0.077469
727.906	0.612465
730.798	0.16993
733.691	0.514069
736.584	0.185753
739.476	1.09042
742.369	0.469963
745.262	0.654106
748.154	1.36404
751.047	0.9814
753.94	0.890091
756.833	1.48381
759.725	1.16026
762.618	1.27356
765.511	0.523399
768.403	1.80874
771.296	0.700493
774.189	1.77354
777.082	2.10371
779.974	2.42422
782.867	1.98145
785.76	1.26475
788.652	2.71507
791.545	1.79415
794.438	3.16116
797.33	2.08978
800.223	2.1881
803.116	1.74966
806.009	3.01862
808.901	3.62283
811.794	2.94202
814.687	3.57205
817.579	3.55302
820.472	4.46906
823.365	5.64835
826.257	6.05068
829.15	5.29838
832.043	9.05332
834.936	7.01777
837.828	6.17436
840.721	7.58281
843.614	7.9418
846.506	7.81329
849.399	9.61905
852.292	11.1709
855.184	11.2683
858.077	12.3388
860.97	12.3798
863.863	12.7953
866.755	12.4782
869.648	13.017
872.541	11.8594
875.433	9.61923
878.326	7.04439
881.219	6.87763
884.111	6.47569
887.004	4.27325
889.897	2.90236
892.79	2.84387
895.682	1.07301
898.575	0.2108
901.468	0.687469
904.36	1.40538
907.253	1.10483
910.146	1.67172
913.038	1.10049
915.931	0.888733
918.824	0.276154
921.717	2.33583
924.609	5.49104
927.502	9.55019
930.395	16.207
933.287	24.9548
936.18	41.2163
939.073	66.268
941.966	108.596
944.858	175.961
947.751	271.595
950.644	392.679
953.536	520.379
956.429	628.253
959.322	641.459
962.214	591.639
965.107	592.696
968	688.7
970.893	816.055
973.785	749.672
976.678	452.065
979.571	216.317
982.463	100.916
985.356	47.176
988.249	21.0571
991.141	8.20619
994.034	0.938232
996.927	0.845383
999.819	0.495163
1002.71	3.08328
1005.61	7.71545
1008.5	15.9845
1011.39	25.9196
1014.28	35.5019
1017.18	39.6716
1020.07	36.4031
1022.96	30.8825
1025.85	25.5629
1028.75	21.636
1031.64	18.8676
1034.53	19.6394
1037.42	19.7227
1040.32	21.4638
1043.21	23.5086
1046.1	26.5746
1048.99	31.0977
1051.89	40.8918
1054.78	53.3353
1057.67	63.3266
1060.57	62.9832
1063.46	45.5285
1066.35	26.4718
1069.24	14.0736
1072.14	8.85342
1075.03	9.22456
1077.92	12.8501
1080.82	18.4255
1083.71	23.5396
1086.6	28.3138
1089.49	28.6484
1092.39	24.4402
1095.28	17.9217
1098.17	10.9767
1101.06	5.91593
1103.96	3.97692
1106.85	2.90929
1109.74	1.78368
1112.63	0.137543
1115.53	1.21813
1118.42	1.31296
1121.31	2.47319
1124.21	1.53598
1127.1	1.04363
1129.99	0.399811
1132.88	0.13797
1135.78	3.34378
1138.67	1.0409
1141.56	2.42898
1144.45	3.06403
1147.35	3.93535
1150.24	5.19269
1153.13	6.01135
1156.03	7.19269
1158.92	7.57946
1161.81	9.18306
1164.7	9.7533
1167.6	9.88081
1170.49	10.0027
1173.38	10.6117
1176.27	10.2525
1179.17	8.72846
1182.06	8.50002
1184.95	8.02255
1187.85	6.37791
1190.74	7.3728
1193.63	6.17863
1196.52	6.49041
1199.42	7.36284
1202.31	5.60498
1205.2	5.88875
1208.09	5.6858
1210.99	5.17915
1213.88	6.0344
1216.77	5.71334
1219.66	5.06605
1222.56	5.24451
1225.45	4.67597
1228.34	3.67346
1231.24	3.90323
1234.13	3.44489
1237.02	3.72178
1239.91	3.94385
1242.81	2.89565
1245.7	2.59576
1248.59	2.21272
1251.48	1.10171
1254.38	1.809
1257.27	1.42684
1260.16	1.98366
1263.06	0.971695
1265.95	0.989372
1268.84	0.161354
1271.73	1.0913
1274.63	0.299835
1277.52	0.009247
1280.41	0.526901
1283.3	1.0255
1286.2	1.32824
1289.09	0.930771
1291.98	0.930855
1294.88	0.39402
1297.77	0.683472
1300.66	0
