Measurement: Raman, 532 nm, unoriented, Raman Data Processed
Mineral: Wupatkiite
Rruff sample: R060515
Ideal chemistry: Co^2+^Al_2_(S^6+^O_4_)_4_22H_2_O
Locality: Lorena Gold mine, Cloncurry, Queensland, Australia
Source: Michael Scott
Description: Pale pink acicular crystals in a random and loose aggregate
Raman shift (cm-1)	intensity
142.134	0
145.509	0.880249
148.883	4.54297
152.258	8.41827
155.633	10.5022
159.008	0.187256
162.383	2.97626
165.757	2.27094
169.132	1.17218
172.507	6.09204
175.882	7.5058
179.257	8.45612
182.632	9.22711
186.006	4.02496
189.381	2.33746
192.756	3.84314
196.131	3.70618
199.506	3.71326
202.881	8.99518
206.255	8.23883
209.63	9.92859
213.005	13.4201
216.38	9.37427
219.755	6.96612
223.129	5.91425
226.504	2.94244
229.879	2.46027
233.254	1.62415
236.629	6.48932
240.004	4.37457
243.378	2.28479
246.753	2.48462
250.128	2.46619
253.503	1.60242
256.878	0.686035
260.252	1.02161
263.627	1.70709
267.002	5.19952
270.377	0.038025
273.752	1.51269
277.127	1.46301
280.501	4.14252
283.876	9.04742
287.251	13.3218
290.626	10.2524
294.001	16.5926
297.375	19.5576
300.75	20.1219
304.125	27.6393
307.5	27.2833
310.875	28.3399
314.25	29.2292
317.624	27.6495
320.999	24.2382
324.374	20.9475
327.749	24.7675
331.124	20.8289
334.498	18.1191
337.873	13.2125
341.248	13.3914
344.623	14.757
347.998	10.7464
351.373	10.0289
354.747	8.82599
358.122	7.21008
361.497	4.08191
364.872	9.19647
368.247	11.4647
371.621	5.6546
374.996	0.794922
378.371	2.25385
381.746	0.280579
385.121	0.733093
388.495	0.758057
391.87	0.316772
395.245	4.02258
398.62	9.93677
401.995	9.67169
405.37	15.0697
408.744	21.7028
412.119	35.8397
415.494	46.5214
418.869	57.0908
422.244	61.3799
425.618	59.1556
428.993	61.7751
432.368	57.9284
435.743	55.7352
439.118	56.9848
442.493	61.2595
445.867	67.2635
449.242	77.308
452.617	84.8163
455.992	95.9648
459.367	103.43
462.741	104.37
466.116	101.104
469.491	96.1717
472.866	89.4042
476.241	76.2606
479.615	60.0327
482.99	46.7953
486.365	33.7981
489.74	19.7346
493.115	14.3925
496.49	5.5412
499.864	3.46741
503.239	2.34638
506.614	3.33661
509.989	2.25525
513.364	1.76056
516.739	5.07654
520.113	5.80359
523.488	5.95898
526.863	8.7442
530.238	9.79413
533.613	6.84894
536.987	2.164
540.362	0.468323
543.737	2.8313
547.112	2.03241
550.487	1.64105
553.861	1.66248
557.236	3.37421
560.611	2.20477
563.986	3.40314
567.361	1.77264
570.736	4.53235
574.11	7.61328
577.485	15.1582
580.86	17.0266
584.235	22.3733
587.61	29.5839
590.985	33.4055
594.359	41.1945
597.734	53.2485
601.109	61.0203
604.484	67.014
607.859	69.0543
611.233	67.2011
614.608	62.2532
617.983	59.7555
621.358	52.8336
624.733	51.4459
628.107	42.2723
631.482	36.4979
634.857	29.6816
638.232	24.9685
641.607	18.1881
644.982	15.1971
648.356	12.2442
651.731	10.1841
655.106	6.71936
658.481	5.73914
661.856	3.32043
665.231	0.395508
668.605	1.86304
671.98	1.49915
675.355	1.30481
678.73	0.015137
682.105	1.07959
685.479	0.843018
688.854	2.64123
692.229	1.66516
695.604	1.21667
698.979	4.11072
702.354	5.66211
705.728	0.377563
709.103	0.554565
712.478	1.35486
715.853	2.729
719.227	2.64429
722.602	5.51099
725.977	4.68237
729.352	1.86243
732.727	0.724854
736.102	1.52869
739.476	4.21216
742.851	3.51099
746.226	3.27917
749.601	3.32275
752.976	2.77502
756.351	1.28296
759.725	2.2168
763.1	2.55481
766.475	2.97131
769.85	1.31482
773.225	4.00183
776.599	6.41455
779.974	8.95056
783.349	4.77234
786.724	12.1072
790.099	3.41394
793.473	11.7347
796.848	10.559
800.223	15.457
803.598	15.0413
806.973	12.6519
810.348	11.525
813.722	16.1188
817.097	11.2537
820.472	13.5234
823.847	7.10034
827.222	9.27881
830.597	10.0681
833.971	10.0154
837.346	6.69421
840.721	6.68811
844.096	5.85669
847.471	5.13184
850.846	7.88843
854.22	3.32617
857.595	5.07117
860.97	8.76038
864.345	11.7315
867.72	10.8514
871.094	10.2983
874.469	5.271
877.844	5.55896
881.219	6.26453
884.594	1.92627
887.968	4.86231
891.343	1.05933
894.718	0.654907
898.093	6.55957
901.468	1.95911
904.842	0.351807
908.217	1.76318
911.592	3.30664
914.967	0.327759
918.342	0.310181
921.717	6.7522
925.091	6.38647
928.466	2.02576
931.841	5.81006
935.216	8.0459
938.591	11.0708
941.966	17.4276
945.34	24.8794
948.715	29.0455
952.09	38.9417
955.465	51.8917
958.84	77.8289
962.214	108.317
965.589	144.624
968.964	203.496
972.339	283.058
975.714	319.052
979.088	256.229
982.463	251.368
985.838	386.415
989.213	624.624
992.588	779.126
995.963	794.415
999.337	471.512
1002.71	199.364
1006.09	91.4954
1009.46	47.6016
1012.84	29.4102
1016.21	13.3252
1019.59	4.73926
1022.96	0.906494
1026.34	0.981812
1029.71	1.3468
1033.09	0.070557
1036.46	1.38684
1039.84	1.14978
1043.21	5.70654
1046.59	9.92712
1049.96	14.1953
1053.33	12.8967
1056.71	14.7935
1060.08	19.6127
1063.46	22.2572
1066.83	22.8529
1070.21	25.7888
1073.58	26.5328
1076.96	22.9009
1080.33	23.0096
1083.71	17.0452
1087.08	20.8829
1090.46	18.6882
1093.83	14.5266
1097.21	12.4434
1100.58	13.1898
1103.96	12.9343
1107.33	12.7009
1110.71	15.0913
1114.08	13.8314
1117.46	11.8291
1120.83	14.6234
1124.21	10.8688
1127.58	15.8639
1130.95	18.7428
1134.33	22.139
1137.7	28.0853
1141.08	32.9192
1144.45	30.2472
1147.83	24.5244
1151.2	18.8821
1154.58	19.3646
1157.95	13.1038
1161.33	11.7847
1164.7	6.38391
1168.08	3.01355
1171.45	0.157959
1174.83	0.869995
1178.2	2.07996
1181.58	1.58557
1184.95	1.65625
1188.33	1.49817
1191.7	3.28772
1195.08	5.78748
1198.45	2.36389
1201.83	2.31433
1205.2	0.790283
1208.58	6.33838
1211.95	3.65259
1215.33	3.65063
1218.7	4.29285
1222.08	4.75232
1225.45	6.01575
1228.83	4.75439
1232.2	3.5188
1235.58	0.44519
1238.95	0.880615
1242.32	2.37854
1245.7	2.4668
1249.07	3.53528
1252.45	4.75793
1255.82	9.2865
1259.2	3.73926
1262.57	4.25659
1265.95	4.28223
1269.32	2.6051
1272.7	1.2688
1276.07	0.384644
1279.45	1.25696
1282.82	1.91638
1286.2	5.98792
1289.57	6.4696
1292.95	5.39087
1296.32	0.071289
1299.7	1.56372
