Measurement: Raman, 780 nm, unoriented, Raman Data Processed
Mineral: Wupatkiite
Rruff sample: R060515
Ideal chemistry: Co^2+^Al_2_(S^6+^O_4_)_4_22H_2_O
Locality: Lorena Gold mine, Cloncurry, Queensland, Australia
Source: Michael Scott
Description: Pale pink acicular crystals in a random and loose aggregate
Raman shift (cm-1)	intensity
142.061	0
144.954	1.84186
147.847	2.19598
150.74	8.14477
153.632	6.97461
156.525	1.50372
159.418	2.78796
162.31	2.21338
165.203	10.3607
168.096	4.89056
170.988	10.3661
173.881	2.08319
176.774	4.01581
179.667	5.69202
182.559	6.55487
185.452	2.63599
188.345	3.30103
191.237	0.853088
194.13	1.4137
197.023	0.837952
199.916	0.923157
202.808	4.86835
205.701	9.39905
208.594	5.79864
211.486	9.23035
214.379	11.0286
217.272	9.75616
220.164	7.37451
223.057	8.17438
225.95	7.35559
228.843	7.88977
231.735	8.79364
234.628	8.6012
237.521	6.88354
240.413	7.16272
243.306	7.13373
246.199	7.10797
249.091	2.5849
251.984	5.50885
254.877	2.20886
257.769	3.22882
260.662	2.05463
263.555	5.01953
266.448	6.78119
269.34	3.73346
272.233	2.23834
275.126	0.639404
278.018	0.758972
280.911	0.723389
283.804	4.06409
286.697	3.50525
289.589	8.71942
292.482	8.11005
295.375	8.02313
298.267	10.6048
301.16	12.6618
304.053	13.7592
306.945	14.6161
309.838	16.5379
312.731	15.3037
315.623	14.0555
318.516	11.9131
321.409	9.80926
324.302	12.1053
327.194	10.8589
330.087	8.25659
332.98	5.74207
335.873	8.05749
338.765	4.94885
341.658	5.23633
344.551	4.63715
347.443	4.56543
350.336	4.55347
353.229	6.55975
356.121	2.49493
359.014	1.43854
361.907	2.96667
364.8	5.68329
367.692	13.842
370.585	3.82483
373.478	0.922852
376.37	1.1192
379.263	1.55737
382.156	0.883179
385.048	1.14722
387.941	0.894165
390.834	0.529968
393.726	1.50708
396.619	1.1253
399.512	1.72156
402.405	5.23267
405.297	6.16669
408.19	8.98834
411.083	11.4701
413.975	14.8857
416.868	19.7054
419.761	24.6623
422.654	27.4682
425.546	23.8848
428.439	24.885
431.332	23.3724
434.224	22.7218
437.117	23.2813
440.01	25.4395
442.902	26.9661
445.795	30.2125
448.688	31.9769
451.58	34.3452
454.473	39.8759
457.366	38.7678
460.259	44.097
463.151	46.1841
466.044	44.6132
468.937	41.7666
471.829	39.7606
474.722	37.6493
477.615	33.8256
480.507	26.3862
483.4	19.4239
486.293	16.2242
489.186	13.2058
492.078	9.7923
494.971	8.32886
497.864	5.2749
500.756	4.24182
503.649	4.54797
506.542	1.76385
509.435	4.37787
512.327	5.25928
515.22	2.35156
518.112	3.13495
521.005	3.47772
523.898	4.28491
526.791	4.57092
529.683	4.36243
532.576	1.56708
535.469	1.76001
538.361	0.916992
541.254	0.31311
544.147	3.46118
547.04	0.404907
549.932	0.117493
552.825	1.7226
555.718	0.299255
558.61	0.288452
561.503	0.689209
564.396	0.203796
567.288	0.56366
570.181	1.40491
573.074	1.33978
575.967	3.06244
578.859	7.38965
581.752	8.90283
584.645	8.99304
587.537	10.2205
590.43	12.6506
593.323	14.7884
596.216	18.2263
599.108	22.6676
602.001	26.5557
604.894	26.6265
607.786	27.3438
610.679	25.7947
613.572	26.5413
616.464	25.5842
619.357	26.1894
622.25	25.5681
625.143	22.5482
628.035	18.3928
630.928	18.9719
633.821	15.8442
636.713	13.122
639.606	13.5758
642.499	8.79358
645.391	5.09921
648.284	6.5481
651.177	3.72345
654.069	5.37943
656.962	3.21454
659.855	3.18274
662.748	2.57257
665.64	4.27716
668.533	0.405426
671.426	1.15961
674.318	0.810944
677.211	0.366852
680.104	0.92099
682.996	2.61478
685.889	2.45187
688.782	1.40738
691.675	2.55054
694.567	0.024994
697.46	0.354919
700.353	0.515991
703.245	2.18243
706.138	0.683899
709.031	2.16217
711.923	3.00659
714.816	1.43259
717.709	1.85895
720.602	3.61148
723.494	0.68042
726.387	1.60565
729.28	0.330383
732.172	1.84787
735.065	0.052124
737.958	1.4549
740.851	1.25922
743.743	0.810974
746.636	0.404785
749.529	1.54767
752.421	0.147736
755.314	1.56638
758.207	0.97879
761.099	0.901672
763.992	0.427094
766.885	0.47226
769.778	2.07236
772.67	1.34442
775.563	0.603302
778.456	1.61102
781.348	0.362457
784.241	1.80911
787.134	1.94482
790.026	1.90018
792.919	3.31198
795.812	3.22952
798.705	4.2225
801.597	6.01749
804.49	4.09305
807.383	6.28836
810.275	6.38055
813.168	6.39743
816.061	4.17975
818.953	3.8912
821.846	5.10657
824.739	4.00342
827.631	3.58444
830.524	1.56891
833.417	2.45538
836.31	4.27942
839.202	4.78329
842.095	4.24176
844.988	3.14938
847.88	4.65515
850.773	5.16626
853.666	4.28177
856.558	4.29919
859.451	4.33887
862.344	4.10815
865.237	4.31632
868.129	4.54211
871.022	6.50241
873.915	4.53461
876.807	3.51913
879.7	5.27689
882.593	3.27582
885.486	4.25412
888.378	3.00314
891.271	4.93997
894.164	0.738647
897.056	2.12042
899.949	1.26388
902.842	2.05695
905.734	1.25095
908.627	0.872009
911.52	0.09552
914.413	0.233002
917.305	0.124878
920.198	1.06815
923.091	1.77347
925.983	1.66943
928.876	1.86737
931.769	2.50613
934.661	3.2764
937.554	4.09799
940.447	3.25754
943.34	5.64786
946.232	9.01096
949.125	9.09271
952.018	15.0139
954.91	16.2032
957.803	24.2664
960.696	27.9578
963.588	38.5797
966.481	50.18
969.374	69.8551
972.266	93.6513
975.159	108.597
978.052	86.7405
980.945	74.5573
983.837	90.7098
986.73	143.329
989.623	213.613
992.515	249.176
995.408	269.58
998.301	177.471
1001.19	85.7941
1004.09	42.3894
1006.98	21.6984
1009.87	12.5153
1012.76	9.77908
1015.66	3.30997
1018.55	1.82101
1021.44	0.948059
1024.34	0.728088
1027.23	1.85266
1030.12	0.351196
1033.01	1.67197
1035.91	1.3024
1038.8	0.299347
1041.69	7.5874
1044.58	1.61566
1047.48	2.75903
1050.37	2.12537
1053.26	3.77371
1056.15	4.02975
1059.05	5.01129
1061.94	5.9649
1064.83	6.88663
1067.73	5.46088
1070.62	5.71506
1073.51	5.53159
1076.4	5.37009
1079.3	6.11768
1082.19	6.59582
1085.08	5.99261
1087.97	3.72244
1090.87	3.61792
1093.76	2.57602
1096.65	2.76605
1099.55	4.68845
1102.44	2.37174
1105.33	3.0574
1108.22	3.67816
1111.12	2.77795
1114.01	3.2225
1116.9	0.544739
1119.79	5.41272
1122.69	4.43115
1125.58	4.60632
1128.47	3.64816
1131.37	4.73773
1134.26	5.96988
1137.15	7.99908
1140.04	8.84702
1142.94	8.16394
1145.83	8.23544
1148.72	6.82031
1151.61	5.27261
1154.51	3.86942
1157.4	2.52014
1160.29	1.07169
1163.18	1.24731
1166.08	0.966675
1168.97	0.705078
1171.86	2.0516
1174.76	0.579559
1177.65	1.60193
1180.54	0.516296
1183.43	0.02243
1186.33	0.235413
1189.22	1.70163
1192.11	1.20673
1195.01	1.09952
1197.9	1.62183
1200.79	1.20514
1203.68	1.07758
1206.58	0.7453
1209.47	1.09131
1212.36	2.51379
1215.25	1.58313
1218.15	2.16507
1221.04	1.3624
1223.93	2.14316
1226.82	0.672302
1229.72	1.60736
1232.61	3.02335
1235.5	2.77728
1238.39	1.49634
1241.29	2.84674
1244.18	2.36224
1247.07	0.976654
1249.97	0.224976
1252.86	1.53052
1255.75	2.05585
1258.64	1.06274
1261.54	1.38556
1264.43	0.0784
1267.32	1.09836
1270.21	1.47656
1273.11	0.192352
1276	2.00644
1278.89	2.00293
1281.79	0.417328
