Measurement: Raman, 532 nm, unoriented, Raman Data Processed
Mineral: Xonotlite
Rruff sample: R180003
Ideal chemistry: Ca_6_Si_6_O_17_(OH)_2_
Locality: Nchwaning III mine, Kuruman, Kalahari manganese field, Northern Cape Province, South Africa
Source: Jaco and Tania Janse van Nieuwenhuizen
Description: Sprays of colorless prismatic crystals
Raman shift (cm-1)	intensity
127.67	0
131.045	19.1864
134.42	54.6172
137.795	102.583
141.17	191.431
144.544	208.042
147.919	112.587
151.294	58.2751
154.669	40.5175
158.044	30.5007
161.418	26.0447
164.793	14.1084
168.168	1.40485
171.543	4.14337
174.918	5.91766
178.293	0.102844
181.667	0.419128
185.042	10.3222
188.417	28.5099
191.792	49.9699
195.167	72.2123
198.542	102.408
201.916	134.285
205.291	149.76
208.666	126.278
212.041	91.6844
215.416	62.1186
218.79	42.5781
222.165	43.3497
225.54	54.5924
228.915	80.3687
232.29	121.641
235.664	129.612
239.039	83.3605
242.414	45.3347
245.789	18.7704
249.164	0.174255
252.538	5.27228
255.913	1.18622
259.288	7.81732
262.663	8.11041
266.038	5.92584
269.413	0.836975
272.787	3.9787
276.162	6.81683
279.537	3.28674
282.912	3.32465
286.287	6.61163
289.661	17.7781
293.036	38.4027
296.411	75.9265
299.786	115.725
303.161	137.221
306.536	129.546
309.91	97.5931
313.285	77.2549
316.66	74.4416
320.035	63.5039
323.41	72.7785
326.784	87.7764
330.159	104.033
333.534	102.687
336.909	84.0116
340.284	51.8931
343.659	27.7391
347.033	7.32446
350.408	1.93848
353.783	1.97577
357.158	4.66876
360.533	8.69159
363.908	24.2024
367.282	40.5976
370.657	58.5857
374.032	49.2317
377.407	46.007
380.782	43.3609
384.156	43.0208
387.531	49.0244
390.906	65.2007
394.281	70.7864
397.656	60.7974
401.031	53.2429
404.405	40.361
407.78	22.5356
411.155	30.602
414.53	42.3643
417.905	69.4181
421.279	103.573
424.654	101.501
428.029	57.8993
431.404	20.0537
434.779	9.84863
438.154	10.848
441.528	28.3505
444.903	55.4717
448.278	54.15
451.653	28.7611
455.028	20.1001
458.402	24.1541
461.777	28.2306
465.152	17.4992
468.527	0.19165
471.902	2.90515
475.276	3.77264
478.651	8.4469
482.026	30.9224
485.401	37.5537
488.776	24.5193
492.151	21.0379
495.525	17.4955
498.9	21.8533
502.275	31.6798
505.65	47.4892
509.025	35.0543
512.399	15.9036
515.774	2.26617
519.149	4.07605
522.524	1.44153
525.899	7.20947
529.274	5.69958
532.648	4.18829
536.023	0.999023
539.398	3.58508
542.773	3.09589
546.148	1.94281
549.523	3.17566
552.897	3.91333
556.272	1.3587
559.647	5.80847
563.022	5.02869
566.396	8.05414
569.771	9.18298
573.146	15.4619
576.521	21.7617
579.896	41.5726
583.271	69.4861
586.645	126.198
590.02	212.822
593.395	358.741
596.77	425.172
600.145	256.85
603.519	132.593
606.894	74.1334
610.269	51.5166
613.644	40.8011
617.019	46.8292
620.394	50.4192
623.768	57.8097
627.143	55.3368
630.518	51.1135
633.893	36.5196
637.268	32.9048
640.643	14.3308
644.017	5.79364
647.392	4.09796
650.767	1.7077
654.142	2.71783
657.517	1.64679
660.891	0.237732
664.266	0.203369
667.641	4.94452
671.016	10.9047
674.391	12.2252
677.765	18.0277
681.14	39.1356
684.515	75.5521
687.89	134.333
691.265	228.748
694.64	380.577
698.014	470.064
701.389	277.414
704.764	111.562
708.139	52.736
711.514	27.5696
714.889	15.353
718.263	8.57452
721.638	10.4623
725.013	1.87543
728.388	2.34277
731.763	7.63385
735.137	11.5185
738.512	9.37787
741.887	2.0603
745.262	3.24744
748.637	4.39813
752.011	0.959045
755.386	7.82397
758.761	4.31873
762.136	4.27447
765.511	10.0202
768.886	8.82391
772.26	17.3455
775.635	23.1165
779.01	29.2188
782.385	24.3331
785.76	14.3555
789.135	8.81299
792.509	5.18848
795.884	5.63782
799.259	6.1427
802.634	1.61206
806.009	4.73022
809.383	2.16479
812.758	6.84009
816.133	1.75989
819.508	5.88928
822.883	3.96838
826.257	3.36182
829.632	4.06592
833.007	11.0617
836.382	11.3054
839.757	9.34729
843.132	10.1716
846.506	8.43957
849.881	4.29346
853.256	9.38037
856.631	8.91882
860.006	4.37769
863.38	7.10559
866.755	6.79797
870.13	1.34546
873.505	2.82886
876.88	0.026245
880.255	0.713989
883.629	1.64148
887.004	8.85669
890.379	6.39954
893.754	2.18823
897.129	1.28662
900.504	1.70618
903.878	5.70898
907.253	2.33935
910.628	1.06763
914.003	2.47778
917.378	4.328
920.752	8.70105
924.127	11.9921
927.502	18.4653
930.877	8.68054
934.252	4.81274
937.626	0.547363
941.001	5.95496
944.376	7.92407
947.751	18.0812
951.126	35.4473
954.5	79.5823
957.875	151.654
961.25	313.476
964.625	295.35
968	101.777
971.375	48.462
974.75	30.7199
978.124	18.2031
981.499	15.7596
984.874	9.56885
988.249	1.55798
991.624	1.33948
994.998	1.52051
998.373	1.01953
1001.75	0.454346
1005.12	8.82629
1008.5	8.36255
1011.87	11.0389
1015.25	15.6355
1018.62	18.8583
1022	11.2888
1025.37	12.6671
1028.75	23.0861
1032.12	44.1041
1035.5	103.726
1038.87	203.977
1042.25	380.385
1045.62	428.19
1048.99	202.29
1052.37	87.656
1055.74	57.7803
1059.12	45.1965
1062.49	53.8415
1065.87	65.2051
1069.24	98.1086
1072.62	119.776
1075.99	104.879
1079.37	77.7903
1082.74	56.9556
1086.12	42.1506
1089.49	19.8854
1092.87	14.2759
1096.24	10.3385
1099.62	11.5624
1102.99	5.33887
1106.37	2.26856
1109.74	1.5011
1113.12	4.12329
1116.49	6.98779
1119.87	5.71033
1123.24	5.48401
1126.62	2.65967
1129.99	11.0826
1133.37	10.5592
1136.74	9.74414
1140.12	9.94653
1143.49	5.58594
1146.87	4.74768
1150.24	2.25037
1153.62	3.93359
1156.99	4.12158
1160.36	4.31006
1163.74	5.61389
1167.11	3.82519
1170.49	1.69275
1173.86	1.66943
1177.24	7.38147
1180.61	5.22571
1183.99	3.7594
1187.36	6.37769
1190.74	6.69092
1194.11	7.72021
1197.49	10.7408
1200.86	10.3726
1204.24	4.62293
1207.61	6.69983
1210.99	4.09851
1214.36	5.05493
1217.74	6.33984
1221.11	7.04224
1224.49	8.79944
1227.86	1.97925
1231.24	6.35791
1234.61	0.754883
1237.98	2.65185
1241.36	8.93408
1244.73	7.68433
1248.11	8.46021
1251.48	9.78198
1254.86	6.85718
1258.23	11.6007
1261.61	9.51623
1264.98	7.47327
1268.36	0.505249
1271.73	0.159546
1275.11	0.238647
1278.48	2.62012
1281.86	3.91443
1285.23	10.5325
1288.61	0.859131
1291.98	3.68481
1295.36	5.45776
1298.73	6.41516
