Measurement: Raman, 780 nm, unoriented, Raman Data Processed
Mineral: Xonotlite
Rruff sample: R180003
Ideal chemistry: Ca_6_Si_6_O_17_(OH)_2_
Locality: Nchwaning III mine, Kuruman, Kalahari manganese field, Northern Cape Province, South Africa
Source: Jaco and Tania Janse van Nieuwenhuizen
Description: Sprays of colorless prismatic crystals
Raman shift (cm-1)	intensity
128.08	0
130.972	1.4274
133.865	2.49945
136.758	5.66844
139.651	6.97656
142.543	0.278976
145.436	0.986893
148.329	1.30177
151.221	3.37157
154.114	7.75098
157.007	5.25084
159.9	4.71297
162.792	2.5396
165.685	1.12111
168.578	0.227905
171.47	0.111816
174.363	0.743988
177.256	0.590134
180.149	0.374054
183.041	1.25333
185.934	3.09007
188.827	6.61836
191.719	10.7006
194.612	17.6243
197.505	24.734
200.397	29.7904
203.29	32.2764
206.183	27.2843
209.076	24.219
211.968	17.4799
214.861	14.6801
217.754	13.673
220.646	14.1446
223.539	15.621
226.432	19.4197
229.324	21.5001
232.217	21.4302
235.11	19.4585
238.002	15.0939
240.895	11.4723
243.788	7.88934
246.681	4.88641
249.573	3.94049
252.466	3.17699
255.359	3.47896
258.251	3.58475
261.144	4.37772
264.037	3.05838
266.93	1.7618
269.822	0.234703
272.715	1.08559
275.608	0.201828
278.5	0.268578
281.393	0.574661
284.286	0.538895
287.178	1.60806
290.071	3.72569
292.964	6.36687
295.856	9.48444
298.749	11.8855
301.642	11.7379
304.535	11.6844
307.427	11.0654
310.32	10.8689
313.213	10.1812
316.105	9.71964
318.998	9.40472
321.891	8.86267
324.784	10.0521
327.676	12.349
330.569	12.833
333.462	10.7728
336.354	6.73843
339.247	4.33231
342.14	2.5912
345.032	0.989777
347.925	0.247658
350.818	1.18247
353.711	0.364929
356.603	0.028191
359.496	1.22219
362.389	3.27367
365.281	4.86945
368.174	5.77184
371.067	5.22897
373.959	5.68705
376.852	4.52863
379.745	3.55591
382.637	4.39986
385.53	5.37858
388.423	8.32193
391.316	11.0952
394.208	9.10384
397.101	8.16187
399.994	6.51834
402.886	5.41466
405.779	2.89772
408.672	1.97968
411.565	5.1016
414.457	8.59592
417.35	13.7595
420.243	16.988
423.135	16.1014
426.028	9.48577
428.921	4.35361
431.813	3.7553
434.706	2.37003
437.599	4.10949
440.492	7.17403
443.384	9.26407
446.277	6.92732
449.17	4.53532
452.062	2.93872
454.955	2.16357
457.848	2.90939
460.74	2.44191
463.633	1.55956
466.526	0.103325
469.419	0.883965
472.311	0.196663
475.204	0.66227
478.097	2.95836
480.989	2.96916
483.882	3.39838
486.775	2.73196
489.668	4.44186
492.56	2.73485
495.453	3.14113
498.346	4.04289
501.238	6.06697
504.131	5.75086
507.024	4.26258
509.916	2.33664
512.809	0.970177
515.702	1.04811
518.595	0.247314
521.487	0.834137
524.38	0.107552
527.273	0.07238
530.165	0.327316
533.058	0.217941
535.951	0.176811
538.843	0.601883
541.736	0.684387
544.629	0.351814
547.521	0.987694
550.414	1.01706
553.307	1.37852
556.2	1.3051
559.092	0.718109
561.985	0.45948
564.878	0.035576
567.77	0.745956
570.663	1.2686
573.556	2.60572
576.448	3.75503
579.341	6.48834
582.234	11.1469
585.127	19.0432
588.019	33.5991
590.912	53.7506
593.805	69.1577
596.697	54.9333
599.59	32.6095
602.483	18.6092
605.375	11.4062
608.268	7.29552
611.161	6.03394
614.054	4.99773
616.946	4.67214
619.839	6.00859
622.732	6.15509
625.625	6.37463
628.517	5.54213
631.41	3.01521
634.303	2.30413
637.195	1.22025
640.088	0.26918
642.981	0.017181
645.873	0.563438
648.766	0.1105
651.659	0.100277
654.552	0.010918
657.444	0.159084
660.337	0.978909
663.23	0.756489
666.122	2.11224
669.015	1.71113
671.908	2.43823
674.8	3.38715
677.693	4.68872
680.586	7.82117
683.479	12.6592
686.371	22.696
689.264	39.5854
692.157	62.3963
695.049	81.1581
697.942	69.2162
700.835	37.6922
703.727	17.8469
706.62	10.4713
709.513	5.69212
712.405	3.80873
715.298	2.08256
718.191	1.37893
721.084	0.694416
723.976	1.1464
726.869	0.821171
729.762	1.06119
732.654	0.886047
735.547	0.352348
738.44	0.146675
741.332	0.339508
744.225	0.838165
747.118	0.062927
750.011	0.586197
752.903	0.072617
755.796	0.150631
758.689	0.526646
761.581	0.334717
764.474	0.384064
767.367	1.41365
770.26	1.977
773.152	3.46369
776.045	4.89017
778.938	4.23768
781.83	2.83869
784.723	2.17362
787.616	0.51059
790.508	0.954739
793.401	0.988968
796.294	0.380428
799.187	0.528835
802.079	0.22673
804.972	0.385651
807.865	0.688839
810.757	0.325249
813.65	0.597504
816.543	0.233837
819.435	1.04314
822.328	1.00465
825.221	1.10851
828.114	0.639771
831.006	0.676193
833.899	0.580784
836.792	0.965927
839.684	1.41219
842.577	0.774986
845.47	1.21811
848.362	1.18274
851.255	0.826878
854.148	1.1635
857.04	0.918983
859.933	1.2579
862.826	1.14763
865.719	1.42753
868.611	0.596977
871.504	0.513294
874.397	0.455093
877.289	0.559055
880.182	1.27764
883.075	0.810337
885.967	0.706177
888.86	1.48485
891.753	0.312641
894.646	0.26437
897.538	0.045738
900.431	0.333115
903.324	0.578419
906.216	0.301434
909.109	0.178509
912.002	0.11721
914.894	1.17954
917.787	0.876965
920.68	0.786556
923.573	1.95568
926.465	1.38116
929.358	1.58901
932.251	1.33353
935.143	1.02358
938.036	1.47221
940.929	1.4026
943.822	2.1413
946.714	2.68721
949.607	3.73868
952.5	6.88224
955.392	14.0365
958.285	26.5048
961.178	35.9485
964.07	20.8718
966.963	8.79936
969.856	3.95176
972.749	2.79113
975.641	1.82576
978.534	1.44056
981.427	0.945335
984.319	0.843193
987.212	0.365284
990.105	0.291496
992.997	0.042694
995.89	0.407612
998.783	0.201469
1001.68	0.66214
1004.57	0.32391
1007.46	1.23752
1010.35	1.14635
1013.25	2.75932
1016.14	3.47151
1019.03	1.98475
1021.92	1.73343
1024.82	1.96452
1027.71	2.6981
1030.6	4.33899
1033.49	9.43194
1036.39	18.4473
1039.28	35.5395
1042.17	48.3128
1045.07	41.0675
1047.96	21.9715
1050.85	9.67697
1053.74	6.61037
1056.64	5.54218
1059.53	6.21528
1062.42	8.56919
1065.32	11.2592
1068.21	15.1704
1071.1	18.4753
1073.99	16.0688
1076.89	11.5484
1079.78	8.37928
1082.67	5.72043
1085.56	3.84686
1088.46	3.5576
1091.35	1.81782
1094.24	0.762714
1097.13	0.395378
1100.03	0.531662
1102.92	0.702728
1105.81	0.6819
1108.71	0.166321
1111.6	0.293736
1114.49	0.480328
1117.38	0.322491
1120.28	0.788105
1123.17	0.639736
1126.06	0.118473
1128.95	0.247219
1131.85	0.344509
1134.74	0.036758
1137.63	0.902946
1140.53	0.558052
1143.42	0.796772
1146.31	0.633789
1149.2	0.152306
1152.1	0.987179
1154.99	0.990593
1157.88	1.21557
1160.77	0.283001
1163.67	1.00845
1166.56	0.589489
1169.45	0.976612
1172.35	0.437378
1175.24	1.06541
1178.13	0.74538
1181.02	0.438904
1183.92	0.149063
1186.81	0.740387
1189.7	0.653679
1192.59	0.607243
1195.49	0.321411
1198.38	0.414181
1201.27	1.13264
1204.16	0.332947
1207.06	0.54583
1209.95	1.00842
1212.84	0.87096
1215.73	0.505344
1218.63	0.703773
1221.52	0.60157
1224.41	1.00011
1227.31	0.84137
1230.2	0.0495
1233.09	0.406178
1235.98	0.759277
1238.88	0.234673
1241.77	0.297726
1244.66	0.70929
1247.56	0.569618
1250.45	0.052013
1253.34	0.362957
1256.23	0.445061
1259.13	0.730488
1262.02	0.101166
1264.91	0.797615
1267.8	0.489285
1270.7	0.240963
1273.59	0.470188
1276.48	0.533226
1279.38	0.1362
1282.27	0
