Measurement: Raman, 780 nm, unoriented, Raman Data RAW
Mineral: Yttrotantalite-(Y)
Rruff sample: R080046
Ideal chemistry: (Y^3+^,U^6+^,Fe^2+^)(Ta^5+^,Nb^5+^)_2_(O,OH)_4_
Locality: Swaziland
Source: American Museum of Natural History
Description: Brown glassy from amorphous sample R060022 after heating at T = 850 C for 18 hours
Raman shift (cm-1)	intensity
94.0999	0
97.4747	2207.1
100.85	2155.41
104.224	2097.33
107.599	2095.81
110.974	2109.41
114.349	2133.92
117.724	2172.24
121.098	2220.42
124.473	2274.64
127.848	2333.11
131.223	2399.79
134.598	2469.55
137.972	2549.05
141.347	2617.51
144.722	2686.25
148.097	2751.45
151.472	2809.21
154.847	2863.57
158.221	2906.05
161.596	2935.96
164.971	2945.22
168.346	2950.19
171.721	2964.38
175.095	2974.49
178.47	2981.61
181.845	2990.26
185.22	3006.3
188.595	3028.61
191.97	3050.81
195.344	3081.62
198.719	3117.66
202.094	3151.15
205.469	3190.01
208.844	3221.6
212.218	3260.03
215.593	3292.02
218.968	3322.24
222.343	3347.23
225.718	3370.03
229.093	3388.96
232.467	3396.87
235.842	3402.02
239.217	3404.12
242.592	3392.75
245.967	3372.2
249.341	3356.04
252.716	3333.55
256.091	3311.56
259.466	3287.03
262.841	3278.09
266.216	3271.97
269.59	3266.42
272.965	3269.75
276.34	3258.85
279.715	3261.84
283.089	3260.12
286.464	3264.71
289.839	3258.61
293.214	3252.33
296.589	3242.42
299.964	3236.22
303.338	3225.54
306.713	3217.35
310.088	3212.71
313.463	3212.6
316.838	3207.91
320.212	3210.43
323.587	3207.22
326.962	3197.09
330.337	3190.37
333.712	3189.71
337.087	3185.64
340.461	3183.3
343.836	3172.37
347.211	3164.95
350.586	3151.88
353.961	3136.52
357.335	3123.62
360.71	3110.63
364.085	3095.49
367.46	3081.38
370.835	3064.06
374.209	3047.28
377.584	3026.26
380.959	3008.89
384.334	2982.08
387.709	2962.8
391.084	2941.07
394.458	2926.8
397.833	2904.05
401.208	2888.46
404.583	2865.16
407.958	2846.25
411.332	2823.76
414.707	2801.2
418.082	2781.16
421.457	2758.68
424.832	2744.01
428.207	2725.51
431.581	2710.09
434.956	2701.43
438.331	2685.74
441.706	2672.55
445.081	2664.87
448.455	2647.77
451.83	2634.28
455.205	2624.7
458.58	2611.43
461.955	2593.86
465.329	2587.69
468.704	2568.72
472.079	2559.74
475.454	2539.43
478.829	2512.41
482.204	2488.94
485.578	2470.17
488.953	2451.27
492.328	2424.73
495.703	2396.35
499.078	2375.74
502.452	2356.21
505.827	2330.37
509.202	2317.68
512.577	2294.25
515.952	2276.94
519.327	2257.86
522.701	2239.27
526.076	2214.63
529.451	2203.65
532.826	2176.67
536.201	2154.21
539.575	2132.19
542.95	2113.24
546.325	2091.57
549.7	2073.01
553.075	2052.25
556.449	2036.84
559.824	2016.63
563.199	1993.15
566.574	1974.11
569.949	1958.11
573.324	1935.75
576.698	1909.48
580.073	1888.93
583.448	1866.27
586.823	1843.63
590.198	1820.77
593.572	1800.33
596.947	1777.81
600.322	1751.97
603.697	1724.33
607.072	1702.67
610.447	1674.55
613.821	1649.88
617.196	1621.94
620.571	1599.72
623.946	1570.3
627.321	1545.06
630.695	1520.94
634.07	1492.05
637.445	1470.28
640.82	1442.81
644.195	1417.73
647.569	1392.25
650.944	1366.95
654.319	1338.28
657.694	1317.32
661.069	1287.97
664.444	1265.46
667.818	1232.84
671.193	1203.05
674.568	1166.98
677.943	1131.33
681.318	1090.61
684.692	1048.68
688.067	1009.85
691.442	973.047
694.817	936.594
698.192	901.807
701.567	868.462
704.941	836.744
708.316	809.085
711.691	779.657
715.066	757.962
718.441	726.707
721.815	703.927
725.19	680.717
728.565	657.82
731.94	639.125
735.315	620.02
738.689	602.113
742.064	585.062
745.439	568.735
748.814	556.839
752.189	544.146
755.564	531.425
758.938	518.747
762.313	507.462
765.688	500.317
769.063	492.916
772.438	486.81
775.812	480.681
779.187	475.213
782.562	470.667
785.937	466.824
789.312	463.462
792.687	462.974
796.061	455.341
799.436	454.049
802.811	448.491
806.186	443.672
809.561	439.766
812.935	431.34
816.31	423.029
819.685	415.413
823.06	407.324
826.435	397.958
829.809	388.845
833.184	381.066
836.559	372.681
839.934	363.834
843.309	354.97
846.684	345.963
850.058	335.923
853.433	327.426
856.808	317.872
860.183	310.865
863.558	299.896
866.932	290.99
870.307	281.47
873.682	271.749
877.057	262.832
880.432	252.601
883.807	243.947
887.181	234.451
890.556	225.487
893.931	216.789
897.306	209.503
900.681	201.544
904.055	194.388
907.43	188.335
910.805	182.05
914.18	176.544
917.555	171.511
920.929	166.086
924.304	161.613
927.679	157.288
931.054	152.976
934.429	149.031
937.804	146.02
941.178	142.682
944.553	139.902
947.928	136.264
951.303	133.099
954.678	130.722
958.052	127.628
961.427	125.079
964.802	122.19
968.177	120.213
971.552	117.868
974.927	115.502
978.301	114.383
981.676	112.242
985.051	110.644
988.426	108.555
991.801	107.016
995.175	104.844
998.55	104.543
1001.92	102.507
1005.3	100.982
1008.67	101.043
1012.05	99.902
1015.42	99.2337
1018.8	97.28
1022.17	99.5172
1025.55	95.2362
1028.92	94.3191
1032.3	92.9793
1035.67	92.0755
1039.05	90.2847
1042.42	88.5827
1045.8	87.5477
1049.17	85.8259
1052.55	84.7063
1055.92	83.6637
1059.3	83.1728
1062.67	81.4507
1066.05	79.9864
1069.42	79.2715
1072.8	78.3421
1076.17	77.1037
1079.55	75.8501
1082.92	75.1532
1086.3	73.7375
1089.67	72.6465
1093.05	71.7457
1096.42	70.8073
1099.8	70.1443
1103.17	69.0597
1106.54	68.9272
1109.92	68.3967
1113.29	68.0022
1116.67	67.4882
1120.04	67.2767
1123.42	67.1706
1126.79	66.5565
1130.17	67.092
1133.54	66.2522
1136.92	66.5645
1140.29	66.4414
1143.67	66.7473
1147.04	66.1944
1150.42	66.659
1153.79	66.7973
1157.17	66.6953
1160.54	66.9875
1163.92	67.3582
1167.29	68.3424
1170.67	73.2061
1174.04	68.6555
1177.41	68.5957
1180.79	69.538
1184.16	70.5379
1187.54	70.7262
1190.91	72.0742
1194.29	72.0874
1197.66	72.8528
1201.04	73.3259
1204.41	74.8191
1207.79	75.2818
1211.16	76.173
1214.54	77.3518
1217.91	79.2235
1221.29	79.8457
1224.66	81.9378
1228.04	83.6091
1231.41	85.5333
1234.79	86.9292
1238.16	89.3704
1241.54	92.0578
1244.91	92.9541
1248.29	96.3068
1251.66	98.4898
1255.04	100.495
1258.41	103.687
1261.79	106.802
1265.16	110.531
1268.54	114.788
1271.91	119.23
1275.29	124.151
1278.66	129.371
1282.04	135.813
1285.41	142.037
