Measurement: Raman, 780 nm, unoriented, Raman Data Processed
Mineral: Yttrium aluminum garnet
Rruff sample: X090003
Ideal chemistry: Y_3_Al_2_(AlO_4_)_3_
Locality: Synthetic
Source: Gemological Institute of America
Description: Faceted colorless gemstone, 1.42 ct
Raman shift (cm-1)	intensity
96.716	0
100.091	5.02435
103.466	0.271545
106.841	7.61768
110.215	15.8161
113.59	32.1208
116.965	41.0536
120.34	35.5311
123.715	32.1152
127.089	20.8226
130.464	4.86453
133.839	1.54227
137.214	0.424683
140.589	3.84738
143.963	22.1657
147.338	3.04074
150.713	4.68536
154.088	21.7368
157.463	85.5641
160.838	306.726
164.212	155.402
167.587	30.4168
170.962	42.0394
174.337	67.08
177.712	98.7811
181.086	133.602
184.461	176.311
187.836	230.716
191.211	284.482
194.586	330.148
197.96	371.755
201.335	412.95
204.71	438.022
208.085	402.776
211.46	309.818
214.835	225.427
218.209	179.869
221.584	76.9224
224.959	30.3579
228.334	6.35028
231.709	4.58121
235.083	8.75687
238.458	0.392273
241.833	23.971
245.208	34.5245
248.583	64.3985
251.958	120.024
255.332	219.325
258.707	420.224
262.082	371.219
265.457	245.533
268.832	275.703
272.207	337.89
275.581	404.541
278.956	457.984
282.331	501.262
285.706	529.729
289.08	544.47
292.455	542.807
295.83	507.187
299.205	442.215
302.58	366.248
305.955	294.242
309.329	218.919
312.704	150.726
316.079	87.6483
319.454	41.6174
322.829	9.36902
326.204	10.7037
329.578	15.6069
332.953	0.469543
336.328	50.1822
339.703	72.7397
343.078	1.72931
346.452	3.71875
349.827	23.9632
353.202	69.7119
356.577	119.079
359.952	186.968
363.327	297.583
366.701	492.348
370.076	689.687
373.451	597.037
376.826	542.01
380.201	599.182
383.575	665.093
386.95	686.789
390.325	673.214
393.7	664.259
397.075	739.388
400.45	858.43
403.824	687.514
407.199	511.185
410.574	356.512
413.949	254.572
417.324	180.839
420.698	131.631
424.073	103.913
427.448	95.4765
430.823	106.207
434.198	125.687
437.572	162.211
440.947	203.701
444.322	236.807
447.697	245.858
451.072	212.399
454.447	164.056
457.821	122.876
461.196	87.1156
464.571	61.4239
467.946	42.9097
471.321	24.0356
474.695	15.8984
478.07	5.2001
481.445	1.95911
484.82	5.61587
488.195	5.22015
491.57	3.80246
494.944	5.09305
498.319	2.28918
501.694	2.02228
505.069	1.76395
508.444	2.1926
511.818	5.85959
515.193	10.957
518.568	12.7844
521.943	13.5184
525.318	17.332
528.692	21.3124
532.067	24.4362
535.442	30.7564
538.817	35.2604
542.192	40.3115
545.567	34.8682
548.941	18.2376
552.316	14.5114
555.691	15.6906
559.066	13.5502
562.441	1.84051
565.816	4.70026
569.19	7.26245
572.565	3.77142
575.94	3.09583
579.315	3.70905
582.69	8.57538
586.064	11.0269
589.439	15.6612
592.814	25.8161
596.189	34.9367
599.564	49.8744
602.938	68.3236
606.313	90.2665
609.688	118.047
613.063	142.732
616.438	167.735
619.812	187.596
623.187	208.123
626.562	229.063
629.937	234.872
633.312	240.838
636.687	247.424
640.061	252.366
643.436	257.364
646.811	253.223
650.186	246.536
653.561	236.009
656.936	226.158
660.31	216.15
663.685	203.933
667.06	194.973
670.435	179.419
673.81	170.367
677.184	157.152
680.559	145.923
683.934	132.378
687.309	122.08
690.684	105.162
694.058	76.3004
697.433	51.0844
700.808	37.7263
704.183	27.8553
707.558	29.9823
710.933	40.254
714.307	52.6648
717.682	50.9824
721.057	18.4692
724.432	0.953522
727.807	8.99737
731.182	7.04627
734.556	8.61908
737.931	4.17346
741.306	2.724
744.681	10.6585
748.056	18.5423
751.43	30.142
754.805	39.4548
758.18	48.1647
761.555	63.7873
764.93	86.4101
768.304	125.108
771.679	175.964
775.054	246.377
778.429	332.266
781.804	377.662
785.178	301.514
788.553	219.329
791.928	180.756
795.303	157.998
798.678	139.995
802.053	124.053
805.427	110.715
808.802	99.2778
812.177	86.8149
815.552	76.1138
818.927	73.4224
822.302	63.7958
825.676	60.1639
829.051	57.4762
832.426	55.7243
835.801	54.2272
839.176	52.98
842.55	51.8033
845.925	52.8328
849.3	52.7814
852.675	56.6359
856.05	51.9372
859.424	38.9826
862.799	27.3626
866.174	17.8142
869.549	12.4309
872.924	6.19873
876.299	3.52704
879.673	0.470032
883.048	1.22758
886.423	1.57163
889.798	1.88115
893.173	1.77766
896.548	3.17143
899.922	0.652618
903.297	0.442383
906.672	1.09328
910.047	1.64932
913.422	3.61829
916.796	3.46708
920.171	5.05335
923.546	7.97253
926.921	10.7762
930.296	11.0226
933.67	11.9516
937.045	13.373
940.42	13.769
943.795	14.3187
947.17	12.1876
950.544	12.85
953.919	9.9809
957.294	7.66959
960.669	5.58313
964.044	3.92082
967.419	3.66596
970.793	3.65645
974.168	3.03008
977.543	2.00725
980.918	1.22559
984.293	1.48959
987.668	0.168991
991.042	1.17264
994.417	0.05822
997.792	0.159714
1001.17	1.46173
1004.54	0.136116
1007.92	1.58944
1011.29	0.570759
1014.67	0.600292
1018.04	1.04787
1021.42	1.88803
1024.79	1.54756
1028.16	1.09703
1031.54	1.0864
1034.91	0.450409
1038.29	0.216576
1041.66	1.24334
1045.04	1.08959
1048.41	0.860462
1051.79	0.282722
1055.16	0.07185
1058.54	0.03487
1061.91	0.302288
1065.29	0.96907
1068.66	0.273163
1072.04	0.405598
1075.41	0.776196
1078.79	1.88779
1082.16	2.6333
1085.54	4.1739
1088.91	5.78254
1092.29	7.5665
1095.66	8.58514
1099.04	6.85945
1102.41	5.01595
1105.79	3.15156
1109.16	2.98223
1112.54	2.3516
1115.91	1.17445
1119.29	0.653576
1122.66	0.13422
1126.04	1.46574
1129.41	0.496735
1132.79	0.006012
1136.16	1.9185
1139.53	1.49126
1142.91	1.18922
1146.28	1.00381
1149.66	0.893768
1153.03	0.721928
1156.41	0.201702
1159.78	0.281246
1163.16	0.427887
1166.53	0.021191
1169.91	0.432644
1173.28	1.57298
1176.66	0.752754
1180.03	1.7887
1183.41	1.45357
1186.78	1.27621
1190.16	2.40094
1193.53	1.47166
1196.91	1.74394
1200.28	2.75209
1203.66	2.99357
1207.03	2.93226
1210.4	2.64568
1213.78	1.90324
1217.15	1.83316
1220.53	1.75365
1223.9	2.74952
1227.28	1.37329
1230.65	1.71079
1234.03	3.61581
1237.4	5.1409
1240.78	3.51757
1244.15	2.07072
1247.53	0.993507
1250.9	0.45322
1254.28	0.186638
1257.65	0.066647
1261.03	0.338573
1264.4	0.813141
1267.78	1.36967
1271.15	1.93001
1274.53	1.39404
1277.9	0.019928
1281.28	1.92205
1284.65	0.749023
