Measurement: Raman, 532 nm, unoriented, Raman Data RAW
Mineral: Yttrotantalite-(Y)
Rruff sample: R060828
Ideal chemistry: (Y^3+^,U^6+^,Fe^2+^)(Ta^5+^,Nb^5+^)_2_(O,OH)_4_
Locality: Skuleboda, Sweden
Source: Michael Scott
Description: Dark brown massive blebs - metamict
Raman shift (cm-1)	intensity
171.181	9441.17
174.074	9425.77
176.966	9572.13
179.859	9600.37
182.752	9767.89
185.644	9678.11
188.537	9762.32
191.43	9703.83
194.323	9661.03
197.215	9556.92
200.108	9632.13
203.001	9674.43
205.893	9733.62
208.786	9636.95
211.679	9608.32
214.571	9634.69
217.464	9604.43
220.357	9553.35
223.25	9525.89
226.142	9517.72
229.035	9525.68
231.928	9504.46
234.82	9388.06
237.713	9450.44
240.606	9290.85
243.498	9334.73
246.391	9349.17
249.284	9358.22
252.177	9234.55
255.069	9052
257.962	9088.95
260.855	8967.94
263.747	8954.21
266.64	8993.49
269.533	8913.79
272.425	8747.04
275.318	8805.4
278.211	8633.25
281.103	8573.34
283.996	8484.14
286.889	8444.25
289.782	8273.02
292.674	8246.65
295.567	8131.5
298.46	7978.36
301.352	7962.12
304.245	8037.26
307.138	7928.22
310.031	7886.13
312.923	7748.51
315.816	7606.01
318.709	7568.46
321.601	7334.12
324.494	7415.03
327.387	7348.13
330.279	7246.51
333.172	7194.02
336.065	7125.61
338.957	7102.3
341.85	6986.17
344.743	6996.89
347.635	6852.82
350.528	6830
353.421	6785.86
356.314	6742.89
359.206	6629.91
362.099	6607.44
364.992	6475.71
367.884	6360.87
370.777	6418.4
373.67	6262.8
376.562	6336.91
379.455	6286.77
382.348	6237.13
385.241	6211.55
388.133	6186.53
391.026	6160.42
393.919	6084.28
396.811	6003.59
399.704	5922.79
402.597	5909.28
405.49	5845.67
408.382	5895.79
411.275	5844.46
414.168	5839.87
417.06	5736.95
419.953	5786.04
422.846	5710.92
425.738	5732.29
428.631	5648.63
431.524	5709.27
434.416	5709.11
437.309	5596.09
440.202	5564.4
443.094	5574.08
445.987	5514.71
448.88	5515.9
451.773	5490.06
454.665	5524.47
457.558	5355.85
460.451	5376.65
463.343	5476.77
466.236	5383.64
469.129	5373.03
472.022	5369.63
474.914	5354.99
477.807	5285.92
480.7	5254.94
483.592	5334.02
486.485	5376.38
489.378	5252.87
492.27	5207.03
495.163	5228.65
498.056	5263.74
500.949	5339.68
503.841	5194.81
506.734	5237.73
509.627	5274.94
512.519	5219.02
515.412	5233.8
518.305	5296.36
521.197	5437.86
524.09	5369.14
526.983	5398.45
529.875	5401.61
532.768	5412.19
535.661	5445.92
538.554	5490.66
541.446	5487.6
544.339	5543.95
547.232	5615.08
550.124	5685.46
553.017	5663.26
555.91	5685.25
558.802	5767.99
561.695	5828.04
564.588	5906.8
567.481	6082.67
570.373	6078.13
573.266	6129.11
576.159	6061.18
579.051	6183.31
581.944	6214.53
584.837	6329.48
587.729	6413.87
590.622	6440.62
593.515	6513.43
596.408	6534.63
599.3	6569.86
602.193	6622.13
605.086	6693
607.978	6729.83
610.871	6857.99
613.764	6880.84
616.656	6841.18
619.549	6881.33
622.442	6974.66
625.335	6977.04
628.227	6932.57
631.12	6952.64
634.013	6963.64
636.905	6895.89
639.798	6996.99
642.691	6982.32
645.583	6929.85
648.476	6961.33
651.369	6989.56
654.261	6964.16
657.154	6986.81
660.047	6953.75
662.94	6865.86
665.832	6833.96
668.725	6841.32
671.618	6814.96
674.51	6769.77
677.403	6746.59
680.296	6693.61
683.188	6727.43
686.081	6765.81
688.974	6656.3
691.866	6627.11
694.759	6664.31
697.652	6595.59
700.545	6563.97
703.437	6552.06
706.33	6571.48
709.223	6530.13
712.115	6509.27
715.008	6528.03
717.901	6567.97
720.793	6589.18
723.686	6627.33
726.579	6694.68
729.472	6638.02
732.364	6683.67
735.257	6725.61
738.15	6740.06
741.042	6692.45
743.935	6879.88
746.828	6917.56
749.721	6919.62
752.613	6711.07
755.506	6931.4
758.399	6932.94
761.291	6931.86
764.184	6933.97
767.077	7094.34
769.969	7085.67
772.862	7161.9
775.755	7120.01
778.648	7108
781.54	7164.18
784.433	7212.35
787.326	7268.77
790.218	7298.93
793.111	7374.97
796.004	7321.04
798.896	7297.63
801.789	7349.5
804.682	7296.4
807.574	7340.29
810.467	7225.96
813.36	7228.95
816.253	7322.21
819.145	7248
822.038	7200.81
824.931	7117.39
827.823	7131.37
830.716	7077.68
833.609	6981.87
836.501	6894.91
839.394	6863.93
842.287	6737.33
845.179	6707.54
848.072	6637.51
850.965	6547.82
853.858	6427.04
856.75	6328.51
859.643	6310.13
862.536	6205.26
865.428	6090.14
868.321	5926.11
871.214	5845.27
874.106	5720.47
876.999	5582.81
879.892	5497.25
882.784	5256.3
885.677	5181.68
888.57	4980.04
891.463	4929.61
894.355	4702.54
897.248	4618.47
900.141	4281.68
903.033	4156.43
905.926	3921.53
908.819	3700.28
911.712	3480.55
914.604	3342.67
917.497	3199.28
920.39	2968.87
923.282	2814.29
926.175	2695.99
929.068	2552.85
931.96	2453.21
934.853	2291.62
937.746	2135.83
940.639	1989.98
943.531	1900.53
946.424	1737.2
949.317	1666.06
952.209	1548.23
955.102	1481.83
957.995	1414.65
960.887	1305.64
963.78	1270.2
966.673	1251.8
969.566	1144.07
972.458	1105.05
975.351	1058.83
978.244	990.057
981.136	995.756
984.029	975.749
986.922	896.806
989.814	851.561
992.707	776.438
995.6	794.583
998.492	740.587
1001.38	696.573
1004.28	690.563
1007.17	643.201
1010.06	619.36
1012.96	577.009
1015.85	571.06
1018.74	562.348
1021.63	479.474
1024.53	473.879
1027.42	527.031
1030.31	442.372
1033.2	387.94
1036.1	399.494
1038.99	349.043
1041.88	393.641
1044.78	353.745
1047.67	264.087
1050.56	317.404
1053.45	270.554
1056.35	339.69
1059.24	333.127
1062.13	170.904
1065.03	230.47
1067.92	208.673
1070.81	175.554
1073.7	194.272
1076.6	195.936
1079.49	167.862
1082.38	119.272
1085.27	223.598
1088.17	150.904
1091.06	117.772
1093.95	114.812
1096.84	148.343
1099.74	187.238
1102.63	169.308
1105.52	140.583
1108.41	126.15
1111.31	101.362
1114.2	117.969
1117.09	106.114
1119.99	88.145
1122.88	131.417
1125.77	117.503
1128.66	112.622
1131.56	175.852
1134.45	199.016
1137.34	168.313
1140.23	167.656
1143.13	209.587
1146.02	192.798
1148.91	241.485
1151.81	273.617
1154.7	260.471
1157.59	325.384
1160.48	332.167
1163.38	299.736
1166.27	371.682
1169.16	387.276
1172.05	398.734
1174.95	447.054
1177.84	440.322
1180.73	464.958
1183.62	613.92
1186.52	503.188
1189.41	542.51
1192.3	571.508
1195.2	555.029
1198.09	591.244
1200.98	666.464
1203.87	638.395
1206.77	678.465
1209.66	721.58
1212.55	719.942
1215.44	801.934
1218.34	762.955
1221.23	880.868
1224.12	881.833
1227.02	812.105
1229.91	902.034
1232.8	930.713
1235.69	1000.3
1238.59	972.563
1241.48	1066.58
1244.37	1060.77
1247.26	1112.34
1250.16	1133.97
1253.05	1126.23
1255.94	1196.83
1258.84	1221.23
1261.73	1223.92
1264.62	1228.23
1267.51	1248.57
1270.41	1370.94
1273.3	1488.14
1276.19	1455.14
1279.08	1490.21
1281.98	1529.69
1284.87	1545.88
1287.76	1627.22
1290.65	1635.18
1293.55	1641.39
