Measurement: Raman, 785 nm, unoriented, Raman Data RAW
Mineral: Yttrotantalite-(Y)
Rruff sample: R060828
Ideal chemistry: (Y^3+^,U^6+^,Fe^2+^)(Ta^5+^,Nb^5+^)_2_(O,OH)_4_
Locality: Skuleboda, Sweden
Source: Michael Scott
Description: Dark brown massive blebs - metamict
Raman shift (cm-1)	intensity
179.864	8066.96
182.756	8092.73
185.649	8223.92
188.542	8270.66
191.435	8378.54
194.327	8385.11
197.22	8471.75
200.113	8618.91
203.005	8524.79
205.898	8635.05
208.791	8637.8
211.684	8633.35
214.576	8687.28
217.469	8709.2
220.362	8757.46
223.254	8832.25
226.147	8841.44
229.04	8839.33
231.932	8910.43
234.825	8986.45
237.718	8990.4
240.611	9004.27
243.503	8948.79
246.396	8978.27
249.289	8973.1
252.181	9039.46
255.074	9044.76
257.967	9045.96
260.859	9097.44
263.752	9075.15
266.645	9044.37
269.538	9047.3
272.43	9069.37
275.323	9029.47
278.216	9071.73
281.108	9073.82
284.001	9206.16
286.894	9189.35
289.786	9088.95
292.679	9108.84
295.572	9061.4
298.464	9071.14
301.357	9165.3
304.25	9141.18
307.143	9209.71
310.035	9150.73
312.928	9083.47
315.821	9097.67
318.713	9062.08
321.606	9053
324.499	9024.86
327.392	9114.89
330.284	9040.63
333.177	9003.42
336.07	8988.11
338.962	8964.88
341.855	8834.78
344.748	8794.28
347.64	8864.31
350.533	8851.44
353.426	8817.89
356.318	8834.16
359.211	8633.23
362.104	8584.22
364.997	8623.39
367.889	8588.04
370.782	8597.55
373.675	8592.57
376.567	8533.34
379.46	8597.18
382.353	8509.89
385.245	8390.11
388.138	8314.67
391.031	8363.67
393.924	8374.03
396.816	8423.88
399.709	8359.26
402.602	8291.89
405.494	8174.62
408.387	8142.62
411.28	8166.98
414.173	8135.19
417.065	8121.47
419.958	8156.62
422.851	8110.94
425.743	8121.24
428.636	8036.96
431.529	7999.62
434.421	7896.91
437.314	7944.64
440.207	7881.71
443.099	7882.65
445.992	7834.28
448.885	7836.25
451.778	7798.06
454.67	7743.2
457.563	7675.35
460.456	7706.73
463.348	7658.4
466.241	7711.64
469.134	7663.53
472.026	7602.35
474.919	7595.91
477.812	7504.79
480.705	7485.47
483.597	7516.53
486.49	7476.5
489.383	7491.39
492.275	7510.28
495.168	7475.3
498.061	7440.65
500.954	7406.48
503.846	7394.58
506.739	7300.38
509.632	7313.43
512.524	7339.79
515.417	7293.96
518.31	7357.03
521.202	7341.28
524.095	7306.34
526.988	7287.15
529.88	7246.64
532.773	7213.65
535.666	7170.9
538.559	7222.93
541.451	7237.56
544.344	7192.51
547.237	7191.02
550.129	7174.94
553.022	7176.46
555.915	7149.8
558.808	7212.23
561.7	7179.29
564.593	7218.68
567.486	7162.05
570.378	7099.55
573.271	7100.51
576.164	7106
579.056	7205.16
581.949	7140.91
584.842	7195.63
587.735	7151.22
590.627	7122.8
593.52	7127.65
596.413	7088.2
599.305	7132.04
602.198	7098.68
605.091	7110.26
607.983	7115.89
610.876	7127.17
613.769	7070.68
616.662	7045.2
619.554	7092.06
622.447	7142.65
625.34	7080.88
628.232	7071.47
631.125	7103.39
634.018	7010.28
636.91	7009.98
639.803	7041.38
642.696	6974.76
645.588	6893.4
648.481	6953.32
651.374	6927.7
654.267	6903.09
657.159	6900.09
660.052	6925.71
662.945	6876.17
665.837	6860.92
668.73	6778.54
671.623	6785.77
674.515	6783.69
677.408	6773.48
680.301	6738.88
683.194	6666.95
686.086	6644.68
688.979	6662.82
691.872	6628.88
694.764	6581.65
697.657	6565.73
700.55	6588.68
703.442	6578.1
706.335	6531.49
709.228	6499.43
712.121	6505.08
715.013	6476.52
717.906	6476.91
720.799	6486.71
723.691	6447.12
726.584	6433.1
729.477	6396.43
732.37	6377.81
735.262	6349.53
738.155	6356.77
741.048	6330.8
743.94	6313.48
746.833	6381.89
749.726	6370.26
752.618	6339.48
755.511	6359.47
758.404	6260.09
761.297	6304.78
764.189	6288.02
767.082	6232.56
769.975	6262.6
772.867	6259.65
775.76	6265.76
778.653	6229.32
781.545	6275.22
784.438	6238.57
787.331	6237
790.223	6226.94
793.116	6212.83
796.009	6242.29
798.902	6181.26
801.794	6122.81
804.687	6142.35
807.58	6134.1
810.472	6173.02
813.365	6109.38
816.258	6108.09
819.15	6086.38
822.043	5990.5
824.936	6052.47
827.829	6027.85
830.721	6003.87
833.614	5953.54
836.507	5947.03
839.399	5940.81
842.292	5900.19
845.185	5863.66
848.077	5894.18
850.97	5766.47
853.863	5792.92
856.756	5758.7
859.648	5780.74
862.541	5727.15
865.434	5689.76
868.326	5615.81
871.219	5605.49
874.112	5590.01
877.005	5505.6
879.897	5481.28
882.79	5482.22
885.683	5438.51
888.575	5340.82
891.468	5359.42
894.361	5329.65
897.253	5252.49
900.146	5229.84
903.039	5185.62
905.932	5148.22
908.824	5101.69
911.717	5047.42
914.61	5015.92
917.502	4946.06
920.395	4881.04
923.288	4870.91
926.18	4850.27
929.073	4850.9
931.966	4794.02
934.859	4769.65
937.751	4719.73
940.644	4638.39
943.537	4647
946.429	4569.34
949.322	4637.69
952.215	4563.56
955.107	4582.59
958	4542.06
960.893	4548.94
963.785	4516.34
966.678	4488.95
969.571	4460.02
972.464	4466.62
975.356	4440.01
978.249	4422.04
981.142	4418.78
984.034	4422.98
986.927	4413.53
989.82	4399.19
992.712	4394.63
995.605	4345.43
998.498	4392.42
1001.39	4351.64
1004.28	4383.36
1007.18	4432.03
1010.07	4411.21
1012.96	4403.38
1015.85	4396.98
1018.75	4402.97
1021.64	4327.06
1024.53	4352.48
1027.42	4351.58
1030.32	4413.81
1033.21	4440.85
1036.1	4411.06
1039	4394.14
1041.89	4460.29
1044.78	4439.49
1047.67	4436.12
1050.57	4455.99
1053.46	4490.57
1056.35	4482.47
1059.24	4495.46
1062.14	4458.99
1065.03	4506.74
1067.92	4545.62
1070.82	4542.9
1073.71	4584.69
1076.6	4658.41
1079.49	4643.4
1082.39	4663.14
1085.28	4680.88
1088.17	4738.5
1091.06	4767.71
1093.96	4872.44
1096.85	4887.23
1099.74	4887.39
1102.63	4957.22
1105.53	4976.61
1108.42	5046.12
1111.31	5138.03
1114.21	5179.17
1117.1	5277.51
1119.99	5345.08
1122.88	5414.86
1125.78	5481.73
1128.67	5538.85
1131.56	5607.16
1134.45	5700.86
1137.35	5765.9
1140.24	5856.06
1143.13	5927.93
1146.03	6065.04
1148.92	6141.96
1151.81	6187.52
1154.7	6294.94
1157.6	6382.15
1160.49	6503.16
1163.38	6571.81
1166.27	6630.22
1169.17	6747.61
1172.06	6884.71
1174.95	6872.53
1177.85	6988.13
1180.74	7063.35
1183.63	7108
1186.52	7186.33
1189.42	7266.72
1192.31	7347.67
1195.2	7363.8
1198.09	7471.45
1200.99	7487.82
1203.88	7537.94
1206.77	7512.67
1209.66	7546.29
1212.56	7678.35
1215.45	7696.02
1218.34	7735.54
1221.24	7742.55
1224.13	7776.24
1227.02	7801.47
1229.91	7827.2
1232.81	7824.51
1235.7	7883.92
1238.59	7946.39
1241.48	7974.98
1244.38	7984.19
1247.27	8032.05
1250.16	8122.58
1253.06	8149.01
1255.95	8211.47
1258.84	8309.89
1261.73	8420.93
