Measurement: Raman, 785 nm, unoriented, Raman Data Processed
Mineral: Yttrotungstite-(Y)
Rruff sample: R050569
Ideal chemistry: Y^3+^W^6+^_2_O_6_(OH)_3_
Locality: Perak, Malaysia
Source: University of Arizona Mineral Museum
Description: Colorless flattened lathlike crystals
Measured chemistry: (Y_0.70_Nd_0.10_Ce_0.07_Dy_0.07_La_0.04_Ca_0.02_)_Σ=1_W_2.00_(O_6.00_(OH)_2.98_(H_2_O)_0.02_)_Σ=9_ ; O, OH and H_2_O estimated by difference and charge balance.
Raman shift (cm-1)	intensity
175.306	0
178.199	40.2188
181.092	286.434
183.985	924.684
186.877	1662.16
189.77	2299.39
192.663	3288.14
195.555	3793.27
198.448	4475.82
201.341	4643.28
204.233	4743.47
207.126	4693.78
210.019	4536.33
212.912	4341.4
215.804	4161.93
218.697	3879.93
221.59	3876.99
224.482	3875.16
227.375	3529.48
230.268	3099.76
233.161	2825.82
236.053	2599.51
238.946	2740.55
241.839	2888.66
244.731	3139.64
247.624	3319.79
250.517	3528.87
253.409	3381.15
256.302	3492.27
259.195	3733.94
262.087	3675.15
264.98	3696.22
267.873	3556.47
270.766	3603.63
273.658	3297.03
276.551	2939.73
279.444	2487.4
282.336	2109.53
285.229	1811.81
288.122	1815.48
291.014	1622.09
293.907	1468.94
296.8	1404.43
299.693	987.906
302.585	891.344
305.478	786.469
308.371	478.801
311.263	217.324
314.156	37.8164
317.049	356.273
319.942	276.828
322.834	224.449
325.727	104.453
328.62	70.1602
331.512	200.133
334.405	276.496
337.298	456.18
340.19	630.891
343.083	931.078
345.976	1174.78
348.868	1421.11
351.761	1785.26
354.654	2187.32
357.547	2280.59
360.439	2528.37
363.332	2503.8
366.225	2676.35
369.117	2835.15
372.01	2909.1
374.903	2609.34
377.796	2068.34
380.688	1552.31
383.581	1283.93
386.474	1020.08
389.366	932.066
392.259	1294.85
395.152	1401.84
398.044	1521.91
400.937	1254.11
403.83	870.828
406.723	636.574
409.615	339.047
412.508	333.723
415.401	167.137
418.293	531.742
421.186	266.555
424.079	417.512
426.971	252.75
429.864	420.168
432.757	495.852
435.649	539.039
438.542	603.023
441.435	452.523
444.328	628.867
447.22	690.535
450.113	718.535
453.006	639.07
455.898	653.809
458.791	591.84
461.684	760.828
464.577	839.227
467.469	822.918
470.362	813.156
473.255	610.484
476.147	460.004
479.04	424.133
481.933	504.988
484.825	450.391
487.718	671.141
490.611	684.973
493.503	972.602
496.396	775.16
499.289	1077.11
502.182	1017.59
505.074	1083.53
507.967	1232.35
510.86	1366
513.752	1438.78
516.645	1232.74
519.538	885.688
522.431	855.586
525.323	581.629
528.216	367.578
531.109	376.531
534.001	305.113
536.894	51.1758
539.787	119.293
542.679	187.379
545.572	216.195
548.465	29.0117
551.357	24.8945
554.25	96.2773
557.143	63.4062
560.036	392.977
562.928	383.328
565.821	431.625
568.714	90.7305
571.606	11.6914
574.499	47.7148
577.392	14.6914
580.284	128.746
583.177	209.016
586.07	308.75
588.963	347.731
591.855	305.207
594.748	306.949
597.641	530.41
600.533	454.824
603.426	525.144
606.319	445.262
609.212	568.269
612.104	443.148
614.997	507.117
617.89	525.617
620.782	521.562
623.675	493.617
626.568	622.168
629.46	691.348
632.353	527.891
635.246	520.547
638.139	403.547
641.031	477.5
643.924	465.633
646.817	335.051
649.709	361.359
652.602	303.809
655.495	494.879
658.388	445.883
661.28	638.324
664.173	341.277
667.066	405.426
669.958	432.488
672.851	537.844
675.744	630.09
678.636	686.57
681.529	718.836
684.422	957.5
687.314	1144.79
690.207	1360.37
693.1	1685.75
695.993	1669.39
698.885	1593.79
701.778	1455.05
704.671	1404.2
707.563	1249.11
710.456	1277.76
713.349	882.723
716.241	1105.23
719.134	715.449
722.027	635.016
724.92	485.25
727.812	349.031
730.705	230.523
733.598	221.223
736.49	54.3867
739.383	21.7773
742.276	160.019
745.168	87.6836
748.061	73.1953
750.954	122.656
753.847	31.3789
756.739	40.0391
759.632	21.0469
762.525	20.5859
765.417	97.0898
768.31	5.42188
771.203	39.625
774.096	89.4023
776.988	168.809
779.881	43.2461
782.774	218.188
785.666	159.938
788.559	190.301
791.452	244.535
794.344	80.1406
797.237	213.266
800.13	7.30078
803.023	139.191
805.915	55.3906
808.808	46.7148
811.701	135.965
814.593	142.078
817.486	128.269
820.379	199.207
823.271	161.797
826.164	289.777
829.057	410.711
831.949	531.098
834.842	866.949
837.735	1233.88
840.628	1606.39
843.52	2192.93
846.413	3155.78
849.306	3578.84
852.198	3983.49
855.091	3646.55
857.984	2942.12
860.876	2260.24
863.769	2008.2
866.662	1723.97
869.555	1557.3
872.447	1030.82
875.34	436.594
878.233	321.852
881.125	74.2578
884.018	86.5195
886.911	111.863
889.803	66.293
892.696	130.086
895.589	91.3398
898.482	19.8164
901.374	30.1172
904.267	65.9727
907.16	300.629
910.052	311.043
912.945	492.859
915.838	699.102
918.731	841.184
921.623	1285.91
924.516	1518.36
927.409	1609.73
930.301	1873.82
933.194	2610.07
936.087	3641.97
938.979	5404.22
941.872	7349.61
944.765	9247.97
947.658	9657.84
950.55	7993.64
953.443	5357.88
956.336	3516.04
959.228	2336.39
962.121	1609
965.014	986.734
967.906	867
970.799	616.516
973.692	460.481
976.585	284.551
979.477	161.414
982.37	267.617
985.263	94.6445
988.155	9.69922
991.048	42.3047
993.941	22.918
996.833	17.5
999.726	94.5977
1002.62	64.3984
1005.51	117.852
1008.4	88.4414
1011.3	31.5391
1014.19	3.74219
1017.08	64.3203
1019.98	45.2422
1022.87	30.0508
1025.76	102.828
1028.65	48.625
1031.55	44.8711
1034.44	45.918
1037.33	198.008
1040.22	95.3906
1043.12	34.1582
1046.01	177
1048.9	217.512
1051.8	157.348
1054.69	188.174
1057.58	292.191
1060.47	96.5156
1063.37	110.363
1066.26	128.66
1069.15	265.717
1072.04	333.535
1074.94	175.809
1077.83	157.174
1080.72	234.215
1083.61	279.85
1086.51	234.94
1089.4	275.449
1092.29	457.893
1095.18	329.984
1098.08	353.111
1100.97	270.504
1103.86	476.131
1106.76	267.068
1109.65	389.393
1112.54	411.565
1115.43	439.24
1118.33	371.375
1121.22	363.889
1124.11	454.603
1127.01	557.451
1129.9	477.644
1132.79	313.807
1135.68	482
1138.58	488.627
1141.47	583.443
1144.36	516.51
1147.25	568.844
1150.15	626.428
1153.04	545.57
1155.93	417.172
1158.83	396.473
1161.72	461.603
1164.61	417.725
1167.5	359.262
1170.39	255.838
1173.29	254.551
1176.18	214.471
1179.07	244.047
1181.97	61.375
1184.86	140.902
1187.75	57.3105
1190.64	16.0371
1193.54	126.678
1196.43	137.502
1199.32	181.889
1202.21	156.047
1205.11	231.043
1208	362.125
1210.89	377.719
1213.79	417.32
1216.68	404.637
1219.57	313.266
1222.46	378.519
1225.36	267.809
1228.25	200.656
1231.14	200.68
1234.04	148.062
1236.93	169.156
1239.82	216.473
1242.71	100.691
