Measurement: Raman, 785 nm, unoriented, Raman Data RAW
Mineral: Yuksporite
Rruff sample: R060818
Ideal chemistry: K_4_(Ca,Na)_14_(Sr,Ba)_2_([box],Mn^2+^,Fe^3+^)(Ti^4+^,Nb^5+^)_4_(O,OH)_4_(Si_6_O_17_)_2_(Si_2_O_7_)_3_(H_2_O,OH)_3_
Locality: Chibiny, Kola Peninsula, Russia
Source: Bob Jenkins
Description: Aggregate of tan colored thin lamellae formed from parallel fibers
Raman shift (cm-1)	intensity
210.237	526.875
213.13	540.479
216.022	530.375
218.915	506.433
221.808	508.288
224.7	489.297
227.593	514.741
230.486	471.433
233.379	490.583
236.271	506.129
239.164	489.277
242.057	497.996
244.949	491.757
247.842	506.994
250.735	478.946
253.627	485.224
256.52	518.912
259.413	518.228
262.305	527.769
265.198	529.855
268.091	541.199
270.984	537.449
273.876	534.33
276.769	538.244
279.662	543.451
282.554	545.24
285.447	534.289
288.34	540.287
291.233	554.516
294.125	571.805
297.018	587.577
299.911	615.084
302.803	607.633
305.696	606.522
308.589	607.108
311.481	614.764
314.374	596.386
317.267	604.476
320.159	658.726
323.052	701.411
325.945	768.274
328.838	776.351
331.73	759.77
334.623	680.097
337.516	629.391
340.408	595.52
343.301	575.06
346.194	534.157
349.087	554.512
351.979	537.19
354.872	537.556
357.765	512.444
360.657	517.082
363.55	516.806
366.443	516.451
369.335	517.332
372.228	520.276
375.121	525.812
378.014	531.453
380.906	521.478
383.799	524.275
386.692	538.05
389.584	539.779
392.477	561.083
395.37	578.54
398.262	609.157
401.155	604.483
404.048	621.136
406.941	617.533
409.833	626.537
412.726	685.304
415.619	704.05
418.511	753.741
421.404	765.424
424.297	808.827
427.19	824.495
430.082	859.261
432.975	823.97
435.868	808.972
438.76	754.938
441.653	765.666
444.546	726.124
447.438	684.131
450.331	692.132
453.224	683.809
456.116	673.944
459.009	644.721
461.902	659.98
464.795	639.986
467.687	634.717
470.58	630.846
473.473	629.938
476.365	624.777
479.258	655.091
482.151	707.119
485.043	775.289
487.936	835.277
490.829	878.543
493.722	931.405
496.614	911.192
499.507	849.755
502.4	769.171
505.292	713.495
508.185	637.233
511.078	603.138
513.971	562.976
516.863	538.357
519.756	527.674
522.649	510.116
525.541	487.457
528.434	508.267
531.327	493.178
534.219	468.868
537.112	474.49
540.005	482.399
542.898	480.995
545.79	481.719
548.683	485.036
551.576	492.352
554.468	460.362
557.361	476.245
560.254	474.127
563.146	477.371
566.039	447.24
568.932	440.388
571.824	468.004
574.717	466.008
577.61	467.944
580.503	476.108
583.395	450.882
586.288	457.298
589.181	481.628
592.073	480.506
594.966	465.855
597.859	466.846
600.751	474.668
603.644	453.846
606.537	464.784
609.43	487.046
612.322	464.165
615.215	471.303
618.108	462.511
621	462.913
623.893	477.397
626.786	476.462
629.678	470.381
632.571	464.531
635.464	485.229
638.357	475.059
641.249	477.977
644.142	466.279
647.035	477.767
649.927	493.014
652.82	474.165
655.713	468.166
658.606	468.744
661.498	475.5
664.391	484.44
667.284	482.204
670.176	486.531
673.069	487.19
675.962	505.414
678.854	488.822
681.747	471.071
684.64	486.921
687.533	479.341
690.425	493.865
693.318	491.003
696.211	493.861
699.103	502.229
701.996	480.498
704.889	459.686
707.781	470.919
710.674	456.241
713.567	479.489
716.46	485.917
719.352	482.725
722.245	484.474
725.138	485.104
728.03	464.608
730.923	449.332
733.816	465.015
736.708	456.326
739.601	462.238
742.494	469.784
745.386	450.755
748.279	464.417
751.172	489.791
754.065	477.981
756.957	471.92
759.85	468.623
762.743	478.274
765.635	453.442
768.528	422.434
771.421	469.387
774.313	428.475
777.206	442.896
780.099	447.351
782.992	461.872
785.884	455.705
788.777	453.277
791.67	482.745
794.562	469.47
797.455	443.896
800.348	448.937
803.24	447.654
806.133	465.731
809.026	459.796
811.919	450.649
814.811	456.317
817.704	466.526
820.597	481.303
823.489	456.639
826.382	459.188
829.275	471.55
832.168	445.566
835.06	467.071
837.953	458.804
840.846	458.767
843.738	454.081
846.631	462.73
849.524	461.072
852.416	452.839
855.309	469.558
858.202	443.047
861.095	449.577
863.987	456.243
866.88	455.601
869.773	433.282
872.665	441.714
875.558	445.439
878.451	453.417
881.343	454.305
884.236	433.53
887.129	439.391
890.021	459.635
892.914	441.409
895.807	461.416
898.7	423.072
901.592	438.189
904.485	440.324
907.378	435.203
910.27	444.185
913.163	451.451
916.056	422.125
918.949	459.031
921.841	431.815
924.734	424.728
927.627	440.255
930.519	432.613
933.412	452.525
936.305	428.796
939.197	449.307
942.09	414.967
944.983	442.524
947.876	421.059
950.768	440.093
953.661	437.425
956.554	423.42
959.446	429.649
962.339	433.119
965.232	440.312
968.125	436.952
971.017	436.156
973.91	439.124
976.803	434.384
979.695	415.034
982.588	426.592
985.481	431.266
988.373	412.001
991.266	421.482
994.159	413.861
997.052	409.668
999.944	416.758
1002.84	422.619
1005.73	432.469
1008.62	426.549
1011.51	426.058
1014.41	430.895
1017.3	438.614
1020.19	428.054
1023.09	423.768
1025.98	421.431
1028.87	425.111
1031.76	434.513
1034.66	433.492
1037.55	431.763
1040.44	428.994
1043.34	440.186
1046.23	445.265
1049.12	434.754
1052.01	459.892
1054.91	454.069
1057.8	451.98
1060.69	472.4
1063.58	473.17
1066.48	515.172
1069.37	543.256
1072.26	618.502
1075.15	738.956
1078.05	765.371
1080.94	653.942
1083.83	516.979
1086.72	487.067
1089.62	426.934
1092.51	446.671
1095.4	430.408
1098.3	417.343
1101.19	405.372
1104.08	429.169
1106.97	412.406
1109.87	417.097
1112.76	420.412
1115.65	421.867
1118.55	415.509
1121.44	409.274
1124.33	401.432
1127.22	408.486
1130.12	414.853
1133.01	407.881
1135.9	418.429
1138.79	392.59
1141.69	417.426
1144.58	397.552
1147.47	401.606
1150.37	422.925
1153.26	423.124
1156.15	416.285
1159.04	410.425
1161.93	409.628
1164.83	409.352
1167.72	399.18
1170.61	407.401
1173.51	394.644
1176.4	401.508
1179.29	409.551
1182.18	404.666
1185.08	396.215
1187.97	395.175
1190.86	418.834
1193.76	410.25
1196.65	410.322
1199.54	405.068
1202.43	385.223
1205.33	385.927
1208.22	376.815
1211.11	407.92
1214	402.748
1216.9	418.951
1219.79	410.312
1222.68	374.095
1225.58	417.205
1228.47	414.799
1231.36	397.239
1234.25	412.998
1237.15	378.94
1240.04	355.02
1242.93	395.22
1245.82	406.55
1248.72	412.973
1251.61	406.509
1254.5	403.369
1257.39	409.262
1260.29	384.474
1263.18	396.077
1266.07	422.233
1268.96	384.358
1271.86	406.745
