Measurement: Raman, 532 nm, unoriented, Raman Data Processed
Mineral: Zhanghuifenite
Rruff sample: R160030
Ideal chemistry: Na_3_Mn^2+^_4_Mg_2_Al(PO_4_)_6_
Locality: Santa Ana pegmatite, Totoral pegmatitic field, Coronel Pringles Department, San Luis, Argentina
Source: Jaroslav Hyršl
Description: Dark green massive in veinlets, associated with beusite and lithiophilite. Type sample
Measured chemistry: (Na_2.80_Ca_0.11_)_Σ2.91_(Mn_3.09_Fe^2+^_0.47_Mg_0.36_)_Σ3.92_(Mg_1.31_Fe^2+^_0.69_)_Σ2.00_(Al_0.81_Fe^3+^_0.19_)_Σ1.00_(PO_4_)_6_
Raman shift (cm-1)	intensity
106.37	0
109.745	19.501
113.12	0.544403
116.494	11.9883
119.869	8.70831
123.244	3.20258
126.619	4.52774
129.994	8.87592
133.368	16.7037
136.743	14.5549
140.118	28.3025
143.493	24.7219
146.868	25.1658
150.243	27.2886
153.617	25.6507
156.992	25.4383
160.367	17.5174
163.742	21.5176
167.117	19.2544
170.491	19.5721
173.866	14.997
177.241	9.81421
180.616	5.64911
183.991	2.4183
187.365	2.36554
190.74	2.07224
194.115	0.89621
197.49	0.280792
200.865	5.58835
204.24	11.1971
207.614	16.8121
210.989	21.5883
214.364	30.9956
217.739	37.3792
221.114	44.9762
224.488	45.8381
227.863	44.054
231.238	38.5706
234.613	30.1393
237.988	26.7832
241.363	23.8061
244.737	19.0739
248.112	16.8138
251.487	11.0111
254.862	9.50403
258.237	9.17975
261.611	9.74795
264.986	11.8272
268.361	10.9605
271.736	14.6928
275.111	17.3298
278.486	17.6346
281.86	12.9929
285.235	9.98701
288.61	7.52704
291.985	4.145
295.36	1.87662
298.734	1.84567
302.109	2.45135
305.484	1.90982
308.859	2.81537
312.234	2.96281
315.608	3.46764
318.983	2.23846
322.358	3.85754
325.733	2.87418
329.108	0.215729
332.483	1.97398
335.857	1.2691
339.232	2.30556
342.607	4.18373
345.982	7.40451
349.357	11.0549
352.731	15.811
356.106	21.0946
359.481	25.1523
362.856	28.1794
366.231	26.7673
369.606	21.7218
372.98	15.8902
376.355	11.0958
379.73	6.77599
383.105	5.18485
386.48	2.77779
389.854	0.078613
393.229	2.0031
396.604	3.10388
399.979	2.38103
403.354	1.08502
406.728	8.57533
410.103	20.3878
413.478	39.3811
416.853	56.4683
420.228	58.2899
423.603	42.5754
426.977	24.4974
430.352	15.8872
433.727	15.8652
437.102	20.0722
440.477	30.7795
443.851	45.9937
447.226	63.5497
450.601	81.3836
453.976	96.0229
457.351	105.841
460.726	123.234
464.1	153.144
467.475	192.132
470.85	217.967
474.225	213.103
477.6	190.6
480.974	181.708
484.349	190.834
487.724	202.108
491.099	202.655
494.474	177.542
497.849	138.894
501.223	109.075
504.598	90.4734
507.973	74.2986
511.348	65.8235
514.723	55.6795
518.097	45.3215
521.472	32.3554
524.847	18.0502
528.222	6.58136
531.597	0.727768
534.972	3.4986
538.346	3.7243
541.721	3.68077
545.096	0.863434
548.471	6.11177
551.846	16.1481
555.221	28.6846
558.595	46.1747
561.97	64.3409
565.345	85.1392
568.72	104.671
572.095	109.539
575.469	93.92
578.844	78.2744
582.219	75.7763
585.594	81.0609
588.969	93.258
592.343	109.68
595.718	131.144
599.093	144.001
602.468	150.458
605.843	142.972
609.217	132.009
612.592	118.533
615.967	106.302
619.342	88.7405
622.717	66.5136
626.092	54.5571
629.466	46.4148
632.841	47.6031
636.216	51.3148
639.591	50.1835
642.966	40.0935
646.341	26.5787
649.715	18.6152
653.09	12.9415
656.465	8.08273
659.84	9.28635
663.215	6.23282
666.589	3.2432
669.964	0.369522
673.339	1.80837
676.714	2.7887
680.089	1.3329
683.463	0.434021
686.838	0.747528
690.213	3.05875
693.588	2.06389
696.963	1.13133
700.338	0.73761
703.712	0.015137
707.087	0.692947
710.462	0.748947
713.837	0.158737
717.212	1.49681
720.587	1.40952
723.961	2.92245
727.336	2.62854
730.711	1.29466
734.086	1.95265
737.461	2.67285
740.835	2.45703
744.21	3.57062
747.585	3.76917
750.96	4.04619
754.335	3.37235
757.71	4.49144
761.084	3.96257
764.459	4.23584
767.834	3.2579
771.209	3.68123
774.584	3.14326
777.958	2.73055
781.333	3.1956
784.708	3.68979
788.083	2.95309
791.458	4.01604
794.832	3.06035
798.207	4.18007
801.582	5.21384
804.957	4.24544
808.332	4.28047
811.707	4.69722
815.081	5.20703
818.456	6.42804
821.831	6.45689
825.206	8.31371
828.581	7.42427
831.955	9.55073
835.33	8.03711
838.705	10.498
842.08	11.0369
845.455	11.9091
848.83	12.717
852.204	11.6782
855.579	10.7811
858.954	9.81514
862.329	9.16103
865.704	7.67267
869.078	7.15813
872.453	4.67699
875.828	2.88779
879.203	2.65598
882.578	0.561859
885.952	0.294678
889.327	0.705734
892.702	0.270798
896.077	0.75705
899.452	1.08417
902.827	2.54387
906.201	0.889893
909.576	0.009216
912.951	0.105011
916.326	1.56148
919.701	4.91684
923.076	12.5131
926.45	18.3385
929.825	29.6761
933.2	47.1018
936.575	78.5785
939.95	121.868
943.324	175.199
946.699	223.264
950.074	265.265
953.449	325.279
956.824	414.967
960.198	555.296
963.573	709.725
966.948	836.64
970.323	1010.54
973.698	1316.6
977.073	1700.88
980.447	1765.75
983.822	1243.37
987.197	751.973
990.572	483.266
993.947	326.485
997.322	226.336
1000.7	161.684
1004.07	123.138
1007.45	97.7194
1010.82	81.2582
1014.2	72.4781
1017.57	68.466
1020.95	57.7965
1024.32	40.218
1027.69	19.7354
1031.07	1.52588
1034.44	6.36859
1037.82	5.16721
1041.19	0.804962
1044.57	4.43518
1047.94	5.26218
1051.32	2.09369
1054.69	5.8494
1058.07	10.3077
1061.44	4.49615
1064.82	2.01898
1068.19	4.70416
1071.57	16.2977
1074.94	33.6168
1078.32	44.3596
1081.69	51.7678
1085.07	53.0592
1088.44	63.6258
1091.82	79.9587
1095.19	108.276
1098.57	157.802
1101.94	221.625
1105.32	272.642
1108.69	236.271
1112.07	148.357
1115.44	84.2859
1118.82	50.5243
1122.19	35.799
1125.56	29.8749
1128.94	31.101
1132.31	36.3986
1135.69	39.249
1139.06	39.5194
1142.44	40.235
1145.81	40.8544
1149.19	35.4483
1152.56	28.489
1155.94	23.039
1159.31	13.2443
1162.69	5.39609
1166.06	0.855347
1169.44	1.04553
1172.81	0.407761
1176.19	0.930176
1179.56	1.51009
1182.94	0.859177
1186.31	0.575394
1189.69	1.03487
1193.06	0.468918
1196.44	0.227097
1199.81	2.43822
1203.18	3.93372
1206.56	5.14284
1209.93	5.87422
1213.31	5.20526
1216.68	6.81442
1220.06	8.95734
1223.43	8.53062
1226.81	7.77499
1230.18	7.99385
1233.56	8.64455
1236.93	7.3524
1240.31	7.31126
1243.68	6.69023
1247.06	7.66301
1250.43	5.66451
1253.81	6.00221
1257.18	5.62189
1260.56	3.68712
1263.93	3.47266
1267.31	2.78253
1270.68	2.20856
1274.06	2.41219
1277.43	1.55513
1280.81	3.22458
1284.18	1.39636
1287.56	1.54953
1290.93	0.40979
1294.31	1.32727
1297.68	0.996964
1301.06	0.00769
