Measurement: Raman, 780 nm, unoriented, Raman Data Processed
Mineral: Zhanghuifenite
Rruff sample: R160030
Ideal chemistry: Na_3_Mn^2+^_4_Mg_2_Al(PO_4_)_6_
Locality: Santa Ana pegmatite, Totoral pegmatitic field, Coronel Pringles Department, San Luis, Argentina
Source: Jaroslav Hyršl
Description: Dark green massive in veinlets, associated with beusite and lithiophilite. Type sample
Measured chemistry: (Na_2.80_Ca_0.11_)_Σ2.91_(Mn_3.09_Fe^2+^_0.47_Mg_0.36_)_Σ3.92_(Mg_1.31_Fe^2+^_0.69_)_Σ2.00_(Al_0.81_Fe^3+^_0.19_)_Σ1.00_(PO_4_)_6_
Raman shift (cm-1)	intensity
132.338	0
135.23	1.42761
138.123	3.36176
141.016	5.11517
143.908	5.47275
146.801	8.66183
149.694	9.56574
152.586	11.5441
155.479	15.2104
158.372	16.6229
161.264	20.5461
164.157	21.7561
167.05	19.7879
169.943	17.7663
172.835	13.0862
175.728	9.87898
178.621	7.21661
181.513	4.37328
184.406	1.62389
187.299	0.913269
190.191	2.48183
193.084	1.13638
195.977	0.462112
198.87	1.35837
201.762	3.98924
204.655	6.72501
207.548	6.69015
210.44	9.46597
213.333	11.6302
216.226	12.5549
219.119	13.3494
222.011	15.2913
224.904	13.7555
227.797	15.5988
230.689	16.658
233.582	16.1007
236.475	16.5517
239.367	16.6278
242.26	16.7947
245.153	14.7446
248.046	12.3662
250.938	10.3805
253.831	7.7957
256.724	7.21606
259.616	6.1991
262.509	7.18262
265.402	5.84393
268.294	5.85428
271.187	5.36485
274.08	6.9353
276.973	4.19006
279.865	3.65108
282.758	4.55531
285.651	5.00243
288.543	4.72624
291.436	3.17535
294.329	4.88571
297.221	3.12123
300.114	3.74182
303.007	3.10713
305.899	3.30621
308.792	2.61615
311.685	0.932251
314.578	1.76912
317.47	0.655136
320.363	2.09253
323.256	1.46701
326.148	0.139801
329.041	0.407074
331.934	1.18729
334.827	2.06488
337.719	2.85776
340.612	4.79849
343.505	5.56259
346.397	7.06148
349.29	6.40976
352.183	7.52318
355.075	8.37437
357.968	9.02734
360.861	8.17071
363.753	8.05788
366.646	7.41052
369.539	6.51958
372.432	4.29436
375.324	4.29475
378.217	3.58926
381.11	1.49567
384.002	1.11552
386.895	0.735672
389.788	0.176712
392.68	0.048889
395.573	0.404495
398.466	1.33292
401.359	0.684723
404.251	0.150291
407.144	1.58183
410.037	2.9005
412.929	3.83848
415.822	6.73543
418.715	8.0319
421.608	8.31954
424.5	7.42281
427.393	6.59526
430.286	6.13406
433.178	6.00304
436.071	6.65526
438.964	7.70359
441.856	9.00116
444.749	11.0901
447.642	12.1713
450.534	14.2059
453.427	13.0374
456.32	14.5589
459.213	14.7465
462.105	15.4458
464.998	17.6116
467.891	18.6166
470.783	19.4786
473.676	16.9272
476.569	16.4294
479.462	14.6749
482.354	14.1126
485.247	15.3258
488.14	14.979
491.032	14.0489
493.925	14.6846
496.818	14.4846
499.71	12.684
502.603	11.4203
505.496	11.3836
508.389	9.6218
511.281	9.56293
514.174	7.25765
517.067	6.01276
519.959	4.54127
522.852	3.64557
525.745	1.11294
528.637	0.924561
531.53	0.16272
534.423	0.772858
537.316	0.000488
540.208	0.930252
543.101	0.79821
545.994	0.473618
548.886	1.32217
551.779	2.58276
554.672	3.92116
557.564	5.40405
560.457	6.99503
563.35	10.321
566.242	12.6673
569.135	15.7149
572.028	16.1894
574.921	14.957
577.813	13.8783
580.706	12.8154
583.599	13.4637
586.491	14.2194
589.384	16.4832
592.277	19.3513
595.17	22.6364
598.062	24.7135
600.955	26.7152
603.848	27.2175
606.74	24.949
609.633	22.7762
612.526	19.9907
615.418	16.1188
618.311	12.8969
621.204	10.9121
624.097	8.20602
626.989	6.37852
629.882	5.27895
632.775	5.77438
635.667	6.16104
638.56	4.70203
641.453	4.06918
644.346	3.8027
647.238	2.97974
650.131	2.46859
653.024	1.97992
655.916	1.65595
658.809	2.29327
661.702	0.470924
664.594	1.42789
667.487	0.103943
670.38	0.208672
673.273	0.143898
676.165	0.789246
679.058	0.385696
681.951	0.621803
684.843	0.5998
687.736	0.190399
690.629	0.097702
693.521	0.195908
696.414	0.220818
699.307	0.362694
702.199	0.311852
705.092	0.133003
707.985	1.06889
710.878	0.45015
713.77	1.23194
716.663	1.25303
719.556	0.864037
722.448	0.79705
725.341	0.617538
728.234	0.755798
731.126	0.408409
734.019	1.37514
736.912	0.936226
739.805	1.25024
742.697	0.48204
745.59	1.52795
748.483	1.18851
751.375	1.19251
754.268	1.05636
757.161	0.787918
760.053	1.57729
762.946	0.018158
765.839	0.719131
768.732	3.34261
771.624	0.638405
774.517	0.947098
777.41	0.38221
780.302	0.934601
783.195	0.745628
786.088	0.322083
788.981	0.635353
791.873	0.230392
794.766	0.499153
797.659	0.609337
800.551	0.49913
803.444	0.827782
806.337	0.380959
809.229	0.654427
812.122	0.59845
815.015	0.584808
817.908	1.13022
820.8	0.779823
823.693	0.959862
826.586	0.855835
829.478	0.075058
832.371	1.18198
835.264	0.696495
838.156	1.02935
841.049	1.28781
843.942	0.932228
846.835	1.62189
849.727	1.95911
852.62	1.37863
855.513	2.47178
858.405	1.21628
861.298	1.45715
864.191	1.21613
867.083	2.08993
869.976	1.15553
872.869	1.26936
875.761	1.98272
878.654	1.12431
881.547	1.09819
884.44	1.03886
887.332	0.664108
890.225	0.866302
893.118	0.200279
896.01	0.381241
898.903	0.11203
901.796	0.167122
904.688	0.924026
907.581	0.312538
910.474	0.509766
913.367	0.366409
916.259	1.36229
919.152	0.425674
922.045	0.608444
924.937	1.85488
927.83	1.69846
930.723	2.68983
933.615	2.41833
936.508	5.12279
939.401	6.61553
942.294	10.8701
945.186	11.8966
948.079	14.9105
950.972	17.2294
953.864	20.8041
956.757	26.7211
959.65	33.9845
962.543	41.8403
965.435	49.4415
968.328	58.9863
971.221	77.8239
974.113	102.375
977.006	119.62
979.899	110.349
982.791	80.0553
985.684	52.4017
988.577	35.4571
991.47	25.2574
994.362	17.7285
997.255	13.4069
1000.15	11.5118
1003.04	9.29785
1005.93	7.29357
1008.83	6.4361
1011.72	5.22124
1014.61	5.39969
1017.5	3.95894
1020.4	3.24469
1023.29	2.42187
1026.18	0.693245
1029.08	0.452385
1031.97	0.836479
1034.86	0.897629
1037.75	1.15072
1040.64	0.365372
1043.54	0.992157
1046.43	1.42604
1049.32	2.01955
1052.22	2.52948
1055.11	4.05502
1058	3.75548
1060.89	3.6053
1063.79	3.90472
1066.68	5.41891
1069.57	7.369
1072.46	9.01681
1075.36	10.9144
1078.25	11.5597
1081.14	12.3173
1084.04	14.1944
1086.93	13.9547
1089.82	14.5631
1092.71	15.597
1095.61	18.5118
1098.5	18.977
1101.39	18.9036
1104.29	18.3584
1107.18	16.1954
1110.07	12.4725
1112.96	8.75532
1115.86	6.80731
1118.75	6.50087
1121.64	6.03432
1124.53	7.16179
1127.43	6.90949
1130.32	7.0518
1133.21	5.99095
1136.1	5.81068
1139	4.96457
1141.89	5.08896
1144.78	3.18545
1147.67	2.15543
1150.57	1.54449
1153.46	1.59063
1156.35	0.674767
1159.25	0.828323
1162.14	0.011993
1165.03	0.660149
1167.92	0.159897
1170.82	0.11132
1173.71	0.018539
1176.6	0.480042
1179.49	0.442398
1182.39	0.093575
1185.28	0.890213
1188.17	0.660301
1191.07	1.3154
1193.96	0.92984
1196.85	1.55873
1199.74	0.999527
1202.64	1.88113
1205.53	1.20145
1208.42	1.66002
1211.32	1.91585
1214.21	2.74528
1217.1	2.36453
1219.99	2.73804
1222.88	2.16054
1225.78	1.8846
1228.67	2.32231
1231.56	1.80216
1234.46	1.78622
1237.35	1.20756
1240.24	1.46548
1243.13	1.78122
1246.03	1.62612
1248.92	1.59966
1251.81	0.210228
1254.7	1.48518
1257.6	2.52169
1260.49	0.671959
1263.38	1.08456
1266.28	1.04675
1269.17	0.442398
1272.06	0.587044
1274.95	1.32582
1277.85	0.105782
1280.74	0.395195
