Measurement: Raman, 532 nm, unoriented, Raman Data Processed
Mineral: Zhanghuifenite
Rruff sample: R141027
Ideal chemistry: Na_3_Mn^2+^_4_Mg_2_Al(PO_4_)_6_
Locality: Santa Ana Pegmatite, Totoral pegmatitic field, Coronel Pringles Department, San Luis, Argentina
Source: William W. Pinch
Description: Dark green massive, lighter green when thin, associated with quartz.
Measured chemistry: (Na_2.83_Ca_0.09_)_Σ2.92_(Mn_3.10_Fe_0.80_)_Σ3.90_(Mg_1.70_Fe^2+^_0.30_)_Σ2.00_(Al_0.82_Fe^3+^_0.18_)_Σ1.00_(PO_4_)_6_
Raman shift (cm-1)	intensity
89.7832	0
93.158	16.3556
96.5328	10.5219
99.9077	5.71335
103.282	1.20343
106.657	0.333023
110.032	14.2476
113.407	7.00444
116.782	14.3434
120.157	13.4194
123.531	8.29614
126.906	10.8495
130.281	9.89151
133.656	12.6687
137.031	10.5089
140.405	12.764
143.78	12.2733
147.155	9.03592
150.53	9.11719
153.905	9.09337
157.28	9.7805
160.654	5.92857
164.029	6.4024
167.404	7.84413
170.779	6.33437
174.154	6.6082
177.528	4.93562
180.903	3.76141
184.278	4.24417
187.653	2.34615
191.028	0.952881
194.403	1.37638
197.777	0.825203
201.152	0.736679
204.527	1.83189
207.902	2.55712
211.277	3.13449
214.651	6.3389
218.026	7.89961
221.401	10.4026
224.776	10.8647
228.151	9.33225
231.525	9.24029
234.9	8.71578
238.275	9.51314
241.65	10.2799
245.025	8.96076
248.4	9.55235
251.774	8.73822
255.149	10.9306
258.524	11.4398
261.899	12.0306
265.274	11.9058
268.649	12.7386
272.023	12.1667
275.398	11.8941
278.773	11.429
282.148	8.33436
285.523	5.43193
288.897	4.07163
292.272	3.46143
295.647	2.22552
299.022	2.12482
302.397	0.825401
305.772	1.60905
309.146	1.48373
312.521	0.819092
315.896	0.21183
319.271	0.607758
322.646	0.604721
326.02	0.275566
329.395	0.001511
332.77	0.301895
336.145	0.408928
339.52	0.623734
342.894	0.758934
346.269	0.429405
349.644	2.27761
353.019	2.63865
356.394	4.20535
359.769	5.14047
363.143	5.45808
366.518	5.87553
369.893	3.81047
373.268	2.02998
376.643	0.587318
380.017	0.031967
383.392	0.203194
386.767	0.606644
390.142	0.115639
393.517	1.43501
396.892	0.537399
400.266	0.456039
403.641	0.463165
407.016	2.05344
410.391	4.30604
413.766	9.24213
417.14	17.6701
420.515	20.819
423.89	18.62
427.265	14.5214
430.64	12.5931
434.014	14.5051
437.389	17.4829
440.764	23.808
444.139	31.2391
447.514	41.7887
450.889	49.3141
454.263	52.6294
457.638	45.9667
461.013	40.9688
464.388	41.0585
467.763	44.9043
471.137	49.1454
474.512	46.8015
477.887	36.6489
481.262	27.1862
484.637	21.9106
488.012	20.7559
491.386	18.9273
494.761	17.7823
498.136	17.9377
501.511	18.3149
504.886	15.8719
508.26	13.461
511.635	11.5104
515.01	9.48234
518.385	8.03695
521.76	5.27477
525.135	2.59158
528.509	0.893127
531.884	0.616676
535.259	1.75613
538.634	1.61776
542.009	1.0925
545.384	1.40806
548.758	3.52668
552.133	8.62817
555.508	12.8275
558.883	17.0477
562.258	23.5695
565.632	31.8069
569.007	40.6489
572.382	44.9289
575.757	39.4966
579.132	27.7892
582.506	23.8766
585.881	22.2408
589.256	25.7999
592.631	32.1367
596.006	42.927
599.381	52.0046
602.755	54.1982
606.13	50.8163
609.505	44.6557
612.88	40.6765
616.255	38.1946
619.63	30.7383
623.004	21.9419
626.379	17.5405
629.754	16.7967
633.129	18.034
636.504	21.5568
639.878	23.5766
643.253	19.9016
646.628	14.5732
650.003	9.86549
653.378	5.36487
656.752	3.55325
660.127	2.87647
663.502	1.71474
666.877	0.465027
670.252	0.312126
673.626	0.549377
677.001	0.62159
680.376	0.144066
683.751	0.459061
687.126	0.557808
690.501	0.731682
693.875	0.140602
697.25	0.992676
700.625	0.184578
704	0.650688
707.375	0.395683
710.75	0.466072
714.124	0.932465
717.499	0.971527
720.874	0.804146
724.249	0.507988
727.624	1.34666
730.998	0.736298
734.373	0.553391
737.748	1.40066
741.123	1.11897
744.498	1.70902
747.872	1.38525
751.247	2.41057
754.622	1.59608
757.997	1.50898
761.372	1.04501
764.747	0.352425
768.121	1.32418
771.496	1.12324
774.871	1.15598
778.246	1.01348
781.621	1.10504
784.995	0.586021
788.37	0.56852
791.745	1.39159
795.12	1.32479
798.495	1.93062
801.87	0.124702
805.244	1.19153
808.619	0.900284
811.994	1.3302
815.369	1.72134
818.744	1.93921
822.119	1.38748
825.493	1.37657
828.868	1.87783
832.243	2.45946
835.618	2.16883
838.993	3.76115
842.367	2.14442
845.742	3.493
849.117	3.13568
852.492	2.82449
855.867	2.85091
859.241	3.04771
862.616	2.27457
865.991	2.2542
869.366	1.50693
872.741	0.994827
876.115	1.71224
879.49	0.297699
882.865	0.514343
886.24	1.07719
889.615	1.56905
892.99	0.802162
896.364	0.812973
899.739	0.231911
903.114	0.068375
906.489	1.04605
909.864	1.08031
913.239	0.22438
916.613	0.723145
919.988	2.91222
923.363	3.41172
926.738	4.65459
930.113	8.82909
933.487	14.5319
936.862	25.0272
940.237	39.3397
943.612	56.0251
946.987	62.5491
950.361	59.0481
953.736	62.3546
957.111	74.5475
960.486	98.9721
963.861	136.924
967.236	178.581
970.61	240.419
973.985	342.725
977.36	481.884
980.735	549.083
984.11	406.846
987.485	241.032
990.859	149.271
994.234	100.278
997.609	68.8935
1000.98	50.6832
1004.36	38.1069
1007.73	30.2389
1011.11	26.1904
1014.48	25.0393
1017.86	25.0433
1021.23	23.2946
1024.61	20.3028
1027.98	16.6685
1031.36	11.8275
1034.73	7.88471
1038.11	6.85609
1041.48	5.49271
1044.86	3.56987
1048.23	1.50963
1051.61	0.702423
1054.98	1.998
1058.36	1.70825
1061.73	0.913727
1065.11	0.466034
1068.48	1.13222
1071.86	6.36354
1075.23	14.2655
1078.6	20.8606
1081.98	27.0273
1085.35	26.3474
1088.73	21.941
1092.1	16.9075
1095.48	14.2152
1098.85	15.1923
1102.23	16.8696
1105.6	18.0301
1108.98	16.8521
1112.35	12.673
1115.73	9.33658
1119.1	7.19923
1122.48	6.7491
1125.85	8.32513
1129.23	11.0627
1132.6	12.9326
1135.98	14.431
1139.35	15.8556
1142.73	18.4945
1146.1	20.2874
1149.48	19.7153
1152.85	18.0284
1156.22	13.9067
1159.6	10.264
1162.97	7.06097
1166.35	3.32271
1169.72	1.55781
1173.1	0.032074
1176.47	0.523712
1179.85	0.41217
1183.22	0.234856
1186.6	0.064003
1189.97	0.117981
1193.35	0.707802
1196.72	0.978073
1200.1	1.02539
1203.47	0.310257
1206.85	1.38832
1210.22	1.09084
1213.6	2.31595
1216.97	2.37245
1220.35	2.2744
1223.72	2.16126
1227.1	2.44135
1230.47	3.1625
1233.85	2.10938
1237.22	2.1948
1240.6	2.43963
1243.97	1.63861
1247.35	1.51518
1250.72	2.10349
1254.1	1.07719
1257.47	0.684471
1260.85	1.66593
1264.22	0.045448
1267.59	0.327072
1270.97	0.585747
1274.34	0.026543
1277.72	0.671265
1281.09	0.539993
1284.47	0.209183
1287.84	0.702393
1291.22	0.283356
1294.59	0.858749
1297.97	0.237976
1301.34	0.004135
