Measurement: Raman, 780 nm, unoriented, Raman Data Processed
Mineral: Zhanghuifenite
Rruff sample: R141027
Ideal chemistry: Na_3_Mn^2+^_4_Mg_2_Al(PO_4_)_6_
Locality: Santa Ana Pegmatite, Totoral pegmatitic field, Coronel Pringles Department, San Luis, Argentina
Source: William W. Pinch
Description: Dark green massive, lighter green when thin, associated with quartz.
Measured chemistry: (Na_2.83_Ca_0.09_)_Σ2.92_(Mn_3.10_Fe_0.80_)_Σ3.90_(Mg_1.70_Fe^2+^_0.30_)_Σ2.00_(Al_0.82_Fe^3+^_0.18_)_Σ1.00_(PO_4_)_6_
Raman shift (cm-1)	intensity
91.0773	0
94.4521	6.8233
97.8269	0.253326
101.202	0.593445
104.576	3.90805
107.951	11.6506
111.326	7.75525
114.701	6.86587
118.076	1.81058
121.451	1.09152
124.825	0.941925
128.2	2.27978
131.575	0.367371
134.95	1.82346
138.325	5.50061
141.7	6.69099
145.074	6.42671
148.449	6.17955
151.824	13.9719
155.199	20.7138
158.574	20.0874
161.948	21.9041
165.323	20.4177
168.698	19.4795
172.073	16.5179
175.448	12.335
178.822	9.0024
182.197	5.27289
185.572	2.29932
188.947	0.290588
192.322	1.23926
195.697	0.069199
199.071	0.113693
202.446	1.58684
205.821	2.52098
209.196	5.21458
212.571	6.12067
215.946	7.18582
219.32	8.81987
222.695	8.65869
226.07	10.1824
229.445	11.548
232.82	11.3029
236.194	10.8716
239.569	10.2046
242.944	10.0777
246.319	7.05331
249.694	7.36534
253.069	3.92943
256.443	7.89398
259.818	4.99571
263.193	5.93263
266.568	5.83868
269.943	5.1884
273.317	6.20528
276.692	6.66699
280.067	3.74805
283.442	2.98099
286.817	3.07706
290.192	2.18295
293.566	2.92319
296.941	2.99893
300.316	2.9514
303.691	2.85487
307.066	1.72165
310.44	1.63908
313.815	2.40495
317.19	0.845963
320.565	0.548309
323.94	0.922173
327.315	0.449341
330.689	0.126389
334.064	0.348907
337.439	1.36551
340.814	3.02679
344.189	5.63963
347.563	7.56773
350.938	7.00082
354.313	9.10633
357.688	10.6868
361.063	10.3855
364.438	9.01685
367.812	8.64661
371.187	6.52914
374.562	5.81509
377.937	3.36394
381.312	3.17173
384.686	0.998978
388.061	1.78592
391.436	0.281258
394.811	0.021461
398.186	0.819191
401.56	0.427887
404.935	0.124336
408.31	1.68983
411.685	3.8753
415.06	6.77903
418.435	8.32803
421.809	8.3786
425.184	6.92964
428.559	5.6693
431.934	6.66844
435.309	6.68618
438.683	8.40721
442.058	11.5032
445.433	13.9536
448.808	16.0744
452.183	17.7716
455.558	17.9349
458.932	16.8904
462.307	18.1632
465.682	19.1609
469.057	21.2298
472.432	19.3221
475.806	16.6552
479.181	15.5205
482.556	14.652
485.931	14.9091
489.306	15.0424
492.68	15.5612
496.055	14.672
499.43	13.0529
502.805	12.2933
506.18	11.6782
509.555	11.109
512.929	9.59119
516.304	7.60133
519.679	5.38929
523.054	2.97117
526.429	2.15491
529.803	0.152412
533.178	0.334366
536.553	0.687416
539.928	0.674805
543.303	1.24421
546.678	0.954918
550.052	2.9069
553.427	4.3722
556.802	5.05469
560.177	7.59011
563.552	10.8039
566.927	13.8337
570.301	16.198
573.676	16.1391
577.051	14.2965
580.426	14.0073
583.801	14.9657
587.175	17.9664
590.55	21.0144
593.925	26.4487
597.3	30.7127
600.675	31.4133
604.049	31.7452
607.424	28.4918
610.799	26.8932
614.174	22.985
617.549	18.0254
620.924	13.464
624.298	10.5352
627.673	9.28651
631.048	8.21503
634.423	8.66705
637.798	8.02753
641.173	6.82891
644.547	5.55193
647.922	3.26422
651.297	1.94504
654.672	1.95686
658.047	0.200851
661.421	1.17363
664.796	0.122704
668.171	0.207581
671.546	0.424736
674.921	0.443901
678.295	0.323097
681.67	0.246353
685.045	0.172028
688.42	0.125618
691.795	0.305962
695.17	0.556786
698.544	0.806
701.919	0.254868
705.294	0.331177
708.669	0.604958
712.044	1.53273
715.418	0.81813
718.793	1.23106
722.168	1.1718
725.543	1.10909
728.918	0.689529
732.293	1.95714
735.667	0.661018
739.042	0.96888
742.417	1.42234
745.792	1.59918
749.167	2.05802
752.541	1.76059
755.916	1.73085
759.291	0.636353
762.666	1.18424
766.041	0.250095
769.415	1.09169
772.79	1.17399
776.165	0.574322
779.54	0.311737
782.915	0.130985
786.29	0.279858
789.664	0.010078
793.039	0.178963
796.414	0.070137
799.789	0.220257
803.164	0.043678
806.538	0.540092
809.913	0.27845
813.288	0.401081
816.663	0.461983
820.038	0.71912
823.413	0.448353
826.787	1.06829
830.162	1.33455
833.537	1.38933
836.912	0.950836
840.287	1.96195
843.662	0.816029
847.036	2.21026
850.411	1.61038
853.786	1.24629
857.161	1.56869
860.536	2.4773
863.91	1.71682
867.285	2.0291
870.66	1.458
874.035	1.65304
877.41	1.046
880.784	0.970261
884.159	0.120575
887.534	0.197029
890.909	0.000572
894.284	0.253685
897.659	0.432808
901.033	0.310837
904.408	0.252502
907.783	0.036316
911.158	0.676125
914.533	0.198097
917.908	0.324455
921.282	1.30167
924.657	1.43384
928.032	2.47218
931.407	4.1813
934.782	7.12083
938.156	10.135
941.531	14.9579
944.906	18.2286
948.281	19.2754
951.656	22.9093
955.03	29.0651
958.405	39.8186
961.78	53.7019
965.155	67.9497
968.53	88.3323
971.904	121.636
975.279	165.126
978.654	175.24
982.029	125.25
985.404	73.9325
988.779	44.7263
992.153	29.0862
995.528	19.874
998.903	13.9728
1002.28	9.68558
1005.65	6.12769
1009.03	4.22295
1012.4	3.79295
1015.78	3.21196
1019.15	3.21912
1022.53	2.78175
1025.9	2.1633
1029.28	0.381752
1032.65	0.047791
1036.03	0.434761
1039.4	0.592239
1042.78	0.222229
1046.15	0.415497
1049.53	0.346375
1052.9	1.52564
1056.28	3.15944
1059.65	2.85312
1063.03	3.91083
1066.4	4.97121
1069.77	7.49753
1073.15	10.8172
1076.52	13.6277
1079.9	17.1624
1083.27	17.1208
1086.65	17.6501
1090.02	19.8204
1093.4	20.1055
1096.77	21.6402
1100.15	21.1068
1103.52	19.5859
1106.9	15.8575
1110.27	11.3017
1113.65	8.55669
1117.02	7.92306
1120.4	7.83966
1123.77	8.92496
1127.15	9.36915
1130.52	9.3222
1133.9	8.59185
1137.27	7.49911
1140.64	6.03317
1144.02	5.68829
1147.39	4.96525
1150.77	4.10787
1154.14	2.86364
1157.52	1.4205
1160.89	0.485329
1164.27	0.49218
1167.64	0.511002
1171.02	0.263412
1174.39	0.231819
1177.77	0.384949
1181.14	0.022118
1184.52	0.747478
1187.89	0.170338
1191.27	0.416847
1194.64	1.23089
1198.02	1.38705
1201.39	1.32755
1204.77	1.63784
1208.14	2.29896
1211.52	2.13179
1214.89	3.25343
1218.27	2.6534
1221.64	2.10935
1225.02	1.76138
1228.39	1.42484
1231.77	0.693012
1235.14	1.05939
1238.52	1.2656
1241.89	0.504261
1245.27	1.11313
1248.64	0.530125
1252.01	0.540241
1255.39	0.576302
1258.76	1.24921
1262.14	1.25781
1265.51	0.271931
1268.89	0.113518
1272.26	0.296249
1275.64	0.375328
1279.01	0.209023
1282.39	0
