Measurement: Raman, 785 nm, unoriented, Raman Data RAW
Mineral: Ziesite
Rruff sample: R070482
Ideal chemistry: Cu^2+^_2_V^5+^_2_O_7_
Locality: Izalco Volcano, Sonsonate Department, El Salvador
Source: Michael Scott
Description: Dark brown to black poorly-formed grains scattered over white efflorescent material, co-type material, associated with well-formed crystals of fingerite, R070614
Raman shift (cm-1)	intensity
92.9548	0
96.3296	17014.6
99.7044	8226.97
103.079	8441.62
106.454	16470.6
109.829	14060.1
113.204	3759.5
116.579	9380.38
119.953	8377.41
123.328	11740.7
126.703	8486.69
130.078	9782.89
133.453	962.172
136.827	7.73438
140.202	145.906
143.577	44.7031
146.952	1712.08
150.327	512.688
153.702	6252.11
157.076	9701.77
160.451	11020.6
163.826	8770.49
167.201	4881.92
170.576	1186.88
173.95	638.484
177.325	345.383
180.7	2661.74
184.075	2178.73
187.45	3028.75
190.824	4637.23
194.199	3788.18
197.574	4557.31
200.949	4631.65
204.324	5381.21
207.698	6007.95
211.073	6636.83
214.448	8717.78
217.823	9347.8
221.198	9688.57
224.573	10335.1
227.947	10453.5
231.322	9725.54
234.697	9601.02
238.072	8093.18
241.447	8405.85
244.821	7306.15
248.196	7138.72
251.571	6802.73
254.946	6640.29
258.321	5577.63
261.696	5236.28
265.07	4929.46
268.445	4480.32
271.82	4106.91
275.195	3388.35
278.57	3781.47
281.945	3115.37
285.319	2843.54
288.694	2060.72
292.069	1771.04
295.444	1619.93
298.818	1489.73
302.193	1235.39
305.568	1014.96
308.943	825.804
312.318	834.716
315.693	594.91
319.067	831.51
322.442	588.616
325.817	484.503
329.192	280.698
332.567	174.118
335.942	161.252
339.316	6.30762
342.691	161.52
346.066	9.0166
349.441	162.381
352.816	10.8955
356.19	307.684
359.565	200.24
362.94	243.202
366.315	65.0449
369.69	136.689
373.065	14.6523
376.439	316.118
379.814	241.696
383.189	73.8203
386.564	200.61
389.938	335.974
393.313	288.986
396.688	243.263
400.063	344.711
403.438	454.165
406.813	331.416
410.187	379.472
413.562	592.063
416.937	551.059
420.312	257.685
423.687	329.125
427.062	339.027
430.436	381.6
433.811	584.516
437.186	670.104
440.561	738.922
443.936	603.956
447.31	344.235
450.685	419.005
454.06	541.277
457.435	493.964
460.81	537.343
464.185	474.122
467.559	310.775
470.934	308.497
474.309	238.074
477.684	261.345
481.059	355.784
484.433	371.487
487.808	447.16
491.183	378.633
494.558	339.004
497.933	374.468
501.308	284.605
504.682	371.705
508.057	282.549
511.432	313.188
514.807	413.519
518.182	357.408
521.556	311.516
524.931	203.714
528.306	197.438
531.681	215.532
535.056	195.082
538.43	220.755
541.805	300.62
545.18	348.795
548.555	235.023
551.93	47.6394
555.304	45.9717
558.679	61.8313
562.054	3.38647
565.429	56.2961
568.804	74.0041
572.179	171.874
575.553	95.4578
578.928	143.54
582.303	175.045
585.678	83.1013
589.053	83.8799
592.428	105.993
595.802	234.91
599.177	105.151
602.552	148.998
605.927	161.092
609.302	194.616
612.676	124.269
616.051	98.5559
619.426	59.8101
622.801	16.6121
626.176	21.0164
629.551	13.8794
632.925	13.5149
636.3	31.9873
639.675	75.0105
643.05	2.67798
646.425	6.86475
649.799	19.8377
653.174	39.5016
656.549	93.4675
659.924	59.9404
663.299	67.288
666.673	35.246
670.048	30.4109
673.423	81.0497
676.798	40.8988
680.173	48.7554
683.548	21.0964
686.922	17.0756
690.297	19.8267
693.672	21.2862
697.047	13.9642
700.422	17.7571
703.796	17.3694
707.171	31.51
710.546	0.623291
713.921	19.7577
717.296	24.38
720.67	21.6592
724.045	24.8855
727.42	14.8505
730.795	51.8574
734.17	3.5647
737.545	26.4926
740.919	41.5569
744.294	47.2975
747.669	83.7044
751.044	67.0131
754.419	29.4342
757.793	16.8351
761.168	44.3973
764.543	57.7903
767.918	30.1631
771.293	28.1786
774.668	35.9567
778.042	34.0429
781.417	54.4571
784.792	16.8075
788.167	42.5818
791.542	79.4425
794.916	74.2347
798.291	50.0444
801.666	46.3715
805.041	61.3823
808.416	43.5143
811.79	53.5715
815.165	27.4176
818.54	30.9364
821.915	16.1365
825.29	19.8402
828.665	8.82666
832.039	36.6383
835.414	34.4276
838.789	26.7296
842.164	48.4436
845.539	11.0919
848.913	70.9039
852.288	30.2184
855.663	27.7581
859.038	49.4081
862.413	45.1141
865.788	44.2749
869.162	15.7523
872.537	23.4126
875.912	36.866
879.287	48.8429
882.662	56.9031
886.036	64.3899
889.411	42.9451
892.786	45.2094
896.161	63.6807
899.536	73.4755
902.91	71.0328
906.285	78.385
909.66	71.2726
913.035	76.3262
916.41	9.83533
919.785	16.087
923.159	25.9122
926.534	3.18567
929.909	4.61096
933.284	8.18835
936.659	14.8025
940.034	13.4996
943.408	5.46338
946.783	28.0469
950.158	4.12878
953.533	16.1611
956.908	39.1437
960.282	32.0715
963.657	10.3208
967.032	45.8773
970.407	61.9675
973.782	29.9651
977.157	45.4665
980.531	76.6179
983.906	102.874
987.281	91.1042
990.656	84.5206
994.031	103.338
997.405	113.177
1000.78	152.802
1004.15	136.972
1007.53	130.609
1010.9	160.896
1014.28	175.484
1017.65	200.615
1021.03	194.93
1024.4	141.057
1027.78	250.268
1031.15	197.565
1034.53	178.657
1037.9	207.687
1041.28	217.749
1044.65	194.932
1048.03	189.228
1051.4	226.737
1054.78	162.591
1058.15	183.45
1061.53	162.143
1064.9	165.183
1068.28	147.634
1071.65	123.482
1075.03	139.1
1078.4	134.431
1081.78	143.831
1085.15	167.109
1088.53	110.199
1091.9	88.1775
1095.28	77.972
1098.65	85.5293
1102.03	53.4932
1105.4	44.0463
1108.77	62.2621
1112.15	23.1368
1115.52	23.9868
1118.9	43.3987
1122.27	29.3494
1125.65	4.03528
1129.02	12.3795
1132.4	24.8517
1135.77	14.0448
1139.15	12.3585
1142.52	20.9841
1145.9	4.80811
1149.27	3.4115
1152.65	39.7003
1156.02	40.1527
1159.4	9.40381
1162.77	4.72144
1166.15	18.9144
1169.52	7.88806
1172.9	53.1812
1176.27	4.48267
1179.64	33.4001
1183.02	49.3606
1186.39	2.94336
1189.77	54.7898
1193.14	54.0383
1196.52	26.3816
1199.89	37.8099
1203.27	56.3873
1206.64	38.3928
1210.02	62.0038
1213.39	66.6101
1216.77	66.978
1220.14	53.8473
1223.52	51.0054
1226.89	73.9759
1230.27	58.1316
1233.64	83.6585
1237.02	44.9142
1240.39	50.1395
1243.77	71.7729
1247.14	18.9469
1250.52	43.07
