Measurement: Raman, 780 nm, unoriented, Raman Data RAW
Mineral: Zincolivenite
Rruff sample: R050583
Ideal chemistry: Cu^2+^Zn^2+^As^5+^O_4_(OH)
Locality: Tsumeb mine, Tsumeb, Otavi District, Oshikoto, Namibia
Source: University of Arizona Mineral Museum
Description: Green crystals associated with keyite, R050585, and schultenite, R050584
Measured chemistry: (Zn_1.04_Cu_0.96_)_Î£=2_(As_1.00_O_4_)(OH)
Raman shift (cm-1)	intensity
142.665	1082.59
145.558	1084.19
148.45	1068.62
151.343	1085.09
154.236	1055.58
157.129	1063.05
160.021	1073.94
162.914	1151.64
165.807	1248.24
168.699	1319.62
171.592	1390.79
174.485	1466.06
177.377	1461.77
180.27	1365.13
183.163	1159.77
186.055	1036.37
188.948	994.666
191.841	974.782
194.734	918.511
197.626	905.779
200.519	899.402
203.412	922.423
206.304	954.891
209.197	1047.29
212.09	1167.55
214.982	1311.39
217.875	1491.71
220.768	1649.07
223.661	1685.88
226.553	1538.53
229.446	1306.78
232.339	1114.12
235.231	977.377
238.124	868.545
241.017	830.364
243.91	795.447
246.802	762.996
249.695	733.16
252.588	755.295
255.48	757.835
258.373	777.617
261.266	840.034
264.158	944.265
267.051	1087.03
269.944	1298.42
272.837	1547.84
275.729	1876.34
278.622	2078.7
281.515	2067.8
284.407	1782.18
287.3	1377.31
290.193	1127.48
293.085	964.381
295.978	871.175
298.871	813.527
301.764	794.804
304.656	727.986
307.549	732.605
310.442	713.486
313.334	744.488
316.227	735.79
319.12	753.727
322.012	744.291
324.905	708.153
327.798	681.682
330.69	592.797
333.583	576.844
336.476	560.575
339.369	574.344
342.261	553.357
345.154	571.421
348.047	565.879
350.939	554.833
353.832	563.828
356.725	573.78
359.618	605.193
362.51	653.368
365.403	702.766
368.296	711.525
371.188	735.352
374.081	729.577
376.974	666.798
379.866	630.374
382.759	588.468
385.652	541.835
388.545	525.157
391.437	493.856
394.33	486.388
397.223	479.741
400.115	496.425
403.008	480.728
405.901	474.701
408.793	464.183
411.686	472.147
414.579	468.202
417.471	484.21
420.364	505.161
423.257	490.978
426.15	490.696
429.042	464.357
431.935	439.693
434.828	463.164
437.72	451.243
440.613	467.694
443.506	455.902
446.399	429.076
449.291	459.826
452.184	463.661
455.077	455.17
457.969	442.481
460.862	444.061
463.755	478.021
466.647	483.862
469.54	528.29
472.433	583.001
475.325	611.74
478.218	690.395
481.111	779.681
484.004	778.912
486.896	806.514
489.789	723.993
492.682	690.276
495.574	685.473
498.467	637.702
501.36	684.255
504.252	688.096
507.145	705.321
510.038	707.749
512.931	625.182
515.823	569.621
518.716	529.108
521.609	482.644
524.501	461.571
527.394	447.244
530.287	428.378
533.179	426.82
536.072	422.854
538.965	425.041
541.858	432.331
544.75	394.996
547.643	419.079
550.536	426.742
553.428	395.427
556.321	390.999
559.214	410.563
562.106	375.432
564.999	384.328
567.892	395.008
570.785	410.559
573.677	372.612
576.57	403.375
579.463	415.917
582.355	406.87
585.248	389.332
588.141	395.318
591.034	387.471
593.926	411.899
596.819	387.145
599.712	418.387
602.604	386.83
605.497	390.206
608.39	391.429
611.282	391.571
614.175	404.105
617.068	397.484
619.961	388.044
622.853	398.429
625.746	394.932
628.639	372.163
631.531	410.017
634.424	398.694
637.317	387.741
640.209	387.062
643.102	391.146
645.995	387.623
648.888	381.629
651.78	382.298
654.673	398.377
657.566	404.646
660.458	389.916
663.351	404.813
666.244	423.065
669.136	405.459
672.029	406.966
674.922	399.186
677.814	398.691
680.707	392.507
683.6	404.91
686.493	390.762
689.385	405.507
692.278	408.661
695.171	427.381
698.063	391.858
700.956	420.196
703.849	419.798
706.741	413.23
709.634	403.254
712.527	407.872
715.42	408.204
718.312	414.491
721.205	422.619
724.098	419.427
726.99	372.767
729.883	396.26
732.776	420.211
735.668	426.353
738.561	413.93
741.454	394.111
744.347	412.088
747.239	423.079
750.132	407.056
753.025	397.713
755.917	413.276
758.81	431.742
761.703	421.285
764.596	418.058
767.488	398.55
770.381	403.577
773.274	414.852
776.166	421.452
779.059	437.478
781.952	455.008
784.844	480.02
787.737	467.547
790.63	455.758
793.523	488.791
796.415	489.265
799.308	494.642
802.201	525.278
805.093	552.162
807.986	593.417
810.879	621.624
813.771	627.332
816.664	696.439
819.557	771.318
822.449	866.24
825.342	1040.6
828.235	1258.46
831.128	1525.59
834.02	1847.84
836.913	2049.74
839.806	2109.7
842.698	2169.06
845.591	2466.27
848.484	2976.29
851.376	3366.47
854.269	3293.27
857.162	2738.11
860.055	2159.39
862.947	1874.29
865.84	1943.39
868.733	2236.15
871.625	2616.47
874.518	3026.88
877.411	3075.03
880.303	2754.42
883.196	2214.42
886.089	1646.92
888.982	1227.3
891.874	958.303
894.767	801.406
897.66	706.173
900.552	659.858
903.445	626.174
906.338	553.93
909.231	535.993
912.123	527.738
915.016	494.668
917.909	489.45
920.801	469.271
923.694	456.674
926.587	470.01
929.479	446.537
932.372	434.933
935.265	439.226
938.158	450.701
941.05	428.982
943.943	433.851
946.836	417.709
949.728	408.364
952.621	429.281
955.514	419.312
958.406	411.524
961.299	418.523
964.192	393.52
967.085	400.319
969.977	438.429
972.87	409.023
975.763	415.136
978.655	412.119
981.548	414.34
984.441	415.939
987.333	430.774
990.226	433.195
993.119	457.728
996.011	429.071
998.904	438.622
1001.8	436.562
1004.69	417.851
1007.58	405.991
1010.48	421.724
1013.37	411.297
1016.26	438.817
1019.15	395.867
1022.05	437.156
1024.94	420.102
1027.83	438.71
1030.72	416.757
1033.62	424.127
1036.51	419.997
1039.4	423.817
1042.3	409.565
1045.19	411.822
1048.08	419.246
1050.97	437.347
1053.87	420.833
1056.76	419.325
1059.65	411.032
1062.54	406.729
1065.44	413.446
1068.33	410.91
1071.22	424.268
1074.11	423.217
1077.01	421.281
1079.9	403.042
1082.79	421.894
1085.68	439.71
1088.58	426.973
1091.47	410.066
1094.36	420.614
1097.26	410.011
1100.15	421.619
1103.04	431.046
1105.93	414.953
1108.83	429.438
1111.72	424.185
1114.61	441.849
1117.51	409.179
1120.4	437.958
1123.29	412.481
1126.18	412.278
1129.08	422.155
1131.97	421.608
1134.86	435.666
1137.75	403.923
1140.65	436.482
1143.54	444.712
1146.43	399.904
1149.33	425.542
1152.22	424.536
1155.11	415.177
1158	428.162
1160.89	411.895
1163.79	426.47
1166.68	422.21
1169.57	416.615
1172.47	416.751
1175.36	442.518
1178.25	437.512
1181.14	435.915
1184.04	452.719
1186.93	437.927
1189.82	433.427
1192.71	423.544
1195.61	412.071
1198.5	440.867
1201.39	456.428
1204.29	445.829
1207.18	457.717
1210.07	457.094
1212.96	439.917
1215.86	450.349
1218.75	433.991
1221.64	458.521
1224.54	424.393
1227.43	440.948
1230.32	447.147
1233.21	436.714
1236.11	470.172
1239	463.558
1241.89	456.041
1244.78	468.893
1247.68	463.321
1250.57	454.73
1253.46	445.306
1256.35	457.687
1259.25	456.513
1262.14	460.332
1265.03	449.594
1267.92	474.199
1270.82	481.452
1273.71	467.234
1276.6	475.292
