Measurement: Raman, 780 nm, unoriented, Raman Data RAW
Mineral: Zircon
Rruff sample: R050488
Ideal chemistry: Zr^4+^SiO_4_
Locality: Sigulani Village, Tambani Area, Blantyre District, Nyassaland
Source: California Institute of Technology
Description: Brown fragment
Measured chemistry: (Zr_0.99_Hf_0.01_)_Î£=1_Si_1.00_O_4_
Raman shift (cm-1)	intensity
93.3011	0
96.6759	1681.3
100.051	1697.17
103.425	1688.75
106.8	1712.67
110.175	1750.61
113.55	1790.88
116.925	1835.46
120.3	1886.05
123.674	1949.05
127.049	1995.74
130.424	2053.09
133.799	2106.47
137.174	2157.62
140.549	2202.39
143.923	2234.79
147.298	2247.04
150.673	2257.09
154.048	2250.63
157.423	2253.16
160.798	2252.25
164.172	2257.8
167.547	2270.18
170.922	2290.23
174.297	2323.42
177.672	2352.2
181.046	2401.36
184.421	2451.87
187.796	2508.89
191.171	2569.69
194.546	2646.88
197.921	2711.58
201.295	2799.84
204.67	2860.95
208.045	2913.97
211.42	2963.9
214.795	3011.12
218.169	3042.69
221.544	3064.41
224.919	3081.53
228.294	3040.1
231.669	3015.34
235.043	3010.29
238.418	3013.18
241.793	3030.96
245.168	3033.43
248.543	3043
251.918	3040.87
255.292	3054.35
258.667	3067.77
262.042	3086.38
265.417	3084.22
268.792	3100.17
272.166	3123.31
275.541	3129.95
278.916	3133.17
282.291	3144.75
285.666	3153.92
289.041	3157.69
292.415	3182
295.79	3180.63
299.165	3179.81
302.54	3178.62
305.915	3192.32
309.289	3206.88
312.664	3222.6
316.039	3241.26
319.414	3299.59
322.789	3338.66
326.164	3407.38
329.538	3485.39
332.913	3579.19
336.288	3701.91
339.663	3852.78
343.038	3967.44
346.413	4096.37
349.787	4199.43
353.162	4302.58
356.537	4318.91
359.912	4286.63
363.287	4289
366.661	4330.04
370.036	4408.11
373.411	4518.22
376.786	4590.02
380.161	4654.7
383.536	4671.32
386.91	4637.81
390.285	4578.64
393.66	4477.43
397.035	4370.93
400.41	4242.65
403.784	4139.31
407.159	4053.53
410.534	3971.44
413.909	3918.81
417.284	3896.74
420.659	3859.41
424.033	3846.17
427.408	3811.36
430.783	3757.93
434.158	3725.47
437.533	3656.69
440.907	3552.91
444.282	3441.47
447.657	3323.98
451.032	3230.57
454.407	3122.95
457.781	3026.49
461.156	2924.99
464.531	2840.86
467.906	2743.08
471.281	2655.1
474.656	2565.74
478.03	2506.39
481.405	2428.78
484.78	2374.09
488.155	2316.15
491.53	2271.51
494.904	2203.36
498.279	2165.4
501.654	2109.41
505.029	2064.62
508.404	2024.63
511.779	1987.19
515.153	1945.81
518.528	1913.45
521.903	1867.97
525.278	1831.72
528.653	1797
532.028	1764.93
535.402	1718.09
538.777	1685.47
542.152	1642.92
545.527	1606.32
548.902	1562.82
552.276	1524.39
555.651	1493.46
559.026	1452.34
562.401	1433.26
565.776	1391.41
569.15	1369.76
572.525	1349.03
575.9	1340.57
579.275	1318.37
582.65	1306.01
586.025	1293.61
589.399	1291.01
592.774	1264.24
596.149	1254.08
599.524	1245.8
602.899	1229.65
606.274	1224.05
609.648	1208.95
613.023	1198.24
616.398	1187.96
619.773	1179.99
623.148	1175.27
626.523	1169.86
629.897	1155.35
633.272	1144.32
636.647	1145.17
640.022	1130.55
643.396	1130.77
646.771	1125.9
650.146	1123.53
653.521	1126.37
656.896	1130.57
660.271	1136.72
663.645	1147.53
667.02	1164.38
670.395	1178.05
673.77	1199.36
677.145	1213.4
680.519	1239.23
683.894	1244.96
687.269	1277.35
690.644	1293.06
694.019	1305.79
697.394	1302.9
700.769	1310.89
704.143	1305.37
707.518	1304.56
710.893	1293.08
714.268	1279.16
717.643	1253.37
721.017	1223.96
724.392	1193.18
727.767	1150.65
731.142	1109.46
734.517	1068.36
737.891	1019.65
741.266	980.78
744.641	936.101
748.016	893.867
751.391	857.144
754.766	820.172
758.14	787.125
761.515	756.755
764.89	726.15
768.265	706.376
771.64	681.238
775.014	660.487
778.389	634.952
781.764	618.184
785.139	600.307
788.514	581.991
791.889	570.37
795.263	553.98
798.638	540.589
802.013	524.378
805.388	510.977
808.763	497.015
812.138	488.119
815.512	475.883
818.887	463.479
822.262	453.006
825.637	440.75
829.012	429.444
832.386	419.899
835.761	411.964
839.136	405.354
842.511	398.278
845.886	386.001
849.26	379.824
852.635	372.613
856.01	363.69
859.385	356.097
862.76	348.203
866.135	345.033
869.509	334.636
872.884	329.452
876.259	323.201
879.634	316.736
883.009	312.707
886.384	303.732
889.758	297.905
893.133	292.406
896.508	285.848
899.883	276.846
903.258	273.876
906.632	268.631
910.007	263.659
913.382	257.442
916.757	250.117
920.132	247.711
923.506	242.28
926.881	238.638
930.256	232.632
933.631	230.534
937.006	225.469
940.381	220.598
943.755	216.048
947.13	212.957
950.505	211.378
953.88	208.07
957.255	207.467
960.63	208.907
964.004	207.433
967.379	210.004
970.754	212.775
974.129	207.269
977.504	195.832
980.878	193.676
984.253	191.039
987.628	196.535
991.003	206.857
994.378	227.571
997.753	252.452
1001.13	279.419
1004.5	296.569
1007.88	259.905
1011.25	206.016
1014.63	181.506
1018	170.696
1021.38	162.637
1024.75	158.109
1028.13	152.924
1031.5	150.484
1034.88	147.72
1038.25	145.242
1041.62	145.781
1045	141.984
1048.38	141.592
1051.75	140.557
1055.12	140.199
1058.5	136.471
1061.87	138.662
1065.25	134.654
1068.62	132.342
1072	131.143
1075.37	128.078
1078.75	130.217
1082.12	130.125
1085.5	129.975
1088.87	127.517
1092.25	128.339
1095.62	124.792
1099	123.445
1102.37	120.421
1105.75	124.117
1109.12	119.321
1112.5	118.602
1115.87	117.718
1119.25	117.68
1122.62	116.854
1126	114.739
1129.37	114.819
1132.74	116.191
1136.12	114.558
1139.49	114.568
1142.87	114.252
1146.24	113.686
1149.62	113.998
1152.99	112.954
1156.37	113.142
1159.74	113.534
1163.12	113.202
1166.49	114.122
1169.87	114.676
1173.24	114.511
1176.62	114.035
1179.99	113.353
1183.37	115.275
1186.74	117.403
1190.12	116.57
1193.49	114.874
1196.87	117.028
1200.24	117.442
1203.62	118.575
1206.99	119.731
1210.37	117.643
1213.74	118.577
1217.12	119.874
1220.49	121.732
1223.87	119.361
1227.24	124.579
1230.62	119.913
1233.99	123.457
1237.37	124.978
1240.74	124.838
1244.11	125.705
1247.49	127.171
1250.86	127.139
1254.24	129.217
1257.61	129.598
1260.99	133.835
1264.36	134.852
1267.74	140.613
1271.11	140.064
1274.49	144.903
1277.86	145.674
1281.24	151.524
1284.61	156.171
