Measurement: Raman, 780 nm, unoriented, Raman Data RAW
Mineral: Zircon
Rruff sample: R050286
Ideal chemistry: Zr^4+^SiO_4_
Locality: Renfrew County, Ontario, Canada
Source: Marcus Origlieri
Description: Brownish red prismatic crystal frozen in matrix, associated with apatite
Measured chemistry: Zr_1.00_Si_1.00_O_4_; trace amounts of Hf
Raman shift (cm-1)	intensity
91.7239	0
95.0987	3258.51
98.4736	3303.58
101.848	3239.48
105.223	3246.45
108.598	3287.32
111.973	3364.04
115.348	3430.89
118.722	3501.29
122.097	3567.33
125.472	3664.1
128.847	3769.18
132.222	3857
135.596	3994.24
138.971	4097.82
142.346	4169.19
145.721	4244.78
149.096	4277.63
152.471	4278.61
155.845	4283.87
159.22	4293.74
162.595	4270.61
165.97	4320.17
169.345	4357.88
172.72	4399.43
176.094	4456.56
179.469	4554.39
182.844	4645.2
186.219	4722.14
189.594	4860.54
192.968	5002.92
196.343	5146.49
199.718	5506.75
203.093	5592.07
206.468	5610.06
209.842	5845.8
213.217	5975.76
216.592	5971.1
219.967	6132.57
223.342	6302.26
226.716	5929.27
230.091	5714.37
233.466	5650.74
236.841	5633.32
240.216	5634.65
243.591	5662.67
246.965	5695.79
250.34	5698.02
253.715	5740.88
257.09	5754.83
260.465	5806.29
263.839	5831.76
267.214	5908.02
270.589	5905.3
273.964	5938.5
277.339	5946.91
280.714	5966.89
284.088	5933.52
287.463	5948.93
290.838	5933.58
294.213	5920.54
297.588	5891.72
300.962	5915.14
304.337	5912.23
307.712	5918.65
311.087	5965.82
314.462	6001.82
317.837	6068.09
321.211	6167.19
324.586	6313.84
327.961	6455.98
331.336	6700.19
334.711	6993.9
338.085	7345.21
341.46	7671.38
344.835	8064.04
348.21	8572.96
351.585	9254.98
354.959	9405.98
358.334	8900.46
361.709	8596.15
365.084	8536.92
368.459	8650.74
371.834	8844.25
375.208	9073.28
378.583	9255.14
381.958	9436.8
385.333	9462.87
388.708	9393.35
392.082	9200.27
395.457	8912.64
398.832	8624.17
402.207	8435.03
405.582	8231.29
408.957	8117.69
412.331	8073.62
415.706	8037.03
419.081	8080.2
422.456	8136.42
425.831	8273.2
429.205	8458.23
432.58	8656.1
435.955	8888.21
439.33	8670.12
442.705	8097.6
446.079	7654.29
449.454	7367.73
452.829	7121.38
456.204	6940.35
459.579	6745.12
462.954	6481.74
466.328	6228.77
469.703	6005.36
473.078	5826.04
476.453	5642.89
479.828	5499.82
483.202	5399.39
486.577	5257.97
489.952	5179.61
493.327	5089.27
496.702	5011.45
500.077	4917.12
503.451	4860.49
506.826	4782.24
510.201	4704.45
513.576	4652.32
516.951	4589.66
520.325	4503.4
523.7	4455.56
527.075	4411.98
530.45	4320.96
533.825	4245.35
537.199	4179.66
540.574	4099.18
543.949	4039.06
547.324	3962.33
550.699	3875.01
554.073	3810.29
557.448	3734.78
560.823	3662.48
564.198	3608.37
567.573	3568.82
570.948	3521.44
574.322	3477.18
577.697	3434.78
581.072	3397.94
584.447	3368.79
587.822	3351.94
591.197	3331.43
594.571	3304.47
597.946	3295.53
601.321	3286.75
604.696	3279.29
608.071	3259.15
611.445	3241.6
614.82	3210.34
618.195	3193.27
621.57	3177.34
624.945	3172.44
628.319	3151.47
631.694	3132.72
635.069	3107.44
638.444	3111.93
641.819	3089.97
645.193	3065.7
648.568	3074.59
651.943	3055.32
655.318	3072.11
658.693	3067.56
662.068	3095.73
665.442	3117.53
668.817	3161.96
672.192	3206.3
675.567	3217.38
678.942	3260.97
682.317	3306.28
685.691	3342.36
689.066	3403.19
692.441	3431.43
695.816	3448.36
699.191	3461.65
702.565	3500.46
705.94	3474.92
709.315	3462.3
712.69	3431.93
716.065	3403.66
719.439	3349.98
722.814	3273.5
726.189	3201.98
729.564	3106.36
732.939	3023.06
736.313	2920.37
739.688	2829.38
743.063	2730.47
746.438	2622.53
749.813	2561.83
753.188	2472.39
756.562	2390.02
759.937	2320.41
763.312	2260.4
766.687	2227.91
770.062	2159.51
773.437	2120.06
776.811	2078.32
780.186	2040.99
783.561	2018.37
786.936	1964.82
790.311	1947.82
793.685	1902.3
797.06	1890.88
800.435	1861.93
803.81	1829.31
807.185	1801.06
810.559	1792.45
813.934	1750.55
817.309	1739.95
820.684	1716.43
824.059	1690.29
827.433	1672.66
830.808	1661.31
834.183	1640.52
837.558	1622.2
840.933	1595.02
844.308	1569.28
847.682	1571.49
851.057	1551.52
854.432	1524.48
857.807	1519.49
861.182	1510.2
864.557	1485.99
867.931	1473.61
871.306	1447.49
874.681	1431.58
878.056	1423.4
881.431	1400.35
884.805	1394.15
888.18	1370.87
891.555	1360.95
894.93	1346.21
898.305	1331.05
901.679	1309.5
905.054	1314.08
908.429	1291.06
911.804	1280
915.179	1276.09
918.553	1275.65
921.928	1266.58
925.303	1239.78
928.678	1236.82
932.053	1224.67
935.428	1221.77
938.802	1220.17
942.177	1212.58
945.552	1207.81
948.927	1211.44
952.302	1215.32
955.676	1219.4
959.051	1262.03
962.426	1309.34
965.801	1369.39
969.176	1524.01
972.551	1684.17
975.925	1408.17
979.3	1314.79
982.675	1301.34
986.05	1332.19
989.425	1470.45
992.799	1791.4
996.174	2096.86
999.549	2703.61
1002.92	4025.9
1006.3	4223.01
1009.67	2263.85
1013.05	1610.62
1016.42	1374.76
1019.8	1257.99
1023.17	1172.5
1026.55	1126.96
1029.92	1108.04
1033.3	1081.93
1036.67	1067.12
1040.05	1057.68
1043.42	1047.15
1046.8	1028.36
1050.17	1022.29
1053.55	1011.38
1056.92	1014.9
1060.3	999.986
1063.67	1019.95
1067.05	998.482
1070.42	1001.25
1073.8	986.676
1077.17	991.924
1080.55	981.241
1083.92	978.142
1087.29	974.6
1090.67	969.879
1094.04	962.028
1097.42	960.147
1100.79	965.716
1104.17	957.52
1107.54	956.371
1110.92	940.739
1114.29	952.607
1117.67	947.272
1121.04	939.922
1124.42	945.992
1127.79	933.866
1131.17	928.789
1134.54	937.902
1137.92	932.729
1141.29	928.175
1144.67	934.924
1148.04	933.123
1151.42	948.332
1154.79	945.339
1158.16	935.683
1161.54	942.767
1164.91	950.015
1168.29	950.566
1171.66	950.534
1175.04	951.001
1178.41	948.3
1181.79	950.713
1185.16	938.767
1188.54	949.901
1191.91	990.096
1195.29	954.073
1198.66	948.29
1202.04	948.443
1205.41	956.621
1208.79	952.195
1212.16	950.172
1215.54	964.238
1218.91	962.138
1222.29	972.969
1225.66	972.128
1229.04	974.883
1232.41	987.581
1235.79	974.425
1239.16	983.396
1242.54	999.245
1245.91	1003.02
1249.29	1002.71
1252.66	1020.08
1256.04	1025.88
1259.41	1035.64
1262.79	1057.57
1266.16	1056.8
1269.53	1077.89
1272.91	1108.68
1276.28	1109.56
1279.66	1153.11
1283.03	1180.01
