Measurement: Raman, 780 nm, unoriented, Raman Data RAW
Mineral: Zircon
Rruff sample: R050203
Ideal chemistry: Zr^4+^SiO_4_
Locality: Eastern Thailand
Source: Eric Van Valkenburg
Description: Dark red water-worn single crystal
Measured chemistry: (Zr_0.99_Hf_0.01_)_Î£=1_Si_1.00_O_4_
Raman shift (cm-1)	intensity
92.9658	2040.5
96.3406	2174.01
99.7155	2232.14
103.09	2230.12
106.465	2269.29
109.84	2353.98
113.215	2459.02
116.59	2605.61
119.964	2769.67
123.339	2978.29
126.714	3182.27
130.089	3436.86
133.464	3667.18
136.838	3931.99
140.213	4173.97
143.588	4339.48
146.963	4330.1
150.338	4143.63
153.713	3883.55
157.087	3655.03
160.462	3492.61
163.837	3387.81
167.212	3340.73
170.587	3341.25
173.961	3395.79
177.336	3454.34
180.711	3579.45
184.086	3697.32
187.461	3837
190.835	4039.13
194.21	4325.51
197.585	4684.53
200.96	5765.25
204.335	5383.09
207.709	5631.28
211.084	6204.71
214.459	7178.59
217.834	6735.89
221.209	7050.5
224.584	8175.15
227.958	6269.92
231.333	5517.3
234.708	5257.66
238.083	5081.62
241.458	5007.38
244.833	4958.83
248.207	4963.77
251.582	5016.86
254.957	5092.43
258.332	5188.46
261.707	5284.15
265.081	5387.13
268.456	5536.07
271.831	5707.79
275.206	5841.23
278.581	5982.84
281.955	6093
285.33	6145.89
288.705	6160.07
292.08	6202.08
295.455	6204.03
298.83	6210.72
302.204	6271.82
305.579	6346.81
308.954	6427.78
312.329	6507.58
315.704	6599.89
319.079	6738.77
322.453	6896.93
325.828	7143.77
329.203	7532.79
332.578	8089.89
335.952	8925.48
339.327	10021.5
342.702	11063.7
346.077	12433.4
349.452	14109.4
352.827	16554.3
356.201	20160.8
359.576	17873.5
362.951	16573.8
366.326	16727.5
369.701	17367
373.075	18524.1
376.45	19952.7
379.825	21281.2
383.2	21989
386.575	21803.9
389.95	20971.1
393.324	19449.9
396.699	17389.5
400.074	15495.9
403.449	14116.5
406.824	13251.2
410.199	12827.1
413.573	12706.2
416.948	12829.5
420.323	13214.4
423.698	13665.3
427.072	14165.5
430.447	14777.8
433.822	15608.2
437.197	16916.4
440.572	16309.2
443.947	13811.6
447.321	12393.5
450.696	11342.5
454.071	10477.1
457.446	9735.15
460.821	9066.48
464.195	8452.11
467.57	7870.06
470.945	7416.79
474.32	6957.57
477.695	6588.51
481.07	6254.27
484.444	5973.28
487.819	5732.88
491.194	5552.28
494.569	5352.11
497.944	5223.99
501.318	5076.56
504.693	4938.77
508.068	4809.9
511.443	4701.29
514.818	4589.4
518.193	4463.52
521.567	4341.81
524.942	4236.9
528.317	4102.97
531.692	3991.52
535.067	3866.08
538.442	3744.51
541.816	3591.87
545.191	3459.58
548.566	3305.96
551.941	3149.32
555.316	3032.65
558.69	2917.9
562.065	2829.3
565.44	2763.18
568.815	2727.43
572.19	2703.88
575.564	2689.26
578.939	2686.8
582.314	2691.33
585.689	2700.25
589.064	2707.89
592.438	2721.68
595.813	2733.33
599.188	2729.63
602.563	2728.88
605.938	2758.71
609.313	2756.61
612.687	2773.57
616.062	2779.27
619.437	2784.31
622.812	2778.77
626.187	2788.16
629.562	2770.81
632.936	2749.37
636.311	2739.47
639.686	2711.96
643.061	2691.54
646.436	2654.86
649.81	2635.12
653.185	2636.83
656.56	2664.78
659.935	2721.23
663.31	2803.85
666.684	2888.59
670.059	3038.04
673.434	3178.29
676.809	3343.95
680.184	3549.63
683.558	3760.38
686.933	3995.53
690.308	4233.89
693.683	4471.48
697.058	4714.09
700.433	4917.32
703.807	5096.51
707.182	5200.68
710.557	5277.55
713.932	5260.11
717.307	5216.7
720.682	5134.02
724.056	4961.8
727.431	4762.84
730.806	4501.38
734.181	4184.79
737.556	3847.91
740.93	3526.65
744.305	3216.53
747.68	2913.14
751.055	2676.99
754.43	2445.39
757.804	2255.49
761.179	2090.35
764.554	1942.61
767.929	1822.77
771.304	1719.51
774.678	1624.51
778.053	1553.34
781.428	1470.79
784.803	1407.82
788.178	1343.42
791.553	1297.94
794.927	1246.05
798.302	1209.13
801.677	1166.32
805.052	1126.73
808.427	1091.5
811.802	1058.47
815.176	1033.33
818.551	1007.25
821.926	983.196
825.301	960.044
828.676	942.192
832.05	917.736
835.425	901.252
838.8	876.073
842.175	858.326
845.55	842.622
848.924	821.146
852.299	803.303
855.674	785.28
859.049	765.668
862.424	751.196
865.799	741.613
869.173	721.864
872.548	705.948
875.923	692.814
879.298	677.058
882.673	653.953
886.047	642.976
889.422	624.822
892.797	612.171
896.172	592.403
899.547	580.251
902.922	561.611
906.296	548.303
909.671	534.238
913.046	520.949
916.421	508.121
919.796	491.416
923.17	485.864
926.545	459.705
929.92	444.844
933.295	431.808
936.67	417.613
940.044	405.679
943.419	395.392
946.794	386.647
950.169	378.885
953.544	374.096
956.919	369.191
960.293	395.62
963.668	428.365
967.043	459.006
970.418	559.719
973.793	1103.52
977.168	668.23
980.542	399.516
983.917	367.445
987.292	374.48
990.667	401.568
994.042	628.679
997.416	862.27
1000.79	1164.99
1004.17	1914.46
1007.54	5708.87
1010.92	2103.94
1014.29	617.127
1017.66	406.386
1021.04	339.112
1024.41	311.351
1027.79	293.379
1031.16	275.616
1034.54	271.164
1037.91	261.932
1041.29	258.284
1044.66	251.122
1048.04	245.256
1051.41	239.126
1054.79	238.79
1058.16	234.506
1061.54	233.127
1064.91	230.714
1068.29	225.807
1071.66	218.406
1075.04	220.136
1078.41	213.081
1081.79	215.116
1085.16	210.042
1088.54	205.327
1091.91	201.66
1095.29	197.701
1098.66	194.976
1102.04	194.569
1105.41	191.136
1108.79	187.439
1112.16	184.862
1115.54	180.231
1118.91	179.851
1122.29	179.111
1125.66	177.263
1129.03	174.171
1132.41	171.03
1135.78	171.56
1139.16	167.935
1142.53	171.215
1145.91	168.739
1149.28	165.356
1152.66	162.241
1156.03	167.024
1159.41	159.776
1162.78	160.487
1166.16	159.651
1169.53	160.95
1172.91	157.26
1176.28	159.942
1179.66	158.476
1183.03	159.888
1186.41	157.12
1189.78	160.665
1193.16	159.984
1196.53	161.507
1199.9	158.988
1203.28	163.061
1206.65	163.779
1210.03	166.703
1213.4	167.17
1216.78	172.82
1220.15	173.733
1223.53	174.486
1226.9	175.032
1230.28	175.395
1233.65	176.546
1237.03	181.717
1240.4	186.377
1243.78	188.261
1247.15	193.313
1250.53	201.04
1253.9	204.464
1257.28	214.704
1260.65	222.817
1264.03	233.281
1267.4	252.83
1270.78	277.416
1274.15	311.752
1277.53	352.087
1280.9	396.464
1284.28	433.651
