Measurement: Raman, 514 nm, unoriented, Raman Data RAW
Mineral: Zircon
Rruff sample: X050183
Ideal chemistry: Zr^4+^SiO_4_
Locality: Synthetic
Source: Caltech
Description: Grown by J. Hanchar, sample used in Finch et al (2001)
Raman shift (cm-1)	intensity
152.781	8
157.818	13.865
162.855	27.3275
167.893	22.8905
172.93	29.8316
177.967	34.5081
183.005	41.8256
188.042	73.7039
193.079	205.174
198.116	320.061
203.154	502.257
208.191	400.532
213.228	584.007
218.266	775.97
223.303	839.4
228.34	689.315
233.377	197.481
238.415	73.6273
243.452	56.1405
248.489	56.4381
253.526	47.5733
258.564	43.4702
263.601	46.343
268.638	50.9898
273.675	49.1407
278.713	42
283.75	45
288.787	46.5258
293.825	42.2333
298.862	55
303.899	44.1849
308.936	49.6349
313.974	60.3992
319.011	71.0841
324.048	75.673
329.086	101.095
334.123	132.858
339.16	219.23
344.197	600.086
349.235	1562.32
354.272	2641.11
359.309	2703.95
364.346	864.801
369.384	268.33
374.421	161.012
379.458	129.768
384.496	120.039
389.533	152.055
394.57	171.384
399.607	117.986
404.645	90.4314
409.682	83.2642
414.719	92.8128
419.757	122.841
424.794	207.579
429.831	496.832
434.868	938.671
439.906	1231.27
444.943	690.317
449.98	283.394
455.017	156.354
460.055	110.392
465.092	92.5783
470.129	81.6687
475.167	75.8759
480.204	64.5358
485.241	67.0286
490.278	59.9595
495.316	65.115
500.353	66.4156
505.39	59.9476
510.428	61.0737
515.465	60.6482
520.502	64.5178
525.539	64.818
530.577	77.3205
535.614	62.5599
540.651	68.5232
545.688	73.188
550.726	78.8284
555.763	84.0843
560.8	60.2076
565.838	61.8644
570.875	68.0266
575.912	52.2914
580.949	64.7504
585.987	59.9702
591.024	55.1873
596.061	61
601.098	54.8851
606.136	56.5739
611.173	57.9898
616.21	57.5982
621.248	55.065
626.285	59.262
631.322	67.82
636.359	68.0483
641.397	82.6661
646.434	63.4868
651.471	57.8845
656.509	60.5473
661.546	67.7156
666.583	60.9504
671.62	60.3248
676.658	61.6902
681.695	66.9514
686.732	64.6178
691.769	59.4018
696.807	68.0337
701.844	53.9699
706.881	63.5205
711.919	56.3912
716.956	61.1955
721.993	52.0269
727.03	53.0008
732.068	60
737.105	55.6473
742.142	61.346
747.18	60.0695
752.217	57.1285
757.254	63.1703
762.291	60.7453
767.329	67.6672
772.366	63.7648
777.403	51.5871
782.441	60.2181
787.478	54.8336
792.515	56.172
797.552	54.3514
802.59	51.6149
807.627	55.7076
812.664	53.697
817.701	53.5254
822.739	47.4817
827.776	59.6224
832.813	50.7423
837.851	47.861
842.888	55.1224
847.925	60.504
852.962	64.4967
858	57.903
863.037	65.0632
868.074	57.8853
873.111	56.7287
878.149	58
883.186	56.3247
888.223	58.656
893.261	51.3791
898.298	61.8489
903.335	53.7096
908.372	58.6636
913.41	55
918.447	51.5492
923.484	71.0905
928.521	60.417
933.559	57.1137
938.596	65.3437
943.633	66.2256
948.671	67.4258
953.708	75.5498
958.745	94.4094
963.783	196.836
968.82	485.171
973.857	840.13
978.894	637.027
983.932	237.364
988.969	237.952
994.006	370.635
999.043	1724.81
1004.08	3990.37
1009.12	5908.86
1014.16	2333.18
1019.19	442.634
1024.23	205.405
1029.27	149.931
1034.3	134.431
1039.34	109.051
1044.38	90.4456
1049.42	96.1158
1054.45	102.943
1059.49	82.7036
1064.53	87.2975
1069.57	93.9383
1074.6	86.365
1079.64	89.2777
1084.68	86.6985
1089.71	85.1119
1094.75	89
1099.79	83.2153
1104.83	81.9643
1109.86	82.5586
1114.9	82.2503
1119.94	81.2145
1124.98	77.1274
1130.01	86.6713
1135.05	75.1792
1140.09	66.8436
1145.12	76.7189
1150.16	73.4783
1155.2	73.2185
1160.24	61.4394
1165.27	62.7916
1170.31	62.526
1175.35	65.4045
1180.39	51.6767
1185.42	65.3085
1190.46	60.976
1195.5	63.7554
1200.53	65.9427
1205.57	63.9266
1210.61	57
1215.65	67.2794
1220.68	60.1826
1225.72	63.3518
1230.76	69.4954
1235.8	68.5879
1240.83	62.6779
1245.87	63.3081
1250.91	65.7222
1255.94	68.9544
1260.98	71.0495
1266.02	75.8193
1271.06	66.5154
1276.09	69.4229
1281.13	70.9593
1286.17	77.0583
1291.21	70.8503
1296.24	66.8433
1301.28	81.0337
1306.32	68.644
1311.35	66.8168
1316.39	68.9805
1321.43	60.3856
1326.47	66.7423
1331.5	59.993
1336.54	64.9444
1341.58	64.9728
1346.62	70.7159
1351.65	62.4477
1356.69	60.218
1361.73	64.7645
1366.76	68.7554
1371.8	66.9791
1376.84	64.4621
1381.88	57.1558
1386.91	63.809
1391.95	66.1449
1396.99	63.5379
1402.03	59.2733
1407.06	69.1303
1412.1	61.1157
1417.14	58.148
1422.17	61.9482
1427.21	63.9551
1432.25	68.8364
1437.29	64.9859
1442.32	61.2551
1447.36	68.3898
1452.4	68.6501
1457.44	71.9723
1462.47	62.5329
1467.51	81.1262
1472.55	73.4822
1477.58	77
1482.62	65.9582
1487.66	71.4539
1492.7	71.9485
1497.73	63.054
