Measurement: Raman, 532 nm, unoriented, Raman Data Processed
Mineral: Zirsilite-(Ce)
Rruff sample: R200001
Ideal chemistry: (Na,[box])_12_(Ce^3+^,Na)_3_Ca_6_Mn^2+^_3_Zr^4+^_3_Nb^5+^Si_25_O_73_(OH)_3_(CO_3_)H_2_O
Locality: Sagasen Quarry, Morje, Porsgreunn, Telemark, Norway
Source: Don Doell
Description: Yellowish orange grains in albite-aegirine-nepheline matrix
Raman shift (cm-1)	intensity
88.1367	0
91.5115	84.4541
94.8863	72.427
98.2612	4.42627
101.636	9.9331
105.011	58.072
108.386	250.027
111.76	421.97
115.135	666.829
118.51	914.963
121.885	1146.27
125.26	1376.69
128.635	1535.74
132.009	1746.58
135.384	1970.31
138.759	2078.88
142.134	1949.02
145.509	1726.93
148.883	1498.72
152.258	1326.81
155.633	1170.72
159.008	1022.24
162.383	917.577
165.757	792.69
169.132	705.281
172.507	688.812
175.882	680.549
179.257	671.498
182.632	717.754
186.006	805.757
189.381	919.468
192.756	1085.32
196.131	1276.73
199.506	1396.09
202.881	1394.37
206.255	1367.14
209.63	1368.25
213.005	1354.96
216.38	1246.14
219.755	997.803
223.129	726.081
226.504	529.328
229.879	388.603
233.254	312.179
236.629	188.786
240.004	115.414
243.378	66.3897
246.753	38.3062
250.128	28.7686
253.503	34.2002
256.878	41.3652
260.252	38.1572
263.627	23.7627
267.002	23.1582
270.377	17.2026
273.752	109.096
277.127	125.476
280.501	91.6777
283.876	97.4297
287.251	133.175
290.626	204.606
294.001	266.966
297.375	301.93
300.75	325.134
304.125	359.534
307.5	376.204
310.875	351.764
314.25	282.225
317.624	151.134
320.999	80.5425
324.374	41.8608
327.749	76.7612
331.124	132.694
334.498	212.436
337.873	289.708
341.248	368.724
344.623	389.302
347.998	369.996
351.373	319.581
354.747	292.961
358.122	268.792
361.497	270.642
364.872	260.344
368.247	220.605
371.621	116.2
374.996	53.1616
378.371	21.7739
381.746	85.8369
385.121	208.206
388.495	344.339
391.87	391.869
395.245	364.143
398.62	288.45
401.995	243.138
405.37	202.99
408.744	182.004
412.119	178.21
415.494	133.194
418.869	101.883
422.244	77.0811
425.618	50.29
428.993	64.0772
432.368	26.3325
435.743	7.28955
439.118	24.7256
442.493	17.3008
445.867	0.093262
449.242	17.1006
452.617	14.4326
455.992	8.87891
459.367	26.2363
462.741	32.626
466.116	16.6245
469.491	14.6255
472.866	10.104
476.241	1.38037
479.615	1.90478
482.99	6.80127
486.365	0.072754
489.74	7.58252
493.115	35.7358
496.49	52.0098
499.864	70.1103
503.239	110.485
506.614	112.339
509.989	136.168
513.364	119.849
516.739	142.306
520.113	197.893
523.488	250.303
526.863	333.834
530.238	450.843
533.613	573.247
536.987	694.383
540.362	602.876
543.737	382.644
547.112	293.176
550.487	327.405
553.861	487.491
557.236	754.816
560.611	965.403
563.986	1022.54
567.361	1314.96
570.736	1808.73
574.11	1577.14
577.485	867.106
580.86	478.51
584.235	300.289
587.61	148.368
590.985	25.5483
594.359	15.4907
597.734	4.2334
601.109	30.9341
604.484	94.1113
607.859	213.951
611.233	380.268
614.608	557.703
617.983	748.487
621.358	866.332
624.733	857.317
628.107	667.941
631.482	398.856
634.857	242.262
638.232	152.675
641.607	132.804
644.982	125.567
648.356	100.217
651.731	45.7598
655.106	13.9609
658.481	19.6592
661.856	32.3027
665.231	28.6216
668.605	2.91455
671.98	61.0718
675.355	96.1231
678.73	160.083
682.105	265.904
685.479	420.31
688.854	543.017
692.229	624.903
695.604	782.069
698.979	937.826
702.354	1031.99
705.728	864.434
709.103	591.049
712.478	394.832
715.853	339.073
719.227	377.582
722.602	463.109
725.977	640.916
729.352	868.613
732.727	1174.93
736.102	1523.79
739.476	1784.74
742.851	1825.34
746.226	1559.97
749.601	1300.45
752.976	1162.52
756.351	1071.72
759.725	998.458
763.1	858.396
766.475	705.11
769.85	560.818
773.225	391.609
776.599	245.918
779.974	159.776
783.349	108.296
786.724	28.7549
790.099	1.41894
793.473	37.855
796.848	9.02979
800.223	23.3457
803.598	20.0942
806.973	70.9453
810.348	190.811
813.722	305.777
817.097	421.808
820.472	495.255
823.847	512.496
827.222	481.103
830.597	446.36
833.971	460.029
837.346	461.2
840.721	438.132
844.096	371.192
847.471	258.234
850.846	180.899
854.22	96.4546
857.595	47.5996
860.97	21.1064
864.345	1.57471
867.72	19.4629
871.094	13.3852
874.469	24.3438
877.844	20.6973
881.219	16.8394
884.594	8.54199
887.968	56.4307
891.343	79.9678
894.718	121.444
898.093	166.264
901.468	208.002
904.842	258.995
908.217	315.241
911.592	315.691
914.967	305.764
918.342	325.41
921.717	343.5
925.091	405.376
928.466	495.664
931.841	574.72
935.216	605.828
938.591	603.892
941.966	547.292
945.34	404.82
948.715	312.812
952.09	215.085
955.465	162.78
958.84	123.839
962.214	133.631
965.589	97.0757
968.964	77.7944
972.339	47.4824
975.714	28.166
979.088	0.894531
982.463	19.4824
985.838	13.5977
989.213	28.0977
992.588	108.899
995.963	194.433
999.337	303.228
1002.71	375.04
1006.09	419.961
1009.46	445.937
1012.84	442.851
1016.21	455.701
1019.59	468.805
1022.96	499.523
1026.34	548.516
1029.71	498.416
1033.09	432.64
1036.46	312.35
1039.84	185.911
1043.21	160.293
1046.59	166.931
1049.96	224.949
1053.33	261.569
1056.71	404.574
1060.08	578.288
1063.46	830.825
1066.83	1354.04
1070.21	1539.81
1073.58	1043.04
1076.96	829.314
1080.33	613.4
1083.71	431.929
1087.08	288.251
1090.46	201.151
1093.83	125.254
1097.21	96.7935
1100.58	78.918
1103.96	23.2422
1107.33	6.48438
1110.71	28.9321
1114.08	29.7158
1117.46	7.90283
1120.83	58.9731
1124.21	48.8833
1127.58	16.0757
1130.95	1.92969
1134.33	29.8296
1137.7	41.2773
1141.08	65.0391
1144.45	37.3447
1147.83	46.168
1151.2	43.6489
1154.58	46.5518
1157.95	48.6655
1161.33	65.7617
1164.7	46.0835
1168.08	36.1743
1171.45	22.7295
1174.83	68.6021
1178.2	67.5068
1181.58	55.0288
1184.95	46.9155
1188.33	71.1436
1191.7	72.2666
1195.08	79.9199
1198.45	71.6323
1201.83	56.5298
1205.2	47.7978
1208.58	37.1631
1211.95	32.2002
1215.33	34.398
1218.7	67.4199
1222.08	49.6553
1225.45	6.71387
1228.83	4.66846
1232.2	20.2495
1235.58	7.1084
1238.95	38.456
1242.32	51.9145
1245.7	56.0342
1249.07	61.9282
1252.45	43.1177
1255.82	48.564
1259.2	56.8511
1262.57	20.9023
1265.95	24.9917
1269.32	10.3989
1272.7	2.01416
1276.07	2.51025
1279.45	0.423828
1282.82	15.2983
1286.2	14.8188
1289.57	7.53418
1292.95	1.92969
1296.32	23.5176
1299.7	20.9961
