Measurement: Raman, 780 nm, unoriented, Raman Data Processed
Mineral: Zirsilite-(Ce)
Rruff sample: R200001
Ideal chemistry: (Na,[box])_12_(Ce^3+^,Na)_3_Ca_6_Mn^2+^_3_Zr^4+^_3_Nb^5+^Si_25_O_73_(OH)_3_(CO_3_)H_2_O
Locality: Sagasen Quarry, Morje, Porsgreunn, Telemark, Norway
Source: Don Doell
Description: Yellowish orange grains in albite-aegirine-nepheline matrix
Raman shift (cm-1)	intensity
100.117	0
103.492	2.18744
106.867	1.19879
110.242	4.58569
113.616	0.961914
116.991	5.89233
120.366	15.7777
123.741	21.4526
127.116	22.4615
130.49	20.8014
133.865	30.1438
137.24	24.4547
140.615	16.1888
143.99	13.4078
147.364	2.02332
150.739	4.87817
154.114	4.69983
157.489	1.36444
160.864	3.79169
164.239	6.01654
167.613	13.1378
170.988	12.3409
174.363	18.99
177.738	30.0248
181.113	46.2084
184.488	52.5878
187.862	60.4026
191.237	67.6987
194.612	78.424
197.987	79.4183
201.362	78.8095
204.736	74.4264
208.111	68.4838
211.486	60.4541
214.861	58.3801
218.236	44.727
221.611	37.355
224.985	24.5291
228.36	18.9515
231.735	10.4081
235.11	10.542
238.485	4.58649
241.859	5.40643
245.234	0.154846
248.609	6.58972
251.984	3.19672
255.359	3.77484
258.733	9.07971
262.108	4.10913
265.483	5.47943
268.858	16.3223
272.233	19.0837
275.608	16.734
278.982	20.361
282.357	19.0576
285.732	24.4317
289.107	35.0249
292.482	45.399
295.856	52.2637
299.231	56.9738
302.606	71.3837
305.981	83.9757
309.356	76.6315
312.731	88.558
316.105	79.1346
319.48	73.4497
322.855	66.5863
326.23	55.721
329.605	56.6652
332.979	51.4489
336.354	43.905
339.729	38.0036
343.104	29.6524
346.479	28.9479
349.854	22.2941
353.228	24.4762
356.603	17.9744
359.978	20.1005
363.353	18.8815
366.728	17.8897
370.103	12.096
373.477	11.0953
376.852	11.2297
380.227	10.7649
383.602	15.9694
386.977	20.0591
390.351	22.6233
393.726	19.4371
397.101	14.4344
400.476	6.39832
403.851	6.90753
407.226	7.66242
410.6	1.74786
413.975	0.264282
417.35	1.34631
420.725	4.33289
424.1	2.87219
427.474	1.19562
430.849	0.85907
434.224	6.08112
437.599	3.80591
440.974	0.230896
444.349	11.4647
447.723	5.87799
451.098	5.53131
454.473	5.88153
457.848	9.10687
461.223	4.75116
464.597	1.43118
467.972	3.8447
471.347	2.53268
474.722	1.12924
478.097	1.57819
481.471	0.551392
484.846	1.34375
488.221	2.00818
491.596	1.36246
494.971	7.9657
498.346	5.88538
501.72	4.67712
505.095	7.43433
508.47	8.21545
511.845	7.52762
515.22	6.37213
518.595	5.36392
521.969	7.5878
525.344	10.9697
528.719	16.9494
532.094	16.1085
535.469	15.8689
538.843	10.3124
542.218	6.26083
545.593	2.07635
548.968	6.63089
552.343	12.3649
555.717	20.7188
559.092	25.3824
562.467	26.3475
565.842	44.7585
569.217	61.8481
572.592	49.3908
575.966	26.9104
579.341	13.4845
582.716	13.5773
586.091	2.92127
589.466	2.86694
592.841	1.6127
596.215	5.12897
599.59	5.6579
602.965	1.82791
606.34	8.12518
609.715	11.6626
613.089	19.771
616.464	24.0276
619.839	26.7858
623.214	29.7222
626.589	21.7992
629.963	17.4998
633.338	6.05936
636.713	5.9646
640.088	8.89978
643.463	8.73892
646.838	8.18436
650.212	0.642883
653.587	0.586639
656.962	1.32538
660.337	0.219696
663.712	0.298462
667.087	5.33151
670.461	0.162689
673.836	9.59109
677.211	5.46896
680.586	12.2347
683.961	18.062
687.335	19.4894
690.71	22.3048
694.085	27.2673
697.46	35.7496
700.835	35.2313
704.21	29.4163
707.584	15.9166
710.959	7.01065
714.334	5.37335
717.709	3.98904
721.084	10.3001
724.458	14.5177
727.833	15.898
731.208	24.9813
734.583	30.9475
737.958	36.8767
741.332	32.9813
744.707	31.0148
748.082	23.2272
751.457	21.8091
754.832	19.9855
758.207	15.8016
761.581	20.0209
764.956	15.8326
768.331	11.9653
771.706	6.24692
775.081	4.43442
778.455	3.34216
781.83	0.353821
785.205	0.615143
788.58	0.101349
791.955	0.64035
795.33	6.75793
798.704	1.43613
802.079	1.52255
805.454	3.43381
808.829	1.73944
812.204	3.25525
815.578	2.71524
818.953	8.29678
822.328	11.8854
825.703	10.1573
829.078	2.60266
832.453	6.6174
835.827	8.81986
839.202	6.56961
842.577	6.49548
845.952	6.18054
849.327	2.9122
852.702	0.938049
856.076	2.81491
859.451	4.52054
862.826	0.221252
866.201	2.6026
869.576	1.3172
872.95	0.119232
876.325	1.05444
879.7	0.126312
883.075	3.50256
886.45	3.48117
889.824	5.81918
893.199	3.63068
896.574	6.02997
899.949	10.2055
903.324	6.76331
906.698	9.82599
910.073	8.49713
913.448	10.3615
916.823	12.9976
920.198	11.021
923.573	18.5538
926.947	15.1056
930.322	18.9565
933.697	24.197
937.072	24.7443
940.447	25.0273
943.822	20.6077
947.196	16.331
950.571	8.46594
953.946	4.67307
957.321	8.66022
960.696	10.0371
964.07	6.76419
967.445	3.00687
970.82	0.519348
974.195	3.48529
977.57	0.879608
980.945	1.75909
984.319	1.33542
987.694	0.475372
991.069	4.73962
994.444	8.70099
997.819	6.70496
1001.19	7.48453
1004.57	12.0679
1007.94	9.15891
1011.32	11.2154
1014.69	11.2374
1018.07	9.97482
1021.44	12.6453
1024.82	17.8399
1028.19	15.4991
1031.57	15.7003
1034.94	10.1743
1038.32	7.73682
1041.69	2.90213
1045.07	0.297028
1048.44	1.74768
1051.82	4.94916
1055.19	4.89703
1058.57	11.344
1061.94	21.8551
1065.32	35.7464
1068.69	38.6839
1072.07	33.2599
1075.44	28.5914
1078.81	25.4651
1082.19	17.0723
1085.56	18.8148
1088.94	19.1094
1092.31	14.2553
1095.69	15.4341
1099.06	16.7842
1102.44	20.552
1105.81	20.0751
1109.19	18.2144
1112.56	15.6894
1115.94	21.6092
1119.31	22.8833
1122.69	31.7033
1126.06	30.0736
1129.44	29.4915
1132.81	34.6892
1136.19	40.3318
1139.56	42.4607
1142.94	37.374
1146.31	35.7519
1149.68	36.6063
1153.06	29.2783
1156.43	27.2799
1159.81	18.5747
1163.18	15.7305
1166.56	14.5293
1169.93	9.94354
1173.31	9.75983
1176.68	0.801086
1180.06	7.92908
1183.43	1.61288
1186.81	7.31278
1190.18	6.83798
1193.56	5.93155
1196.93	1.19812
1200.31	10.7302
1203.68	21.6354
1207.06	30.6792
1210.43	59.8131
1213.81	83.9265
1217.18	117.511
1220.56	156.356
1223.93	200.834
1227.31	245.423
1230.68	289.065
1234.06	329.321
1237.43	370.266
1240.81	388.158
1244.18	407.224
1247.56	408.775
1250.93	387.101
1254.31	362.633
1257.68	325.345
1261.05	263.526
1264.43	211.657
1267.8	153.179
1271.18	98.2911
1274.55	49.7622
1277.93	13.2697
1281.3	3.60474
