Measurement: Raman, 532 nm, unoriented, Raman Data Processed
Mineral: Aspirin
Rruff sample: D200001
Ideal chemistry: C_9_H_8_O_4_
Locality: Synthetic from E. Merck AG, Darmstadt
Source: Bram Mooij
Description: Loose aggregate of colorless transparent fragments
Raman shift (cm-1)	intensity
1887.6	-17.26
1882.9	180.9
1878.3	205.04
1873.6	111.07
1868.9	96.749
1864.2	125.14
1859.5	75.722
1854.8	23.43
1850.1	26.396
1845.4	-18.48
1840.7	-97.162
1835.9	-34.606
1831.2	-78.725
1826.5	-161.53
1821.8	-206.56
1817	-187.07
1812.3	-223.23
1807.6	-229.21
1802.9	-235.18
1798.1	-253.14
1793.4	-273.3
1788.7	-264.79
1783.9	-246.97
1779.2	-121.72
1774.4	196.99
1769.7	311.7
1764.9	330.51
1760.2	646.76
1755.4	1776
1750.6	2304.4
1745.9	669.53
1741.1	66.366
1736.3	36.857
1731.6	2.7706
1726.8	23.295
1722	-20.473
1717.2	-45.135
1712.5	-66.563
1707.7	29.131
1702.9	1.3824
1698.1	97.503
1693.3	185.75
1688.5	321.75
1683.7	510.28
1678.9	636.97
1674.1	736.36
1669.3	915.51
1664.5	1201.4
1659.7	1707.3
1654.8	2496.7
1650	4008.3
1645.2	6215.4
1640.4	8390.2
1635.5	9201.9
1630.7	9258.1
1625.9	9146.3
1621	8172.6
1616.2	7362.8
1611.3	9621.8
1606.5	30347
1601.7	12500
1596.8	4007.2
1592	1991.9
1587.1	1508.5
1582.2	1515.5
1577.4	2185.7
1572.5	1768.6
1567.7	922.31
1562.8	607
1557.9	469.68
1553	344.52
1548.2	223.88
1543.3	220.79
1538.4	159.2
1533.5	161.24
1528.6	111.32
1523.7	50.423
1518.8	42.316
1513.9	47.376
1509	11.727
1504.1	-13.154
1499.2	-61.401
1494.3	-93.437
1489.4	187.34
1484.5	610.84
1479.5	439.08
1474.6	-84.215
1469.7	-2.8639
1464.8	430.21
1459.8	493.55
1454.9	222.75
1450	124.47
1445	463.3
1440.1	862.46
1435.1	1195.3
1430.2	1776
1425.2	1656.3
1420.3	859.42
1415.3	298.03
1410.3	-11.169
1405.4	-137.31
1400.4	-224.38
1395.4	-293.01
1390.5	-305.86
1385.5	-302.61
1380.5	-207.31
1375.5	23.523
1370.5	322.15
1365.5	501.56
1360.5	83.749
1355.6	-129.17
1350.6	-81.355
1345.6	-149.07
1340.6	-87.417
1335.5	21.049
1330.5	254.9
1325.5	549.2
1320.5	549.49
1315.5	595.79
1310.5	1360.4
1305.4	3643.5
1300.4	7165.4
1295.4	8841.7
1290.3	9998.1
1285.3	3387.4
1280.3	1524.7
1275.2	1372.1
1270.2	1629.8
1265.1	2596.9
1260.1	4084.6
1255	4133.9
1249.9	1379.2
1244.9	1130.1
1239.8	982.41
1234.7	632.35
1229.7	665.39
1224.6	1958.1
1219.5	2105.5
1214.4	936.29
1209.3	858.98
1204.3	972.27
1199.2	1977.4
1194.1	7864
1189	12362
1183.9	4113.6
1178.8	1554.7
1173.6	814.05
1168.5	673.66
1163.4	1909.5
1158.3	3520.2
1153.2	5970.1
1148	2235.5
1142.9	719
1137.8	550.1
1132.7	225.63
1127.5	-126.19
1122.4	-235.67
1117.2	-290.11
1112.1	-298.45
1106.9	-247.89
1101.8	-186.34
1096.6	-137.13
1091.5	-112.6
1086.3	-187.26
1081.1	-192.53
1075.9	-200.63
1070.8	-136.77
1065.6	-96.764
1060.4	38.614
1055.2	501.89
1050	3255.9
1044.8	13535
1039.6	6989
1034.4	3278.1
1029.2	2759.8
1024	1162.6
1018.8	1238.4
1013.6	2600.8
1008.4	1051.9
1003.2	274.05
997.95	79.395
992.73	2.8223
987.5	-67.434
982.26	-47.421
977.03	-10.921
971.79	182.54
966.54	75.232
961.29	-75.755
956.04	-92.125
950.79	-95.591
945.53	-67.21
940.27	-93.264
935	-38.926
929.74	35.448
924.46	261.51
919.19	1109.5
913.91	416.38
908.63	57.177
903.34	5.7148
898.05	-4.1137
892.76	50.411
887.46	275.46
882.16	587.09
876.86	275.18
871.55	176.18
866.24	87.786
860.92	-0.74722
855.6	-5.9576
850.28	-15.227
844.95	7.9194
839.63	400.24
834.29	666.92
828.96	61.82
823.62	3.9102
818.27	-13.637
812.92	128.57
807.57	646.41
802.22	268.64
796.86	176.73
791.5	568.1
786.13	5376.6
780.76	3394.1
775.39	565.2
770.01	381.45
764.63	244.93
759.25	719.98
753.86	5251.6
748.47	11298
743.07	1356.9
737.67	297.08
732.27	99.135
726.86	38.513
721.45	52.28
716.04	135.03
710.62	564.5
705.2	3657.4
699.77	1338.8
694.34	167.11
688.91	-22.805
683.47	-46.781
678.03	-21.485
672.59	32.188
667.14	463.47
661.69	252.33
656.23	22.844
650.77	162.2
645.31	1568.7
639.84	3847.9
634.37	834.02
628.9	21.336
623.42	-99.156
617.93	-127.65
612.45	-142.11
606.96	-146.11
601.46	-13.83
595.96	61.599
590.46	1.6665
584.96	89.106
579.45	141.26
573.93	128.14
568.41	266.51
562.89	672.3
557.37	3050.6
551.84	7332
546.3	5521
540.77	2106.9
535.23	616.79
529.68	195.01
524.13	-9.589
518.58	231.54
513.02	255.35
507.46	-139.68
501.9	-198.39
496.33	-228.05
490.75	-197.39
485.18	-247.98
479.6	-224.44
474.01	-201.32
468.42	-198.2
462.83	-159.79
457.23	-85.76
451.63	17.122
446.03	379.44
440.42	874.7
434.81	780.99
429.19	2251.9
423.57	3066.4
417.94	540.96
412.31	-19.344
406.68	-140.83
401.04	-212.7
395.4	-240.9
389.75	-166.01
384.11	194.23
378.45	211.51
372.79	46.267
367.13	15.293
361.47	-79.939
355.8	-172.37
350.12	-181.65
344.44	-171.07
338.76	-14.253
333.07	605.21
327.38	1481.2
321.69	1816.1
315.99	188.72
310.29	-92.635
304.58	-28.223
298.87	520.64
293.15	3896
287.43	1522.9
281.71	126
275.98	-59.269
270.25	79.893
264.51	701.99
258.77	270.84
253.03	-28.988
247.28	-118.98
241.53	-93.038
235.77	-88.548
230.01	-35.56
224.24	36.039
218.47	130.78
212.7	250.31
206.92	345.53
201.13	566.52
195.35	874.04
189.56	1511.4
183.76	3120.7
177.96	7805.8
172.16	11193
166.35	5258.6
160.54	2935.2
154.72	2966.9
148.9	4597
143.07	9498.8
137.25	19136
131.41	22521
