Measurement: Raman, 532 nm, unoriented, Raman Data Processed
Mineral: Birchite
Rruff sample: R150100
Ideal chemistry: Cd^2+^_2_Cu^2+^_2_(P^5+^O_4_)_2_S^6+^O_4_5H_2_O
Locality: Block 14 Opencut, Broken Hill, New South Wales, Australia
Source: William W. Pinch
Description: Sprays and aggregates of light green acicular crystals on quartz and pale pinkish almandine, associated with anglesite, pyromorphite, and libethenite. Authors sample from the type find.
Raman shift (cm-1)	intensity
89.7832	0
93.158	46.4264
96.5328	76.8563
99.9077	36.8177
103.282	1.84854
106.657	2.61731
110.032	14.8426
113.407	21.1056
116.782	41.9943
120.157	52.3364
123.531	78.5403
126.906	83.4511
130.281	37.5013
133.656	19.0574
137.031	9.57538
140.405	13.0797
143.78	6.112
147.155	4.35518
150.53	16.9854
153.905	25.9717
157.28	37.1149
160.654	40.3631
164.029	39.8299
167.404	40.2921
170.779	38.6384
174.154	32.543
177.528	36.4397
180.903	48.6674
184.278	78.7338
187.653	103.859
191.028	78.0488
194.403	49.8929
197.777	37.5854
201.152	30.4479
204.527	17.4838
207.902	8.33165
211.277	0.351486
214.651	0.153656
218.026	0.683334
221.401	2.23238
224.776	1.60658
228.151	1.50349
231.525	0.983536
234.9	0.203415
238.275	6.67935
241.65	13.6612
245.025	21.9176
248.4	31.1526
251.774	40.2956
255.149	50.6341
258.524	59.6391
261.899	59.1576
265.274	56.323
268.649	45.6268
272.023	40.7739
275.398	37.452
278.773	40.1705
282.148	45.0407
285.523	47.6977
288.897	53.0368
292.272	49.4688
295.647	41.2647
299.022	33.3623
302.397	25.1815
305.772	19.367
309.146	16.1407
312.521	11.5759
315.896	4.99382
319.271	2.84427
322.646	0.047852
326.02	0.175262
329.395	0.693527
332.77	1.40295
336.145	1.22862
339.52	2.09016
342.894	1.1192
346.269	0.339981
349.644	0.063889
353.019	0.210388
356.394	1.74101
359.769	1.02577
363.143	4.40945
366.518	5.15892
369.893	6.74756
373.268	10.8594
376.643	11.8854
380.017	12.5275
383.392	13.6247
386.767	15.8643
390.142	20.9587
393.517	25.1984
396.892	35.6892
400.266	43.9262
403.641	48.8162
407.016	52.2325
410.391	53.9748
413.766	50.8825
417.14	46.3126
420.515	44.486
423.89	47.4329
427.265	50.4244
430.64	58.7759
434.014	66.7435
437.389	80.3911
440.764	88.2952
444.139	89.2914
447.514	104.335
450.889	124.356
454.263	133.204
457.638	123.174
461.013	102.089
464.388	84.5572
467.763	73.2343
471.137	71.1706
474.512	76.151
477.887	78.6453
481.262	73.2895
484.637	65.0703
488.012	48.2623
491.386	33.7014
494.761	23.5968
498.136	17.7914
501.511	11.8938
504.886	6.65384
508.26	2.54155
511.635	1.57834
515.01	0.689728
518.385	1.10719
521.76	2.45306
525.135	3.50178
528.509	2.59349
531.884	3.21753
535.259	2.47824
538.634	1.1512
542.009	7.24339
545.384	13.28
548.758	20.8261
552.133	32.2863
555.508	40.5669
558.883	42.8292
562.258	38.7164
565.632	45.0485
569.007	53.3402
572.382	57.7293
575.757	47.4429
579.132	30.6515
582.506	21.4015
585.881	18.8891
589.256	20.1186
592.631	23.6228
596.006	30.4414
599.381	35.8678
602.755	41.1632
606.13	44.9566
609.505	47.1725
612.88	45.6947
616.255	44.7843
619.63	46.7574
623.004	58.0263
626.379	76.7857
629.754	96.589
633.129	128.897
636.504	169.059
639.878	239.789
643.253	308.103
646.628	326.678
650.003	246.454
653.378	145.297
656.752	80.7062
660.127	50.1121
663.502	32.3537
666.877	20.1498
670.252	14.5489
673.626	7.60292
677.001	5.95613
680.376	3.3053
683.751	0.140396
687.126	0.478287
690.501	0.433731
693.875	1.12357
697.25	0.533875
700.625	0.354324
704	0.351593
707.375	0.302811
710.75	0.051178
714.124	0.836243
717.499	0.270615
720.874	2.02714
724.249	0.281021
727.624	0.649109
730.998	5.64923
734.373	1.4127
737.748	1.49542
741.123	2.58931
744.498	3.48644
747.872	4.41981
751.247	4.07391
754.622	3.44052
757.997	3.42114
761.372	3.36096
764.747	3.7594
768.121	2.34155
771.496	5.90323
774.871	3.19528
778.246	1.93567
781.621	2.94891
784.995	5.4455
788.37	3.88672
791.745	2.72568
795.12	4.43747
798.495	5.33093
801.87	3.07257
805.244	6.06894
808.619	7.96164
811.994	6.16754
815.369	4.70474
818.744	6.6933
822.119	5.39294
825.493	5.08124
828.868	5.94116
832.243	3.74838
835.618	8.13565
838.993	7.66663
842.367	6.8743
845.742	5.80252
849.117	4.72681
852.492	6.06595
855.867	7.79938
859.241	8.396
862.616	7.62387
865.991	8.52136
869.366	9.55164
872.741	8.315
876.115	10.271
879.49	7.32245
882.865	8.39137
886.24	7.41539
889.615	5.80527
892.99	4.96246
896.364	7.58966
899.739	5.43729
903.114	5.85623
906.489	5.00253
909.864	3.47482
913.239	1.44357
916.613	0.199158
919.988	0.130493
923.363	0.80368
926.738	0.601166
930.113	1.00412
933.487	2.27512
936.862	0.20282
940.237	1.41818
943.612	1.39831
946.987	4.11667
950.361	7.27432
953.736	10.7193
957.111	18.1541
960.486	30.6936
963.861	45.4241
967.236	81.1421
970.61	144.815
973.985	264.639
977.36	444.679
980.735	701.317
984.11	923.031
987.485	842.571
990.859	708.753
994.234	385.766
997.609	196.607
1000.98	117.15
1004.36	91.1557
1007.73	84.0551
1011.11	95.1299
1014.48	118.973
1017.86	153.538
1021.23	173.594
1024.61	156.67
1027.98	107.612
1031.36	59.4344
1034.73	29.3393
1038.11	14.3338
1041.48	5.4823
1044.86	6.09882
1048.23	5.94284
1051.61	7.85812
1054.98	17.4879
1058.36	30.702
1061.73	50.131
1065.11	65.9699
1068.48	59.0904
1071.86	39.7714
1075.23	27.2963
1078.6	22.1043
1081.98	14.7492
1085.35	10.6163
1088.73	3.19495
1092.1	4.49957
1095.48	0.615662
1098.85	1.37381
1102.23	3.35553
1105.6	3.36133
1108.98	0.394226
1112.35	2.6218
1115.73	10.2682
1119.1	21.0492
1122.48	29.6813
1125.85	30.656
1129.23	24.8057
1132.6	18.8803
1135.98	16.4622
1139.35	14.1991
1142.73	14.5226
1146.1	13.7547
1149.48	15.2989
1152.85	12.4566
1156.22	10.9487
1159.6	8.32417
1162.97	3.60496
1166.35	1.24892
1169.72	1.63388
1173.1	0.154205
1176.47	0.046646
1179.85	1.64142
1183.22	1.77527
1186.6	3.91127
1189.97	1.63663
1193.35	1.18161
1196.72	1.35788
1200.1	1.10059
1203.47	3.01382
1206.85	0.244873
1210.22	0.632736
1213.6	1.58417
1216.97	2.15044
1220.35	2.19208
1223.72	0.987198
1227.1	0.193848
1230.47	2.41425
1233.85	0.982986
1237.22	0.479462
1240.6	0.635162
1243.97	0.875092
1247.35	1.33485
1250.72	1.90498
1254.1	3.28319
1257.47	2.7747
1260.85	0.477936
1264.22	1.73985
1267.59	1.36127
1270.97	0.353241
1274.34	0.889633
1277.72	1.92059
1281.09	1.76225
1284.47	0.608414
1287.84	2.87187
1291.22	1.4586
1294.59	1.95779
1297.97	2.6537
1301.34	0.013245
