Measurement: Raman, 780 nm, unoriented, Raman Data Processed
Mineral: Bismutotantalite
Rruff sample: R130778
Ideal chemistry: Bi^3+^Ta^5+^O_4_
Locality: Mbale Estate, Singo, West of Kanipala, Uganda
Source: Rock Currier
Description: Metallic black massive or irregular crystals
Raman shift (cm-1)	intensity
93.8499	0
97.2247	7.09668
100.6	12.4131
103.974	18.8362
107.349	16.4102
110.724	0.155029
114.099	50.3096
117.474	126.276
120.848	241.263
124.223	398.625
127.598	608.602
130.973	915.229
134.348	1282.8
137.722	1567.4
141.097	1445.75
144.472	1094.01
147.847	847.491
151.222	735.792
154.597	695.344
157.971	653.415
161.346	608.757
164.721	515.327
168.096	381.604
171.471	266.829
174.845	169.363
178.22	115.891
181.595	79.7465
184.97	57.8586
188.345	33.7235
191.72	25.7092
195.094	21.5742
198.469	20.2997
201.844	22.7304
205.219	19.9713
208.594	2.86926
211.969	3.79309
215.343	5.65491
218.718	4.84717
222.093	10.4276
225.468	13.5557
228.843	30.2068
232.217	46.4266
235.592	56.3519
238.967	66.3076
242.342	66.0297
245.717	66.948
249.091	54.2839
252.466	43.5671
255.841	43.9978
259.216	45.504
262.591	22.3906
265.966	27.5227
269.34	13.6757
272.715	3.90198
276.09	3.04541
279.465	2.47559
282.84	8.29504
286.214	2.98682
289.589	1.62659
292.964	5.96899
296.339	13.4994
299.714	22.0037
303.089	34.2728
306.463	46.2102
309.838	51.9125
313.213	56.4974
316.588	60.2416
319.963	64.4248
323.337	56.5635
326.712	54.3009
330.087	49.4072
333.462	40.8204
336.837	33.3619
340.212	29.3585
343.586	32.2535
346.961	34.5548
350.336	43.7601
353.711	57.2218
357.086	74.5192
360.46	100.82
363.835	126.363
367.21	158.8
370.585	184.115
373.96	197.898
377.334	198.359
380.709	183.588
384.084	161.047
387.459	131.524
390.834	118.499
394.209	107.294
397.583	97.5521
400.958	84.6397
404.333	65.9814
407.708	57.8668
411.083	56.6492
414.457	41.0215
417.832	35.8086
421.207	25.8989
424.582	20.553
427.957	15.7474
431.332	8.34772
434.706	4.35004
438.081	1.59137
441.456	1.16913
444.831	0.713501
448.206	2.83606
451.58	2.57831
454.955	1.70001
458.33	2.95288
461.705	0.217651
465.08	1.66406
468.455	2.10394
471.829	1.16241
475.204	3.51251
478.579	1.20953
481.954	0.85907
485.329	3.2384
488.704	1.05664
492.078	0.671875
495.453	8.13001
498.828	2.40344
502.203	5.09778
505.577	4.22772
508.952	4.78332
512.327	3.00562
515.702	4.13483
519.077	4.51227
522.452	6.83588
525.826	6.46228
529.201	5.97009
532.576	11.0364
535.951	5.48456
539.326	0.235962
542.701	1.25726
546.075	3.06262
549.45	7.38916
552.825	14.33
556.2	10.8133
559.575	11.8744
562.949	16.2902
566.324	27.4899
569.699	36.7563
573.074	49.1636
576.449	63.2065
579.823	77.1069
583.198	97.1968
586.573	108.411
589.948	118.892
593.323	127.508
596.698	128.813
600.072	133.501
603.447	134.767
606.822	115.328
610.197	103.764
613.572	86.3956
616.947	79.5004
620.321	59.3879
623.696	49.4072
627.071	36.8035
630.446	30.8969
633.821	22.8228
637.195	18.4188
640.57	27.7802
643.945	8.87634
647.32	6.99542
650.695	7.09332
654.069	8.50598
657.444	10.6538
660.819	13.4307
664.194	16.2833
667.569	18.4733
670.944	8.30072
674.318	4.06689
677.693	1.88104
681.068	1.04993
684.443	2.24274
687.818	1.83911
691.192	1.24548
694.567	1.21722
697.942	1.21643
701.317	1.46545
704.692	2.14984
708.067	0.048584
711.441	3.53424
714.816	8.35059
718.191	3.94513
721.566	5.26874
724.941	3.88293
728.316	5.43262
731.69	5.16657
735.065	5.19171
738.44	16.4507
741.815	5.4881
745.19	3.27234
748.564	1.29388
751.939	0.628174
755.314	8.03833
758.689	1.23816
762.064	0.508606
765.438	0.452332
768.813	5.82318
772.188	1.18982
775.563	1.42889
778.938	0.094666
782.313	1.26178
785.687	3.39862
789.062	3.39209
792.437	6.69458
795.812	5.96936
799.187	5.17255
802.562	6.02795
805.936	7.50146
809.311	6.71863
812.686	6.01007
816.061	9.31726
819.436	6.79791
822.81	7.26477
826.185	9.05933
829.56	7.20068
832.935	10.0003
836.31	9.22296
839.684	8.16864
843.059	11.3391
846.434	9.00348
849.809	8.16437
853.184	7.17331
856.558	8.40387
859.933	12.389
863.308	6.35996
866.683	11.6075
870.058	13.7811
873.433	5.81052
876.807	4.27341
880.182	6.13123
883.557	9.65689
886.932	3.70969
890.307	2.20834
893.682	2.79538
897.056	2.59723
900.431	8.31232
903.806	3.64951
907.181	3.7063
910.556	0.555786
913.93	1.71561
917.305	3.94186
920.68	0.466095
924.055	0.152496
927.43	0.076965
930.804	4.80924
934.179	2.67651
937.554	1.61966
940.929	2.24539
944.304	2.71448
947.679	3.59732
951.053	5.46704
954.428	2.29977
957.803	1.76007
961.178	3.01917
964.553	2.19223
967.928	4.71835
971.302	0.330719
974.677	1.34808
978.052	0.745209
981.427	1.33777
984.802	6.64789
988.176	1.35507
991.551	3.65222
994.926	2.82608
998.301	1.19486
1001.68	4.79642
1005.05	0.803711
1008.42	1.21725
1011.8	3.60559
1015.17	3.18869
1018.55	2.90567
1021.92	6.49933
1025.3	2.49063
1028.67	3.61707
1032.05	4.88104
1035.42	13.7545
1038.8	4.40921
1042.17	4.74072
1045.55	6.51239
1048.92	7.47098
1052.3	12.5967
1055.67	20.4877
1059.05	35.5511
1062.42	60.1441
1065.8	86.262
1069.17	79.3184
1072.55	39.0608
1075.92	14.9335
1079.3	8.9613
1082.67	9.02017
1086.05	5.73077
1089.42	0.31662
1092.8	3.66608
1096.17	1.68121
1099.55	0.099945
1102.92	0.666351
1106.3	3.92215
1109.67	1.5488
1113.05	1.00989
1116.42	2.28229
1119.79	0.555603
1123.17	1.34604
1126.54	0.674347
1129.92	0.437988
1133.29	9.58383
1136.67	5.63208
1140.04	1.74188
1143.42	1.01263
1146.79	1.02484
1150.17	2.5452
1153.54	2.40311
1156.92	1.27161
1160.29	3.75992
1163.67	1.35663
1167.04	4.44693
1170.42	4.70178
1173.79	3.51529
1177.17	7.49213
1180.54	4.77646
1183.92	3.76617
1187.29	8.83337
1190.66	4.86462
1194.04	3.82983
1197.41	1.93189
1200.79	1.93716
1204.16	1.74554
1207.54	2.57346
1210.91	3.93662
1214.29	1.05225
1217.66	2.16379
1221.04	2.24658
1224.41	0.34256
1227.79	1.00922
1231.16	5.0636
1234.54	1.52353
1237.91	1.34244
1241.29	3.81653
1244.66	0.88028
1248.04	6.05475
1251.41	0.762787
1254.79	1.1907
1258.16	2.75519
1261.54	4.76086
1264.91	1.79083
1268.29	11.645
1271.66	0.426849
1275.04	1.54327
1278.41	0.857544
1281.79	0.008484
