Measurement: Raman, 532 nm, unoriented, Raman Data Processed
Mineral: Bismutotantalite
Rruff sample: R130254
Ideal chemistry: Bi^3+^Ta^5+^O_4_
Locality: Wampewo Hill, Busiiro Co. (Bushiro Co.), Wakiso District, Uganda
Source: Rock Currier
Description: Submetallic black anhedral crystals and grains
Raman shift (cm-1)	intensity
100.672	0
104.047	0.089264
107.421	42.8051
110.796	35.994
114.171	77.9101
117.546	126.603
120.921	158.748
124.296	215.338
127.67	271.04
131.045	327.381
134.42	388.256
137.795	450.248
141.17	427.046
144.544	315.034
147.919	229.595
151.294	174.203
154.669	140.674
158.044	95.1335
161.418	66.4442
164.793	44.826
168.168	28.3381
171.543	22.2342
174.918	11.0085
178.293	9.0462
181.667	3.77466
185.042	3.9826
188.417	1.58972
191.792	0.819519
195.167	6.75079
198.542	8.90057
201.916	10.9752
205.291	8.34229
208.666	5.00861
212.041	0.519043
215.416	3.72089
218.79	0.778748
222.165	3.51324
225.54	14.383
228.915	24.2656
232.29	41.0368
235.664	51.3587
239.039	59.5673
242.414	58.5564
245.789	51.0331
249.164	44.1682
252.538	35.8502
255.913	23.0211
259.288	17.6473
262.663	12.1585
266.038	8.64999
269.413	2.15314
272.787	0.95166
276.162	1.33411
279.537	2.47833
282.912	1.86993
286.287	0.587555
289.661	0.02066
293.036	1.40134
296.411	3.11633
299.786	7.86755
303.161	10.7009
306.536	15.2054
309.91	16.894
313.285	20.8422
316.66	19.6473
320.035	23.6434
323.41	23.3499
326.784	22.3974
330.159	19.9575
333.534	19.3935
336.909	14.9204
340.284	11.4269
343.659	10.268
347.033	7.57327
350.408	6.78638
353.783	5.58157
357.158	4.40637
360.533	6.5748
363.908	7.4599
367.282	8.49585
370.657	10.9558
374.032	8.52683
377.407	10.3344
380.782	10.8955
384.156	9.59592
387.531	8.61356
390.906	8.86703
394.281	11.8151
397.656	11.8799
401.031	10.5539
404.405	8.41629
407.78	7.19296
411.155	6.22998
414.53	5.46152
417.905	3.25354
421.279	3.67035
424.654	2.55945
428.029	2.73251
431.404	1.29135
434.779	1.4444
438.154	0.423279
441.528	1.91589
444.903	2.47305
448.278	1.63974
451.653	1.64169
455.028	2.70859
458.402	2.27332
461.777	3.15063
465.152	1.39874
468.527	1.76569
471.902	1.5947
475.276	1.66013
478.651	2.7691
482.026	4.06509
485.401	2.20569
488.776	1.63846
492.151	0.055176
495.525	0.40506
498.9	0.949982
502.275	1.68213
505.65	1.60898
509.025	0.000397
512.399	1.56433
515.774	0.371216
519.149	1.59357
522.524	1.60284
525.899	0.720825
529.274	0.202698
532.648	2.47528
536.023	2.21942
539.398	5.5181
542.773	2.22159
546.148	5.19013
549.523	7.31253
552.897	8.04571
556.272	12.1674
559.647	14.51
563.022	19.3835
566.396	24.3166
569.771	31.6836
573.146	37.6917
576.521	49.4111
579.896	57.0088
583.271	66.5743
586.645	76.076
590.02	81.5847
593.395	86.2723
596.77	85.0146
600.145	83.1339
603.519	77.1315
606.894	67.1974
610.269	58.1307
613.644	48.1142
617.019	40.6264
620.394	33.2316
623.768	25.3403
627.143	20.8165
630.518	16.7962
633.893	12.3608
637.268	10.2748
640.643	6.47751
644.017	5.16901
647.392	4.66556
650.767	6.70367
654.142	5.48697
657.517	5.82376
660.891	4.75348
664.266	6.15381
667.641	5.05438
671.016	3.06125
674.391	4.20679
677.765	3.15826
681.14	2.35995
684.515	1.34567
687.89	1.45642
691.265	1.78662
694.64	2.22147
698.014	0.331543
701.389	1.75052
704.764	0.26532
708.139	0.432861
711.514	1.22675
714.889	0.717468
718.263	0.050049
721.638	1.16101
725.013	0.790192
728.388	1.33908
731.763	0.659637
735.137	0.321381
738.512	0.875854
741.887	1.67609
745.262	2.77698
748.637	3.67142
752.011	2.76416
755.386	4.23062
758.761	3.64139
762.136	6.86902
765.511	5.90628
768.886	6.89703
772.26	6.19025
775.635	8.8349
779.01	8.09988
782.385	8.85409
785.76	16.6124
789.135	21.6164
792.509	14.6232
795.884	8.76505
799.259	22.8158
802.634	10.0692
806.009	12.8204
809.383	13.0713
812.758	12.9865
816.133	13.2426
819.508	13.803
822.883	16.3702
826.257	15.0489
829.632	15.537
833.007	15.9323
836.382	17.111
839.757	18.5969
843.132	18.2739
846.506	16.4273
849.881	16.661
853.256	16.5243
856.631	18.5443
860.006	14.7876
863.38	15.95
866.755	19.3587
870.13	19.0987
873.505	12.6713
876.88	9.2096
880.255	10.2247
883.629	7.18536
887.004	6.35574
890.379	8.36517
893.754	7.12488
897.129	4.57935
900.504	5.95099
903.878	1.19742
907.253	3.57321
910.628	1.54221
914.003	0.310028
917.378	1.56988
920.752	0.056274
924.127	0.223358
927.502	0.0354
930.877	0.682098
934.252	0.660248
937.626	1.01935
941.001	1.2457
944.376	0.350616
947.751	1.08121
951.126	0.043396
954.5	1.07382
957.875	1.61307
961.25	2.95529
964.625	1.69775
968	1.57126
971.375	1.24588
974.75	2.76477
978.124	3.2504
981.499	2.1206
984.874	2.04935
988.249	3.56274
991.624	2.31424
994.998	4.94946
998.373	2.83539
1001.75	2.44531
1005.12	3.29083
1008.5	3.75833
1011.87	2.58685
1015.25	5.02518
1018.62	4.03192
1022	5.10028
1025.37	5.01062
1028.75	6.42749
1032.12	5.94998
1035.5	4.93533
1038.87	6.35916
1042.25	12.8386
1045.62	13.2149
1048.99	6.08206
1052.37	4.46054
1055.74	4.8273
1059.12	5.3186
1062.49	5.40167
1065.87	3.16177
1069.24	3.33212
1072.62	6.56711
1075.99	2.67001
1079.37	2.49014
1082.74	3.07608
1086.12	3.40237
1089.49	3.13806
1092.87	2.18497
1096.24	1.46606
1099.62	0.079071
1102.99	1.46664
1106.37	0.970245
1109.74	2.47214
1113.12	0.243134
1116.49	2.76538
1119.87	1.49661
1123.24	0.931458
1126.62	0.273621
1129.99	0.849243
1133.37	0.758606
1136.74	4.06973
1140.12	0.725739
1143.49	1.06436
1146.87	0.990112
1150.24	0.828094
1153.62	2.08084
1156.99	2.03708
1160.36	1.76032
1163.74	2.42664
1167.11	1.59439
1170.49	0.638153
1173.86	0.565887
1177.24	0.412415
1180.61	1.09796
1183.99	2.8168
1187.36	2.37537
1190.74	4.1842
1194.11	2.99548
1197.49	0.271393
1200.86	3.65567
1204.24	0.953491
1207.61	0.398163
1210.99	3.4299
1214.36	2.47546
1217.74	1.32086
1221.11	1.08197
1224.49	2.43426
1227.86	1.72858
1231.24	0.950439
1234.61	2.53534
1237.98	1.60715
1241.36	0.862885
1244.73	0.562134
1248.11	1.6918
1251.48	1.63348
1254.86	1.28885
1258.23	1.97256
1261.61	1.38171
1264.98	3.16547
1268.36	2.03848
1271.73	0.156281
1275.11	0.231232
1278.48	1.03894
1281.86	1.60721
1285.23	2.59051
1288.61	3.66305
1291.98	3.2662
1295.36	0.694366
1298.73	1.79355
