Measurement: Raman, 532 nm, unoriented, Raman Data Processed
Mineral: Bismutotantalite
Rruff sample: R130778
Ideal chemistry: Bi^3+^Ta^5+^O_4_
Locality: Mbale Estate, Singo, West of Kanipala, Uganda
Source: Rock Currier
Description: Metallic black massive or irregular crystals
Raman shift (cm-1)	intensity
94.4042	0
97.779	9.90637
101.154	8.08301
104.529	35.3721
107.903	176.091
111.278	297.588
114.653	501.326
118.028	722.937
121.403	969.106
124.778	1283.62
128.152	1636.64
131.527	2081.74
134.902	2615.71
138.277	3136.22
141.652	3248.24
145.026	2977.25
148.401	2834.93
151.776	2841.63
155.151	2789.72
158.526	2692.41
161.901	2557.25
165.275	2321.12
168.65	1984.76
172.025	1616.83
175.4	1292.63
178.775	1043.03
182.149	865.413
185.524	714.798
188.899	599.141
192.274	508.738
195.649	436.696
199.024	363.359
202.398	297.368
205.773	236.637
209.148	171.996
212.523	127.096
215.898	92.4453
219.273	68.812
222.647	40.009
226.022	39.1465
229.397	30.5395
232.772	39.3918
236.147	48.1128
239.521	48.498
242.896	35.9524
246.271	13.6179
249.646	5.18823
253.021	0.372314
256.396	11.072
259.77	17.041
263.145	20.7436
266.52	13.4905
269.895	15.0789
273.27	18.6365
276.644	13.4404
280.019	3.3855
283.394	0.456543
286.769	10.4946
290.144	18.093
293.519	28.833
296.893	47.7803
300.268	71.3838
303.643	92.979
307.018	118.582
310.392	129.966
313.767	151.645
317.142	169.463
320.517	166.792
323.892	169.344
327.267	160.983
330.641	166.468
334.016	138.399
337.391	127.633
340.766	117.465
344.141	119.413
347.515	120.982
350.89	134.213
354.265	153.912
357.64	181.331
361.015	212.831
364.39	250.866
367.764	289.335
371.139	319.409
374.514	320.739
377.889	304.921
381.264	270.477
384.639	227.808
388.013	195.832
391.388	167.213
394.763	151.605
398.138	133.869
401.513	115.246
404.887	90.3769
408.262	73.1101
411.637	73.4534
415.012	67.5049
418.387	49.8879
421.762	39.7327
425.136	35.3801
428.511	28.3745
431.886	15.5908
435.261	8.66089
438.636	3.64502
442.01	1.79346
445.385	4.14526
448.76	2.05054
452.135	3.61743
455.51	9.38696
458.885	2.62573
462.259	4.11426
465.634	0.947754
469.009	0.68457
472.384	2.09741
475.759	2.53491
479.133	2.02441
482.508	3.41626
485.883	0.935303
489.258	9.32153
492.633	9.65283
496.007	7.15894
499.382	11.8953
502.757	22.7407
506.132	27.4946
509.507	19.7439
512.882	18.6148
516.256	14.5181
519.631	14.1975
523.006	12.9456
526.381	11.2502
529.756	20.9663
533.13	25.864
536.505	11.1328
539.88	3.27148
543.255	0.492188
546.63	15.6018
550.005	2.23267
553.379	10.834
556.754	26.2805
560.129	28.3071
563.504	38.5898
566.879	58.5408
570.254	75.1616
573.628	102.794
577.003	130.05
580.378	163.119
583.753	202.428
587.128	227.818
590.502	255.348
593.877	258.587
597.252	268.404
600.627	270.929
604.002	255.588
607.376	224.588
610.751	203.271
614.126	166.672
617.501	132.022
620.876	100.797
624.25	76.5806
627.625	59.9705
631	43.1924
634.375	27.4338
637.75	17.405
641.125	3.23853
644.5	3.33032
647.874	3.04785
651.249	9.6853
654.624	20.1973
657.999	42.6675
661.374	59.2378
664.748	84.4644
668.123	83.8772
671.498	38.8359
674.873	2.69727
678.248	7.35376
681.622	3.12329
684.997	4.42627
688.372	30.1675
691.747	10.957
695.122	7.04907
698.496	5.39087
701.871	4.12061
705.246	1.16577
708.621	7.19458
711.996	0.648193
715.371	1.71753
718.745	0.42334
722.12	3.37817
725.495	5.24243
728.87	3.00098
732.245	5.02515
735.62	5.06152
738.994	4.24756
742.369	7.66431
745.744	5.01782
749.119	3.91455
752.494	0.825928
755.868	2.38721
759.243	4.25073
762.618	4.70239
765.993	6.75293
769.368	8.42017
772.742	15.6148
776.117	10.6682
779.492	10.6548
782.867	10.4258
786.242	5.9707
789.617	10.0537
792.991	14.9634
796.366	17.2561
799.741	11.9748
803.116	14.6472
806.491	19.5737
809.865	19.1731
813.24	18.5369
816.615	22.5696
819.99	30.3044
823.365	24.3657
826.74	17.5493
830.114	20.1174
833.489	27.896
836.864	24.0955
840.239	30.657
843.614	28.6462
846.989	25.0342
850.363	25.7893
853.738	18.5586
857.113	18.9487
860.488	20.3694
863.863	28.3701
867.237	24.74
870.612	19.7236
873.987	11.3086
877.362	9.91357
880.737	8.28394
884.111	11.6201
887.486	7.65771
890.861	8.58008
894.236	5.64038
897.611	10.1055
900.986	6.57959
904.36	4.19629
907.735	3.38599
911.11	5.76367
914.485	1.99902
917.86	0.047852
921.235	3.13672
924.609	4.34473
927.984	5.37744
931.359	3.89575
934.734	4.3186
938.109	9.77002
941.483	5.08862
944.858	13.6309
948.233	3.5896
951.608	6.07373
954.983	6.70752
958.357	13.3955
961.732	8.70752
965.107	3.36694
968.482	2.22339
971.857	4.54565
975.232	8.58447
978.606	7.16309
981.981	13.0747
985.356	3.6206
988.731	2.79956
992.106	4.22656
995.481	0.056396
998.855	0.658447
1002.23	0.666992
1005.61	7.7146
1008.98	5.49854
1012.36	11.6421
1015.73	12.781
1019.1	11.1902
1022.48	7.69702
1025.85	17.3799
1029.23	14.6555
1032.6	16.2876
1035.98	18.8164
1039.35	15.897
1042.73	21.6179
1046.1	30.0117
1049.48	42.4587
1052.85	64.533
1056.23	113.867
1059.6	205.832
1062.98	340.245
1066.35	459.998
1069.73	402.662
1073.1	180.111
1076.48	64.7712
1079.85	27.1633
1083.23	26.5891
1086.6	17.1572
1089.97	15.324
1093.35	19.8581
1096.72	4.37524
1100.1	7.14233
1103.47	5.07837
1106.85	2.16431
1110.22	5.0564
1113.6	5.70752
1116.97	6.32861
1120.35	5.0957
1123.72	2.96704
1127.1	1.48779
1130.47	0.302246
1133.85	0.488037
1137.22	7.11304
1140.6	7.29858
1143.97	7.82959
1147.35	1.18189
1150.72	3.18457
1154.1	8.14893
1157.47	4.85693
1160.85	7.54126
1164.22	10.3584
1167.6	12.4414
1170.97	8.33179
1174.35	9.63794
1177.72	5.38135
1181.1	11.5935
1184.47	8.81567
1187.85	5.05762
1191.22	20.4187
1194.6	15.5088
1197.97	14.386
1201.34	11.9392
1204.72	10.144
1208.09	14.3525
1211.47	14.8655
1214.84	19.3442
1218.22	11.4907
1221.59	10.1553
1224.97	7.33838
1228.34	9.08398
1231.72	5.49585
1235.09	6.51196
1238.47	2.45483
1241.84	0.083496
1245.22	0.618164
1248.59	0.382813
1251.97	5.61572
1255.34	4.19165
1258.72	20.1785
1262.09	1.64014
1265.47	2.7793
1268.84	4.18189
1272.21	4.38769
1275.59	0.793945
1278.96	1.83472
1282.34	1.49853
1285.71	11.1296
1289.09	18.7017
1292.46	8.69043
1295.84	8.76636
1299.21	0.629639
