Measurement: Raman, 780 nm, unoriented, Raman Data Processed
Mineral: Bismutotantalite
Rruff sample: R130254
Ideal chemistry: Bi^3+^Ta^5+^O_4_
Locality: Wampewo Hill, Busiiro Co. (Bushiro Co.), Wakiso District, Uganda
Source: Rock Currier
Description: Submetallic black anhedral crystals and grains
Raman shift (cm-1)	intensity
107.349	0
110.724	3.15509
114.099	6.31293
117.474	2.13281
120.848	9.14484
124.223	24.4848
127.598	50.7369
130.973	88.851
134.348	115.995
137.722	133.959
141.097	116.925
144.472	85.7696
147.847	67.3067
151.222	55.0783
154.597	44.854
157.971	28.4012
161.346	13.7309
164.721	0.226532
168.096	1.91882
171.471	0.998108
174.845	1.7962
178.22	0.363464
181.595	2.56662
184.97	2.96671
188.345	4.53445
191.72	6.99078
195.094	9.34689
198.469	15.511
201.844	20.7004
205.219	22.1114
208.594	24.8618
211.969	28.3262
215.343	29.7961
218.718	30.9436
222.093	32.6474
225.468	38.3753
228.843	41.9019
232.217	44.9965
235.592	49.0456
238.967	47.7071
242.342	45.8865
245.717	40.9972
249.091	34.4709
252.466	27.2123
255.841	22.3497
259.216	18.0326
262.591	15.1066
265.966	11.7586
269.34	6.55002
272.715	4.80075
276.09	2.07935
279.465	3.23731
282.84	1.70807
286.214	0.902649
289.589	3.63089
292.964	2.59786
296.339	4.77856
299.714	8.80437
303.089	10.2561
306.463	12.8309
309.838	13.7578
313.213	16.5727
316.588	16.4287
319.963	15.5943
323.337	15.57
326.712	13.6226
330.087	10.0859
333.462	8.77376
336.837	5.34483
340.212	6.02046
343.586	1.49799
346.961	1.48015
350.336	0.707413
353.711	0.178177
357.086	0.440659
360.46	1.34549
363.835	0.827759
367.21	3.59314
370.585	1.10715
373.96	2.29047
377.334	2.29456
380.709	2.57272
384.084	2.1339
387.459	3.14252
390.834	7.39601
394.209	5.68642
397.583	6.81381
400.958	5.47871
404.333	4.7589
407.708	3.5332
411.083	2.85103
414.457	1.21733
417.832	2.65022
421.207	0.104324
424.582	0.89502
427.957	1.20785
431.332	1.38799
434.706	1.44605
438.081	1.64229
441.456	0.306625
444.831	2.87613
448.206	0.991486
451.58	0.161865
454.955	1.22273
458.33	0.9953
461.705	0.09787
465.08	1.18706
468.455	0.707336
471.829	1.28861
475.204	1.15312
478.579	2.3
481.954	0.762009
485.329	0.509827
488.704	0.404312
492.078	1.18567
495.453	2.00001
498.828	0.790436
502.203	0.794067
505.577	0.357529
508.952	0.9478
512.327	0.462769
515.702	0.080292
519.077	0.723083
522.452	0.209671
525.826	0.685593
529.201	1.14607
532.576	0.176514
535.951	0.060486
539.326	1.51352
542.701	0.810822
546.075	0.604568
549.45	1.944
552.825	1.33395
556.2	0.907501
559.575	1.61963
562.949	3.65811
566.324	3.51364
569.699	4.99806
573.074	7.69992
576.449	9.77867
579.823	13.108
583.198	14.4947
586.573	16.8395
589.948	18.0676
593.323	18.9644
596.698	18.5256
600.072	19.414
603.447	18.8586
606.822	18.0555
610.197	14.3098
613.572	12.0163
616.947	10.7443
620.321	9.36702
623.696	7.77371
627.071	7.06227
630.446	3.70302
633.821	4.51747
637.195	4.2339
640.57	3.24851
643.945	1.64931
647.32	2.203
650.695	1.42104
654.069	1.66232
657.444	1.74115
660.819	1.63385
664.194	0.996201
667.569	0.736145
670.944	2.75169
674.318	0.888687
677.693	0.975494
681.068	1.33354
684.443	2.15698
687.818	0.144638
691.192	1.02869
694.567	0.234924
697.942	0.848465
701.317	0.418564
704.692	0.357224
708.067	0.019409
711.441	0.068314
714.816	0.1073
718.191	0.720657
721.566	0.38588
724.941	0.518066
728.316	0.802811
731.69	1.05193
735.065	0.03923
738.44	0.603806
741.815	0.782867
745.19	1.26779
748.564	0.158508
751.939	0.769592
755.314	1.94069
758.689	1.13715
762.064	3.30046
765.438	2.44153
768.813	1.92792
772.188	1.96997
775.563	2.68388
778.938	3.62915
782.313	2.50851
785.687	2.45979
789.062	3.91885
792.437	4.10185
795.812	3.7435
799.187	4.03575
802.562	4.48001
805.936	4.02065
809.311	4.60298
812.686	3.76733
816.061	3.9939
819.436	4.77353
822.81	5.15216
826.185	5.03369
829.56	5.43491
832.935	5.20177
836.31	6.35683
839.684	4.90201
843.059	6.2124
846.434	5.86541
849.809	6.3522
853.184	5.31013
856.558	5.76887
859.933	5.06123
863.308	6.21124
866.683	5.30516
870.058	5.297
873.433	4.51507
876.807	5.07181
880.182	5.05724
883.557	4.23273
886.932	4.20595
890.307	3.44265
893.682	2.21262
897.056	2.1063
900.431	0.87912
903.806	0.543671
907.181	1.81808
910.556	0.380173
913.93	1.20729
917.305	0.042503
920.68	0.010246
924.055	0.49752
927.43	0.36261
930.804	0.922386
934.179	0.10112
937.554	0.255539
940.929	0.26413
944.304	0.307289
947.679	0.388222
951.053	0.477203
954.428	0.17408
957.803	1.70954
961.178	0.384178
964.553	0.615906
967.928	1.67738
971.302	0.648315
974.677	0.395393
978.052	1.13262
981.427	0.820656
984.802	0.372292
988.176	1.45078
991.551	0.773628
994.926	1.34994
998.301	0.616852
1001.68	1.01194
1005.05	0.329102
1008.42	1.57631
1011.8	2.18617
1015.17	2.22069
1018.55	1.15122
1021.92	0.773766
1025.3	0.756088
1028.67	1.93178
1032.05	2.26578
1035.42	2.57963
1038.8	1.80549
1042.17	1.4615
1045.55	2.50252
1048.92	1.89005
1052.3	0.622864
1055.67	1.64703
1059.05	1.68517
1062.42	2.29116
1065.8	2.35146
1069.17	1.27132
1072.55	1.7095
1075.92	0.090019
1079.3	0.826973
1082.67	0.882225
1086.05	1.04267
1089.42	0.59507
1092.8	0.830009
1096.17	0.222435
1099.55	0.494362
1102.92	0.464317
1106.3	0.818161
1109.67	0.003853
1113.05	0.365128
1116.42	0.087677
1119.79	1.07737
1123.17	0.222527
1126.54	1.42131
1129.92	1.7205
1133.29	1.03943
1136.67	0.54409
1140.04	0.376305
1143.42	0.765228
1146.79	0.518616
1150.17	1.33256
1153.54	0.402748
1156.92	0.379417
1160.29	1.64961
1163.67	0.523697
1167.04	0.586319
1170.42	1.64912
1173.79	0.588249
1177.17	1.63076
1180.54	0.048187
1183.92	0.730972
1187.29	0.667542
1190.66	1.38221
1194.04	1.1272
1197.41	0.015625
1200.79	0.047485
1204.16	0.510414
1207.54	1.50053
1210.91	0.493477
1214.29	1.0698
1217.66	0.825294
1221.04	1.14275
1224.41	1.7633
1227.79	0.226173
1231.16	0.936356
1234.54	0.883232
1237.91	0.159073
1241.29	0.70369
1244.66	0.89595
1248.04	0.54702
1251.41	0.137619
1254.79	0.788666
1258.16	1.87313
1261.54	0.05117
1264.91	1.87106
1268.29	1.5329
1271.66	1.44294
1275.04	1.26899
1278.41	0.434502
1281.79	0.358856
