Measurement: Raman, 532 nm, unoriented, Raman Data Processed
Mineral: Botallackite
Rruff sample: R070066
Ideal chemistry: Cu^2+^_2_Cl(OH)_3_
Locality: Levante mine, St. Just, Cornwall, England
Source: Bob Jenkins
Description: Pale greenish blue bladed crystals
Measured chemistry: Cu_2.01_Cl_0.99_(OH)_3_
Raman shift (cm-1)	intensity
89.7832	0
93.158	34.1993
96.5328	87.7476
99.9077	139.708
103.282	31.3198
106.657	8.00586
110.032	30.0655
113.407	73.4526
116.782	198.268
120.157	24.9531
123.531	2.06223
126.906	0.335999
130.281	1.64154
133.656	14.0114
137.031	39.5952
140.405	88.9246
143.78	130.547
147.155	217.6
150.53	381.593
153.905	533.24
157.28	376.991
160.654	183.543
164.029	108.228
167.404	83.8626
170.779	95.2449
174.154	150.74
177.528	130.06
180.903	42.3771
184.278	15.227
187.653	7.60284
191.028	4.00446
194.403	2.96928
197.777	0.552734
201.152	0.887436
204.527	0.423813
207.902	1.43999
211.277	0.291931
214.651	1.70166
218.026	0.595627
221.401	4.19691
224.776	5.23451
228.151	7.10059
231.525	12.3913
234.9	18.0399
238.275	32.4109
241.65	44.9084
245.025	60.177
248.4	75.0442
251.774	73.0109
255.149	56.9997
258.524	41.3859
261.899	35.7565
265.274	38.21
268.649	51.272
272.023	67.7511
275.398	92.0775
278.773	95.711
282.148	71.4526
285.523	49.1549
288.897	38.6381
292.272	26.331
295.647	15.3325
299.022	13.5572
302.397	10.1637
305.772	12.4758
309.146	13.9889
312.521	15.8307
315.896	22.445
319.271	26.8446
322.646	30.7314
326.02	26.943
329.395	19.0575
332.77	13.3378
336.145	8.61746
339.52	5.76079
342.894	3.60422
346.269	2.89987
349.644	0.429749
353.019	0.443451
356.394	2.85286
359.769	3.55127
363.143	2.8756
366.518	2.68555
369.893	1.00992
373.268	4.41158
376.643	11.7977
380.017	25.8872
383.392	53.3932
386.767	91.6384
390.142	145.452
393.517	215.601
396.892	295.601
400.266	335.823
403.641	271.28
407.016	169.721
410.391	102.201
413.766	62.5284
417.14	38.6701
420.515	29.4141
423.89	24.723
427.265	27.0004
430.64	38.329
434.014	63.4758
437.389	103.48
440.764	163.969
444.139	239.04
447.514	297.897
450.889	256.647
454.263	156.107
457.638	85.6815
461.013	55.1182
464.388	38.5406
467.763	35.739
471.137	38.9474
474.512	40.2107
477.887	38.8147
481.262	32.6564
484.637	38.7674
488.012	50.0549
491.386	68.0348
494.761	89.0912
498.136	102.572
501.511	106.107
504.886	100.124
508.26	89.2896
511.635	74.6795
515.01	55.4429
518.385	31.5624
521.76	22.0866
525.135	12.5146
528.509	6.54456
531.884	1.61179
535.259	1.33638
538.634	2.24855
542.009	3.22749
545.384	2.80662
548.758	0.021454
552.133	1.55002
555.508	1.28401
558.883	0.742554
562.258	1.12018
565.632	0.925827
569.007	2.25001
572.382	1.18466
575.757	3.21916
579.132	3.23862
582.506	5.17572
585.881	5.80296
589.256	8.08354
592.631	8.79996
596.006	7.59999
599.381	8.00157
602.755	8.90649
606.13	7.85503
609.505	6.51692
612.88	10.1306
616.255	9.0542
619.63	11.7364
623.004	9.34994
626.379	7.81139
629.754	7.49544
633.129	5.96545
636.504	5.74046
639.878	5.72847
643.253	4.90169
646.628	4.46431
650.003	4.30531
653.378	5.52846
656.752	7.39287
660.127	7.41232
663.502	9.17473
666.877	10.5969
670.252	14.2609
673.626	15.006
677.001	14.9954
680.376	11.8147
683.751	8.84392
687.126	4.83266
690.501	3.66019
693.875	1.21504
697.25	0.971329
700.625	0.638809
704	0.200104
707.375	0.196411
710.75	0.011353
714.124	0.218765
717.499	0.260605
720.874	0.438568
724.249	0.217758
727.624	1.05873
730.998	0.232208
734.373	0.872086
737.748	1.72485
741.123	2.79988
744.498	0.251892
747.872	2.27168
751.247	2.29904
754.622	2.49834
757.997	2.47687
761.372	3.6033
764.747	9.97986
768.121	7.07207
771.496	9.27374
774.871	10.6795
778.246	13.1223
781.621	14.2679
784.995	18.0013
788.37	17.126
791.745	17.447
795.12	10.4441
798.495	8.50545
801.87	9.09641
805.244	6.96127
808.619	5.14529
811.994	1.52664
815.369	1.87105
818.744	1.24211
822.119	1.94034
825.493	1.07506
828.868	0.419479
832.243	0.757156
835.618	2.05924
838.993	8.76332
842.367	14.044
845.742	23.1489
849.117	33.6917
852.492	44.2785
855.867	49.7223
859.241	44.6683
862.616	32.691
865.991	26.6946
869.366	27.2997
872.741	33.8041
876.115	45.2107
879.49	63.6152
882.865	83.5393
886.24	104.218
889.615	119.759
892.99	126.822
896.364	123.828
899.739	107.29
903.114	89.0882
906.489	66.2718
909.864	49.1354
913.239	37.0399
916.613	26.0308
919.988	22.2608
923.363	13.9597
926.738	11.8786
930.113	5.13248
933.487	5.60811
936.862	3.08707
940.237	2.15918
943.612	2.18095
946.987	1.59737
950.361	1.53891
953.736	1.0074
957.111	0.422272
960.486	0.587845
963.861	0.435883
967.236	2.01013
970.61	2.88217
973.985	2.67406
977.36	2.48085
980.735	3.67287
984.11	4.29211
987.485	3.83163
990.859	2.28155
994.234	1.19691
997.609	1.1438
1000.98	1.01885
1004.36	0.250412
1007.73	0.699753
1011.11	0.086258
1014.48	0.086655
1017.86	0.073318
1021.23	0.982651
1024.61	0.326111
1027.98	0.107193
1031.36	1.36317
1034.73	1.8629
1038.11	0.862793
1041.48	1.18092
1044.86	1.46851
1048.23	1.15897
1051.61	1.61379
1054.98	1.32962
1058.36	1.50853
1061.73	1.63321
1065.11	2.2359
1068.48	1.0085
1071.86	2.17012
1075.23	1.92889
1078.6	1.06316
1081.98	1.07086
1085.35	2.5322
1088.73	1.35556
1092.1	2.52914
1095.48	2.06175
1098.85	2.252
1102.23	0.212524
1105.6	2.32675
1108.98	0.284912
1112.35	0.302628
1115.73	2.37495
1119.1	2.99989
1122.48	1.0943
1125.85	1.29627
1129.23	1.23224
1132.6	1.16997
1135.98	1.13606
1139.35	0.681931
1142.73	1.9576
1146.1	0.571915
1149.48	1.48555
1152.85	0.15773
1156.22	1.229
1159.6	1.27713
1162.97	1.27801
1166.35	1.51585
1169.72	2.0051
1173.1	0.803146
1176.47	1.72525
1179.85	3.27777
1183.22	0.020218
1186.6	3.02685
1189.97	1.92398
1193.35	1.81325
1196.72	1.64407
1200.1	1.21167
1203.47	1.61551
1206.85	2.40791
1210.22	1.06531
1213.6	0.614777
1216.97	1.12444
1220.35	1.04807
1223.72	2.27736
1227.1	1.03775
1230.47	0.667053
1233.85	2.28951
1237.22	2.36475
1240.6	2.55957
1243.97	2.1599
1247.35	0.822479
1250.72	3.26562
1254.1	1.85004
1257.47	4.12541
1260.85	1.35295
1264.22	2.44125
1267.59	0.369766
1270.97	0.610352
1274.34	1.13084
1277.72	2.82104
1281.09	1.82796
1284.47	1.39505
1287.84	2.85432
1291.22	2.26765
1294.59	1.21277
1297.97	2.12613
1301.34	0.249878
