Measurement: Raman, 532 nm, unoriented, Raman Data Processed
Mineral: Botallackite
Rruff sample: R080012
Ideal chemistry: Cu^2+^_2_Cl(OH)_3_
Locality: Cligga Head, Cornwall, England
Source: William W. Pinch
Description: Aggregate of green bladed to platy crystals
Measured chemistry: (Cu_2.00_Zn_0.02_)Cl_0.96_(OH)_3_
Raman shift (cm-1)	intensity
89.7832	0
93.158	42.8436
96.5328	87.3531
99.9077	132.917
103.282	24.8377
106.657	2.05292
110.032	7.95932
113.407	30.8975
116.782	99.7334
120.157	6.10135
123.531	3.9484
126.906	10.9409
130.281	5.43713
133.656	20.4939
137.031	59.3863
140.405	122.056
143.78	194.881
147.155	325.409
150.53	549.386
153.905	709.732
157.28	500.158
160.654	284.998
164.029	204.836
167.404	199.61
170.779	278.75
174.154	456.155
177.528	349.915
180.903	108.762
184.278	39.6267
187.653	19.0302
191.028	11.9312
194.403	8.87901
197.777	3.21518
201.152	0.341049
204.527	0.972244
207.902	1.44649
211.277	0.199615
214.651	0.942581
218.026	1.44191
221.401	0.334473
224.776	0.17308
228.151	0.126587
231.525	2.70343
234.9	11.3416
238.275	21.1381
241.65	32.9731
245.025	45.3505
248.4	52.3487
251.774	52.455
255.149	44.9786
258.524	44.8909
261.899	52.6386
265.274	68.0261
268.649	91.2275
272.023	122.114
275.398	155.588
278.773	148.663
282.148	100.153
285.523	53.912
288.897	31.8133
292.272	23.0414
295.647	18.0406
299.022	18.2122
302.397	21.2502
305.772	26.6631
309.146	31.8812
312.521	39.4211
315.896	49.8106
319.271	63.5155
322.646	70.4865
326.02	56.2709
329.395	35.7326
332.77	22.328
336.145	13.2107
339.52	8.38156
342.894	2.33379
346.269	1.09434
349.644	2.94637
353.019	5.0464
356.394	6.35593
359.769	7.31061
363.143	5.40924
366.518	4.37787
369.893	0.138748
373.268	14.2326
376.643	38.6128
380.017	85.0361
383.392	155.451
386.767	262.25
390.142	411.275
393.517	598.861
396.892	787.892
400.266	837.043
403.641	660.66
407.016	431.956
410.391	281.016
413.766	189.83
417.14	135.988
420.515	105.302
423.89	96.0358
427.265	106.518
430.64	150.38
434.014	219.886
437.389	331.044
440.764	490.97
444.139	677.373
447.514	785.596
450.889	647.86
454.263	402.365
457.638	239.183
461.013	149.261
464.388	108.647
467.763	98.1237
471.137	100.315
474.512	99.8263
477.887	91.8666
481.262	85.1951
484.637	98.222
488.012	129.965
491.386	175.357
494.761	219.176
498.136	247.185
501.511	248.247
504.886	229.788
508.26	193.396
511.635	153.088
515.01	107.529
518.385	66.386
521.76	36.0941
525.135	19.3092
528.509	5.74737
531.884	1.1158
535.259	4.32434
538.634	7.77995
542.009	7.1853
545.384	6.57883
548.758	5.06561
552.133	3.31696
555.508	1.44049
558.883	1.39769
562.258	2.11703
565.632	5.93988
569.007	8.82169
572.382	11.3814
575.757	12.2366
579.132	17.9509
582.506	18.5999
585.881	20.8548
589.256	22.6314
592.631	24.9052
596.006	25.1851
599.381	22.3314
602.755	21.1647
606.13	20.5923
609.505	18.3326
612.88	16.5498
616.255	15.4141
619.63	14.9588
623.004	13.2542
626.379	13.6549
629.754	11.5642
633.129	12.463
636.504	11.8775
639.878	12.9506
643.253	12.6977
646.628	13.8547
650.003	14.81
653.378	15.8892
656.752	16.506
660.127	18.7924
663.502	21.9122
666.877	25.0491
670.252	30.0533
673.626	33.8163
677.001	31.1725
680.376	27.7221
683.751	20.7843
687.126	16.0244
690.501	12.5164
693.875	8.99782
697.25	7.14893
700.625	4.55699
704	3.84747
707.375	4.53825
710.75	2.88675
714.124	1.47022
717.499	0.490685
720.874	0.591934
724.249	0.978088
727.624	0.666779
730.998	0.403732
734.373	0.293427
737.748	0.278793
741.123	0.090851
744.498	1.37306
747.872	1.16812
751.247	2.0105
754.622	1.4106
757.997	0.625
761.372	2.6732
764.747	3.14354
768.121	6.1644
771.496	9.08162
774.871	9.53401
778.246	11.7061
781.621	13.2305
784.995	14.5121
788.37	13.187
791.745	9.7556
795.12	8.06631
798.495	5.20036
801.87	3.18338
805.244	2.7682
808.619	0.210953
811.994	1.29341
815.369	2.59969
818.744	1.858
822.119	0.78595
825.493	0.770157
828.868	2.12871
832.243	7.91229
835.618	15.0114
838.993	23.6552
842.367	38.7957
845.742	56.0562
849.117	75.9135
852.492	92.1615
855.867	97.3054
859.241	91.387
862.616	84.7283
865.991	85.8597
869.366	100.673
872.741	122.268
876.115	161.079
879.49	211.298
882.865	271.056
886.24	326.11
889.615	367.131
892.99	375.979
896.364	352.761
899.739	308.517
903.114	248.275
906.489	191.638
909.864	146.593
913.239	109.725
916.613	85.5631
919.988	64.2162
923.363	48.5935
926.738	36.9191
930.113	27.8326
933.487	20.0851
936.862	14.6964
940.237	11.5393
943.612	7.14836
946.987	5.65497
950.361	3.91887
953.736	2.03612
957.111	0.242447
960.486	2.69795
963.861	0.864548
967.236	1.33311
970.61	1.26859
973.985	3.16649
977.36	0.637032
980.735	0.272545
984.11	0.386902
987.485	0.312035
990.859	0.318649
994.234	0.449234
997.609	1.38943
1000.98	1.51684
1004.36	1.26799
1007.73	1.80565
1011.11	2.06472
1014.48	2.68529
1017.86	2.45597
1021.23	2.23266
1024.61	1.59327
1027.98	1.75053
1031.36	1.0854
1034.73	1.65863
1038.11	1.76081
1041.48	2.0622
1044.86	1.46535
1048.23	1.48515
1051.61	1.57485
1054.98	1.76239
1058.36	1.75085
1061.73	2.05741
1065.11	1.83919
1068.48	1.57714
1071.86	1.68851
1075.23	1.68684
1078.6	1.69922
1081.98	1.25689
1085.35	0.687897
1088.73	1.15884
1092.1	0.915894
1095.48	0.154213
1098.85	0.858398
1102.23	1.08051
1105.6	0.561737
1108.98	0.150757
1112.35	0.081123
1115.73	0.90522
1119.1	1.01242
1122.48	0.950317
1125.85	0.18454
1129.23	0.637199
1132.6	0.723717
1135.98	1.32672
1139.35	1.52161
1142.73	0.22007
1146.1	0.446617
1149.48	0.091049
1152.85	0.308609
1156.22	0.323212
1159.6	0.67363
1162.97	0.868454
1166.35	0.334839
1169.72	1.0919
1173.1	0.930695
1176.47	0.530754
1179.85	0.516365
1183.22	1.32837
1186.6	0.517517
1189.97	0.31871
1193.35	0.666275
1196.72	0.58532
1200.1	0.851791
1203.47	1.24691
1206.85	0.61483
1210.22	2.39859
1213.6	1.4789
1216.97	0.477013
1220.35	0.494698
1223.72	0.788353
1227.1	0.007835
1230.47	0.552994
1233.85	0.637863
1237.22	0.3451
1240.6	0.774025
1243.97	0.589058
1247.35	0.068237
1250.72	0.797256
1254.1	0.300331
1257.47	0.006721
1260.85	1.24377
1264.22	0.489029
1267.59	0.217194
1270.97	0.323112
1274.34	0.053879
1277.72	0.747604
1281.09	0.314514
1284.47	1.45779
1287.84	1.0992
1291.22	0.78093
1294.59	1.27471
1297.97	1.08474
1301.34	0.338509
