Measurement: Raman, 532 nm, unoriented, Raman Data Processed
Mineral: Camaronesite
Rruff sample: R150145
Ideal chemistry: Fe^3+^_2_(PO_3_OH)_2_(S^6+^O_4_)(H_2_O)_4_1-2H_2_O
Locality: Camarones Valley, Arica Province, Chile
Source: Robert Jenkins
Description: Massive pale pink or mauve
Raman shift (cm-1)	intensity
94.6044	0
97.9792	13.6648
101.354	3.58221
104.729	12.1437
108.104	67.2739
111.478	110.59
114.853	127.406
118.228	138.045
121.603	109.933
124.978	99.4235
128.352	90.0723
131.727	107.688
135.102	145.095
138.477	199.549
141.852	278.625
145.227	316.057
148.601	357.691
151.976	375.524
155.351	361.242
158.726	324.884
162.101	268.666
165.476	217.815
168.85	169.021
172.225	138.351
175.6	121.651
178.975	108.457
182.35	98.322
185.724	73.6075
189.099	44.3499
192.474	11.5874
195.849	10.8636
199.224	16.1803
202.599	6.1366
205.973	17.3485
209.348	49.1045
212.723	88.5808
216.098	125.557
219.473	144.513
222.847	144.306
226.222	128.553
229.597	113.899
232.972	94.6523
236.347	94.6819
239.721	107.533
243.096	131.256
246.471	161.021
249.846	191.499
253.221	214.251
256.596	217.408
259.97	205.883
263.345	165.578
266.72	115.227
270.095	60.6429
273.47	35.6433
276.844	17.144
280.219	32.1387
283.594	64.1144
286.969	122.295
290.344	191.922
293.719	274.678
297.093	364.031
300.468	446.676
303.843	496.009
307.218	491.361
310.593	425.376
313.967	318.291
317.342	212.736
320.717	127.782
324.092	62.0457
327.467	20.2888
330.842	3.92426
334.216	19.5665
337.591	22.6651
340.966	13.1643
344.341	2.07983
347.716	13.274
351.091	31.1746
354.465	47.9794
357.84	65.1495
361.215	83.1926
364.59	109.258
367.964	149.638
371.339	182.325
374.714	230.618
378.089	286.776
381.464	349.851
384.839	404.785
388.213	453.109
391.588	482.238
394.963	494.668
398.338	495.965
401.713	501.765
405.087	492.165
408.462	481.312
411.837	466.691
415.212	449.595
418.587	419.995
421.962	391.742
425.336	363.468
428.711	336.435
432.086	311.255
435.461	288.788
438.836	264.307
442.211	233.02
445.585	200.427
448.96	168.151
452.335	138.387
455.71	115.109
459.085	109.056
462.459	118.166
465.834	145.348
469.209	166.512
472.584	172.196
475.959	154.715
479.334	119.639
482.708	75.7576
486.083	36.7104
489.458	2.49799
492.833	19.2701
496.208	22.2114
499.582	5.57697
502.957	24.688
506.332	72.963
509.707	144.207
513.082	227.833
516.457	328.832
519.831	428.031
523.206	498.591
526.581	524.303
529.956	480.351
533.331	399.841
536.705	293.812
540.08	199.951
543.455	121.746
546.83	68.493
550.205	31.2011
553.58	4.13061
556.954	3.73651
560.329	6.1394
563.704	27.2213
567.079	44.8933
570.454	49.7247
573.828	30.6624
577.203	7.79352
580.578	1.24078
583.953	4.25745
587.328	11.2995
590.702	30.8033
594.077	39.065
597.452	46.6709
600.827	57.7144
604.202	69.7588
607.577	81.7836
610.951	88.4622
614.326	92.2659
617.701	101.729
621.076	113.658
624.451	126.159
627.825	131.169
631.2	129.743
634.575	117.411
637.95	98.5779
641.325	81.4941
644.699	71.0615
648.074	64.1411
651.449	60.0361
654.824	55.7594
658.199	49.4252
661.574	44.8979
664.948	33.5237
668.323	24.5816
671.698	15.1805
675.073	6.86304
678.448	1.54944
681.822	2.90878
685.197	4.4646
688.572	1.88446
691.947	1.84076
695.322	0.706573
698.697	5.41135
702.071	7.91278
705.446	16.1977
708.821	17.957
712.196	20.9952
715.571	25.532
718.946	26.5371
722.32	29.0703
725.695	31.3913
729.07	31.7947
732.445	34.2664
735.82	34.5179
739.194	34.3985
742.569	30.3091
745.944	28.4765
749.319	27.4068
752.694	27.8322
756.068	25.5488
759.443	26.5535
762.818	23.936
766.193	27.0958
769.568	25.7601
772.943	25.3486
776.317	24.9189
779.692	23.4297
783.067	25.311
786.442	22.5203
789.817	21.9459
793.192	19.1089
796.566	16.9867
799.941	15.1083
803.316	12.1938
806.691	11.1114
810.066	10.7874
813.44	6.76596
816.815	4.47119
820.19	6.04211
823.565	2.70569
826.94	0.860168
830.314	2.91849
833.689	2.18704
837.064	3.26047
840.439	1.81088
843.814	0.545776
847.188	4.1489
850.563	6.6792
853.938	9.16132
857.313	13.6849
860.688	19.2033
864.063	25.674
867.437	33.3241
870.812	41.7849
874.187	48.2266
877.562	54.7271
880.937	50.9726
884.312	46.1051
887.686	39.0452
891.061	29.9604
894.436	22.5119
897.811	15.7634
901.186	11.9229
904.56	10.6136
907.935	13.7522
911.31	23.8296
914.685	52.6489
918.06	95.0599
921.434	147.439
924.809	206.742
928.184	262.341
931.559	316.64
934.934	363.691
938.309	397.306
941.683	411.143
945.058	418.574
948.433	422.632
951.808	413.054
955.183	348.168
958.558	239.73
961.932	126.958
965.307	45.7479
968.682	4.1654
972.057	28.2779
975.432	44.1557
978.806	43.3368
982.181	29.6911
985.556	8.41882
988.931	82.0799
992.306	206.374
995.681	388.579
999.055	633.732
1002.43	913.763
1005.8	1182.45
1009.18	1410.9
1012.55	1594.41
1015.93	1645.56
1019.3	1411.49
1022.68	1025.87
1026.05	772.915
1029.43	655.611
1032.8	596.442
1036.18	575.193
1039.55	559.639
1042.93	550.66
1046.3	534.581
1049.68	532.491
1053.05	544.747
1056.43	592.971
1059.8	661.162
1063.18	783.863
1066.55	945.42
1069.93	1134.34
1073.3	1318.18
1076.68	1494.76
1080.05	1636.35
1083.43	1689.13
1086.8	1634.11
1090.17	1488.31
1093.55	1280.74
1096.92	1049.78
1100.3	837.557
1103.67	651.463
1107.05	506.758
1110.42	402.377
1113.8	330.261
1117.17	272.267
1120.55	226.393
1123.92	184.982
1127.3	147.616
1130.67	112.763
1134.05	78.5662
1137.42	56.5762
1140.8	27.6853
1144.17	10.9398
1147.55	0.922791
1150.92	9.60217
1154.3	13.6496
1157.67	15.6625
1161.05	15.2187
1164.42	17.9619
1167.8	14.9615
1171.17	10.4249
1174.55	6.87659
1177.92	1.37134
1181.3	5.35284
1184.67	13.0698
1188.05	22.603
1191.42	31.0944
1194.8	38.7583
1198.17	46.8493
1201.54	58.0511
1204.92	66.106
1208.29	72.7099
1211.67	78.7694
1215.04	81.2557
1218.42	81.8033
1221.79	84.236
1225.17	79.0209
1228.54	76.816
1231.92	71.7326
1235.29	64.6778
1238.67	57.9347
1242.04	52.9343
1245.42	48.4343
1248.79	44.9973
1252.17	41.2147
1255.54	40.4359
1258.92	35.2469
1262.29	32.0986
1265.67	28.0923
1269.04	23.9691
1272.42	19.2804
1275.79	23.6225
1279.16	15.0015
1282.54	12.5724
1285.91	8.66865
1289.29	8.01448
1292.66	2.65681
1296.04	1.91783
1299.41	0.947479
