Measurement: Raman, 780 nm, unoriented, Raman Data Processed
Mineral: Camaronesite
Rruff sample: R150145
Ideal chemistry: Fe^3+^_2_(PO_3_OH)_2_(S^6+^O_4_)(H_2_O)_4_1-2H_2_O
Locality: Camarones Valley, Arica Province, Chile
Source: Robert Jenkins
Description: Massive pale pink or mauve
Raman shift (cm-1)	intensity
93.9705	0
97.3453	9.82019
100.72	18.3683
104.095	44.5314
107.47	76.6909
110.845	114.617
114.219	91.7717
117.594	51.7411
120.969	11.0741
124.344	3.84509
127.719	6.85144
131.094	16.4319
134.468	55.5951
137.843	119.289
141.218	176.34
144.593	221.348
147.968	247.412
151.342	249.772
154.717	240.973
158.092	212.991
161.467	171.283
164.842	135.101
168.216	102.498
171.591	85.0056
174.966	74.1168
178.341	66.8354
181.716	56.5754
185.09	37.8168
188.465	17.5376
191.84	5.15454
195.215	5.13354
198.59	2.76227
201.965	19.9885
205.339	52.6683
208.714	86.1341
212.089	133.102
215.464	176.093
218.839	198.822
222.214	208.253
225.588	199.651
228.963	181.126
232.338	166.448
235.713	156.036
239.088	155.853
242.462	158.575
245.837	167.016
249.212	170.933
252.587	180.084
255.962	167.835
259.336	152.819
262.711	124.195
266.086	81.4714
269.461	41.8442
272.836	10.1752
276.211	0.161377
279.585	0.103149
282.96	9.53973
286.335	32.3293
289.71	62.7867
293.085	105.919
296.459	151.319
299.834	197.873
303.209	233.978
306.584	238.208
309.959	206.616
313.334	157.246
316.708	102.127
320.083	56.4213
323.458	23.6906
326.833	3.65918
330.207	8.04443
333.582	13.6643
336.957	9.00549
340.332	4.80914
343.707	3.01007
347.082	15.8348
350.456	28.7485
353.831	39.2387
357.206	51.2617
360.581	62.3075
363.956	72.7786
367.33	93.6066
370.705	118.422
374.08	143.787
377.455	174.918
380.83	210.05
384.205	237.992
387.579	260.987
390.954	270.653
394.329	276.853
397.704	274.144
401.079	275.811
404.453	273.346
407.828	268.913
411.203	258.324
414.578	245.056
417.953	223.338
421.327	200.683
424.702	181.301
428.077	167.53
431.452	151.662
434.827	142.249
438.202	135.259
441.576	127.405
444.951	116.016
448.326	106.186
451.701	91.337
455.076	71.7085
458.45	55.0466
461.825	49.3723
465.2	52.7045
468.575	63.6097
471.95	72.9015
475.325	69.7361
478.699	56.2794
482.074	36.5689
485.449	15.3832
488.824	0.301392
492.199	8.73166
495.573	12.6678
498.948	5.32239
502.323	7.59509
505.698	31.018
509.073	59.6799
512.447	98.8095
515.822	144.402
519.197	192.994
522.572	233.609
525.947	250.551
529.322	237.357
532.696	199.315
536.071	146.489
539.446	100.341
542.821	60.5185
546.196	33.3259
549.57	14.2581
552.945	2.52014
556.32	4.00256
559.695	1.20138
563.07	11.0932
566.444	25.5536
569.819	30.9965
573.194	22.7776
576.569	9.95373
579.944	3.20081
583.319	1.14752
586.693	8.53391
590.068	17.9083
593.443	28.9241
596.818	38.743
600.193	47.8281
603.567	60.3066
606.942	68.4318
610.317	72.4179
613.692	69.5378
617.067	70.0316
620.442	71.5052
623.816	72.4321
627.191	73.1966
630.566	66.2475
633.941	58.433
637.316	48.3975
640.69	39.9557
644.065	35.514
647.44	29.7891
650.815	28.6164
654.19	27.5689
657.564	27.3014
660.939	23.5281
664.314	18.9917
667.689	14.6949
671.064	10.4418
674.439	6.7038
677.813	4.61095
681.188	1.15305
684.563	1.49452
687.938	1.17328
691.313	1.38463
694.688	1.43324
698.062	2.14183
701.437	0.171432
704.812	2.1162
708.187	4.61583
711.562	5.01671
714.936	6.87007
718.311	7.2952
721.686	8.37819
725.061	8.274
728.436	8.86678
731.81	10.4345
735.185	10.4643
738.56	12.9978
741.935	11.5924
745.31	10.4678
748.684	9.26451
752.059	9.25793
755.434	7.85803
758.809	6.49434
762.184	7.00948
765.559	7.07576
768.933	7.06372
772.308	8.8941
775.683	7.815
779.058	9.21619
782.433	8.96361
785.808	8.04314
789.182	6.4669
792.557	5.8194
795.932	5.86603
799.307	6.29515
802.682	4.73433
806.056	4.31572
809.431	2.82498
812.806	2.17685
816.181	1.68973
819.556	1.02751
822.93	0.000519
826.305	0.229523
829.68	0.702713
833.055	1.60776
836.43	0.013031
839.804	1.30911
843.179	5.52208
846.554	1.13846
849.929	3.8206
853.304	3.37558
856.679	4.07869
860.053	5.03995
863.428	6.49477
866.803	7.55078
870.178	10.2487
873.553	12.8479
876.927	12.8269
880.302	13.3787
883.677	11.5828
887.052	10.0831
890.427	7.71364
893.802	3.91492
897.176	2.86496
900.551	1.57892
903.926	1.61072
907.301	2.78918
910.676	6.93158
914.05	13.7486
917.425	30.3098
920.8	50.0447
924.175	76.2422
927.55	100.756
930.924	125.378
934.299	150.615
937.674	169.769
941.049	183.922
944.424	192.242
947.799	205.528
951.173	213.04
954.548	195.011
957.923	145.142
961.298	83.8166
964.673	34.9397
968.047	7.69978
971.422	7.32056
974.797	15.5043
978.172	17.9479
981.547	13.6433
984.922	1.23618
988.296	23.7281
991.671	63.1425
995.046	128.988
998.421	221.492
1001.8	338.504
1005.17	470.878
1008.54	607.403
1011.92	743.028
1015.29	822.267
1018.67	751.952
1022.04	546.634
1025.42	392.51
1028.79	318.766
1032.17	283.996
1035.54	271.598
1038.92	260.938
1042.29	256.939
1045.67	254.994
1049.04	257.97
1052.42	270.093
1055.79	288.798
1059.17	324.046
1062.54	373.439
1065.92	433.826
1069.29	494.089
1072.67	555.473
1076.04	617.638
1079.42	657.402
1082.79	671.111
1086.17	652.469
1089.54	597.835
1092.92	514.24
1096.29	424.58
1099.66	339.697
1103.04	265.044
1106.41	200.581
1109.79	156.956
1113.16	112.275
1116.54	80.7206
1119.91	57.4254
1123.29	41.2282
1126.66	27.3883
1130.04	18.8559
1133.41	8.22745
1136.79	1.92584
1140.16	1.43744
1143.54	6.05389
1146.91	6.3428
1150.29	6.76331
1153.66	6.31311
1157.04	6.01123
1160.41	3.28198
1163.79	0.827103
1167.16	0.221741
1170.54	3.55162
1173.91	5.2162
1177.29	6.83517
1180.66	8.96593
1184.04	8.64612
1187.41	11.5429
1190.79	11.9047
1194.16	15.8128
1197.54	17.8718
1200.91	19.472
1204.28	20.2073
1207.66	20.9804
1211.03	18.782
1214.41	19.8469
1217.78	17.3699
1221.16	15.8963
1224.53	15.2125
1227.91	13.8588
1231.28	13.5873
1234.66	14.2165
1238.03	14.2947
1241.41	9.68964
1244.78	9.22815
1248.16	7.63985
1251.53	8.84264
1254.91	8.0652
1258.28	5.35098
1261.66	5.02383
1265.03	5.1394
1268.41	3.34793
1271.78	2.4279
1275.16	0.940277
1278.53	0.577118
1281.9	1.28799
