Measurement: Raman, 780 nm, unoriented, Raman Data Processed
Mineral: Cechite
Rruff sample: R070363
Ideal chemistry: Pb^2+^Fe^2+^V^5+^O_4_(OH)
Locality: Alexander mine, Vrancice, Příbram, Central Bohemia Region, Bohemia, Czech Republic
Source: Michael Scott
Description: Black submetallic fragments associated with calcite and with R120086, goethite
Raman shift (cm-1)	intensity
93.8499	0
97.2247	0.323212
100.6	4.6825
103.974	7.46487
107.349	12.6569
110.724	0.190369
114.099	6.78354
117.474	7.85979
120.848	9.49216
124.223	7.26985
127.598	2.52887
130.973	2.92194
134.348	0.351196
137.722	1.47977
141.097	1.64356
144.472	0.503693
147.847	1.37859
151.222	4.23468
154.597	10.3418
157.971	11.5655
161.346	12.191
164.721	10.9018
168.096	10.9369
171.471	11.8113
174.845	11.9856
178.22	12.3684
181.595	10.3418
184.97	8.40558
188.345	8.72351
191.72	7.0574
195.094	7.28879
198.469	5.74644
201.844	7.20776
205.219	7.11725
208.594	5.58525
211.969	6.78484
215.343	7.11917
218.718	7.88348
222.093	6.74587
225.468	3.66256
228.843	3.91353
232.217	3.41635
235.592	3.93267
238.967	4.48791
242.342	2.92664
245.717	3.21382
249.091	2.87009
252.466	0.310776
255.841	0.747986
259.216	0.767921
262.591	0.030159
265.966	0.041626
269.34	0.740273
272.715	0.04969
276.09	1.89924
279.465	3.94764
282.84	7.03625
286.214	9.79543
289.589	12.7288
292.964	11.8579
296.339	12.1905
299.714	9.26106
303.089	9.0158
306.463	9.07648
309.838	9.78598
313.213	13.9965
316.588	16.9213
319.963	19.5933
323.337	23.7688
326.712	26.4533
330.087	26.5071
333.462	23.9373
336.837	19.3386
340.212	16.337
343.586	13.4265
346.961	13.0332
350.336	11.7812
353.711	10.3701
357.086	7.00705
360.46	5.22887
363.835	2.57967
367.21	1.34178
370.585	0.783363
373.96	0.222313
377.334	1.19607
380.709	0.611206
384.084	0.175568
387.459	0.1334
390.834	0.331757
394.209	1.01459
397.583	3.4892
400.958	5.28047
404.333	9.02887
407.708	12.0851
411.083	15.1791
414.457	20.0396
417.832	25.7856
421.207	30.1982
424.582	34.4468
427.957	38.5795
431.332	38.8262
434.706	40.1636
438.081	37.7678
441.456	34.4992
444.831	29.4701
448.206	23.1739
451.58	18.5785
454.955	14.1638
458.33	12.2263
461.705	9.37549
465.08	7.74651
468.455	5.45876
471.829	4.62283
475.204	4.14099
478.579	3.50801
481.954	3.15431
485.329	3.11158
488.704	3.91213
492.078	2.55666
495.453	1.76462
498.828	1.82537
502.203	0.599762
505.577	0.015884
508.952	0.443901
512.327	0.054916
515.702	0.169456
519.077	0.003029
522.452	0.044746
525.826	0.665558
529.201	0.888657
532.576	1.03048
535.951	1.2555
539.326	1.81308
542.701	2.45824
546.075	1.22476
549.45	3.19192
552.825	3.11542
556.2	3.82885
559.575	3.88442
562.949	4.71747
566.324	4.4869
569.699	4.54415
573.074	5.41286
576.449	5.50206
579.823	5.95937
583.198	6.40642
586.573	6.22247
589.948	7.40408
593.323	8.31303
596.698	7.9809
600.072	8.00274
603.447	8.40388
606.822	8.36436
610.197	7.80675
613.572	7.38886
616.947	6.4557
620.321	6.69688
623.696	6.09893
627.071	5.54324
630.446	5.51876
633.821	4.71403
637.195	5.18184
640.57	4.98463
643.945	3.68521
647.32	2.89062
650.695	1.8105
654.069	1.82243
657.444	1.08349
660.819	0.997261
664.194	0.085495
667.569	0.333214
670.944	0.38324
674.318	0.700401
677.693	0.883308
681.068	0.937393
684.443	0.705894
687.818	0.680618
691.192	0.046806
694.567	1.91947
697.942	2.61215
701.317	3.52593
704.692	3.79989
708.067	3.05836
711.441	2.85339
714.816	1.06811
718.191	1.2782
721.566	2.56399
724.941	3.43934
728.316	7.4828
731.69	15.4603
735.065	25.4041
738.44	42.1035
741.815	67.2816
745.19	101.408
748.564	143.183
751.939	182.052
755.314	194.972
758.689	176.295
762.064	141.103
765.438	105.292
768.813	79.9563
772.188	58.7867
775.563	44.7544
778.938	32.935
782.313	25.8926
785.687	19.7925
789.062	14.2742
792.437	10.7789
795.812	7.13805
799.187	6.16701
802.562	6.45766
805.936	7.57238
809.311	9.14481
812.686	12.9486
816.061	18.2813
819.436	24.1552
822.81	34.9367
826.185	47.1463
829.56	59.8036
832.935	70.3864
836.31	71.7625
839.684	64.0949
843.059	47.5401
846.434	32.2312
849.809	21.4795
853.184	14.0589
856.558	10.0517
859.933	7.15533
863.308	5.35846
866.683	2.89084
870.058	2.16272
873.433	1.25268
876.807	1.06419
880.182	0.138611
883.557	0.393181
886.932	0.60675
890.307	1.30251
893.682	1.06821
897.056	0.79261
900.431	0.455326
903.806	0.706699
907.181	0.636139
910.556	0.038708
913.93	0.29134
917.305	1.53551
920.68	2.00677
924.055	2.47243
927.43	2.7887
930.804	3.49667
934.179	4.14214
937.554	5.03428
940.929	4.65284
944.304	4.83299
947.679	5.13713
951.053	4.7159
954.428	4.69977
957.803	4.68531
961.178	4.42753
964.553	4.23756
967.928	3.85324
971.302	3.41274
974.677	3.07777
978.052	3.3411
981.427	3.70371
984.802	3.55922
988.176	3.1517
991.551	1.67711
994.926	1.93523
998.301	2.35829
1001.68	2.32877
1005.05	1.58573
1008.42	2.00441
1011.8	1.64899
1015.17	2.02262
1018.55	2.4939
1021.92	1.69193
1025.3	1.72762
1028.67	1.73089
1032.05	2.01174
1035.42	1.90984
1038.8	1.21985
1042.17	1.82743
1045.55	1.63014
1048.92	1.55051
1052.3	1.33336
1055.67	0.869984
1059.05	0.872978
1062.42	0.75835
1065.8	0.447449
1069.17	0.406738
1072.55	0.331097
1075.92	0.575104
1079.3	0.397533
1082.67	1.21142
1086.05	0.138279
1089.42	0.360474
1092.8	0.050144
1096.17	0.231514
1099.55	0.425217
1102.92	0.696629
1106.3	0.394825
1109.67	0.941513
1113.05	1.1694
1116.42	0.181515
1119.79	0.588902
1123.17	0.457478
1126.54	0.187195
1129.92	0.183796
1133.29	0.48325
1136.67	0.111885
1140.04	0.257107
1143.42	0.469482
1146.79	0.463612
1150.17	0.639835
1153.54	0.854187
1156.92	0.230957
1160.29	1.04403
1163.67	0.940819
1167.04	0.88781
1170.42	1.23788
1173.79	0.890759
1177.17	1.54211
1180.54	0.853634
1183.92	1.06221
1187.29	1.05267
1190.66	0.782497
1194.04	0.940773
1197.41	1.37633
1200.79	0.904396
1204.16	0.754097
1207.54	1.17712
1210.91	0.230537
1214.29	0.551327
1217.66	2.37591
1221.04	0.358585
1224.41	0.786339
1227.79	0.049496
1231.16	0.137489
1234.54	0.021442
1237.91	0.14576
1241.29	0.888195
1244.66	0.574711
1248.04	0.221775
1251.41	0.169609
1254.79	0.484695
1258.16	0.8339
1261.54	0.861992
1264.91	0.960556
1268.29	0.381569
1271.66	1.21603
1275.04	0.453171
1278.41	1.08498
1281.79	0.198261
