Measurement: Raman, 532 nm, unoriented, Raman Data Processed
Mineral: Chalconatronite
Rruff sample: R160004
Ideal chemistry: Na_2_Cu^2+^(CO_3_)_2_3H_2_O
Locality: Rowley mine, Maricopa County, Arizona, USA
Source: Danielle Sotomayor and Keith Wentz
Description: Aggregates of blue crystals. The mineral was found on a metallic mining artifact of copper composition.
Raman shift (cm-1)	intensity
89.7832	0
93.158	33.1596
96.5328	83.1871
99.9077	112.005
103.282	16.3884
106.657	6.32861
110.032	30.5568
113.407	73.2154
116.782	43.9295
120.157	16.1817
123.531	55.473
126.906	119.144
130.281	71.8682
133.656	53.9457
137.031	86.848
140.405	107.956
143.78	126.385
147.155	176.865
150.53	125.799
153.905	97.4935
157.28	87.1163
160.654	95.4184
164.029	102.086
167.404	74.2447
170.779	33.9693
174.154	12.8738
177.528	23.6594
180.903	45.1347
184.278	67.7477
187.653	78.0211
191.028	71.1372
194.403	66.491
197.777	62.5969
201.152	60.7273
204.527	56.3184
207.902	57.4423
211.277	62.2742
214.651	62.9398
218.026	60.5991
221.401	61.6985
224.776	56.4073
228.151	53.1292
231.525	40.4352
234.9	26.8991
238.275	16.1929
241.65	8.73328
245.025	5.07727
248.4	5.29602
251.774	10.6439
255.149	7.04507
258.524	1.74176
261.899	14.1096
265.274	27.5987
268.649	44.5066
272.023	55.925
275.398	59.8858
278.773	56.7919
282.148	53.4051
285.523	53.6471
288.897	62.7694
292.272	78.8509
295.647	100.34
299.022	125.357
302.397	156.442
305.772	189.441
309.146	218.478
312.521	240.285
315.896	267.367
319.271	306.461
322.646	353.632
326.02	400.033
329.395	423.064
332.77	395.103
336.145	318.339
339.52	225.75
342.894	150.441
346.269	97.0834
349.644	62.3034
353.019	41.3699
356.394	26.9335
359.769	16.5896
363.143	7.73328
366.518	3.21161
369.893	0.485794
373.268	1.99118
376.643	1.17258
380.017	1.2838
383.392	4.05237
386.767	5.88829
390.142	10.114
393.517	12.7204
396.892	10.1981
400.266	8.64745
403.641	6.33516
407.016	1.79421
410.391	0.220642
413.766	1.07835
417.14	0.473572
420.515	1.30766
423.89	0.867722
427.265	0.499146
430.64	0.488052
434.014	1.46878
437.389	1.46226
440.764	2.25749
444.139	3.74887
447.514	3.77272
450.889	3.19917
454.263	3.13173
457.638	4.68208
461.013	5.41975
464.388	6.95558
467.763	5.91803
471.137	5.57458
474.512	5.20779
477.887	4.85327
481.262	5.28749
484.637	5.28972
488.012	3.87511
491.386	4.74446
494.761	3.99139
498.136	4.66287
501.511	2.87953
504.886	2.45698
508.26	0.974167
511.635	0.528839
515.01	0.313095
518.385	0.233368
521.76	1.13327
525.135	0.002533
528.509	0.131363
531.884	1.24355
535.259	0.110596
538.634	0.617264
542.009	1.88606
545.384	1.54948
548.758	1.88573
552.133	2.49249
555.508	3.41196
558.883	2.05365
562.258	3.27936
565.632	4.34305
569.007	2.62274
572.382	2.73762
575.757	4.40099
579.132	3.75664
582.506	2.98428
585.881	3.90253
589.256	3.58133
592.631	3.58394
596.006	3.37323
599.381	3.49881
602.755	3.6309
606.13	4.67291
609.505	4.88293
612.88	5.64455
616.255	5.63176
619.63	5.29362
623.004	3.86647
626.379	4.47342
629.754	3.33472
633.129	3.29263
636.504	2.37082
639.878	1.02486
643.253	1.54942
646.628	1.22415
650.003	0.610748
653.378	0.294785
656.752	0.019043
660.127	1.83197
663.502	1.06711
666.877	1.02913
670.252	0.174484
673.626	0.141418
677.001	2.41338
680.376	3.63074
683.751	6.89232
687.126	12.4865
690.501	20.8944
693.875	30.914
697.25	43.5583
700.625	43.9596
704	30.6922
707.375	18.2713
710.75	10.9014
714.124	5.88115
717.499	7.0058
720.874	3.26895
724.249	3.56622
727.624	4.47661
730.998	6.3483
734.373	10.7237
737.748	17.7159
741.123	25.89
744.498	38.3411
747.872	53.8392
751.247	60.7169
754.622	63.9066
757.997	65.4469
761.372	77.2853
764.747	99.6185
768.121	105.277
771.496	69.8519
774.871	38.348
778.246	19.6182
781.621	11.7486
784.995	8.32317
788.37	5.38683
791.745	3.9581
795.12	3.31596
798.495	0.963837
801.87	1.81372
805.244	2.81584
808.619	1.548
811.994	2.72813
815.369	1.04103
818.744	1.32889
822.119	0.735855
825.493	1.04814
828.868	1.00359
832.243	0.600388
835.618	0.501251
838.993	0.854355
842.367	0.518494
845.742	3.823
849.117	0.539658
852.492	0.895782
855.867	5.23239
859.241	3.7514
862.616	3.73001
865.991	3.10715
869.366	0.591858
872.741	1.92868
876.115	0.178711
879.49	0.884689
882.865	1.07777
886.24	0.022186
889.615	1.06384
892.99	0.711014
896.364	0.871262
899.739	0.356094
903.114	0.311325
906.489	0.567154
909.864	0.045319
913.239	0.020523
916.613	1.21954
919.988	0.001389
923.363	1.23291
926.738	1.16213
930.113	1.7749
933.487	2.22063
936.862	1.1743
940.237	1.05987
943.612	1.32831
946.987	0.579849
950.361	0.492065
953.736	2.69705
957.111	0.934357
960.486	0.410324
963.861	0.212433
967.236	1.5601
970.61	1.56979
973.985	1.19545
977.36	1.19167
980.735	1.41562
984.11	1.75934
987.485	3.92497
990.859	4.54083
994.234	1.72916
997.609	0.95874
1000.98	0.718124
1004.36	0.335403
1007.73	0.347397
1011.11	0.10144
1014.48	0.099915
1017.86	0.397018
1021.23	1.07118
1024.61	0.688858
1027.98	0.359421
1031.36	1.15506
1034.73	3.19566
1038.11	3.86113
1041.48	7.25111
1044.86	20.0431
1048.23	43.8484
1051.61	82.1694
1054.98	192.513
1058.36	161.47
1061.73	60.811
1065.11	55.016
1068.48	78.9985
1071.86	137.128
1075.23	179.492
1078.6	104.332
1081.98	41.4806
1085.35	19.0445
1088.73	11.8324
1092.1	5.62773
1095.48	3.63176
1098.85	2.5898
1102.23	2.45606
1105.6	2.55402
1108.98	1.19749
1112.35	1.31497
1115.73	1.67493
1119.1	0.724442
1122.48	1.592
1125.85	0.104675
1129.23	0.258636
1132.6	1.10289
1135.98	0.19101
1139.35	1.94638
1142.73	1.30518
1146.1	0.074524
1149.48	1.32562
1152.85	0.673569
1156.22	1.50597
1159.6	2.29314
1162.97	1.51498
1166.35	1.39998
1169.72	0.585098
1173.1	2.07278
1176.47	2.00153
1179.85	1.23219
1183.22	2.32198
1186.6	2.39009
1189.97	0.793533
1193.35	0.83786
1196.72	1.46832
1200.1	2.03506
1203.47	2.46089
1206.85	2.2169
1210.22	2.33202
1213.6	1.39856
1216.97	2.58141
1220.35	1.04489
1223.72	2.52658
1227.1	0.381775
1230.47	0.270416
1233.85	2.22821
1237.22	0.575958
1240.6	1.22522
1243.97	1.4322
1247.35	1.29091
1250.72	1.88962
1254.1	2.25833
1257.47	2.03447
1260.85	0.685654
1264.22	0.653076
1267.59	1.35411
1270.97	0.707535
1274.34	1.16208
1277.72	1.65382
1281.09	1.08418
1284.47	1.19664
1287.84	2.30653
1291.22	0.375412
1294.59	1.55289
1297.97	0.42894
1301.34	0.045135
