Measurement: Raman, 532 nm, unoriented, Raman Data Processed
Mineral: Clinochlore
Rruff sample: R150146
Ideal chemistry: Mg_5_Al(AlSi_3_O_10_)(OH)_8_
Locality: Kop Dağı, Erzurum, Turkey
Source: Leor Goldberg
Description: Pink thick pseudohexagonal crystals, with tapering pyramidal faces. Crystals are twinned, with the twin axis along [310].
Raman shift (cm-1)	intensity
89.7832	0
93.158	15.1046
96.5328	7.76722
99.9077	0.616058
103.282	2.78311
106.657	6.51405
110.032	26.8101
113.407	23.2982
116.782	36.2451
120.157	31.5124
123.531	17.0008
126.906	16.9018
130.281	7.83087
133.656	8.83094
137.031	2.53985
140.405	3.61955
143.78	3.00182
147.155	0.40226
150.53	0.533356
153.905	1.0686
157.28	4.45326
160.654	0.698738
164.029	0.439499
167.404	1.15308
170.779	1.45382
174.154	3.71449
177.528	3.49766
180.903	5.66714
184.278	8.6814
187.653	13.2193
191.028	16.2376
194.403	22.5936
197.777	38.3372
201.152	54.0464
204.527	27.9693
207.902	11.527
211.277	6.67627
214.651	5.32015
218.026	4.30934
221.401	3.04458
224.776	2.77061
228.151	2.7343
231.525	1.91336
234.9	1.36163
238.275	1.16076
241.65	0.774384
245.025	1.39954
248.4	0.491318
251.774	0.036522
255.149	0.357315
258.524	0.80722
261.899	0.955223
265.274	0.480026
268.649	2.4954
272.023	5.08823
275.398	8.93903
278.773	14.3997
282.148	22.5599
285.523	27.7506
288.897	24.4322
292.272	18.8607
295.647	16.4528
299.022	16.8751
302.397	13.7363
305.772	13.0254
309.146	10.5023
312.521	9.5411
315.896	10.973
319.271	12.6055
322.646	16.6368
326.02	18.6039
329.395	18.6669
332.77	19.0742
336.145	23.0705
339.52	34.5224
342.894	50.7058
346.269	73.2925
349.644	109.288
353.019	156.586
356.394	166.151
359.769	107.764
363.143	59.1025
366.518	34.511
369.893	21.7787
373.268	14.6134
376.643	10.2994
380.017	8.63094
383.392	8.19535
386.767	6.84516
390.142	5.00588
393.517	2.08731
396.892	1.51033
400.266	2.18269
403.641	0.907455
407.016	2.26022
410.391	5.96574
413.766	12.2767
417.14	19.5926
420.515	28.4265
423.89	38.3045
427.265	44.6702
430.64	45.0219
434.014	43.5922
437.389	49.7398
440.764	59.9811
444.139	53.971
447.514	35.2659
450.889	26.7329
454.263	27.3024
457.638	27.307
461.013	23.8934
464.388	14.368
467.763	7.80045
471.137	4.11954
474.512	1.26101
477.887	0.689186
481.262	1.0209
484.637	0.162998
488.012	0.360889
491.386	1.95109
494.761	4.45901
498.136	7.02998
501.511	9.78976
504.886	12.6199
508.26	16.9778
511.635	22.7252
515.01	29.3316
518.385	41.0653
521.76	58.7362
525.135	90.3853
528.509	134.169
531.884	195.803
535.259	282.819
538.634	377.421
542.009	415.713
545.384	355.897
548.758	259.518
552.133	179.489
555.508	119.633
558.883	77.1054
562.258	51.6437
565.632	33.964
569.007	22.5133
572.382	13.5199
575.757	7.24493
579.132	3.302
582.506	1.32478
585.881	0.858925
589.256	0.319096
592.631	0.744858
596.006	0.61248
599.381	0.180779
602.755	0.107899
606.13	0.589024
609.505	0.174988
612.88	0.649242
616.255	0.0009
619.63	0.460438
623.004	0.742435
626.379	0.125107
629.754	0.801361
633.129	1.73984
636.504	3.27072
639.878	4.58061
643.253	7.4269
646.628	10.4672
650.003	15.7666
653.378	23.5269
656.752	33.4635
660.127	47.6657
663.502	66.5624
666.877	93.7107
670.252	126.24
673.626	160.572
677.001	188.49
680.376	202.125
683.751	191.53
687.126	162.65
690.501	128.715
693.875	97.4101
697.25	71.0206
700.625	52.2475
704	39.3195
707.375	29.7411
710.75	23.0256
714.124	18.4344
717.499	14.2402
720.874	11.7164
724.249	9.03797
727.624	7.25243
730.998	6.25622
734.373	4.53803
737.748	2.61387
741.123	2.07228
744.498	2.13687
747.872	1.14311
751.247	0.871243
754.622	0.276878
757.997	0.501831
761.372	0.219528
764.747	0.449268
768.121	0.033916
771.496	0.513222
774.871	0.424374
778.246	1.24642
781.621	1.18098
784.995	2.44438
788.37	2.16523
791.745	2.60349
795.12	2.49472
798.495	3.24707
801.87	3.43932
805.244	3.54437
808.619	4.982
811.994	4.89512
815.369	4.95135
818.744	5.31422
822.119	5.46955
825.493	5.62363
828.868	5.36355
832.243	6.37484
835.618	6.5741
838.993	7.90674
842.367	7.68639
845.742	8.1568
849.117	8.59164
852.492	8.82245
855.867	9.34852
859.241	9.57404
862.616	9.32339
865.991	8.5862
869.366	7.34329
872.741	7.82775
876.115	6.4104
879.49	5.99382
882.865	6.05715
886.24	4.82571
889.615	3.3351
892.99	3.1616
896.364	1.82466
899.739	0.63887
903.114	0.483959
906.489	0.283932
909.864	0.053795
913.239	0.129066
916.613	0.115215
919.988	0.20602
923.363	0.218456
926.738	0.085056
930.113	0.109959
933.487	0.038738
936.862	0.68573
940.237	1.24138
943.612	0.102303
946.987	0.60067
950.361	0.41655
953.736	0.98848
957.111	1.68768
960.486	1.89084
963.861	1.89916
967.236	2.64405
970.61	3.30739
973.985	3.52687
977.36	3.3868
980.735	3.32142
984.11	3.86193
987.485	4.26471
990.859	4.48497
994.234	4.36675
997.609	4.28339
1000.98	5.03522
1004.36	4.22537
1007.73	3.86039
1011.11	2.33669
1014.48	0.861946
1017.86	0.904858
1021.23	0.575027
1024.61	0.466419
1027.98	0.826191
1031.36	1.28872
1034.73	2.4152
1038.11	4.0574
1041.48	6.32618
1044.86	8.83441
1048.23	12.1059
1051.61	15.3856
1054.98	17.981
1058.36	19.1362
1061.73	18.9781
1065.11	17.4043
1068.48	15.2767
1071.86	13.2314
1075.23	11.8867
1078.6	11.6214
1081.98	12.9171
1085.35	15.4963
1088.73	18.5435
1092.1	18.2761
1095.48	14.548
1098.85	9.58196
1102.23	4.22314
1105.6	2.47189
1108.98	1.38613
1112.35	0.653872
1115.73	0.35751
1119.1	0.11548
1122.48	0.803663
1125.85	0.018467
1129.23	0.222214
1132.6	0.353354
1135.98	0.084143
1139.35	0.041674
1142.73	0.2582
1146.1	0.243404
1149.48	1.62977
1152.85	0.220127
1156.22	0.391891
1159.6	0.554035
1162.97	0.844421
1166.35	0.569454
1169.72	0.384836
1173.1	0.727106
1176.47	0.981926
1179.85	1.12257
1183.22	1.4379
1186.6	1.03483
1189.97	1.11027
1193.35	1.36438
1196.72	0.940969
1200.1	1.25742
1203.47	1.22345
1206.85	0.888311
1210.22	1.27417
1213.6	0.576609
1216.97	0.824179
1220.35	0.542875
1223.72	1.11867
1227.1	0.740622
1230.47	0.434879
1233.85	0.478804
1237.22	0.621084
1240.6	0.853725
1243.97	1.00512
1247.35	0.888248
1250.72	0.862623
1254.1	0.599257
1257.47	0.794996
1260.85	0.493023
1264.22	0.455969
1267.59	0.703909
1270.97	0.44293
1274.34	1.00513
1277.72	0.727278
1281.09	0.090155
1284.47	0.114565
1287.84	0.149143
1291.22	0.370605
1294.59	0.238575
1297.97	0.171989
1301.34	0.131399
