Measurement: Raman, 780 nm, unoriented, Raman Data Processed
Mineral: Clinochlore
Rruff sample: R150146
Ideal chemistry: Mg_5_Al(AlSi_3_O_10_)(OH)_8_
Locality: Kop Dağı, Erzurum, Turkey
Source: Leor Goldberg
Description: Pink thick pseudohexagonal crystals, with tapering pyramidal faces. Crystals are twinned, with the twin axis along [310].
Raman shift (cm-1)	intensity
93.4884	0
96.8632	12.0656
100.238	0.29071
103.613	14.251
106.988	34.2857
110.362	40.1373
113.737	68.6478
117.112	77.8868
120.487	48.3875
123.862	39.0812
127.237	24.3564
130.611	21.2023
133.986	12.463
137.361	8.76514
140.736	10.8067
144.111	3.5824
147.485	0.150391
150.86	4.24103
154.235	1.0852
157.61	6.32498
160.985	7.50854
164.359	12.3836
167.734	15.7599
171.109	21.1347
174.484	23.5335
177.859	27.0339
181.234	34.2175
184.608	40.902
187.983	42.948
191.358	53.6225
194.733	72.4213
198.108	119.847
201.482	143.13
204.857	71.3088
208.232	39.2383
211.607	26.7598
214.982	20.6661
218.357	20.2548
221.731	16.2206
225.106	15.164
228.481	13.7818
231.856	12.0711
235.231	10.2
238.605	9.52426
241.98	9.05545
245.355	9.92142
248.73	4.73187
252.105	2.31146
255.48	0.881958
258.854	1.72165
262.229	3.14255
265.604	1.18976
268.979	2.55975
272.354	5.95566
275.728	16.318
279.103	33.1996
282.478	57.672
285.853	71.8198
289.228	57.8487
292.602	42.084
295.977	35.7412
299.352	32.4863
302.727	26.2031
306.102	19.2058
309.476	14.1874
312.851	10.778
316.226	15.6005
319.601	20.2904
322.976	28.8121
326.351	37.2978
329.725	35.0554
333.1	33.7614
336.475	43.266
339.85	56.9323
343.225	84.6462
346.599	133.059
349.974	225.269
353.349	358.501
356.724	379
360.099	216.921
363.474	113.096
366.848	61.3426
370.223	35.0929
373.598	20.0479
376.973	11.5268
380.348	4.33273
383.722	5.49252
387.097	9.24307
390.472	12.0842
393.847	5.56641
397.222	0.440125
400.596	4.45908
403.971	2.77445
407.346	5.15613
410.721	14.7287
414.096	26.4013
417.471	44.3795
420.845	68.4818
424.22	93.4064
427.595	104.975
430.97	103.61
434.345	94.8054
437.719	106.968
441.094	123.57
444.469	105.762
447.844	68.2562
451.219	53.1576
454.594	52.7753
457.968	57.1374
461.343	47.9523
464.718	26.8431
468.093	14.4108
471.468	8.74155
474.842	3.07434
478.217	0.391724
481.592	2.2789
484.967	0.585205
488.342	0.372925
491.716	2.97739
495.091	11.7021
498.466	15.4096
501.841	21.5361
505.216	27.4759
508.591	38.0173
511.965	48.8909
515.34	63.141
518.715	86.9854
522.09	126.604
525.465	178.853
528.84	248.794
532.214	361.644
535.589	534.018
538.964	739.147
542.339	819.778
545.713	700.366
549.088	512.741
552.463	353.623
555.838	234.727
559.213	149.058
562.588	94.9022
565.962	65.8901
569.337	44.8762
572.712	25.4672
576.087	13.2913
579.462	4.88275
582.837	2.1359
586.211	0.51239
589.586	1.08417
592.961	1.14041
596.336	2.48746
599.711	0.318878
603.085	0.717224
606.46	1.34082
609.835	0.816864
613.21	1.19949
616.585	0.518341
619.96	0.232086
623.334	1.49731
626.709	1.20242
630.084	4.1636
633.459	4.11957
636.833	8.19373
640.208	12.3414
643.583	15.8704
646.958	23.6827
650.333	31.4473
653.708	44.9479
657.082	62.9527
660.457	89.9628
663.832	123.238
667.207	172.353
670.582	228.975
673.957	292.883
677.331	346.483
680.706	367.41
684.081	342.943
687.456	291.455
690.831	231.166
694.205	173.733
697.58	126.061
700.955	92.901
704.33	67.7377
707.705	50.7595
711.079	40.7181
714.454	31.396
717.829	26.1262
721.204	20.1616
724.579	17.4647
727.953	14.0489
731.328	10.9137
734.703	8.17117
738.078	6.20761
741.453	3.67929
744.828	4.63229
748.202	3.96802
751.577	1.07959
754.952	1.68365
758.327	2.18152
761.702	2.35016
765.077	2.2568
768.451	0.96701
771.826	0.723419
775.201	0.761047
778.576	0.581573
781.951	1.79504
785.325	0.489471
788.7	1.20944
792.075	3.05344
795.45	2.61542
798.825	1.69849
802.199	3.19318
805.574	2.46912
808.949	3.45615
812.324	2.9509
815.699	3.4299
819.073	2.87183
822.448	2.22592
825.823	2.66779
829.198	1.99216
832.573	3.12396
835.948	1.88132
839.322	3.67728
842.697	4.24048
846.072	4.42511
849.447	2.81162
852.822	5.77307
856.197	4.39224
859.571	5.16101
862.946	5.06586
866.321	4.69159
869.696	2.19315
873.071	4.43701
876.445	1.49707
879.82	2.81546
883.195	2.64694
886.57	2.70532
889.945	1.38577
893.319	0.412506
896.694	0.900665
900.069	0.01059
903.444	0.171722
906.819	0.535583
910.193	0.936981
913.568	0.352264
916.943	0.208374
920.318	1.89294
923.693	1.3417
927.068	0.593842
930.442	1.21652
933.817	0.436432
937.192	1.9083
940.567	1.26878
943.942	1.84288
947.317	1.39238
950.691	2.45104
954.066	1.59181
957.441	4.56822
960.816	4.48538
964.191	4.18022
967.565	4.618
970.94	6.18192
974.315	4.85114
977.69	4.25986
981.065	5.30057
984.439	6.02536
987.814	6.41203
991.189	6.53635
994.564	7.38246
997.939	5.77368
1001.31	5.87502
1004.69	6.19821
1008.06	5.03697
1011.44	2.2328
1014.81	1.91244
1018.19	0.236069
1021.56	1.37265
1024.94	0.415421
1028.31	0.002853
1031.69	0.376678
1035.06	3.03377
1038.44	2.79785
1041.81	9.18449
1045.19	11.7944
1048.56	14.8704
1051.94	20.2137
1055.31	24.138
1058.68	25.4879
1062.06	27.2371
1065.43	25.3367
1068.81	22.2049
1072.18	17.4298
1075.56	16.0888
1078.93	17.546
1082.31	20.6837
1085.68	23.7589
1089.06	28.3879
1092.43	27.9711
1095.81	20.4982
1099.18	12.2307
1102.56	5.65269
1105.93	3.07594
1109.31	2.46295
1112.68	0.026657
1116.06	0.144928
1119.43	0.873322
1122.81	0.500824
1126.18	0.087967
1129.56	0.184189
1132.93	1.58522
1136.31	0.194153
1139.68	0.797394
1143.06	0.521896
1146.43	1.9113
1149.81	1.95381
1153.18	1.04877
1156.56	0.286499
1159.93	1.86629
1163.31	1.00337
1166.68	2.00198
1170.05	1.84172
1173.43	2.00687
1176.8	2.7836
1180.18	2.99225
1183.55	3.24174
1186.93	1.91577
1190.3	2.35954
1193.68	1.92786
1197.05	1.60008
1200.43	2.67659
1203.8	1.95891
1207.18	2.51071
1210.55	1.26331
1213.93	1.62593
1217.3	1.48569
1220.68	0.484421
1224.05	1.27801
1227.43	0.856888
1230.8	1.49615
1234.18	1.34241
1237.55	1.78949
1240.92	0.017365
1244.3	0.442444
1247.67	0.493927
1251.05	0.741409
1254.42	1.95
1257.8	2.65057
1261.17	1.27777
1264.55	1.65904
1267.92	1.47865
1271.3	1.43468
1274.67	0.027969
1278.05	0.483719
1281.42	0.583969
1284.8	0
