Measurement: Raman, 532 nm, unoriented, Raman Data Processed
Mineral: Creaseyite
Rruff sample: R130418
Ideal chemistry: Cu^2+^_2_Pb^2+^_2_Fe^3+^_2_Si_5_O_17_6H_2_O
Locality: Navojoa, Municipio de Navojoa, Sonora, Mexico
Source: Bob Jenkins
Description: Pale-green acicular crystals on quartz
Raman shift (cm-1)	intensity
92.1938	0
95.5686	233.377
98.9434	441.05
102.318	120.412
105.693	40.813
109.068	110.099
112.443	132.481
115.817	223.667
119.192	269.043
122.567	247.572
125.942	289.006
129.317	240.275
132.692	191.874
136.066	81.4575
139.441	71.3862
142.816	127.133
146.191	239.336
149.566	406.783
152.94	456.225
156.315	399.438
159.69	300.929
163.065	246.717
166.44	239.199
169.815	285.668
173.189	376.796
176.564	423.92
179.939	492.519
183.314	675.146
186.689	989.473
190.064	1475.75
193.438	2134.24
196.813	2854.48
200.188	3029.49
203.563	2379.89
206.938	1616.95
210.312	1113.01
213.687	915.19
217.062	916.232
220.437	746.74
223.812	553.396
227.186	496.155
230.561	545.635
233.936	686.634
237.311	808.756
240.686	788.365
244.06	624.779
247.435	475.494
250.81	419.908
254.185	410.015
257.56	343.735
260.935	232.523
264.309	129.113
267.684	68.8035
271.059	30.6067
274.434	9.51062
277.809	39.4556
281.183	52.7258
284.558	44.0187
287.933	20.8859
291.308	18.3438
294.683	70.5023
298.058	139.172
301.432	248.997
304.807	379.888
308.182	528.9
311.557	623.337
314.932	660.505
318.307	732.156
321.681	888.994
325.056	1017.61
328.431	887.986
331.806	630.198
335.181	478.462
338.555	393.746
341.93	356.509
345.305	362.251
348.68	428.379
352.055	534.241
355.43	648.253
358.804	726.196
362.179	724.404
365.554	634.657
368.929	501.374
372.304	389.815
375.678	311.123
379.053	239.96
382.428	172.751
385.803	112.177
389.178	63.0104
392.553	23.0795
395.927	2.24219
399.302	8.3877
402.677	9.12781
406.052	8.68994
409.427	3.01428
412.801	8.74976
416.176	28.1875
419.551	54.3428
422.926	71.5264
426.301	80.8571
429.675	89.1313
433.05	88.4553
436.425	100.037
439.8	121.995
443.175	134.903
446.55	149.361
449.924	151.277
453.299	161.525
456.674	185.976
460.049	204.855
463.424	200.51
466.798	170.661
470.173	154.108
473.548	150.964
476.923	158.88
480.298	176.573
483.673	188.394
487.047	184.366
490.422	149.293
493.797	107.79
497.172	82.944
500.547	76.2098
503.921	94.9091
507.296	124.672
510.671	163.959
514.046	188.2
517.421	155.19
520.795	113.536
524.17	78.1034
527.545	56.5673
530.92	38.4354
534.295	28.5935
537.67	21.0605
541.044	11.2628
544.419	4.17554
547.794	1.98645
551.169	4.24829
554.544	11.5768
557.918	7.2229
561.293	0.097412
564.668	9.14392
568.043	16.7875
571.418	30.4924
574.793	42.7308
578.167	55.457
581.542	63.0011
584.917	66.6415
588.292	67.656
591.667	75.3684
595.042	87.926
598.416	92.8245
601.791	85.363
605.166	73.4354
608.541	62.3605
611.916	54.7013
615.29	53.2352
618.665	51.1849
622.04	46.6255
625.415	39.0153
628.79	29.1479
632.164	19.102
635.539	17.6159
638.914	16.5541
642.289	21.1242
645.664	27.0527
649.039	17.0316
652.413	7.62891
655.788	0.207703
659.163	5.02972
662.538	2.62366
665.913	2.65643
669.288	1.02173
672.662	0.315308
676.037	4.76263
679.412	6.51465
682.787	7.62695
686.162	17.0397
689.536	22.4089
692.911	30.7474
696.286	41.6472
699.661	60.9982
703.036	77.3696
706.41	104.104
709.785	129.129
713.16	155.081
716.535	191.682
719.91	225.932
723.284	247.613
726.659	231.637
730.034	177.955
733.409	115.645
736.784	78.9255
740.159	55.4224
743.533	40.718
746.908	38.2707
750.283	30.3244
753.658	24.7681
757.033	13.6634
760.408	12.4059
763.782	17.1554
767.157	13.2012
770.532	14.9611
773.907	23.7245
777.282	36.7437
780.656	47.1201
784.031	61.3251
787.406	72.3481
790.781	80.1002
794.156	75.671
797.53	67.9868
800.905	56.0992
804.28	50.2023
807.655	40.5978
811.03	32.3469
814.405	26.5844
817.779	24.2644
821.154	21.5082
824.529	20.5234
827.904	14.8559
831.279	11.2355
834.654	10.2066
838.028	3.30048
841.403	2.37628
844.778	2.85303
848.153	1.42261
851.528	4.89648
854.902	4.76782
858.277	2.68817
861.652	4.59222
865.027	9.17102
868.402	22.7291
871.777	44.7105
875.151	66.7109
878.526	89.9573
881.901	106.274
885.276	125.34
888.651	136.569
892.025	133.846
895.4	116.405
898.775	97.6249
902.15	80.1979
905.525	63.4371
908.899	47.777
912.274	38.1251
915.649	30.4197
919.024	30.8408
922.399	23.7456
925.774	17.8179
929.148	8.56934
932.523	4.71045
935.898	4.06714
939.273	2.39014
942.648	4.28332
946.023	1.02344
949.397	1.83411
952.772	7.20032
956.147	20.8138
959.522	37.6478
962.896	53.7239
966.271	71.5102
969.646	84.5436
973.021	95.4055
976.396	100.27
979.771	107.887
983.145	111.114
986.52	122.205
989.895	143.018
993.27	187.792
996.645	263.655
1000.02	364.165
1003.39	456.585
1006.77	494.061
1010.14	458.555
1013.52	391.731
1016.89	312.595
1020.27	243.383
1023.64	192.103
1027.02	153.581
1030.39	117.27
1033.77	102.616
1037.14	89
1040.52	72.9694
1043.89	65.1382
1047.27	57.5793
1050.64	47.495
1054.02	37.6111
1057.39	29.1542
1060.77	20.4883
1064.14	14.3232
1067.52	7.54181
1070.89	2.80066
1074.27	0.306335
1077.64	0.572632
1081.02	0.704346
1084.39	1.98456
1087.77	4.38098
1091.14	6.43164
1094.51	1.42651
1097.89	2.81665
1101.26	2.99182
1104.64	1.58765
1108.01	3.11639
1111.39	1.87036
1114.76	0.534973
1118.14	0.343872
1121.51	1.26312
1124.89	4.17499
1128.26	2.38971
1131.64	0.114807
1135.01	5.7807
1138.39	9.63013
1141.76	13.4876
1145.14	18.8673
1148.51	21.7994
1151.89	26.0694
1155.26	29.3307
1158.64	26.9427
1162.01	27.8413
1165.38	22.9858
1168.76	22.4648
1172.13	16.8373
1175.51	20.3966
1178.88	20.0543
1182.26	16.0266
1185.63	13.8742
1189.01	10.947
1192.38	10.7631
1195.76	9.45111
1199.13	10.3609
1202.51	9.27234
1205.88	9.41113
1209.26	10.5141
1212.63	9.19684
1216.01	10.9056
1219.38	9.47607
1222.76	10.1326
1226.13	9.34955
1229.51	4.93512
1232.88	4.16064
1236.26	8.28729
1239.63	12.3899
1243.01	4.98578
1246.38	5.40161
1249.76	5.13971
1253.13	5.89002
1256.51	4.43915
1259.88	3.09918
1263.26	3.30957
1266.63	0.565979
1270.01	0.807434
1273.38	0.808655
1276.76	0.239685
1280.13	3.42145
1283.5	5.20178
1286.88	3.43158
1290.25	0.292786
1293.63	2.22742
1297	2.52667
1300.38	0.436096
