Measurement: Raman, 780 nm, unoriented, Raman Data Processed
Mineral: Creaseyite
Rruff sample: R130418
Ideal chemistry: Cu^2+^_2_Pb^2+^_2_Fe^3+^_2_Si_5_O_17_6H_2_O
Locality: Navojoa, Municipio de Navojoa, Sonora, Mexico
Source: Bob Jenkins
Description: Pale-green acicular crystals on quartz
Raman shift (cm-1)	intensity
120.005	0
123.38	8.43848
126.754	17.8798
130.129	16.7502
133.504	16.3057
136.879	17.3166
140.254	36.9238
143.629	53.6094
147.003	49.3558
150.378	53.6136
153.753	45.4867
157.128	32.9637
160.503	12.6696
163.877	2.14569
167.252	2.04211
170.627	1.63238
174.002	0.341309
177.377	1.37134
180.751	7.36185
184.126	22.3148
187.501	47.563
190.876	87.9228
194.251	156.335
197.625	232.162
201	234.639
204.375	171.469
207.75	123.987
211.125	107.501
214.5	116.616
217.874	105.963
221.249	82.6938
224.624	65.9364
227.999	65.9983
231.374	77.7701
234.749	87.2306
238.123	95.6113
241.498	89.5043
244.873	78.3265
248.248	77.6097
251.623	76.084
254.997	73.0464
258.372	58.4527
261.747	46.1136
265.122	38.1356
268.497	26.5139
271.872	16.22
275.246	6.7558
278.621	0.272919
281.996	1.69782
285.371	2.78534
288.745	0.149994
292.12	5.20984
295.495	10.1528
298.87	13.1087
302.245	18.8964
305.62	20.4361
308.994	26.2224
312.369	32.0591
315.744	40.2802
319.119	59.3194
322.494	80.0171
325.868	77.672
329.243	52.0675
332.618	30.419
335.993	19.1053
339.368	14.8142
342.743	10.1243
346.117	10.0655
349.492	16.0311
352.867	19.2642
356.242	27.7826
359.617	32.2889
362.991	33.3694
366.366	29.0279
369.741	24.7776
373.116	20.4116
376.491	18.4517
379.865	11.2747
383.24	10.1332
386.615	4.44261
389.99	4.03398
393.365	0.477539
396.74	0.990128
400.114	0.395233
403.489	2.28494
406.864	0.031509
410.239	0.266663
413.614	0.753601
416.988	0.586761
420.363	2.89073
423.738	3.92386
427.113	7.7905
430.488	9.7662
433.863	8.22633
437.237	10.2552
440.612	13.8668
443.987	13.9029
447.362	12.4375
450.737	13.1857
454.111	11.3258
457.486	9.83119
460.861	9.84665
464.236	7.67216
467.611	6.36426
470.986	5.15062
474.36	6.34906
477.735	8.07889
481.11	9.49844
484.485	11.998
487.86	13.8915
491.234	11.8752
494.609	12.9173
497.984	10.2803
501.359	10.0513
504.734	9.90294
508.108	9.29558
511.483	13.162
514.858	12.779
518.233	9.01367
521.608	5.86468
524.982	3.09851
528.357	1.44873
531.732	1.95761
535.107	0.204468
538.482	0.227005
541.857	1.42276
545.231	0.899551
548.606	0.751617
551.981	0.322601
555.356	1.89772
558.731	1.05385
562.106	0.303589
565.48	0.696991
568.855	2.7383
572.23	4.35657
575.605	2.83958
578.98	4.89616
582.354	4.40349
585.729	3.26889
589.104	4.21342
592.479	6.13837
595.854	6.50349
599.229	8.39889
602.603	6.96504
605.978	6.45497
609.353	6.17981
612.728	5.99577
616.102	6.53352
619.477	2.77383
622.852	3.76309
626.227	3.17813
629.602	2.4131
632.977	1.04744
636.351	1.9079
639.726	0.167923
643.101	1.21654
646.476	2.33673
649.851	2.92633
653.226	0.823318
656.6	1.17494
659.975	0.527603
663.35	0.007782
666.725	0.467499
670.1	0.875351
673.474	1.06346
676.849	0.015594
680.224	1.34221
683.599	1.97932
686.974	2.43935
690.348	2.17839
693.723	4.36031
697.098	4.58502
700.473	6.88278
703.848	11.1847
707.222	11.3796
710.597	13.26
713.972	15.5209
717.347	16.2616
720.722	17.0737
724.097	17.1969
727.471	16.0752
730.846	12.3765
734.221	9.11491
737.596	6.05156
740.971	3.86075
744.346	0.967514
747.72	1.33139
751.095	1.99016
754.47	0.40831
757.845	0.428986
761.22	0.598434
764.594	0.994614
767.969	0.262863
771.344	1.07436
774.719	1.56197
778.094	1.46065
781.468	1.47633
784.843	1.70551
788.218	4.25743
791.593	5.21121
794.968	5.3468
798.342	5.95075
801.717	4.94864
805.092	4.37587
808.467	3.92349
811.842	0.050613
815.217	1.79948
818.591	0.642715
821.966	1.02016
825.341	0.934845
828.716	1.14937
832.091	1.72823
835.466	0.718521
838.84	0.32283
842.215	0.026093
845.59	2.45415
848.965	0.69017
852.34	1.53599
855.714	2.23479
859.089	3.35057
862.464	5.94534
865.839	6.50113
869.214	10.3082
872.588	13.0885
875.963	13.8617
879.338	15.2776
882.713	14.2751
886.088	13.5992
889.462	11.5019
892.837	10.8625
896.212	8.61728
899.587	5.12035
902.962	4.56454
906.337	4.53914
909.711	3.76079
913.086	3.3645
916.461	4.18962
919.836	3.67241
923.211	4.10719
926.585	1.71449
929.96	1.38188
933.335	0.605042
936.71	0.740494
940.085	1.91994
943.46	0.022766
946.834	0.506027
950.209	0.055756
953.584	2.09578
956.959	0.514969
960.334	1.91499
963.708	2.8605
967.083	2.5943
970.458	3.99402
973.833	5.34016
977.208	4.80096
980.582	4.68564
983.957	7.26802
987.332	8.98906
990.707	12.6401
994.082	18.3743
997.457	20.4476
1000.83	26.5593
1004.21	27.7286
1007.58	24.6161
1010.96	21.84
1014.33	18.0206
1017.71	13.8166
1021.08	10.7163
1024.45	7.43338
1027.83	5.05185
1031.2	3.77492
1034.58	1.47621
1037.95	1.95509
1041.33	1.24087
1044.7	3.0714
1048.08	1.7167
1051.45	2.24916
1054.83	1.19775
1058.2	1.67418
1061.58	3.20406
1064.95	4.20247
1068.33	3.25056
1071.7	3.63577
1075.08	2.38896
1078.45	1.62978
1081.83	1.5898
1085.2	2.89575
1088.58	1.58598
1091.95	0.404907
1095.33	1.25462
1098.7	0.827255
1102.08	1.2728
1105.45	1.7457
1108.83	1.29582
1112.2	1.19516
1115.58	0.262115
1118.95	0.380859
1122.33	1.39452
1125.7	0.218948
1129.07	1.42571
1132.45	0.462692
1135.82	1.05327
1139.2	2.15749
1142.57	2.06221
1145.95	2.74289
1149.32	2.62085
1152.7	2.69165
1156.07	2.92497
1159.45	0.719513
1162.82	3.62145
1166.2	4.30989
1169.57	2.82443
1172.95	2.85713
1176.32	2.46008
1179.7	1.02609
1183.07	2.81129
1186.45	1.43805
1189.82	4.38307
1193.2	2.47458
1196.57	2.29863
1199.94	1.49957
1203.32	1.51555
1206.69	1.28116
1210.07	1.52319
1213.44	2.68077
1216.82	1.94577
1220.19	1.49594
1223.57	1.30931
1226.94	1.15477
1230.32	1.1949
1233.69	0.609924
1237.07	0.748917
1240.44	1.36159
1243.82	0.733932
1247.19	1.73274
1250.57	0.486923
1253.94	2.17409
1257.32	1.01781
1260.69	1.284
1264.07	0.451584
1267.44	0.184891
1270.82	0.514008
1274.19	0.350525
1277.57	1.49342
1280.94	0.458008
1284.32	0.264404
