Measurement: Raman, 780 nm, unoriented, Raman Data Processed
Mineral: Crocoite
Rruff sample: R160016
Ideal chemistry: Pb^2+^Cr^6+^O_4_
Locality: Beresovsk, Ural Mountains, Russia
Source: Marcus Origlieri
Description: Red prismatic crystals associated with embreyite (R160015)
Raman shift (cm-1)	intensity
87.582	0
90.9569	2085.57
94.3317	4817.91
97.7065	3684.9
101.081	2986.07
104.456	2948.36
107.831	3554.24
111.206	4680.7
114.581	5681.63
117.955	7435.25
121.33	10327.3
124.705	15819.4
128.08	24728.2
131.455	34860.7
134.829	35338.6
138.204	24292.6
141.579	14446
144.954	8870.95
148.329	5680.7
151.704	3391.43
155.078	1942.45
158.453	827.96
161.828	243.159
165.203	48.4639
168.578	136.289
171.952	78.3276
175.327	101.311
178.702	149.91
182.077	96.9419
185.452	156.45
188.827	131.776
192.201	189.966
195.576	155.861
198.951	43.7363
202.326	32.1709
205.701	16.2988
209.076	23.0146
212.45	60.397
215.825	160.74
219.2	150.5
222.575	215.912
225.95	373.291
229.324	351.343
232.699	350.755
236.074	243.96
239.449	312.84
242.824	305.39
246.198	383.398
249.573	243.706
252.948	262.758
256.323	101.117
259.698	115.466
263.073	145.802
266.447	103.611
269.822	28.4404
273.197	56.7573
276.572	99.0088
279.947	146.443
283.322	93.4648
286.696	144.495
290.071	64.4292
293.446	16.5112
296.821	26.2021
300.196	76.7861
303.57	396.623
306.945	812.123
310.32	1329.27
313.695	2281.41
317.07	3542.51
320.445	5742.75
323.819	8906.43
327.194	11637.2
330.569	15688.7
333.944	27134.5
337.319	39318.2
340.693	28695.6
344.068	34008.3
347.443	54724.2
350.818	93189.6
354.193	179115
357.567	268080
360.942	183152
364.317	81936.1
367.692	41848.7
371.067	32111
374.442	47899.7
377.816	49417.4
381.191	20632.3
384.566	9153.61
387.941	6740.94
391.316	7441.68
394.69	11968.2
398.065	23895.4
401.44	23708
404.815	6733.59
408.19	2280.52
411.565	883.457
414.939	362.125
418.314	239.713
421.689	46.5742
425.064	162.899
428.439	174.882
431.813	173.672
435.188	20.2642
438.563	107.533
441.938	219.843
445.313	150.962
448.688	125.992
452.062	22.9307
455.437	10.8315
458.812	35.2793
462.187	63.5898
465.562	74.9849
468.937	338.257
472.311	389.23
475.686	420.013
479.061	552.443
482.436	539.487
485.81	491.089
489.185	445.048
492.56	271.144
495.935	198.641
499.31	252.377
502.685	248.956
506.059	135.668
509.434	267.374
512.809	133.964
516.184	155.335
519.559	255.529
522.933	71.4392
526.308	53.7229
529.683	55.3154
533.058	48.3364
536.433	96.0527
539.808	43.2395
543.182	79.7249
546.557	12.8005
549.932	94.5759
553.307	135.154
556.682	72.2722
560.057	0.438477
563.431	5.75098
566.806	35.5544
570.181	81.5442
573.556	66.5154
576.931	70.7468
580.305	137.398
583.68	37.1069
587.055	84.2224
590.43	109.534
593.805	132.19
597.18	119.956
600.554	147.012
603.929	109.796
607.304	112.713
610.679	102.636
614.054	230.889
617.428	72.4617
620.803	155.202
624.178	189.435
627.553	248.673
630.928	281.5
634.303	262.089
637.677	412.046
641.052	366.321
644.427	384.812
647.802	304.831
651.177	388.724
654.552	334.611
657.926	479.265
661.301	471.653
664.676	411.897
668.051	515.645
671.426	461.188
674.8	409.642
678.175	596.062
681.55	683.824
684.925	692.994
688.3	826.783
691.674	935.699
695.049	1046.14
698.424	1203.36
701.799	1216.55
705.174	1213.88
708.548	1020.23
711.923	973.616
715.298	857.565
718.673	717.802
722.048	565.705
725.423	541.988
728.797	360.803
732.172	317.776
735.547	3.19995
738.922	90.5991
742.297	97.1177
745.672	193.545
749.046	124.62
752.421	143.544
755.796	162.209
759.171	274.115
762.546	125.842
765.92	27.0884
769.295	79.1904
772.67	454.316
776.045	828.01
779.42	1438.38
782.795	2257.65
786.169	3499.65
789.544	4976.54
792.919	6874.12
796.294	8823.36
799.669	11011.1
803.043	13511.3
806.418	16195.8
809.793	19672.1
813.168	24815.7
816.543	33592.9
819.918	47037.4
823.292	64793.7
826.667	87193.4
830.042	119964
833.417	184436
836.792	287191
840.166	319050
843.541	220621
846.916	139475
850.291	98497.4
853.666	75929.8
857.04	55392.2
860.415	37289.1
863.79	25220.1
867.165	18073.2
870.54	13568.9
873.915	10063
877.289	7634.79
880.664	5842.94
884.039	4397.47
887.414	3286.2
890.789	2368.62
894.163	1547.33
897.538	1046.34
900.913	585.607
904.288	318.322
907.663	55.874
911.038	128.137
914.412	212.708
917.787	200.294
921.162	189.096
924.537	225.764
927.912	184.365
931.287	180.746
934.661	55.3586
938.036	104.151
941.411	203.106
944.786	214.574
948.161	272.009
951.535	387.114
954.91	507.753
958.285	587.759
961.66	660.975
965.035	818.588
968.409	913.192
971.784	842.586
975.159	843.182
978.534	918.063
981.909	955.804
985.284	761.519
988.658	683.684
992.033	632.989
995.408	508.168
998.783	626.587
1002.16	545.54
1005.53	487.357
1008.91	467.982
1012.28	472.785
1015.66	510.982
1019.03	407.376
1022.41	406.132
1025.78	280.998
1029.16	272.505
1032.53	228.412
1035.91	412.819
1039.28	317.309
1042.66	392.437
1046.03	266.598
1049.4	286.386
1052.78	152.472
1056.15	219.316
1059.53	202.027
1062.9	206.8
1066.28	204.024
1069.65	166.426
1073.03	128.609
1076.4	171.685
1079.78	125.722
1083.15	186.724
1086.53	7.97571
1089.9	53.1182
1093.28	56.0391
1096.65	146.601
1100.03	132.696
1103.4	126.615
1106.78	116.175
1110.15	10.0094
1113.53	155.228
1116.9	19.917
1120.28	23.7888
1123.65	36.3235
1127.03	27.9126
1130.4	75.3751
1133.78	37.6608
1137.15	61.1583
1140.53	45.6344
1143.9	20.7219
1147.28	20.2671
1150.65	16.5746
1154.03	37.2948
1157.4	40.9833
1160.77	144.746
1164.15	158.929
1167.52	36.7427
1170.9	121.04
1174.27	176.077
1177.65	162.416
1181.02	272.346
1184.4	206.697
1187.77	201.145
1191.15	269.682
1194.52	369.577
1197.9	322.335
1201.27	341.331
1204.65	288.469
1208.02	191.738
1211.4	297.018
1214.77	231.387
1218.15	210.54
1221.52	190.189
1224.9	147.947
1228.27	104.475
1231.64	21.5877
1235.02	51.3241
1238.39	168.546
1241.77	85.8181
1245.14	47.9926
1248.52	162.233
1251.89	3.18054
1255.27	89.8247
1258.64	132.056
1262.02	279.586
1265.39	219.244
1268.77	245.622
1272.14	131.526
1275.52	149.327
1278.89	92.614
1282.27	0
