Measurement: Raman, 532 nm, unoriented, Raman Data Processed
Mineral: Crocoite
Rruff sample: R160016
Ideal chemistry: Pb^2+^Cr^6+^O_4_
Locality: Beresovsk, Ural Mountains, Russia
Source: Marcus Origlieri
Description: Red prismatic crystals associated with embreyite (R160015)
Raman shift (cm-1)	intensity
88.1367	0
91.5115	318.247
94.8863	83.9766
98.2612	217.483
101.636	1476.54
105.011	4372.23
108.386	8544.58
111.76	13535.5
115.135	18516.4
118.51	23876.2
121.885	30596.4
125.26	39988.4
128.635	52537.6
132.009	65855.3
135.384	69323.3
138.759	59067.7
142.134	45929.1
145.509	35999.4
148.883	28790.8
152.258	22818.1
155.633	18089.3
159.008	14747.5
162.383	12859.8
165.757	11520.9
169.132	10591.6
172.507	10052.7
175.882	9697.2
179.257	8998.98
182.632	8283.16
186.006	7274.25
189.381	6069.84
192.756	5473.19
196.131	4663.8
199.506	4024.09
202.881	3403.72
206.255	2782.99
209.63	2607.89
213.005	2377.58
216.38	1777.36
219.755	1411.29
223.129	847.965
226.504	763.367
229.879	563.434
233.254	406.981
236.629	56.9727
240.004	8.91797
243.378	63.3203
246.753	158.934
250.128	25.4531
253.503	166.824
256.878	167.133
260.252	22.2305
263.627	132.551
267.002	262.074
270.377	343.773
273.752	203.894
277.127	44.293
280.501	12.0938
283.876	38.9766
287.251	178.129
290.626	94.1602
294.001	70.4844
297.375	238.805
300.75	223.016
304.125	568.129
307.5	724.93
310.875	1052.5
314.25	1426.39
317.624	2027.3
320.999	2971.25
324.374	4597.73
327.749	6184.84
331.124	8659.2
334.498	13451.6
337.873	18432.5
341.248	14913.3
344.623	16372
347.998	23990.9
351.373	36076.3
354.747	57008.6
358.122	74403.3
361.497	57783.5
364.872	33745.3
368.247	25060.6
371.621	29468
374.996	41320.1
378.371	34151.6
381.746	12571.3
385.121	6836.23
388.495	6027.43
391.87	6854.66
395.245	10685.1
398.62	15456.7
401.995	12935.4
405.37	3788.05
408.744	1652.02
412.119	927.121
415.494	644.215
418.869	294.805
422.244	80.1602
425.618	71.5508
428.993	194.484
432.368	10.7422
435.743	410.543
439.118	515.66
442.493	605.93
445.867	724.152
449.242	421.227
452.617	434.277
455.992	225.293
459.367	352.93
462.741	281.914
466.116	454.277
469.491	573.203
472.866	590.856
476.241	458.445
479.615	670.676
482.99	362.336
486.365	203.019
489.74	115.488
493.115	116.465
496.49	24.6172
499.864	34.7734
503.239	64.9453
506.614	22.4648
509.989	46.5156
513.364	106.898
516.739	54.2734
520.113	8.8125
523.488	225.828
526.863	181.988
530.238	403.5
533.613	319.922
536.987	607.43
540.362	373.555
543.737	505.859
547.112	269.918
550.487	563.023
553.861	395.023
557.236	471.301
560.611	357.57
563.986	366.305
567.361	399.82
570.736	481.922
574.11	494.18
577.485	161.684
580.86	326.934
584.235	412.199
587.61	352.625
590.985	114.129
594.359	286.277
597.734	443.199
601.109	186.168
604.484	139.938
607.859	340.043
611.233	666.426
614.608	775.215
617.983	823.348
621.358	629.269
624.733	737
628.107	927.606
631.482	1017.03
634.857	1123.88
638.232	1303.54
641.607	1273.98
644.982	1168.77
648.356	1037.84
651.731	1258.27
655.106	1098.99
658.481	1076.97
661.856	1095.31
665.231	968.731
668.605	1263.92
671.98	1572.08
675.355	1466.08
678.73	1714.35
682.105	2230.88
685.479	2827.26
688.854	3173.24
692.229	3389.19
695.604	3633.84
698.979	3673.97
702.354	3574.61
705.728	3442.68
709.103	3274.57
712.478	2602.79
715.853	2029.51
719.227	1579.13
722.602	1038.39
725.977	626.918
729.352	412.106
732.727	26.1133
736.102	7.41406
739.476	598.445
742.851	569.344
746.226	703.398
749.601	470.043
752.976	292.394
756.351	238.031
759.725	131.352
763.1	10.6445
766.475	124.539
769.85	71.2148
773.225	437.859
776.599	1095.19
779.974	2004.09
783.349	3581.63
786.724	5458.16
790.099	8283.72
793.473	12287
796.848	16194
800.223	20663.3
803.598	25547.7
806.973	31661.3
810.348	40512.8
813.722	54695
817.097	75736.6
820.472	109793
823.847	160713
827.222	216248
830.597	301316
833.971	431559
837.346	571211
840.721	553147
844.096	388752
847.471	270710
850.846	206905
854.22	154908
857.595	107221
860.97	69170.4
864.345	45284.2
867.72	30246
871.094	20293.1
874.469	13102.5
877.844	8886.7
881.219	6452.19
884.594	4824.62
887.968	3982.42
891.343	3312.63
894.718	2930.84
898.093	3275.8
901.468	3529.69
904.842	3494.37
908.217	2966.32
911.592	2418.16
914.967	1823.9
918.342	1062.71
921.717	469.527
925.091	26.0273
928.466	404.648
931.841	684.559
935.216	803.18
938.591	669.269
941.966	623.527
945.34	382.801
948.715	172.805
952.09	54.2422
955.465	353.644
958.84	748.703
962.214	1391.58
965.589	2062.06
968.964	2684.82
972.339	3343.12
975.714	4035.83
979.088	3984.57
982.463	4226.95
985.838	4022.87
989.213	3795.57
992.588	3374.58
995.963	2929.82
999.337	2740.44
1002.71	2501.3
1006.09	2039.07
1009.46	1765.22
1012.84	1516.06
1016.21	1070.98
1019.59	1202.75
1022.96	1224.39
1026.34	1474.18
1029.71	1306.86
1033.09	1497.38
1036.46	1408.89
1039.84	1288.89
1043.21	1365.31
1046.59	1429.54
1049.96	1416.92
1053.33	1445.68
1056.71	1458.88
1060.08	1519.27
1063.46	1396.4
1066.83	1315.71
1070.21	1487.69
1073.58	1532.39
1076.96	1420.02
1080.33	1357.36
1083.71	1526.38
1087.08	1545.5
1090.46	1430.93
1093.83	1261
1097.21	1495.6
1100.58	1493.23
1103.96	1559.9
1107.33	1155.01
1110.71	750.148
1114.08	657.106
1117.46	793.301
1120.83	552.996
1124.21	386.723
1127.58	313.176
1130.95	70.9805
1134.33	28.7305
1137.7	98.8906
1141.08	166.891
1144.45	37.4102
1147.83	13.3164
1151.2	27.9922
1154.58	135.402
1157.95	54.7773
1161.33	201.371
1164.7	108.012
1168.08	129.551
1171.45	551.484
1174.83	891.84
1178.2	782.441
1181.58	633.141
1184.95	1071.14
1188.33	1364.07
1191.7	1599.49
1195.08	2023.69
1198.45	1922.77
1201.83	2029.58
1205.2	1912.34
1208.58	1882.45
1211.95	2126.07
1215.33	1829.92
1218.7	1798.36
1222.08	1309.85
1225.45	1227.01
1228.83	938.793
1232.2	947.207
1235.58	772.121
1238.95	788.578
1242.32	911.496
1245.7	942.844
1249.07	981.332
1252.45	853.457
1255.82	1156.4
1259.2	892.281
1262.57	745.059
1265.95	602.867
1269.32	363.449
1272.7	393.938
1276.07	419.027
1279.45	613.914
1282.82	530.098
1286.2	317.269
1289.57	115.434
1292.95	41.2344
1296.32	382.488
1299.7	57.5625
