Measurement: Raman, 532 nm, unoriented, Raman Data Processed
Mineral: Davyne
Rruff sample: R140771
Ideal chemistry: (Na,K)_6_Ca_2_(Si_6_Al_6_)O_24_Cl_3_(S^6+^O_4_)_0.5_
Locality: Monte Somma, Somma-Vesuvius Complex, Naples Province, Campania, Italy
Source: Ch. and H. Sch√§fer
Description: Colorless, associated with calcite
Raman shift (cm-1)	intensity
113.407	0
116.782	6.12103
120.157	7.99585
123.531	12.4779
126.906	23.1065
130.281	21.7736
133.656	29.6713
137.031	30.4406
140.405	40.4361
143.78	48.4793
147.155	49.5415
150.53	54.4733
153.905	61.621
157.28	67.5085
160.654	64.0587
164.029	67.4771
167.404	74.9019
170.779	77.9692
174.154	79.2436
177.528	79.5521
180.903	78.1629
184.278	80.9917
187.653	82.8713
191.028	81.4661
194.403	76.1375
197.777	71.2482
201.152	64.8061
204.527	55.8735
207.902	46.5465
211.277	37.2421
214.651	30.1996
218.026	26.7366
221.401	18.4583
224.776	11.5346
228.151	8.2774
231.525	0.886536
234.9	1.49353
238.275	1.48541
241.65	0.928467
245.025	3.40063
248.4	0.868469
251.774	3.77637
255.149	0.44104
258.524	2.3122
261.899	5.64941
265.274	8.82635
268.649	14.8179
272.023	23.7383
275.398	35.7385
278.773	48.1005
282.148	62.4876
285.523	72.6159
288.897	79.9939
292.272	60.3633
295.647	35.0579
299.022	21.2226
302.397	13.874
305.772	8.70221
309.146	7.54504
312.521	3.72858
315.896	3.34558
319.271	0.72229
322.646	1.51593
326.02	5.26434
329.395	2.69305
332.77	1.47058
336.145	2.39966
339.52	2.42328
342.894	2.45074
346.269	0.545227
349.644	1.31897
353.019	0.928528
356.394	0.888489
359.769	1.11737
363.143	2.80347
366.518	1.02643
369.893	1.36041
373.268	2.00879
376.643	3.50891
380.017	8.8783
383.392	17.5556
386.767	24.5972
390.142	21.4208
393.517	7.97443
396.892	2.87415
400.266	3.42786
403.641	3.11371
407.016	11.907
410.391	16.2779
413.766	25.353
417.14	50.8997
420.515	71.6732
423.89	83.1975
427.265	82.9968
430.64	79.6254
434.014	85.3442
437.389	100.626
440.764	119.379
444.139	139.39
447.514	185.479
450.889	249.712
454.263	295.656
457.638	277.106
461.013	243.583
464.388	196.649
467.763	143.635
471.137	107.607
474.512	78.467
477.887	63.6646
481.262	52.4532
484.637	45.2835
488.012	38.7214
491.386	26.8084
494.761	16.0848
498.136	10.277
501.511	4.62854
504.886	1.19141
508.26	5.1012
511.635	3.99341
515.01	2.99426
518.385	0.918579
521.76	2.11145
525.135	0.649292
528.509	0.636963
531.884	0.028931
535.259	1.66894
538.634	0.941406
542.009	1.42664
545.384	0.654663
548.758	0.149536
552.133	4.15576
555.508	2.58228
558.883	0.672485
562.258	5.50415
565.632	3.55896
569.007	2.03772
572.382	1.99536
575.757	4.0918
579.132	3.89893
582.506	2.43628
585.881	8.79651
589.256	6.43628
592.631	0.508179
596.006	2.67053
599.381	7.08118
602.755	10.9938
606.13	19.6998
609.505	33.9434
612.88	51.7458
616.255	73.5468
619.63	80.8098
623.004	87.6916
626.379	79.5256
629.754	68.8511
633.129	38.8621
636.504	16.7061
639.878	12.8126
643.253	5.70911
646.628	12.654
650.003	16.9951
653.378	23.7754
656.752	29.1852
660.127	33.8926
663.502	35.2179
666.877	24.7932
670.252	23.0244
673.626	20.6982
677.001	14.2887
680.376	15.387
683.751	11.0112
687.126	5.65845
690.501	4.19641
693.875	1.33972
697.25	0.375366
700.625	2.48938
704	2.53491
707.375	2.63379
710.75	2.39746
714.124	7.53052
717.499	2.26562
720.874	3.59302
724.249	4.25049
727.624	3.04834
730.998	2.49536
734.373	3.14331
737.748	4.96606
741.123	4.40784
744.498	7.8894
747.872	12.5225
751.247	12.8846
754.622	12.9015
757.997	16.4967
761.372	27.856
764.747	42.8616
768.121	60.8571
771.496	81.3713
774.871	76.9158
778.246	42.4409
781.621	22.156
784.995	14.4574
788.37	4.77844
791.745	4.8147
795.12	1.07873
798.495	0.547729
801.87	0.7948
805.244	1.44019
808.619	4.85254
811.994	4.88
815.369	2.28967
818.744	4.7041
822.119	7.71814
825.493	2.13464
828.868	1.21521
832.243	0.803467
835.618	1.53308
838.993	2.18396
842.367	3.1217
845.742	9.05774
849.117	2.62415
852.492	6.46265
855.867	5.25378
859.241	11.2474
862.616	8.75513
865.991	6.71326
869.366	6.45117
872.741	10.2587
876.115	7.38831
879.49	3.1366
882.865	5.05249
886.24	2.80261
889.615	5.68298
892.99	6.7904
896.364	10.1155
899.739	7.04456
903.114	7.14429
906.489	3.26086
909.864	4.43091
913.239	0.189697
916.613	1.57166
919.988	2.28784
923.363	2.55286
926.738	2.57397
930.113	0.091675
933.487	0.933838
936.862	1.47253
940.237	0.10022
943.612	2.08069
946.987	5.69604
950.361	6.42859
953.736	7.97498
957.111	9.63977
960.486	16.0271
963.861	27.3989
967.236	45.0874
970.61	68.2347
973.985	109.742
977.36	172.989
980.735	304.006
984.11	497.772
987.485	765.882
990.859	829.633
994.234	403.154
997.609	137.921
1000.98	64.3294
1004.36	39.7
1007.73	34.4268
1011.11	36.4374
1014.48	46.4261
1017.86	58.6317
1021.23	67.1714
1024.61	68.7522
1027.98	67.9863
1031.36	53.7295
1034.73	36.8693
1038.11	25.8296
1041.48	23.6571
1044.86	24.9858
1048.23	26.0781
1051.61	29.4653
1054.98	36.7657
1058.36	29.6874
1061.73	22.2494
1065.11	15.3923
1068.48	5.24231
1071.86	0.192139
1075.23	4.21655
1078.6	0.995972
1081.98	4.06531
1085.35	32.0504
1088.73	68.4045
1092.1	14.4668
1095.48	0.615356
1098.85	3.10754
1102.23	16.192
1105.6	13.6023
1108.98	17.4496
1112.35	19.9147
1115.73	16.4973
1119.1	19.2439
1122.48	18.4873
1125.85	15.5308
1129.23	13.3761
1132.6	16.576
1135.98	22.3639
1139.35	23.1303
1142.73	24.0049
1146.1	22.9269
1149.48	22.2257
1152.85	25.0541
1156.22	21.5098
1159.6	12.0905
1162.97	2.88208
1166.35	2.26147
1169.72	2.17371
1173.1	3.85046
1176.47	0.144897
1179.85	0.805054
1183.22	0.257324
1186.6	1.9812
1189.97	4.84717
1193.35	3.823
1196.72	5.61023
1200.1	2.59998
1203.47	0.461304
1206.85	5
1210.22	4.9679
1213.6	2.36438
1216.97	3.81458
1220.35	3.87866
1223.72	6.18921
1227.1	2.73181
1230.47	1.79883
1233.85	1.88904
1237.22	2.78284
1240.6	5.27136
1243.97	3.29346
1247.35	6.21826
1250.72	9.37036
1254.1	3.61475
1257.47	9.02856
1260.85	8.03918
1264.22	3.96448
1267.59	1.11365
1270.97	0.956787
1274.34	5.23377
1277.72	2.45178
1281.09	6.12964
1284.47	0.57373
1287.84	8.66553
1291.22	5.36987
1294.59	4.30689
1297.97	4.42407
1301.34	0.209351
