Measurement: Raman, 532 nm, unoriented, Raman Data Processed
Mineral: Empressite
Rruff sample: R200013
Ideal chemistry: AgTe
Locality: Empress Josephine mine , Bonanza, Bonanza Mining District, Saguache Co., Colorado, USA
Source: Joan Rosell, Jordi Ibáñez (Geo3BCN, Barcelona) and Tariq Jawhari (CCiTUB Barcelona)
Description: Bronze to gray metallic fragment
Raman shift (cm-1)	intensity
31.3189	1.03467
36.8819	0.994667
42.4395	0.741334
47.9938	0.701334
53.5469	1.41467
59.0947	1.76133
64.6391	2.088
70.1803	2.548
75.7203	2.748
81.2549	2.73467
86.7862	2.43467
92.3143	2.74133
97.8369	2.888
103.358	2.768
108.877	2.76133
114.392	2.51467
119.901	3.23467
125.41	2.84133
130.915	3.22133
136.415	3.27467
141.912	4.768
147.407	7.68133
152.897	17.528
158.384	9.64133
163.87	3.55467
169.351	2.13467
174.828	1.89467
180.302	1.76133
185.773	1.63467
191.241	1.168
196.703	1.60133
202.164	1.148
207.622	1.25467
213.077	0.894667
218.526	1.208
223.975	1.208
229.418	0.934667
234.86	1.05467
240.297	1.11467
245.73	1.228
251.16	1.03467
256.59	0.881334
262.014	1.09467
267.435	0.928
272.852	0.761334
278.267	1.02133
283.678	1.11467
289.084	1.37467
294.489	0.748001
299.891	1.23467
305.288	1.53467
310.683	1.27467
316.076	1.088
321.463	1.04133
326.847	0.941334
332.23	0.841334
337.608	0.888
342.982	0.821334
348.354	1.00133
353.722	0.908
359.087	0.794667
364.449	1.04133
369.808	0.861334
375.164	0.714667
380.517	0.854667
385.867	0.834667
391.211	0.948001
396.555	0.981334
401.893	0.994667
407.23	0.921333
412.562	0.794667
417.893	1.04133
423.219	1.13467
428.542	0.808
433.862	0.841334
439.179	1.048
444.492	1.008
449.803	1.128
455.11	0.954667
460.415	0.788
465.716	0.894667
471.014	0.941334
476.307	0.674667
481.599	1.26133
486.887	0.921334
492.173	1.04133
497.453	1.00133
502.731	0.821334
508.008	1.028
513.28	0.908
518.549	0.981334
523.815	0.848
529.077	1.14133
534.337	0.774667
539.593	1.188
544.847	0.961334
550.098	0.948
555.343	0.741334
560.588	0.968
565.829	0.808
571.066	0.881334
576.299	0.981334
581.532	1.04133
586.759	0.668
591.984	0.834667
597.207	0.941334
602.426	0.934667
607.641	0.974667
612.854	0.914667
618.063	1.068
623.27	0.748001
628.471	0.721334
633.672	0.948
638.869	1.05467
644.062	0.781334
649.254	1.008
654.44	0.981334
659.626	0.888
664.807	1.048
669.985	0.734667
675.161	0.828
680.333	1.028
685.502	0.974667
690.668	0.968
695.831	1.148
700.991	1.128
706.146	1.07467
711.301	0.794667
716.452	0.841334
721.598	1.05467
726.744	0.901334
731.884	1.008
737.024	0.841334
742.158	1.09467
747.29	0.774667
752.421	0.728
757.547	0.841334
762.67	0.768
767.79	0.881334
772.907	0.868
778.021	0.588
783.131	0.954667
788.239	0.988
793.345	0.741334
798.445	1.00133
803.545	0.934667
808.64	1.028
813.734	1.05467
818.823	0.648
823.91	0.774667
828.995	0.821334
834.075	0.921334
839.153	1.168
844.228	0.961334
849.3	0.934667
854.367	0.901333
859.433	1.07467
864.496	1.14133
869.557	1.01467
874.612	0.928
879.667	0.968
884.717	0.901334
889.764	0.841334
894.81	1.05467
899.852	1.07467
904.89	0.921334
909.926	1.008
914.959	0.768
919.989	0.848
925.016	0.941334
930.041	0.974667
935.062	0.894667
940.079	0.728
945.095	0.974667
950.106	1.068
955.117	0.941334
960.122	0.834667
965.127	0.954667
970.127	1.088
975.124	1.208
980.118	1.188
985.11	0.794667
990.099	1.08133
995.085	0.948001
1000.07	1.048
1005.05	0.874667
1010.02	0.741334
1015	0.894667
1019.97	0.874667
1024.94	0.981334
1029.9	0.841334
1034.87	1.13467
1039.83	0.794667
1044.78	0.941334
1049.74	0.968001
1054.69	0.968
1059.63	0.928
1064.58	0.901333
1069.52	0.868
1074.46	0.774667
1079.4	0.841334
1084.33	1.02133
1089.26	1.04133
1094.19	1.13467
1099.11	1.08133
1104.04	0.854667
1108.95	0.634667
1113.87	0.974667
1118.79	0.628
1123.7	1.22133
1128.6	0.861334
1133.51	1.188
1138.41	1.128
1143.31	1.16133
1148.2	0.988001
1153.1	0.921334
1157.99	1.13467
1162.87	1.04133
1167.76	1.03467
1172.64	0.901334
1177.52	0.894667
1182.4	0.861333
1187.27	1.24133
1192.14	0.968
1197.01	0.894667
1201.87	1.00133
1206.74	1.00133
1211.6	1.108
1216.45	1.228
1221.3	1.31467
1226.16	1.01467
1231	1.30133
1235.85	0.908
1240.69	0.981334
1245.53	1.02133
1250.37	1.108
1255.2	1.24133
1260.03	1.01467
1264.86	1.068
1269.69	1.25467
1274.51	1.16133
1279.33	1.17467
1284.15	0.968
1288.96	1.19467
1293.77	1.23467
1298.58	1.20133
1303.39	1.05467
1308.19	1.19467
1312.99	1.24133
1317.79	1.06133
1322.58	1.22133
1327.37	1.01467
1332.16	0.854667
1336.95	1.088
1341.73	0.841334
1346.52	1.048
1351.29	0.968
1356.07	1.128
1360.84	1.228
1365.61	1.21467
1370.38	1.17467
1375.14	1.27467
1379.9	0.934667
1384.66	1.24133
1389.42	1.00133
1394.17	1.008
1398.93	1.18133
1403.67	1.21467
1408.42	0.954667
1413.16	1.168
1417.9	0.961334
1422.64	0.821334
1427.37	0.941334
1432.1	1.16133
1436.83	1.05467
1441.56	1.008
1446.28	0.921334
1451	1.10133
1455.72	1.13467
1460.44	1.07467
1465.15	0.981334
1469.86	0.861333
1474.57	1.18133
1479.27	1.008
1483.97	0.821334
1488.67	1.18133
1493.37	1.01467
1498.06	0.894667
1502.76	0.801334
1507.44	0.681334
1512.13	0.901333
1516.81	0.948
1521.49	0.874667
1526.17	0.841334
1530.84	0.788
1535.52	0.854667
1540.19	0.914667
1544.85	0.808
1549.52	0.781334
1554.18	1.10133
1558.84	1.068
1563.5	0.934667
1568.15	0.941334
1572.8	1.088
1577.45	0.914667
1582.09	0.894667
1586.74	0.988
1591.38	0.941334
1596.02	0.941334
1600.65	1.028
1605.28	1.05467
1609.91	1.19467
1614.54	1.008
1619.17	1.068
1623.79	1.11467
1628.41	0.881333
1633.02	1.028
1637.64	1.148
1642.25	0.941334
1646.86	0.994667
1651.47	0.988
1656.07	0.848
1660.67	0.961334
1665.27	1.04133
1669.86	0.988001
1674.46	1.228
1679.05	1.22133
1683.63	0.988001
1688.22	1.028
1692.8	1.21467
1697.38	1.128
1701.96	0.848
1706.54	1.01467
1711.11	1.18133
1715.68	1.00133
1720.25	0.988001
1724.81	1.05467
1729.37	1.208
1733.93	0.988
1738.49	1.088
1743.04	1.02133
1747.59	1.01467
