Measurement: Raman, 532 nm, unoriented, Raman Data Processed
Mineral: Ferrinatrite
Rruff sample: R170042
Ideal chemistry: Na_3_Fe^3+^(S^6+^O_4_)_3_3H_2_O
Locality: Alcaparrosa, Antofogasta, Chile
Source: James Shigley
Description: Colorless acicular crystals, associated with colorless tabular rhomboclase (R070507) and pale yellow-brown r√∂merite
Raman shift (cm-1)	intensity
93.9221	0
97.2969	17.3611
100.672	2.63712
104.047	8.65707
107.421	57.8283
110.796	98.1938
114.171	121.839
117.546	234.181
120.921	361.668
124.296	413.902
127.67	535.408
131.045	801.401
134.42	1149.24
137.795	1280.61
141.17	968.423
144.544	599.301
147.919	425.052
151.294	384.228
154.669	394.35
158.044	406.341
161.418	366.173
164.793	276.543
168.168	221.81
171.543	130.197
174.918	43.3093
178.292	19.1196
181.667	23.0977
185.042	5.83557
188.417	76.1137
191.792	173.321
195.167	297.332
198.541	354.433
201.916	307.312
205.291	300.44
208.666	337.3
212.041	438.114
215.416	567.352
218.79	656.52
222.165	636.611
225.54	498.724
228.915	423.875
232.29	436.767
235.664	531.967
239.039	658.169
242.414	797.838
245.789	903.335
249.164	956.587
252.538	952.981
255.913	851.81
259.288	766.872
262.663	737.278
266.038	707.212
269.413	607.926
272.787	450.047
276.162	276.788
279.537	162.933
282.912	79.1049
286.287	36.3722
289.661	11.8572
293.036	1.99301
296.411	10.8876
299.786	8.91946
303.161	6.84769
306.536	5.93732
309.91	1.27002
313.285	2.6395
316.66	5.29096
320.035	9.50281
323.41	17.1157
326.784	23.1639
330.159	30.6228
333.534	36.5755
336.909	45.6037
340.284	52.005
343.659	60.7829
347.033	64.8748
350.408	69.3523
353.783	67.3942
357.158	58.9286
360.533	46.6481
363.908	43.7554
367.282	30.5538
370.657	24.7383
374.032	19.9248
377.407	15.4583
380.782	7.96484
384.156	0.082153
387.531	4.23492
390.906	6.49304
394.281	5.22308
397.656	3.31424
401.031	1.29489
404.405	3.80655
407.78	7.75238
411.155	12.3209
414.53	15.829
417.905	16.9206
421.279	17.8653
424.654	29.8336
428.029	45.1679
431.404	69.4514
434.779	109.075
438.154	137.51
441.528	98.221
444.903	84.1857
448.278	84.2064
451.653	93.0683
455.028	99.4704
458.402	103.531
461.777	104.599
465.152	87.6766
468.527	82.1625
471.902	109.156
475.276	163.045
478.651	220.894
482.026	263.743
485.401	308.292
488.776	374.632
492.151	432.884
495.525	411.37
498.9	344.901
502.275	269.497
505.65	219.092
509.025	180.74
512.399	128.397
515.774	88.1294
519.149	65.8861
522.524	50.5958
525.899	44.5164
529.274	37.6134
532.648	29.8468
536.023	29.4155
539.398	25.9382
542.773	12.3868
546.148	9.18405
549.522	0.129883
552.897	6.01672
556.272	5.3428
559.647	6.70789
563.022	0.342896
566.396	4.85965
569.771	4.99313
573.146	9.25668
576.521	14.3209
579.896	26.2062
583.271	38.0743
586.645	65.398
590.02	97.9292
593.395	148.846
596.77	223.927
600.145	316.942
603.519	430.972
606.894	525.131
610.269	599.545
613.644	630.293
617.019	588.584
620.394	451.86
623.768	288.975
627.143	168.754
630.518	104.915
633.893	58.1585
637.268	36.2833
640.643	18.4901
644.017	11.234
647.392	4.96219
650.767	2.5484
654.142	1.55689
657.517	4.29776
660.891	11.4348
664.266	19.1327
667.641	25.0789
671.016	18.8751
674.391	10.9309
677.765	1.23984
681.14	0.926636
684.515	1.02283
687.89	1.36639
691.265	2.4729
694.64	1.49731
698.014	0.705658
701.389	2.58456
704.764	1.19711
708.139	5.43133
711.514	5.62659
714.889	7.81247
718.263	3.8327
721.638	2.69406
725.013	5.80734
728.388	6.47128
731.763	11.8947
735.137	10.3766
738.512	12.1635
741.887	14.1976
745.262	12.1677
748.637	9.17166
752.011	12.0116
755.386	14.5618
758.761	10.6476
762.136	13.1557
765.511	9.87738
768.886	10.8189
772.26	9.05786
775.635	10.6773
779.01	11.2342
782.385	8.26181
785.76	11.0329
789.135	13.4705
792.509	9.65668
795.884	12.4441
799.259	13.109
802.634	11.7068
806.009	11.2439
809.383	10.9219
812.758	8.74384
816.133	9.94089
819.508	10.6064
822.883	11.9176
826.257	9.2002
829.632	10.5356
833.007	8.28818
836.382	11.2858
839.757	12.402
843.131	12.1563
846.506	7.51096
849.881	8.04181
853.256	8.10138
856.631	9.17206
860.006	3.46472
863.38	3.09186
866.755	2.32285
870.13	3.96252
873.505	2.60678
876.88	1.31174
880.255	1.41003
883.629	1.16425
887.004	1.82672
890.379	0.451355
893.754	7.599
897.129	6.35004
900.503	4.76843
903.878	1.80408
907.253	3.56335
910.628	1.00342
914.003	1.13324
917.378	11.9377
920.752	19.7797
924.127	29.9638
927.502	45.525
930.877	69.016
934.252	104.29
937.626	146.507
941.001	221.889
944.376	330.654
947.751	528.963
951.126	852.053
954.5	1400.79
957.875	2205.53
961.25	3207.96
964.625	4053.99
968	4426.5
971.375	3429.02
974.749	1985.05
978.124	1208.07
981.499	901.912
984.874	904.089
988.249	1062.18
991.624	1463
994.998	2364.23
998.373	2901.13
1001.75	1987.8
1005.12	2017.43
1008.5	1569.38
1011.87	1195.59
1015.25	849.756
1018.62	334.905
1022	136.831
1025.37	75.0159
1028.75	45.1004
1032.12	25.6171
1035.5	12.1723
1038.87	4.9823
1042.25	4.81513
1045.62	0.488098
1048.99	2.8172
1052.37	2.1626
1055.74	1.85998
1059.12	0.223022
1062.49	3.22943
1065.87	4.77377
1069.24	2.72256
1072.62	0.727875
1075.99	1.6076
1079.37	4.48352
1082.74	2.17612
1086.12	1.44885
1089.49	1.17224
1092.87	1.34674
1096.24	3.42618
1099.62	9.14059
1102.99	19.2283
1106.37	35.7188
1109.74	69.6169
1113.12	108.411
1116.49	185.384
1119.87	257.67
1123.24	293.233
1126.62	281.642
1129.99	211.209
1133.37	127.889
1136.74	75.4894
1140.12	49.4267
1143.49	34.5475
1146.87	34.936
1150.24	15.1517
1153.62	1.99609
1156.99	1.10272
1160.36	0.046997
1163.74	5.56757
1167.11	8.59186
1170.49	20.5716
1173.86	36.2107
1177.24	49.1885
1180.61	68.5101
1183.99	104.295
1187.36	164.692
1190.74	259.943
1194.11	413.935
1197.49	636.984
1200.86	882.772
1204.24	990.684
1207.61	833.876
1210.99	612.353
1214.36	474.757
1217.74	411.424
1221.11	376.704
1224.49	320.022
1227.86	267.441
1231.23	267.751
1234.61	313.393
1237.98	336.261
1241.36	280.466
1244.73	216.165
1248.11	205.445
1251.48	231.106
1254.86	194.695
1258.23	102.219
1261.61	40.7307
1264.98	22.9801
1268.36	4.15491
1271.73	2.44336
1275.11	3.20117
1278.48	7.15662
1281.86	0.130249
1285.23	9.5824
1288.61	12.1722
1291.98	7.73929
1295.36	5.12543
1298.73	2.38287
1302.11	3.75159
