Measurement: Raman, 780 nm, unoriented, Raman Data Processed
Mineral: Ferrinatrite
Rruff sample: R170042
Ideal chemistry: Na_3_Fe^3+^(S^6+^O_4_)_3_3H_2_O
Locality: Alcaparrosa, Antofogasta, Chile
Source: James Shigley
Description: Colorless acicular crystals, associated with colorless tabular rhomboclase (R070507) and pale yellow-brown r√∂merite
Raman shift (cm-1)	intensity
95.2959	0
98.6707	1.5665
102.046	1.78982
105.42	4.66501
108.795	0.803986
112.17	4.59994
115.545	29.5099
118.92	53.721
122.294	57.9264
125.669	86.9491
129.044	138.089
132.419	201.793
135.794	221.611
139.168	168.265
142.543	92.3526
145.918	59.7251
149.293	60.3751
152.668	65.9372
156.043	76.5485
159.417	70.8993
162.792	54.8494
166.167	44.2403
169.542	26.4331
172.917	11.1932
176.292	3.23383
179.666	3.84103
183.041	1.31006
186.416	14.3941
189.791	26.0973
193.166	50.3638
196.541	60.7991
199.915	52.1632
203.29	52.4313
206.665	54.9435
210.04	79.7182
213.415	98.4672
216.789	116.554
220.164	119.015
223.539	102.505
226.914	93.2349
230.289	99.6307
233.663	120.878
237.038	147.069
240.413	168.385
243.788	190.656
247.163	207.191
250.537	203.743
253.912	182.024
257.287	166.008
260.662	158.145
264.037	152.112
267.412	136.876
270.786	101.06
274.161	62.5385
277.536	38.2948
280.911	21.8008
284.286	14.9683
287.661	9.67566
291.035	4.73229
294.41	5.14493
297.785	2.01598
301.16	2.80357
304.535	1.16274
307.909	3.93993
311.284	1.67732
314.659	0.095749
318.034	1.76778
321.409	2.80875
324.784	3.96031
328.158	4.44176
331.533	4.31784
334.908	7.73483
338.283	9.98627
341.658	7.62575
345.033	12.7908
348.407	10.7907
351.782	13.2116
355.157	11.9888
358.532	7.65987
361.907	3.58531
365.281	2.77447
368.656	2.01744
372.031	3.7305
375.406	2.49449
378.781	1.76865
382.156	0.824493
385.53	0.427673
388.905	0.35582
392.28	1.86641
395.655	2.16457
399.029	0.649673
402.404	3.14276
405.779	2.61612
409.154	8.33206
412.529	8.93666
415.904	15.9772
419.279	12.1157
422.653	9.59158
426.028	12.9709
429.403	19.6634
432.778	22.3322
436.153	25.8967
439.527	18.6463
442.902	14.956
446.277	18.9605
449.652	23.7337
453.027	27.3988
456.401	33.4131
459.776	36.544
463.151	28.7399
466.526	22.5998
469.901	30.2853
473.276	44.0241
476.65	60.1584
480.025	70.3109
483.4	72.4096
486.775	92.3744
490.15	103.239
493.524	98.4528
496.899	81.4794
500.274	67.7743
503.649	50.0721
507.024	40.0657
510.399	28.8505
513.773	23.7471
517.148	15.1467
520.523	14.3795
523.898	10.6884
527.273	5.77328
530.648	4.53813
534.022	7.93993
537.397	3.18138
540.772	3.59431
544.147	2.07535
547.521	0.535446
550.896	2.64223
554.271	0.279251
557.646	1.12392
561.021	0.098434
564.396	0.160919
567.77	1.088
571.145	1.86748
574.52	0.4366
577.895	4.26988
581.27	6.39641
584.644	11.7612
588.019	17.2104
591.394	26.0699
594.769	36.5953
598.144	52.3554
601.519	72.7693
604.894	82.7553
608.268	81.8343
611.643	77.1795
615.018	73.7636
618.393	58.8302
621.768	42.155
625.142	22.8669
628.517	17.0308
631.892	9.17602
635.267	3.08798
638.642	3.10573
642.016	2.42627
645.391	1.71832
648.766	3.09638
652.141	1.76018
655.516	3.70299
658.891	4.96153
662.265	8.44633
665.64	11.3372
669.015	5.94881
672.39	3.35773
675.765	2.22569
679.139	1.28909
682.514	2.2506
685.889	0.257843
689.264	2.20071
692.639	1.50619
696.014	4.00302
699.388	2.18788
702.763	1.60915
706.138	0.079208
709.513	0.838837
712.888	0.341339
716.263	2.21814
719.637	1.50221
723.012	3.25259
726.387	0.99968
729.762	2.33275
733.137	1.79538
736.511	1.85149
739.886	0.527161
743.261	0.761292
746.636	1.22601
750.011	0.229416
753.385	0.033127
756.76	0.60141
760.135	0.223282
763.51	2.31223
766.885	1.40671
770.26	0.601318
773.634	2.9529
777.009	1.66328
780.384	0.643616
783.759	1.40962
787.134	0.525665
790.509	2.48642
793.883	0.097885
797.258	2.17598
800.633	1.82147
804.008	2.62494
807.383	3.51897
810.757	4.84016
814.132	2.92384
817.507	0.046021
820.882	0.029282
824.257	2.49649
827.631	1.06442
831.006	1.8237
834.381	0.967484
837.756	2.02966
841.131	0.174286
844.506	1.42749
847.88	0.996658
851.255	2.92346
854.63	2.57573
858.005	4.11481
861.38	3.21967
864.755	2.4471
868.129	1.59512
871.504	2.10019
874.879	1.32451
878.254	3.07803
881.629	1.55176
885.003	0.564285
888.378	1.2567
891.753	0.073303
895.128	1.12639
898.503	1.27077
901.878	0.657837
905.252	2.08241
908.627	0.666885
912.002	1.4057
915.377	1.05312
918.752	0.465164
922.126	0.891495
925.501	2.94348
928.876	6.29266
932.251	5.61244
935.626	12.3248
939	17.7375
942.375	23.9139
945.75	39.9266
949.125	64.4039
952.5	100.578
955.875	155.201
959.249	226.756
962.624	298.831
965.999	344.326
969.374	284.66
972.749	163.17
976.124	99.4222
979.498	73.5099
982.873	73.9378
986.248	81.168
989.623	109.543
992.998	189.071
996.372	265.794
999.747	206.489
1003.12	232.725
1006.5	265.488
1009.87	332.742
1013.25	275.868
1016.62	90.3294
1020	34.1472
1023.37	17.5147
1026.75	10.2801
1030.12	7.27956
1033.49	5.05943
1036.87	4.08662
1040.24	3.0979
1043.62	1.586
1046.99	1.33939
1050.37	0.839264
1053.74	1.48165
1057.12	0.29084
1060.49	0.649933
1063.87	0.098549
1067.24	0.259995
1070.62	0.056725
1073.99	0.447716
1077.37	0.848152
1080.74	0.120674
1084.12	0.588943
1087.49	0.484703
1090.87	0.876007
1094.24	0.592308
1097.62	1.05428
1100.99	3.25582
1104.37	4.24459
1107.74	8.22273
1111.12	14.6071
1114.49	24.1809
1117.87	36.8633
1121.24	46.6461
1124.62	49.3547
1127.99	39.4271
1131.37	23.2799
1134.74	13.1884
1138.12	8.22818
1141.49	5.26975
1144.86	4.50826
1148.24	0.955147
1151.61	1.35959
1154.99	0.587692
1158.36	0.867867
1161.74	0.212524
1165.11	1.71555
1168.49	3.30515
1171.86	5.02309
1175.24	10.0668
1178.61	10.3148
1181.99	17.0182
1185.36	26.7192
1188.74	41.1461
1192.11	62.7861
1195.49	91.3204
1198.86	131.048
1202.24	146.439
1205.61	120.347
1208.99	87.5218
1212.36	63.2054
1215.74	52.7126
1219.11	46.8751
1222.48	44.2629
1225.86	39.1336
1229.23	43.0435
1232.61	50.7604
1235.98	53.893
1239.36	47.6459
1242.73	33.2192
1246.11	26.3788
1249.48	31.3404
1252.86	23.609
1256.23	11.3562
1259.61	4.24419
1262.98	1.2019
1266.36	0.716904
1269.73	2.1729
1273.11	0.084633
1276.48	0.596283
1279.86	0.032059
1283.23	1.86421
1286.61	0.734879
