Measurement: Raman, 780 nm, unoriented, Raman Data Processed
Mineral: Finnemanite
Rruff sample: R140335
Ideal chemistry: Pb^2+^_5_(As^3+^O_3_)_3_Cl
Locality: Långban, Filipstad, Värmland, Sweden
Source: Rock Currier
Description: Dark grey prismatic
Raman shift (cm-1)	intensity
93.9705	0
97.3453	38.7848
100.72	3.45544
104.095	56.0801
107.47	185.205
110.845	347.738
114.219	587.05
117.594	684.106
120.969	301.478
124.344	174.219
127.719	181.331
131.094	172.401
134.468	109.386
137.843	38.4554
141.218	6.7196
144.593	20.1614
147.968	4.76856
151.342	73.2165
154.717	187.189
158.092	322.324
161.467	477.753
164.842	653.066
168.216	827.941
171.591	972.291
174.966	1030.94
178.341	940.837
181.716	763.424
185.09	563.647
188.465	401.604
191.84	292.905
195.215	222.812
198.59	175.251
201.965	133.149
205.339	111.798
208.714	104.842
212.089	103.164
215.464	114.289
218.839	135.173
222.214	167.991
225.588	220.075
228.963	288.909
232.338	360.554
235.713	437.274
239.088	517.322
242.462	569.545
245.837	591.807
249.212	569.278
252.587	488.467
255.962	384.496
259.336	274.533
262.711	181.658
266.086	116.508
269.461	72.4125
272.836	41.639
276.211	27.1632
279.585	10.488
282.96	1.16687
286.335	7.42529
289.71	8.78162
293.085	7.65283
296.459	9.77234
299.834	4.9408
303.209	4.41602
306.584	2.35889
309.959	0.652832
313.334	12.1027
316.708	22.131
320.083	29.6111
323.458	47.454
326.833	52.7239
330.207	67.8117
333.582	88.0447
336.957	109.706
340.332	131.884
343.707	152.457
347.082	178.455
350.456	203.482
353.831	227.979
357.206	243.982
360.581	232.433
363.956	209.217
367.33	184.023
370.705	175.846
374.08	164.874
377.455	149.228
380.83	133.816
384.205	116.367
387.579	102.662
390.954	87.3112
394.329	81.714
397.704	71.0543
401.079	61.3984
404.453	54.2393
407.828	49.1392
411.203	43.4054
414.578	38.5776
417.953	30.4393
421.327	30.5902
424.702	28.7136
428.077	34.705
431.452	47.7961
434.827	70.3263
438.202	105.397
441.576	154.31
444.951	214.771
448.326	297.976
451.701	372.974
455.076	363.12
458.45	266.042
461.825	161.401
465.2	89.4078
468.575	48.5445
471.95	28.8016
475.325	15.3299
478.699	8.47955
482.074	6.8584
485.449	5.08746
488.824	2.98413
492.199	3.59674
495.573	4.90735
498.948	0.192017
502.323	1.55853
505.698	2.40466
509.073	2.95386
512.447	1.2038
515.822	0.258911
519.197	1.79431
522.572	0.596802
525.947	4.01849
529.322	1.4624
532.696	2.37323
536.071	0.811707
539.446	1.01715
542.821	2.25891
546.196	4.94586
549.57	8.56055
552.945	12.3163
556.32	19.077
559.695	26.1023
563.07	36.416
566.444	47.3086
569.819	61.613
573.194	75.5634
576.569	83.4526
579.944	78.0336
583.319	59.0658
586.693	39.2054
590.068	25.8445
593.443	14.9849
596.818	11.0156
600.193	5.33734
603.567	1.29755
606.942	3.35397
610.317	2.61774
613.692	5.03531
617.067	5.37793
620.442	9.83682
623.816	13.4928
627.191	17.3238
630.566	23.9222
633.941	32.4894
637.316	38.1723
640.69	41.0315
644.065	35.4674
647.44	27.3066
650.815	17.1856
654.19	14.188
657.564	10.9239
660.939	8.23859
664.314	4.62814
667.689	2.39331
671.064	4.09338
674.439	1.54379
677.813	1.78067
681.188	4.14426
684.563	2.70563
687.938	3.64883
691.313	7.64923
694.688	10.6008
698.062	15.5459
701.437	22.2502
704.812	32.01
708.187	46.9017
711.562	71.4483
714.936	103.859
718.311	146.423
721.686	206.139
725.061	275.508
728.436	349.584
731.81	397.749
735.185	381.42
738.56	294.409
741.935	190.805
745.31	110.212
748.684	64.6609
752.059	37.8336
755.434	21.5992
758.809	11.4391
762.184	4.88931
765.559	2.29846
768.933	2.48007
772.308	0.767761
775.683	0.642181
779.058	1.17429
782.433	0.956085
785.808	0.016296
789.182	0.15506
792.557	0.172485
795.932	2.04874
799.307	3.50543
802.682	6.36923
806.056	10.5881
809.431	13.2683
812.806	11.8294
816.181	10.5591
819.556	8.21399
822.93	9.05618
826.305	7.30864
829.68	6.98911
833.055	5.81612
836.43	7.45181
839.804	6.90416
843.179	11.4999
846.554	7.08458
849.929	8.6044
853.304	8.13043
856.679	6.12224
860.053	4.36887
863.428	3.32703
866.803	2.92062
870.178	2.71855
873.553	2.76544
876.927	0.972961
880.302	2.31178
883.677	3.16039
887.052	4.2986
890.427	6.78303
893.802	3.83684
897.176	1.77889
900.551	3.41548
903.926	1.39151
907.301	0.603455
910.676	1.79842
914.05	0.914932
917.425	0.420746
920.8	1.02298
924.175	1.98834
927.55	0.289154
930.924	0.171143
934.299	1.22275
937.674	1.40335
941.049	1.00034
944.424	0.784424
947.799	0.408585
951.173	0.376495
954.548	0.078461
957.923	0.850311
961.298	1.30183
964.673	1.13388
968.047	1.0637
971.422	1.17093
974.797	0.01593
978.172	0.12204
981.547	2.2657
984.922	1.10518
988.296	1.32915
991.671	0.917679
995.046	2.20226
998.421	1.53845
1001.8	3.53038
1005.17	2.59987
1008.54	2.28285
1011.92	2.29855
1015.29	1.35507
1018.67	1.46164
1022.04	1.54712
1025.42	1.41365
1028.79	1.3672
1032.17	1.36218
1035.54	1.66838
1038.92	1.31993
1042.29	1.0757
1045.67	0.195496
1049.04	0.019226
1052.42	0.027313
1055.79	0.024826
1059.17	1.15491
1062.54	0.452316
1065.92	0.18161
1069.29	0.430756
1072.67	0.193024
1076.04	0.335663
1079.42	0.269958
1082.79	0.747498
1086.17	1.49719
1089.54	1.58534
1092.92	1.56058
1096.29	0.612747
1099.66	1.68182
1103.04	2.76379
1106.41	1.77071
1109.79	3.07498
1113.16	2.30385
1116.54	2.99512
1119.91	4.09592
1123.29	4.21439
1126.66	3.9415
1130.04	5.80161
1133.41	6.75079
1136.79	6.96201
1140.16	9.57452
1143.54	9.4648
1146.91	9.44019
1150.29	10.7883
1153.66	12.0281
1157.04	11.118
1160.41	11.2942
1163.79	14.9699
1167.16	14.1508
1170.54	14.8142
1173.91	16.1203
1177.29	16.9924
1180.66	18.1087
1184.04	16.5058
1187.41	15.9102
1190.79	15.526
1194.16	15.8437
1197.54	14.3948
1200.91	14.9846
1204.28	12.686
1207.66	11.6942
1211.03	9.33994
1214.41	7.48498
1217.78	4.54404
1221.16	1.12262
1224.53	0.248047
1227.91	2.18832
1231.28	0.327148
1234.66	1.70801
1238.03	3.1615
1241.41	4.22012
1244.78	6.19025
1248.16	6.91205
1251.53	9.90164
1254.91	8.90298
1258.28	8.15344
1261.66	7.17624
1265.03	7.44376
1268.41	4.71017
1271.78	5.10114
1275.16	1.68778
1278.53	2.27829
1281.9	3.27588
