Measurement: Raman, 532 nm, unoriented, Raman Data Processed
Mineral: Finnemanite
Rruff sample: R140335
Ideal chemistry: Pb^2+^_5_(As^3+^O_3_)_3_Cl
Locality: Långban, Filipstad, Värmland, Sweden
Source: Rock Currier
Description: Dark grey prismatic
Raman shift (cm-1)	intensity
89.7832	0
93.158	15.4836
96.5328	4.26392
99.9077	25.8501
103.282	64.9092
106.657	166.341
110.032	401.313
113.407	759.736
116.782	1117.38
120.157	633.374
123.531	379.017
126.906	388.899
130.281	383.81
133.656	327.552
137.031	235.458
140.405	172.042
143.78	144.319
147.155	157.962
150.53	206.936
153.905	304.576
157.28	444.412
160.654	624.364
164.029	844.311
167.404	1074.87
170.779	1288.71
174.154	1406.94
177.528	1339.39
180.903	1088.3
184.278	787.031
187.653	537.789
191.028	350.716
194.403	211.99
197.777	128.215
201.152	59.9438
204.527	22.5139
207.902	3.43164
211.277	10.9326
214.651	3.54981
218.026	24.1525
221.401	60.8226
224.776	114.264
228.151	194.843
231.525	285.141
234.9	385.44
238.275	496.298
241.65	591.769
245.025	647.819
248.4	642.337
251.774	577.427
255.149	465.271
258.524	333.903
261.899	222.326
265.274	139.517
268.649	77.9264
272.023	40.5825
275.398	20.2291
278.773	5.13232
282.148	5.39185
285.523	7.2926
288.897	6.1864
292.272	4.64392
295.647	4.91113
299.022	4.55689
302.397	0.94165
305.772	4.10071
309.146	15.1708
312.521	24.03
315.896	36.9565
319.271	31.8969
322.646	41.2566
326.02	53.6879
329.395	58.892
332.77	65.8893
336.145	78.1803
339.52	91.4112
342.894	105.31
346.269	121.518
349.644	134.805
353.019	145.756
356.394	160.024
359.769	145.551
363.143	124.011
366.518	100.123
369.893	79.437
373.268	61.523
376.643	54.077
380.017	46.4186
383.392	31.1052
386.767	21.3212
390.142	7.34045
393.517	0.38208
396.892	0.86792
400.266	3.33777
403.641	8.90552
407.016	6.12537
410.391	10.225
413.766	20.4093
417.14	34.0949
420.515	40.3426
423.89	55.0962
427.265	72.0533
430.64	100.459
434.014	150.137
437.389	233.295
440.764	349.251
444.139	501.801
447.514	694.907
450.889	889.988
454.263	942.506
457.638	760.121
461.013	505.499
464.388	313.593
467.763	194.185
471.137	128.305
474.512	85.6536
477.887	60.6329
481.262	44.484
484.637	40.4681
488.012	33.9553
491.386	29.5935
494.761	19.0765
498.136	18.0181
501.511	12.6951
504.886	9.99707
508.26	7.13501
511.635	4.48755
515.01	7.38855
518.385	1.15405
521.76	0.379883
525.135	1.12732
528.509	4.49695
531.884	0.974121
535.259	1.22864
538.634	0.459351
542.009	1.62061
545.384	10.3638
548.758	17.1035
552.133	24.708
555.508	34.3927
558.883	53.2535
562.258	80.1547
565.632	109.825
569.007	142.867
572.382	177.364
575.757	196.814
579.132	187.834
582.506	151.698
585.881	105.131
589.256	64.8303
592.631	38.2165
596.006	18.295
599.381	12.1025
602.755	4.88293
606.13	0.144409
609.505	3.46594
612.88	3.27661
616.255	1.05847
619.63	5.49316
623.004	7.12231
626.379	15.3842
629.754	22.3402
633.129	30.7862
636.504	41.7642
639.878	45.1002
643.253	42.627
646.628	33.5605
650.003	30.8648
653.378	25.5247
656.752	15.2406
660.127	13.1807
663.502	11.1699
666.877	17.9089
670.252	17.9324
673.626	14.4409
677.001	15.7594
680.376	20.7045
683.751	20.2122
687.126	34.8877
690.501	35.2809
693.875	46.0542
697.25	59.5259
700.625	76.4814
704	98.5308
707.375	127.163
710.75	171.005
714.124	229.353
717.499	312.938
720.874	423.043
724.249	566.132
727.624	713.338
730.998	808.361
734.373	778.586
737.748	608.187
741.123	408.54
744.498	258.717
747.872	160.57
751.247	111.48
754.622	71.551
757.997	46.9475
761.372	37.0016
764.747	19.24
768.121	12.7649
771.496	3.93518
774.871	2.30701
778.246	1.96643
781.621	5.37354
784.995	1.20654
788.37	3.77527
791.745	4.38733
795.12	0.585449
798.495	3.75964
801.87	6.56873
805.244	18.4524
808.619	23.3781
811.994	18.7544
815.369	13.5668
818.744	13.1309
822.119	9.22315
825.493	2.92664
828.868	3.36145
832.243	0.784546
835.618	5.83228
838.993	5.24731
842.367	7.90857
845.742	15.2938
849.117	9.01782
852.492	7.96521
855.867	5.96521
859.241	9.55994
862.616	8.96448
865.991	7.29565
869.366	4.86804
872.741	10.4064
876.115	9.41589
879.49	7.4469
882.865	8.70776
886.24	11.0144
889.615	6.89087
892.99	10.3352
896.364	10.1041
899.739	12.6024
903.114	10.108
906.489	7.79822
909.864	8.06787
913.239	4.70056
916.613	2.82385
919.988	5.98352
923.363	4.38
926.738	0.018311
930.113	1.12402
933.487	0.054565
936.862	2.0697
940.237	2.57312
943.612	3.41687
946.987	2.01831
950.361	4.12622
953.736	3.46252
957.111	0.931396
960.486	0.527466
963.861	2.17517
967.236	7.19507
970.61	3.44031
973.985	6.14783
977.36	7.18848
980.735	8.43762
984.11	6.98804
987.485	9.52319
990.859	8.52441
994.234	5.99585
997.609	8.53149
1000.98	8.27783
1004.36	7.67566
1007.73	10.3834
1011.11	9.52576
1014.48	12.8467
1017.86	6.21008
1021.23	1.93115
1024.61	3.48975
1027.98	6.62537
1031.36	5.85742
1034.73	5.50977
1038.11	5.15771
1041.48	7.28137
1044.86	7.99182
1048.23	6.49573
1051.61	2.95252
1054.98	2.07129
1058.36	2.33032
1061.73	1.87744
1065.11	1.21387
1068.48	4.28174
1071.86	0.025024
1075.23	0.829224
1078.6	0.741577
1081.98	2.67993
1085.35	5.64087
1088.73	1.05444
1092.1	1.63464
1095.48	1.31006
1098.85	1.50781
1102.23	1.27368
1105.6	4.59485
1108.98	0.893188
1112.35	1.88098
1115.73	4.71265
1119.1	8.00427
1122.48	7.05689
1125.85	1.20252
1129.23	0.205933
1132.6	0.225464
1135.98	3.44995
1139.35	8.70581
1142.73	5.72607
1146.1	9.60303
1149.48	7.31885
1152.85	13.3328
1156.22	12.2006
1159.6	12.3562
1162.97	13.7618
1166.35	12.2293
1169.72	11.4432
1173.1	14.6453
1176.47	14.6516
1179.85	10.7186
1183.22	15.2804
1186.6	9.53577
1189.97	12.1854
1193.35	8.65283
1196.72	6.06165
1200.1	4.40967
1203.47	2.18372
1206.85	6.50159
1210.22	6.02527
1213.6	0.013062
1216.97	1.85059
1220.35	4.22974
1223.72	5.19055
1227.1	1.81702
1230.47	1.87573
1233.85	2.4845
1237.22	3.16504
1240.6	1.29871
1243.97	3.83667
1247.35	4.87793
1250.72	5.27515
1254.1	3.94202
1257.47	6.49329
1260.85	2.1831
1264.22	2.79724
1267.59	2.36987
1270.97	0.97876
1274.34	3.9021
1277.72	5.29517
1281.09	6.4624
1284.47	3.6936
1287.84	4.32544
1291.22	6.90027
1294.59	7.98926
1297.97	3.01343
1301.34	0.602295
