Measurement: Raman, 780 nm, unoriented, Raman Data Processed
Mineral: Fupingqiuite
Rruff sample: R160052
Ideal chemistry: (Na,Mn^2+^,[box])_2_Mn^2+^_2_Fe^3+^(PO_4_)_3_
Locality: Nancy Pegmatite, Chacabuco Dept, San Luis, Argentina
Source: Donald Doell
Description: Dark green or brown crystals with good cleavage. Type sample
Measured chemistry: (Na_0.98_Mn_0.46_Ca_0.03_)_Σ1.47_(Mn_1.32_Mg_0.44_Fe^2+^_0.20_Fe^3+^_0.04_)_Σ2.00_(Fe^3+^_0.88_Al_0.12_)_Σ1.00_(P_1.00_O_4_)_3_
Raman shift (cm-1)	intensity
113.053	0
116.428	4.81967
119.802	1.09467
123.177	7.43918
126.552	0.7771
129.927	5.57153
133.302	7.99661
136.677	7.71426
140.051	12.0521
143.426	12.8112
146.801	19.8238
150.176	18.2754
153.551	14.0449
156.925	8.31427
160.3	2.86105
163.675	2.08987
167.05	0.322372
170.425	1.06874
173.799	0.986588
177.174	0.753784
180.549	0.786499
183.924	2.36351
187.299	4.58662
190.674	7.53334
194.048	7.82126
197.423	9.73193
200.798	14.6098
204.173	18.6809
207.548	22.5074
210.923	28.6742
214.297	33.439
217.672	35.1738
221.047	33.5513
224.422	32.7235
227.797	31.7447
231.171	28.0202
234.546	27.1276
237.921	26.3504
241.296	24.4258
244.671	24.1959
248.046	22.768
251.42	21.46
254.795	22.9065
258.17	22.0623
261.545	23.8711
264.92	22.2005
268.294	19.2116
271.669	15.6071
275.044	14.3058
278.419	12.5435
281.794	11.6246
285.168	10.2167
288.543	7.24463
291.918	7.40965
295.293	7.23962
298.668	5.91077
302.043	4.58016
305.417	3.36772
308.792	2.28463
312.167	1.1355
315.542	0.382614
318.917	0.585022
322.291	0.152405
325.666	0.734535
329.041	0.406586
332.416	0.891571
335.791	0.232452
339.166	0.931267
342.54	1.65506
345.915	2.90772
349.29	2.4059
352.665	2.57494
356.04	3.6431
359.414	4.47671
362.789	5.32035
366.164	4.35563
369.539	5.11834
372.914	5.87192
376.288	7.13764
379.663	5.41058
383.038	3.03204
386.413	1.30654
389.788	0.300865
393.163	0.48288
396.537	0.15892
399.912	1.01971
403.287	2.6477
406.662	4.98715
410.037	7.11451
413.411	5.97107
416.786	4.13425
420.161	2.35185
423.536	2.11327
426.911	2.54847
430.286	2.51598
433.66	4.81641
437.035	6.19979
440.41	9.8387
443.785	15.6808
447.16	22.0984
450.534	26.7107
453.909	27.301
457.284	24.9219
460.659	21.1269
464.034	18.0216
467.409	16.2275
470.783	12.425
474.158	9.57185
477.533	7.23859
480.908	5.97318
484.283	5.62521
487.658	6.36696
491.032	5.47431
494.407	4.91089
497.782	3.10912
501.157	2.62564
504.532	0.650497
507.906	0.076523
511.281	0.450737
514.656	1.02726
518.031	0.272049
521.406	1.66231
524.78	4.17361
528.155	9.76581
531.53	11.3064
534.905	5.82387
538.28	4.44668
541.654	3.95312
545.029	2.92203
548.404	1.74566
551.779	0.947212
555.154	2.02858
558.529	3.13442
561.903	4.43634
565.278	4.68066
568.653	6.08305
572.028	10.2609
575.403	16.787
578.778	24.2823
582.152	25.9674
585.527	26.2583
588.902	28.4908
592.277	30.9617
595.652	33.2165
599.027	31.5428
602.401	28.0188
605.776	25.3489
609.151	23.508
612.526	24.3118
615.901	23.5718
619.275	21.7887
622.65	18.5483
626.025	14.9724
629.4	11.0794
632.775	8.95035
636.149	6.92061
639.524	4.90263
642.899	4.79278
646.274	2.83042
649.649	2.00414
653.024	0.66407
656.398	0.798096
659.773	0.177067
663.148	0.569855
666.523	0.381321
669.898	0.144348
673.273	0.472656
676.647	0.206024
680.022	0.334938
683.397	0.064381
686.772	0.626652
690.146	0.405914
693.521	0.218079
696.896	0.92881
700.271	1.65644
703.646	0.898033
707.021	2.07095
710.395	3.09066
713.77	3.69376
717.145	4.02933
720.52	3.8864
723.895	3.55574
727.269	2.86898
730.644	2.86636
734.019	2.44181
737.394	1.95974
740.769	1.21592
744.144	1.54987
747.518	0.691254
750.893	1.45089
754.268	0.603146
757.643	0.681351
761.018	0.142712
764.393	0.890831
767.767	0.422432
771.142	1.30047
774.517	0.497635
777.892	0.380589
781.267	0.821358
784.641	0.130951
788.016	0.631824
791.391	0.058498
794.766	0.145294
798.141	0.613861
801.515	1.00271
804.89	0.580391
808.265	0.841022
811.64	0.758572
815.015	1.30902
818.39	1.07917
821.764	1.39616
825.139	1.58996
828.514	1.36525
831.889	1.68214
835.264	2.38228
838.639	1.84442
842.013	2.88985
845.388	2.45425
848.763	2.20836
852.138	1.91148
855.513	1.95752
858.887	1.2312
862.262	1.57407
865.637	1.41003
869.012	1.14266
872.387	0.149555
875.761	0.804386
879.136	0.38279
882.511	0.024097
885.886	0.174259
889.261	0.198959
892.636	0.697124
896.01	1.06253
899.385	0.171917
902.76	0.091557
906.135	0.47094
909.51	0.789013
912.885	2.01389
916.259	2.98802
919.634	6.10252
923.009	8.33838
926.384	13.6449
929.759	21.4956
933.133	33.4705
936.508	53.8305
939.883	92.0551
943.258	161.812
946.633	233.759
950.007	194.978
953.382	105.668
956.757	59.363
960.132	41.8125
963.507	38.528
966.881	42.3586
970.256	50.7335
973.631	62.7394
977.006	74.1112
980.381	82.7857
983.756	83.2125
987.13	79.0373
990.505	66.6903
993.88	52.2629
997.255	38.8432
1000.63	29.7814
1004	22.7005
1007.38	14.6299
1010.75	8.0814
1014.13	5.52323
1017.5	5.20604
1020.88	4.92124
1024.25	2.68739
1027.63	1.32719
1031	0.093048
1034.38	1.40498
1037.75	6.89789
1041.13	19.2538
1044.5	31.8992
1047.88	20.5873
1051.25	4.85314
1054.63	0.130302
1058	2.54427
1061.38	0.382965
1064.75	1.79046
1068.13	5.73632
1071.5	13.7449
1074.88	23.5951
1078.25	37.2203
1081.62	43.8181
1085	36.6781
1088.38	29.2945
1091.75	21.8698
1095.12	19.016
1098.5	15.9482
1101.87	14.2632
1105.25	11.5154
1108.62	13.1295
1112	11.3961
1115.37	7.53545
1118.75	5.81023
1122.12	6.32644
1125.5	4.63098
1128.87	4.19214
1132.25	4.26733
1135.62	2.8222
1139	1.20502
1142.37	1.27074
1145.75	1.13582
1149.12	0.073666
1152.5	0.250141
1155.87	0.989552
1159.25	0.617073
1162.62	0.3475
1166	1.31089
1169.37	0.046696
1172.74	0.882816
1176.12	0.825161
1179.49	0.488213
1182.87	0.704487
1186.24	0.238232
1189.62	0.027359
1192.99	0.103809
1196.37	0.200626
1199.74	0.579014
1203.12	0.302986
1206.49	0.14183
1209.87	0.850719
1213.24	1.36305
1216.62	1.69179
1219.99	1.0636
1223.37	0.836941
1226.74	1.05059
1230.12	1.70228
1233.49	1.74192
1236.87	2.22526
1240.24	1.53665
1243.62	1.36981
1246.99	2.05329
1250.37	0.908913
1253.74	0.973026
1257.12	0.34972
1260.49	0.299099
1263.87	0.414337
1267.24	0.67667
1270.62	0.281654
1273.99	0.180592
1277.37	0.42149
1280.74	0.777966
