Measurement: Raman, 532 nm, unoriented, Raman Data Processed
Mineral: Fupingqiuite
Rruff sample: R160033
Ideal chemistry: (Na,Mn^2+^,[box])_2_Mn^2+^_2_Fe^3+^(PO_4_)_3_
Locality: Nancy Pegmatite, Argentina
Source: Jaroslav Hyrŝl
Description: Brown crystals, associated with light brown fillowite.
Measured chemistry: (Na_1.15_Mn^2+^_0. 36_Ca_0.05_)_Σ1.56_(Mn^2+^_1.20_Mg_0.41_Fe^2+^_0.39_)_Σ2.0_(Fe^3+^_0.78_Al_0.22_)_Σ1.0_(PO_4_)_3_
Raman shift (cm-1)	intensity
148.601	0
151.494	0.045532
154.387	7.1695
157.28	21.7017
160.172	6.12299
163.065	2.27362
165.958	15.1091
168.85	10.4458
171.743	17.5287
174.636	11.9417
177.528	6.10089
180.421	3.95587
183.314	0.101868
186.207	1.11011
189.099	1.94391
191.992	0.385315
194.885	0.757813
197.777	5.33197
200.67	6.48541
203.563	9.91479
206.455	10.5976
209.348	14.4044
212.241	18.3749
215.133	22.2432
218.026	22.7529
220.919	23.835
223.812	23.3609
226.704	18.6639
229.597	17.0126
232.49	10.2931
235.382	10.1952
238.275	8.53473
241.168	9.8186
244.06	9.97235
246.953	8.85718
249.846	8.04571
252.739	5.53686
255.631	9.11945
258.524	7.98248
261.417	8.98419
264.309	8.50409
267.202	9.93866
270.095	10.0609
272.988	13.0978
275.88	9.49707
278.773	8.64551
281.666	7.33887
284.558	7.36334
287.451	4.60089
290.344	6.27289
293.236	5.91986
296.129	2.93646
299.022	1.80603
301.915	2.04791
304.807	1.39398
307.7	2.42273
310.593	2.96887
313.485	3.38995
316.378	5.6283
319.271	3.99316
322.163	5.44745
325.056	7.22949
327.949	8.05865
330.842	7.09808
333.734	6.19891
336.627	7.66138
339.52	8.9577
342.412	11.9712
345.305	12.8224
348.198	10.8386
351.091	15.7405
353.983	18.6463
356.876	21.2549
359.769	21.0687
362.661	23.5006
365.554	21.4129
368.447	21.1566
371.339	19.2778
374.232	17.0563
377.125	14.4653
380.017	11.074
382.91	9.40149
385.803	4.12286
388.696	1.70856
391.588	1.35574
394.481	3.81525
397.374	2.40616
400.266	1.92648
403.159	1.28375
406.052	2.60107
408.945	2.44846
411.837	2.49261
414.73	1.96075
417.623	6.44907
420.515	5.63965
423.408	10.2319
426.301	16.752
429.193	25.0951
432.086	36.6172
434.979	52.0141
437.872	68.4808
440.764	93.5726
443.657	111.824
446.55	128.27
449.442	129.87
452.335	119.337
455.228	98.9069
458.12	86.73
461.013	71.711
463.906	65.5444
466.798	62.5779
469.691	62.3355
472.584	61.629
475.477	58.131
478.369	55.7122
481.262	56.8099
484.155	56.6523
487.047	56.7281
489.94	58.2625
492.833	58.1999
495.726	53.8405
498.618	49.4269
501.511	45.0591
504.404	39.3025
507.296	34.1356
510.189	28.4865
513.082	21.5777
515.974	15.9545
518.867	10.3279
521.76	5.54117
524.653	1.97989
527.545	0.719788
530.438	5.18539
533.331	4.6286
536.223	1.24899
539.116	2.71527
542.009	1.86258
544.901	12.5031
547.794	20.457
550.687	28.0359
553.58	33.5635
556.472	39.0708
559.365	42.5109
562.258	44.7851
565.15	47.0902
568.043	42.1525
570.936	41.3291
573.828	45.7737
576.721	48.0072
579.614	56.3488
582.506	63.0258
585.399	69.7548
588.292	82.8867
591.185	97.1776
594.077	113.6
596.97	128.856
599.863	135.697
602.755	129.839
605.648	117.429
608.541	109.607
611.433	102.221
614.326	94.9794
617.219	86.5131
620.112	77.6086
623.004	62.7435
625.897	50.6934
628.79	42.3512
631.682	38.1514
634.575	28.9422
637.468	27.6678
640.361	30.3741
643.253	32.8736
646.146	37.7377
649.039	37.9327
651.931	40.6984
654.824	38.6587
657.717	29.0917
660.609	22.3341
663.502	16.884
666.395	10.2601
669.288	9.97223
672.18	5.93445
675.073	4.51379
677.966	0.614624
680.858	0.530029
683.751	4.43378
686.644	0.7229
689.536	0.609009
692.429	1.20984
695.322	3.12677
698.215	3.56604
701.107	3.39978
704	2.02771
706.893	1.94165
709.785	0.426941
712.678	1.86682
715.571	0.267883
718.463	1.82349
721.356	2.6922
724.249	1.91632
727.141	4.97614
730.034	3.72473
732.927	6.6048
735.82	5.50116
738.712	5.53125
741.605	8.17596
744.498	8.31598
747.39	9.10352
750.283	10.5343
753.176	8.40631
756.068	7.6886
758.961	5.27832
761.854	5.51562
764.747	7.87317
767.639	7.45007
770.532	10.0662
773.425	10.5947
776.317	9.51776
779.21	8.53046
782.103	12.0087
784.995	12.5763
787.888	12.3819
790.781	13.6048
793.674	16.2314
796.566	16.7097
799.459	17.0179
802.352	20.0237
805.244	21.2014
808.137	25.8781
811.03	25.7239
813.923	27.3531
816.815	27.7127
819.708	30.9818
822.601	30.6546
825.493	30.8358
828.386	29.9789
831.279	32.3764
834.171	34.5775
837.064	35.3788
839.957	36.7645
842.85	37.0791
845.742	42.1025
848.635	40.9985
851.528	43.4763
854.42	46.4536
857.313	48.4277
860.206	49.6973
863.098	47.8867
865.991	43.2117
868.884	39.9439
871.777	37.5619
874.669	33.4259
877.562	29.9299
880.455	24.441
883.347	18.2375
886.24	15.6536
889.133	13.2086
892.025	8.68799
894.918	8.10547
897.811	0.62915
900.703	1.21075
903.596	0.840393
906.489	3.56427
909.382	2.83527
912.274	3.88757
915.167	4.51514
918.06	2.86682
920.952	6.65283
923.845	9.73077
926.738	14.967
929.63	23.4815
932.523	33.6671
935.416	40.0695
938.309	51.5279
941.201	62.1981
944.094	74.584
946.987	89.8241
949.879	106.89
952.772	123.19
955.665	143.858
958.558	169.568
961.45	207.233
964.343	257.886
967.236	315.144
970.128	377.609
973.021	443.758
975.914	495.821
978.806	526.141
981.699	512.664
984.592	478.264
987.485	418.056
990.377	354.774
993.27	291.718
996.163	236.948
999.055	190.013
1001.95	153.905
1004.84	124.655
1007.73	103.155
1010.63	85.7827
1013.52	72.629
1016.41	58.248
1019.3	47.3363
1022.2	33.0948
1025.09	24.741
1027.98	16.7469
1030.88	7.85443
1033.77	2.65637
1036.66	1.24005
1039.55	3.59045
1042.45	3.78033
1045.34	0.436768
1048.23	0.440735
1051.12	0.101196
1054.02	3.05878
1056.91	7.20373
1059.8	10.5595
1062.69	21.9232
1065.59	29.7935
1068.48	41.936
1071.37	52.6934
1074.27	62.9059
1077.16	73.3307
1080.05	77.1082
1082.94	79.4628
1085.84	77.2543
1088.73	68.5464
1091.62	62.8168
1094.51	56.5251
1097.41	48.6304
1100.3	46.7679
1103.19	37.8343
1106.09	34.4051
1108.98	31.9971
1111.87	32.3007
1114.76	30.3334
1117.66	27.6335
1120.55	26.2334
1123.44	25.1912
1126.33	26.9581
1129.23	22.7756
1132.12	26.049
1135.01	24.6176
1137.9	24.8024
1140.8	26.9493
1143.69	30.2183
1146.58	27.7676
1149.48	22.7301
1152.37	20.7326
1155.26	18.0721
1158.15	14.9298
1161.05	10.8496
1163.94	9.11206
1166.83	8.60901
1169.72	7.75943
1172.62	9.18524
1175.51	6.23874
1178.4	3.0217
1181.3	3.7558
1184.19	1.27377
1187.08	0.133118
1189.97	1.69098
1192.87	1.32758
1195.76	1.88464
1198.65	1.90118
1201.54	0.126831
1204.44	1.81604
1207.33	2.54114
1210.22	3.63123
1213.12	6.59467
1216.01	7.547
1218.9	8.23666
1221.79	11.4371
1224.69	11.1115
1227.58	13.3972
1230.47	11.7053
1233.36	12.4841
1236.26	12.3112
1239.15	15.291
1242.04	15.5337
1244.93	17.9221
1247.83	15.6939
1250.72	13.9534
1253.61	11.6284
1256.51	11.1429
1259.4	7.91721
1262.29	11.3849
1265.18	7.27377
1268.08	7.03937
1270.97	6.87302
1273.86	6.37048
1276.76	5.0329
1279.65	1.96433
1282.54	3.10877
1285.43	2.0722
1288.33	2.82538
1291.22	1.45551
1294.11	5.52338
1297	1.63544
1299.9	2.41693
