Measurement: Raman, 532 nm, unoriented, Raman Data Processed
Mineral: Fupingqiuite
Rruff sample: R160052
Ideal chemistry: (Na,Mn^2+^,[box])_2_Mn^2+^_2_Fe^3+^(PO_4_)_3_
Locality: Nancy Pegmatite, Chacabuco Dept, San Luis, Argentina
Source: Donald Doell
Description: Dark green or brown crystals with good cleavage. Type sample
Measured chemistry: (Na_0.98_Mn_0.46_Ca_0.03_)_Σ1.47_(Mn_1.32_Mg_0.44_Fe^2+^_0.20_Fe^3+^_0.04_)_Σ2.00_(Fe^3+^_0.88_Al_0.12_)_Σ1.00_(P_1.00_O_4_)_3_
Raman shift (cm-1)	intensity
185.437	0
188.33	0.911774
191.222	0.080719
194.115	0.87294
197.008	1.65417
199.9	5.4931
202.793	15.6865
205.686	27.0546
208.579	39.6154
211.471	56.3718
214.364	78.0944
217.257	94.5113
220.149	95.0924
223.042	82.236
225.935	75.8532
228.827	73.8483
231.72	72.2695
234.613	68.7358
237.506	59.4179
240.398	50.6806
243.291	44.3314
246.184	38.4714
249.076	38.2882
251.969	40.499
254.862	43.3198
257.755	50.5331
260.647	58.6318
263.54	65.6794
266.433	66.6194
269.325	58.7431
272.218	51.2267
275.111	44.5488
278.003	42.0486
280.896	36.8976
283.789	34.1567
286.682	32.6038
289.574	30.3308
292.467	28.0535
295.36	26.5593
298.252	24.8938
301.145	24.8637
304.038	19.5412
306.93	14.1556
309.823	10.9527
312.716	6.44472
315.608	4.29622
318.501	2.30794
321.394	0.703552
324.287	0.358856
327.179	0.374496
330.072	1.60812
332.965	1.63545
335.857	1.53774
338.75	0.170944
341.643	0.085922
344.536	0.830063
347.428	0.5672
350.321	1.13928
353.214	2.28711
356.106	4.25705
358.999	6.06157
361.892	8.92127
364.784	9.29422
367.677	10.4781
370.57	12.2569
373.462	14.6607
376.355	17.1427
379.248	16.8353
382.141	14.8368
385.033	10.5931
387.926	3.6882
390.819	0.162643
393.711	1.08441
396.604	3.24593
399.497	13.0889
402.389	23.2574
405.282	35.536
408.175	46.1263
411.068	57.9083
413.96	62.2051
416.853	52.9432
419.746	34.6424
422.638	25.0358
425.531	19.0526
428.424	22.6821
431.317	28.9368
434.209	38.3469
437.102	55.0476
439.995	73.7685
442.887	99.7105
445.78	126.101
448.673	156.613
451.565	177.555
454.458	181.882
457.351	166.519
460.243	139.665
463.136	110.85
466.029	88.6755
468.922	71.0396
471.814	55.851
474.707	42.6255
477.6	31.2768
480.492	24.8477
483.385	21.2281
486.278	15.9222
489.171	14.331
492.063	11.44
494.956	7.18942
497.849	4.16547
500.741	1.83374
503.634	0.185944
506.527	2.73247
509.419	3.31639
512.312	4.33464
515.205	3.54118
518.097	0.386383
520.99	2.05136
523.883	10.2936
526.776	19.8377
529.668	31.766
532.561	41.097
535.454	37.6003
538.346	39.4127
541.239	44.0804
544.132	44.9831
547.024	36.3894
549.917	27.6447
552.81	25.4423
555.703	26.3531
558.595	31.3101
561.488	37.7279
564.381	41.1592
567.273	45.2072
570.166	50.0711
573.059	65.6756
575.952	85.77
578.844	109.559
581.737	125.6
584.63	125.228
587.522	123.075
590.415	131.377
593.308	139.278
596.2	146.003
599.093	147.081
601.986	138.791
604.879	125.14
607.771	114.394
610.664	112.714
613.557	117.754
616.449	112.344
619.342	106.54
622.235	91.8956
625.127	76.0416
628.02	61.2475
630.913	47.5384
633.806	36.8654
636.698	28.3742
639.591	21.4755
642.484	17.7705
645.376	14.5565
648.269	11.2677
651.162	10.5001
654.054	6.20239
656.947	4.08093
659.84	2.28641
662.732	1.11583
665.625	1.76033
668.518	1.39102
671.411	2.94199
674.303	1.96445
677.196	0.101044
680.089	0.446426
682.981	0.414505
685.874	0.31131
688.767	0.347641
691.659	1.05959
694.552	2.84888
697.445	3.50153
700.338	5.21069
703.23	9.19083
706.123	13.1452
709.016	15.7438
711.908	19.6719
714.801	24.154
717.694	26.5703
720.587	29.7091
723.479	29.4186
726.372	28.2355
729.265	23.6359
732.157	20.422
735.05	15.76
737.943	12.9716
740.835	10.0671
743.728	7.8989
746.621	6.80305
749.514	6.39488
752.406	5.60893
755.299	5.18321
758.192	4.74077
761.084	5.37439
763.977	3.51508
766.87	4.14947
769.762	3.60053
772.655	3.91333
775.548	4.00612
778.441	4.64534
781.333	4.73479
784.226	5.12822
787.119	4.86723
790.011	3.94579
792.904	4.82954
795.797	5.3618
798.689	4.3578
801.582	4.66315
804.475	5.33284
807.367	6.79977
810.26	7.55067
813.153	7.16685
816.046	8.49831
818.938	8.70841
821.831	10.3448
824.724	10.4581
827.616	11.9492
830.509	12.5549
833.402	13.7061
836.294	13.4434
839.187	15.098
842.08	16.1156
844.973	14.3553
847.865	15.2333
850.758	13.8144
853.651	13.4154
856.543	10.357
859.436	9.39485
862.329	9.05485
865.221	5.75728
868.114	5.67296
871.007	3.88855
873.9	2.31917
876.792	1.63419
879.685	0.525269
882.578	1.02039
885.47	1.73422
888.363	1.83653
891.256	1.88739
894.149	2.53388
897.041	2.62427
899.934	3.36655
902.827	0.498428
905.719	0.501587
908.612	4.22588
911.505	6.08636
914.397	10.9166
917.29	17.3844
920.183	29.1746
923.076	45.1598
925.968	65.7406
928.861	102.182
931.754	157.671
934.646	245.09
937.539	383.699
940.432	594.324
943.324	915.276
946.217	1347.78
949.11	1553.7
952.003	1111.43
954.895	596.926
957.788	333.027
960.681	219.716
963.573	176.89
966.466	173.332
969.359	189.071
972.251	221.913
975.144	266.648
978.037	316.724
980.929	362.701
983.822	393.862
986.715	398.179
989.608	369.334
992.5	314.939
995.393	242.952
998.286	179.629
1001.18	131.113
1004.07	98.14
1006.96	65.4175
1009.86	40.1479
1012.75	16.801
1015.64	12.4587
1018.53	15.9188
1021.43	24.9857
1024.32	23.6118
1027.21	10.9482
1030.11	1.9024
1033	7.14777
1035.89	31.4315
1038.78	77.2379
1041.68	150.896
1044.57	245.059
1047.46	239.05
1050.35	108.18
1053.25	23.7588
1056.14	6.76752
1059.03	14.3712
1061.92	8.01349
1064.82	5.83218
1067.71	30.3166
1070.6	63.4492
1073.5	115.573
1076.39	185.749
1079.28	273.428
1082.17	329.56
1085.07	289.858
1087.96	214.979
1090.85	156.321
1093.74	118.84
1096.64	92.5796
1099.53	70.6863
1102.42	57.2162
1105.32	46.7156
1108.21	39.6014
1111.1	40.1179
1113.99	31.7666
1116.89	22.6896
1119.78	15.8374
1122.67	10.346
1125.56	7.7225
1128.46	7.21378
1131.35	6.20691
1134.24	5.91818
1137.13	5.50082
1140.03	5.66406
1142.92	3.20431
1145.81	3.92549
1148.71	3.65921
1151.6	2.59848
1154.49	2.42445
1157.38	1.95439
1160.28	1.02266
1163.17	1.90398
1166.06	0.262756
1168.95	3.19168
1171.85	3.39751
1174.74	3.9231
1177.63	7.27922
1180.53	4.46866
1183.42	1.75255
1186.31	1.81622
1189.2	0.278275
1192.1	0.271713
1194.99	1.4866
1197.88	0.334747
1200.78	0.233887
1203.67	0.054459
1206.56	0.91246
1209.45	2.47244
1212.35	3.90027
1215.24	4.60136
1218.13	5.53986
1221.02	6.53319
1223.92	8.16617
1226.81	7.644
1229.7	9.75717
1232.59	9.79779
1235.49	11.2989
1238.38	9.39223
1241.27	11.3243
1244.16	10.2293
1247.06	12.1158
1249.95	10.8992
1252.84	10.329
1255.74	9.09003
1258.63	7.5209
1261.52	6.16287
1264.41	6.00354
1267.31	5.963
1270.2	4.19701
1273.09	4.1407
1275.98	4.47672
1278.88	3.38597
1281.77	3.44251
1284.66	2.71065
1287.56	1.026
1290.45	1.59851
1293.34	1.3887
1296.23	1.27785
1299.13	0.836914
