Measurement: Raman, 780 nm, unoriented, Raman Data Processed
Mineral: Gerstmannite
Rruff sample: R130646
Ideal chemistry: Mn^2+^MgZn^2+^SiO_4_(OH)_2_
Locality: Sterling mine, Sterling Hill, Ogdensburg, Franklin Mining District, Sussex County, New Jersey, USA
Source: Rock Currier
Description: Sprays of pale-pink bunched prismatic crystals associated with white willemite, brown sphalerite,  and dark-brown to black franklinite
Measured chemistry: (Mn_0.80_Mg_0.20_)Mg_1.00_Zn_1.03_Si_0.99_O_4_(OH_1.42_F_0.58_) ;(Probed together with R170038)
Raman shift (cm-1)	intensity
144.472	0
147.365	1.74048
150.257	12.2301
153.15	23.7843
156.043	24.7423
158.936	9.37097
161.828	0.121826
164.721	3.14758
167.614	2.36243
170.506	15.275
173.399	30.1342
176.292	38.4126
179.185	36.8073
182.077	29.3971
184.97	11.4695
187.863	4.77051
190.755	7.21948
193.648	9.62549
196.541	13.3535
199.433	16.4789
202.326	23.3193
205.219	27.3717
208.112	34.4747
211.004	39.6296
213.897	44.5533
216.79	49.7801
219.682	35.956
222.575	32.6334
225.468	28.3837
228.36	31.802
231.253	31.2599
234.146	35.5926
237.038	50.2572
239.931	51.7098
242.824	60.5198
245.717	71.022
248.609	75.2395
251.502	80.0835
254.395	77.6086
257.287	69.8132
260.18	55.0973
263.073	41.9055
265.966	28.3776
268.858	15.2744
271.751	4.65869
274.644	0.904419
277.536	4.20544
280.429	0.191528
283.322	0.706543
286.214	3.50574
289.107	6.12415
292	5.05078
294.892	8.33472
297.785	6.18909
300.678	11.9486
303.571	3.81482
306.463	3.58997
309.356	4.89148
312.249	9.54614
315.141	10.34
318.034	8.3064
320.927	9.40845
323.82	12.4171
326.712	5.87634
329.605	6.8634
332.498	0.347046
335.39	1.58789
338.283	1.32178
341.176	2.44604
344.068	1.1134
346.961	3.68848
349.854	9.33044
352.747	11.2967
355.639	17.7975
358.532	25.4731
361.425	27.2125
364.317	38.2981
367.21	54.1332
370.103	62.3899
372.995	73.8009
375.888	94.5149
378.781	123.08
381.674	173.053
384.566	238.526
387.459	300.033
390.352	299.691
393.244	226.329
396.137	146.815
399.03	100.13
401.923	89.2966
404.815	90.3494
407.708	109.637
410.601	138.139
413.493	145.612
416.386	121.62
419.279	90.7623
422.171	63.5486
425.064	49.2317
427.957	44.9475
430.849	28.9535
433.742	21.5646
436.635	13.4894
439.528	11.8253
442.42	2.46509
445.313	0.044067
448.206	0.675537
451.098	1.87146
453.991	1.00989
456.884	1.03906
459.776	0.134888
462.669	1.35791
465.562	1.3916
468.455	3.85352
471.347	2.48169
474.24	5.01746
477.133	10.4692
480.025	4.17114
482.918	2.97546
485.811	7.87317
488.704	13.0521
491.596	18.9259
494.489	19.9812
497.382	21.9548
500.274	22.8199
503.167	25.6696
506.06	29.0729
508.952	40.1386
511.845	44.6031
514.738	52.1576
517.63	37.8946
520.523	19.4388
523.416	11.1195
526.308	6.21265
529.201	0.960693
532.094	0.484253
534.987	1.30542
537.879	1.43445
540.772	1.74951
543.665	4.05554
546.557	6.45972
549.45	1.71326
552.343	1.33838
555.236	0.716064
558.128	0.739868
561.021	4.52429
563.914	15.6346
566.806	27.9592
569.699	32.3391
572.592	45.9188
575.484	61.1364
578.377	76.1407
581.27	81.9109
584.163	76.4456
587.055	62.1929
589.948	44.7599
592.841	37.3132
595.733	34.5314
598.626	35.0511
601.519	33.5389
604.412	25.4276
607.304	17.3505
610.197	13.9022
613.09	7.11414
615.982	5.48645
618.875	3.82605
621.768	3.05286
624.66	2.96167
627.553	2.77063
630.446	2.27673
633.338	5.83716
636.231	6.62207
639.124	3.77832
642.017	1.38159
644.909	0.11853
647.802	1.03101
650.695	2.86646
653.587	2.85547
656.48	8.53113
659.373	7.80005
662.265	11.5696
665.158	16.3463
668.051	18.5717
670.944	20.2716
673.836	25.1736
676.729	30.0467
679.622	30.0447
682.514	31.6293
685.407	33.931
688.3	32.6121
691.192	33.4382
694.085	26.6169
696.978	24.0605
699.871	20.7119
702.763	21.1431
705.656	14.1119
708.549	13.0898
711.441	11.7508
714.334	8.95215
717.227	9.19263
720.12	5.0426
723.012	6.44287
725.905	1.06677
728.798	3.52148
731.69	3.11694
734.583	1.53528
737.476	3.07922
740.368	1.70129
743.261	2.52148
746.154	1.19983
749.047	2.6062
751.939	2.83264
754.832	3.32886
757.725	1.23779
760.617	6.60156
763.51	3.88721
766.403	5.41711
769.295	4.80591
772.188	6.52478
775.081	5.66467
777.973	3.47095
780.866	5.54089
783.759	6.90991
786.652	10.0167
789.544	7.57922
792.437	5.17847
795.33	2.625
798.222	2.44446
801.115	2.04333
804.008	3.49463
806.9	0.85022
809.793	1.90881
812.686	2.92261
815.579	1.10291
818.471	2.87268
821.364	5.65332
824.257	8.47717
827.149	14.0687
830.042	19.4298
832.935	23.8579
835.827	30.7313
838.72	39.8552
841.613	52.1577
844.506	75.0751
847.398	105.91
850.291	162.281
853.184	234.875
856.076	330.341
858.969	419.853
861.862	449.739
864.755	401.191
867.647	330.717
870.54	259.242
873.433	194.086
876.325	138.069
879.218	102.239
882.111	78.6013
885.003	60.5663
887.896	53.8942
890.789	58.4492
893.682	56.0863
896.574	51.6455
899.467	35.8519
902.36	21.6455
905.252	17.3237
908.145	13.3019
911.038	9.89111
913.93	4.1687
916.823	2.74805
919.716	2.50653
922.609	2.20105
925.501	0.175476
928.394	1.2326
931.287	1.33844
934.179	1.9942
937.072	7.03619
939.965	11.9312
942.857	27.1623
945.75	39.2368
948.643	59.1876
951.535	76.955
954.428	87.1001
957.321	88.2057
960.214	59.3442
963.106	42.5261
965.999	24.9059
968.892	16.3945
971.784	9.15277
974.677	8.23755
977.57	5.6145
980.462	5.46454
983.355	2.19507
986.248	3.8559
989.141	0.535156
992.033	4.5614
994.926	7.53076
997.819	4.23688
1000.71	6.31689
1003.6	4.07715
1006.5	1.36664
1009.39	0.815674
1012.28	1.11523
1015.17	1.10608
1018.07	2.13977
1020.96	1.29437
1023.85	4.7016
1026.75	2.38373
1029.64	3.59815
1032.53	0.760864
1035.42	4.32288
1038.32	3.85382
1041.21	3.32703
1044.1	2.65247
1046.99	3.26538
1049.89	4.50977
1052.78	5.58545
1055.67	4.16235
1058.57	2.64484
1061.46	5.61798
1064.35	2.61298
1067.24	2.59186
1070.14	9.36542
1073.03	3.67175
1075.92	3.17926
1078.81	2.22675
1081.71	3.60065
1084.6	5.11871
1087.49	5.09644
1090.38	3.99231
1093.28	0.311218
1096.17	0.792358
1099.06	1.25232
1101.96	1.26294
1104.85	4.2804
1107.74	9.40863
1110.63	0.540588
1113.53	2.48645
1116.42	2.62683
1119.31	3.50446
1122.2	3.37048
1125.1	3.21051
1127.99	4.4975
1130.88	5.1203
1133.78	5.25116
1136.67	3.59686
1139.56	4.7157
1142.45	4.37158
1145.35	4.88214
1148.24	6.75494
1151.13	6.67261
1154.03	7.49493
1156.92	6.39587
1159.81	7.56586
1162.7	7.01318
1165.6	4.83124
1168.49	4.99029
1171.38	6.41907
1174.27	5.25641
1177.17	5.56671
1180.06	0.167603
1182.95	0.942017
1185.84	3.2865
1188.74	3.33545
1191.63	2.67261
1194.52	2.11121
1197.41	1.33014
1200.31	3.72485
1203.2	3.5163
1206.09	3.41882
1208.99	2.81586
1211.88	3.46216
1214.77	1.27795
1217.66	3.3169
1220.56	3.75549
1223.45	5.48724
1226.34	5.08301
1229.23	5.15137
1232.13	2.2984
1235.02	0.928772
1237.91	4.81024
1240.81	2.84796
1243.7	1.05408
1246.59	1.25421
1249.48	1.53949
1252.38	0.908875
1255.27	1.55225
1258.16	1.9632
1261.05	2.67682
1263.95	2.091
1266.84	2.71478
1269.73	3.79498
1272.62	0.5495
1275.52	3.16089
1278.41	3.73981
1281.3	0.475342
