Measurement: Raman, 532 nm, unoriented, Raman Data Processed
Mineral: Gerstmannite
Rruff sample: R130646
Ideal chemistry: Mn^2+^MgZn^2+^SiO_4_(OH)_2_
Locality: Sterling mine, Sterling Hill, Ogdensburg, Franklin Mining District, Sussex County, New Jersey, USA
Source: Rock Currier
Description: Sprays of pale-pink bunched prismatic crystals associated with white willemite, brown sphalerite,  and dark-brown to black franklinite
Measured chemistry: (Mn_0.80_Mg_0.20_)Mg_1.00_Zn_1.03_Si_0.99_O_4_(OH_1.42_F_0.58_) ;(Probed together with R170038)
Raman shift (cm-1)	intensity
143.58	0
146.955	14.793
150.33	136.764
153.705	271.74
157.079	142.891
160.454	27.9395
163.829	5.69531
167.204	35.5645
170.579	226.307
173.953	417.307
177.328	533.002
180.703	474.592
184.078	236.199
187.453	100.768
190.828	119.353
194.202	106.756
197.577	180.404
200.952	210.518
204.327	168.045
207.702	227.281
211.077	303.953
214.451	375.992
217.826	312.727
221.201	206.065
224.576	140.356
227.951	147.522
231.325	283.621
234.7	470.217
238.075	614.006
241.45	604.166
244.825	672.598
248.2	762.453
251.574	917.809
254.949	911.906
258.324	775.199
261.699	622.121
265.074	399.727
268.448	125.844
271.823	76.3633
275.198	21.0977
278.573	21.3398
281.948	3.96094
285.322	151.918
288.697	112.801
292.072	10.8398
295.447	36.8945
298.822	6.14062
302.197	75.2617
305.571	52.418
308.946	0.878906
312.321	9.76172
315.696	48.8828
319.071	52.1992
322.445	79.5234
325.82	63.4023
329.195	31.8867
332.57	21.5586
335.945	58.457
339.32	33.3398
342.694	34.7617
346.069	38.8984
349.444	93.4453
352.819	187.797
356.194	177.832
359.568	225.945
362.943	288.715
366.318	487.332
369.693	603.801
373.068	853.406
376.442	1253.23
379.817	1752.45
383.192	2519.34
386.567	3341.33
389.942	3327.89
393.317	2405.34
396.691	1622.91
400.066	1371.08
403.441	1358.86
406.816	1562.3
410.191	1995.09
413.565	2045.07
416.94	1574.61
420.315	1078.57
423.69	673.547
427.065	656.371
430.44	517.609
433.814	316.426
437.189	109.461
440.564	66.5625
443.939	3.49609
447.314	87.9492
450.688	45.8008
454.063	48.3203
457.438	106.816
460.813	88.5977
464.188	16.5742
467.563	18.0781
470.937	7.125
474.312	48.7812
477.687	5.84766
481.062	34.1953
484.437	19.4414
487.812	157.297
491.186	136.461
494.561	124.375
497.936	174.004
501.311	318.32
504.686	469.277
508.06	560.914
511.435	560.246
514.81	577.961
518.185	410.559
521.56	228.137
524.934	111.953
528.309	122.656
531.684	229.566
535.059	174.074
538.434	117.852
541.809	99.8281
545.183	127.449
548.558	167.34
551.933	229.348
555.308	245.699
558.683	292.356
562.058	268.973
565.432	443.152
568.807	556.074
572.182	888.293
575.557	1153.34
578.932	1301.64
582.306	1225.59
585.681	1041.81
589.056	752.016
592.431	519.797
595.806	399.953
599.181	412.285
602.555	380.824
605.93	291.234
609.305	258.281
612.68	184.199
616.055	84.6211
619.429	99.6758
622.804	77.8633
626.179	39.1367
629.554	23.8555
632.929	58.3867
636.303	1.90625
639.678	41.0977
643.053	0.972656
646.428	14.3008
649.803	60.5703
653.178	100.598
656.552	89.9336
659.927	69.332
663.302	39.1133
666.677	58.7148
670.052	150.141
673.427	195.793
676.801	185.586
680.176	243.312
683.551	262.344
686.926	336.621
690.301	319.566
693.675	256.758
697.05	249.5
700.425	194.941
703.8	154.82
707.175	116.742
710.549	91.543
713.924	88.3281
717.299	23.1289
720.674	10.7383
724.049	35.3711
727.423	22.7422
730.798	11.4688
734.173	49.6289
737.548	149.742
740.923	75.793
744.298	105.09
747.672	100.547
751.047	56.0469
754.422	5.35156
757.797	29.5859
761.172	27.6719
764.547	39.6523
767.921	53.8945
771.296	163.164
774.671	205.707
778.046	299.875
781.421	216.016
784.795	180.391
788.17	129.215
791.545	141.156
794.92	85.8789
798.295	59.0938
801.669	57.293
805.044	15.1328
808.419	9.30078
811.794	44.0156
815.169	10.707
818.544	129.82
821.918	141.894
825.293	110.562
828.668	167.41
832.043	208.082
835.418	414.613
838.793	567.953
842.167	907.238
845.542	1408.01
848.917	2377.05
852.292	3833.41
855.667	5537.96
859.041	6977.64
862.416	7134.82
865.791	6149.59
869.166	5025.21
872.541	3594.36
875.915	2311.4
879.29	1582.65
882.665	1111.4
886.04	803.016
889.415	668.293
892.79	676.004
896.164	651.844
899.539	523.785
902.914	194.316
906.289	138.941
909.664	25.8867
913.038	4.62109
916.413	68.1445
919.788	6.72266
923.163	12.9414
926.538	96.1406
929.913	21.2188
933.287	31.1367
936.662	111.312
940.037	306.848
943.412	647.848
946.787	848.871
950.162	1169.54
953.536	1333.09
956.911	1143.47
960.286	925.543
963.661	620.945
967.036	294.094
970.41	87.25
973.785	129.445
977.16	178.469
980.535	34.3359
983.91	47.7812
987.284	43.9336
990.659	29.8672
994.034	49.9219
997.409	24.9141
1000.78	82.6445
1004.16	46.1484
1007.53	134.332
1010.91	86.9141
1014.28	193.469
1017.66	112.266
1021.03	63.8203
1024.41	80.2109
1027.78	162.879
1031.16	86.7891
1034.53	122.707
1037.91	92.7031
1041.28	201.672
1044.66	294.906
1048.03	238.629
1051.41	242.934
1054.78	234.727
1058.16	178.641
1061.53	250.758
1064.9	192.227
1068.28	202.027
1071.65	182.055
1075.03	220.644
1078.4	252.582
1081.78	159.668
1085.15	243.598
1088.53	245.508
1091.9	215.402
1095.28	162.039
1098.65	141.195
1102.03	60.1719
1105.4	58.6289
1108.78	28.9297
1112.15	56.1523
1115.53	101.871
1118.9	140.488
1122.28	56.0703
1125.65	89.3984
1129.03	20.9844
1132.4	43.1641
1135.78	31.8164
1139.15	169.508
1142.53	176.098
1145.9	59.75
1149.28	81.8867
1152.65	185.227
1156.03	165.336
1159.4	264.84
1162.78	285.422
1166.15	309.633
1169.53	335.144
1172.9	208.836
1176.27	157.234
1179.65	245.078
1183.02	253.606
1186.4	354.266
1189.77	346.258
1193.15	368.727
1196.52	432.484
1199.9	313.117
1203.27	285.344
1206.65	285.289
1210.02	350.133
1213.4	247.977
1216.77	224.977
1220.15	291.883
1223.52	268.117
1226.9	167.484
1230.27	98.2188
1233.65	76.7969
1237.02	9.8125
1240.4	63.6562
1243.77	73.0312
1247.14	72.0625
1250.52	180.742
1253.89	128.367
1257.27	232.758
1260.64	167.211
1264.02	6.64844
1267.39	139.734
1270.77	148.508
1274.14	63.5859
1277.52	6.21094
1280.89	102.938
1284.27	163.039
1287.64	213.992
1291.02	139.156
1294.39	81.6172
1297.77	16.5391
