Measurement: Raman, 458.5 nm, unoriented, Raman Data Processed
Mineral: Goldschmidtite
Rruff sample: R190009
Ideal chemistry: KNb^5+^O_3_
Locality: Koffiefontein, South Africa
Source: Nicole Meyer
Description: The mineral is found as an inclusion in a diamond. This is the type sample.
Measured chemistry: (K_0.504_La_0.150_Sr_0.133_Ba_0.092_Ce_0.078_Ca_0.002_Th_0.001_)(Nb_0.695_Cr_0.192_Fe_0.051_Al_0.014_Mg_0.036_Ti_0.011_)O_3_
Raman shift (cm-1)	intensity
118.914	0
133.679	1211
148.421	2285.45
163.143	2315.95
177.84	1917
192.516	899.893
207.171	1068.61
221.804	1781.09
236.415	2851.93
251.003	3479.59
265.57	5096.92
280.116	7070.77
294.64	7453.14
309.142	7282.02
323.622	6787.68
338.08	5549.07
352.517	3708.93
366.932	2227.94
381.327	1211.11
395.699	114.1
410.05	1243.82
424.38	1306.95
438.689	1517.47
452.976	2132.82
467.241	1719.81
481.486	1361.13
495.71	1426.41
509.913	2191.57
524.093	3581.29
538.253	4846.64
552.392	5750.65
566.511	6321.77
580.608	6227.67
594.684	5991.2
608.739	5282.19
622.774	4520.16
636.788	3502.15
650.78	3005.85
664.752	3075.79
678.705	4292.68
692.635	6160.86
706.545	9852.91
720.436	15755.4
734.304	23735.2
748.153	33562.9
761.982	45740.1
775.788	60295.1
789.576	76213.9
803.344	90624.2
817.09	96875.3
830.817	87320.3
844.523	66533.6
858.208	45986.7
871.875	29978.8
885.52	18651
899.146	11653.4
912.751	7109.48
926.337	4431.58
939.902	2972.35
953.448	1784.57
966.973	1239.26
980.479	458.144
993.965	118.522
1007.43	0.212891
1020.88	169.51
1034.3	337.17
1047.71	240.643
1061.1	325.09
1074.46	310.398
1087.81	182.207
1101.14	270.1
1114.45	30.6211
1127.74	311.861
1141.01	531.191
1154.26	626.256
1167.49	598.215
1180.7	856.486
1193.89	438.209
1207.07	548.566
1220.22	490.553
1233.35	461.449
1246.47	514.812
1259.57	555.584
1272.64	433.731
1285.7	186.836
1298.74	173.231
1311.76	212.236
1324.76	370.908
1337.74	78.4883
1350.7	27.1035
1363.65	223.414
1376.57	524.488
1389.48	812.418
1402.37	846.717
1415.24	964.891
1428.09	1396.02
1440.92	1926.51
1453.73	2497.16
1466.52	2877.77
1479.3	3465.42
1492.06	4352.23
1504.79	5247.29
1517.51	6074.52
1530.21	6783.96
1542.9	7351.66
1555.56	8132.1
1568.21	8544.71
1580.84	9069.18
1593.44	9332.65
1606.04	9634.15
1618.61	9002.77
1631.16	8857.38
1643.7	8157.16
1656.22	7204.51
1668.72	6029.44
1681.2	5032.09
1693.66	4122.75
1706.11	3014.56
1718.54	2384.95
1730.95	1743.99
1743.34	991.209
1755.71	596.523
1768.07	281.076
1780.41	6.98828
1792.73	58.2578
1805.03	11.9219
1817.32	15.6172
1829.58	97.2402
1841.83	142.053
1854.07	90.2031
1866.28	162.453
1878.48	31.7969
1890.66	19.584
1902.82	108.893
1914.96	43.123
1927.09	45.8789
1939.2	33.334
1951.29	20.5488
1963.36	38.9785
1975.42	181.029
1987.46	175.336
1999.48	142.783
2011.49	84.4941
2023.47	231.772
2035.44	447.166
2047.4	356.258
2059.33	363.621
2071.25	376.594
2083.16	345.703
2095.04	226.387
2106.91	373.303
2118.76	417.139
2130.59	370.619
2142.41	105.463
2154.21	241.41
2165.99	153.894
2177.76	163.469
2189.51	4.97656
2201.24	90.5801
2212.96	34.6562
2224.66	144.6
2236.34	123.533
2248	74.4746
2259.65	233.07
2271.28	147.947
2282.9	123.475
2294.5	174.106
2306.08	257.217
2317.65	246.156
2329.2	781.479
2340.73	422.252
2352.24	332.315
2363.74	426.728
2375.23	352.568
2380.96	162.035
2386.69	216.906
2392.42	270.768
2398.14	141.379
2403.86	149.279
2409.58	278.232
2415.29	241.656
2421	204.475
2426.7	283.488
2432.4	168.615
2438.09	316.707
2443.79	104.668
2449.52	99.3848
2455.29	260.756
2461.06	280.779
2466.83	93.4961
2472.59	220.768
2478.34	291.211
2484.09	147.992
2489.84	333.85
2495.59	433.156
2501.33	398.785
2507.06	465.85
2512.8	440.285
2518.53	549.158
2524.25	627.578
2529.97	524.359
2539.98	297.336
2551.39	320.338
2562.8	220.195
2574.18	148.781
2585.55	126.809
2596.91	51.0762
2608.25	114.404
2619.58	1.05859
2630.89	30.0879
2642.18	119.258
2653.46	95.7988
2664.73	320.359
2675.98	361.967
2687.21	436.004
2698.43	413.102
2709.64	268.203
2720.83	370.256
2732	196.227
2743.16	239.086
2754.31	195.746
2765.44	148.898
2776.55	63.9062
2787.65	12.2305
2798.74	15.8906
2809.81	91.3516
2820.86	139.494
2831.91	148.428
2842.93	248.893
2853.94	363.59
2864.94	342.242
2875.92	444.625
2886.89	490.842
2897.84	243.992
2908.78	157.135
2919.7	223.453
2930.61	147.774
2941.51	187.033
2952.39	98.2344
2963.25	76.0596
2974.1	75.0332
2984.94	7.36231
2995.76	90.5859
3006.57	44.9971
3017.36	95.4951
3028.14	61.4883
3038.9	233.096
3049.65	236.483
3060.39	273.656
3071.11	187.829
3081.82	268.015
3092.51	149.235
3103.19	217.772
3113.85	197.102
3124.5	65.6709
3135.14	105.638
3145.76	46.1826
3156.37	151.872
3166.96	247.642
3177.54	260.234
3188.11	187.732
3198.66	233.935
3209.2	227.181
3219.72	251.379
3230.23	314.502
3240.72	199.848
3251.21	295.16
3261.67	59.1074
3272.12	154.621
3282.57	209.63
3292.99	71.8789
3303.41	10.1855
3313.8	111.529
3324.19	27.3682
3334.56	44.4883
3344.91	59.4531
3355.26	10.1533
3365.59	64.2207
3375.9	55.2578
3386.2	3.85156
3396.49	130.794
3406.77	133.829
3417.03	164.447
3427.28	48.5518
3437.51	155.209
3447.73	186.983
3457.94	96.8408
3468.13	104.996
3478.31	93.6982
3488.48	5.09082
3498.63	24.543
3508.77	58.1758
3518.9	49.5195
3529.01	172.123
3539.11	184.72
3549.2	133.701
3559.27	123.296
3569.33	140.101
3579.38	193.217
3589.41	185.607
3599.43	106.603
3609.44	116.636
3619.43	207.067
3629.41	47.668
3639.38	124.861
3649.33	84.8447
3659.27	50.9141
3669.2	13.8213
3679.11	79.8398
3689.01	153.768
3698.9	138.183
3708.78	144.662
3718.64	202.731
3728.49	147.931
3738.33	150.265
3748.15	109.356
3757.96	162.256
3767.76	18.0059
3777.54	264.405
3787.31	190.536
3797.07	113.592
3806.82	71.0303
3816.55	61.8154
3826.27	75.084
3835.98	30.5898
3845.68	50.627
3855.36	54.8076
3865.03	130.453
3874.69	72.9102
3884.33	62.5967
3893.96	96.8174
3903.58	96.3486
3913.19	73.1387
3922.78	128.102
3932.36	162.39
3941.93	96.1162
3951.48	86.9434
3961.03	70.5791
3970.56	128.835
3980.07	136.41
3989.58	48.3438
3999.07	2.0459
4008.55	196.801
4018.02	39.1406
4027.48	25.4902
4036.92	36.2051
4046.35	42.2832
4055.77	53.2451
4065.18	46.831
4074.57	66.4385
4083.95	62.8105
4093.32	115.319
4102.68	98.6152
4112.02	132.662
4121.36	152.025
4130.68	151.446
4139.98	192.928
4149.28	75.1064
4158.57	153.109
4167.84	116.606
4177.1	48.623
4186.34	187.999
4195.58	249.292
4204.8	56.25
4214.02	139.594
4223.21	122.807
4232.4	170.037
4241.58	86.2373
4250.74	51.1787
4259.89	73.8164
4269.03	90.7949
4278.15	99.7988
4287.27	60.2852
4296.37	103.268
4305.47	156.895
4314.55	84.4131
4323.61	46.6357
4332.67	106.083
4341.71	58.168
4350.74	84.8838
4359.76	32.8125
4368.77	119.086
4377.77	251.912
4386.76	69.2471
4395.73	81.8184
4404.69	33.8301
4413.64	1.41797
