Measurement: Raman, 532 nm, unoriented, Raman Data Processed
Mineral: Gotzenite
Rruff sample: R130110
Ideal chemistry: Ca_4_NaCa_2_Ti^4+^(Si_2_O_7_)_2_(OF)F_2_
Locality: Pocos de Caldas, Pocos de Caldas Plateau, Minas Gerais, Brazil
Source: Gunnar Farber
Description: Grey to pale brown aggregates of elongated crystals, associated with colorless nepheline, elongated pectolite, and white milky microcline.
Measured chemistry: Na_1.00_(Ca_4.23_Na_1.05_Zr_0.44_Mn_0.12_Sr_0.06_Ce_0.04_La_0.03_Fe_0.02_Y_0.02_Dy_0.01_)(Ti_0.90_Nd^5+^_0.10_)(Si_2.00_O_7_)_2_OF_2.98_
Raman shift (cm-1)	intensity
89.8438	0
93.2186	7.56586
96.5934	1.76913
99.9682	21.7704
103.343	20.0699
106.718	37.6337
110.093	46.6361
113.468	66.9505
116.842	77.0443
120.217	85.5584
123.592	90.7873
126.967	111.898
130.342	156.05
133.716	181.838
137.091	153.858
140.466	123.758
143.841	91.9917
147.216	60.005
150.59	49.1577
153.965	41.4734
157.34	24.2014
160.715	11.2733
164.09	6.34015
167.464	21.2482
170.839	30.7371
174.214	25.8736
177.589	18.5677
180.964	124.006
184.339	271.757
187.713	400.762
191.088	488.588
194.463	571.947
197.838	648.872
201.213	744.752
204.588	798.27
207.962	810.364
211.337	806.114
214.712	813.294
218.087	809.785
221.462	804.449
224.836	771.969
228.211	731.959
231.586	653.211
234.961	596.547
238.336	565.832
241.71	545.908
245.085	511.322
248.46	467.571
251.835	428.455
255.21	387.924
258.585	356.931
261.959	324.51
265.334	295.338
268.709	272.72
272.084	241.743
275.459	210.369
278.834	187.398
282.208	166.863
285.583	151.583
288.958	126.14
292.333	106.096
295.708	90.173
299.082	81.6631
302.457	73.6913
305.832	64.0779
309.207	56.353
312.582	50.4511
315.957	45.277
319.331	37.4268
322.706	30.6349
326.081	25.5458
329.456	21.1702
332.831	15.332
336.205	14.4093
339.58	1.45422
342.955	1.44922
346.33	5.69421
349.705	14.7767
353.079	19.0206
356.454	11.0719
359.829	8.49976
363.204	5.50403
366.579	22.7009
369.954	43.959
373.328	53.4009
376.703	70.5333
380.078	86.5032
383.453	95.4755
386.828	92.7919
390.202	89.3872
393.577	81.1686
396.952	73.0125
400.327	64.8208
403.702	66.246
407.077	68.2904
410.451	66.691
413.826	67.0295
417.201	61.6808
420.576	41.644
423.951	26.3367
427.325	16.83
430.7	6.49988
434.075	1.63306
437.45	3.70752
440.825	0.782715
444.2	4.34058
447.574	16.8171
450.949	27.4131
454.324	34.0254
457.699	34.3579
461.074	45.3449
464.448	45.6366
467.823	44.1986
471.198	51.5177
474.573	61.9751
477.948	66.0383
481.322	75.4337
484.697	73.0449
488.072	72.1351
491.447	77.5598
494.822	75.3439
498.197	72.4519
501.571	62.6924
504.946	47.3746
508.321	36.7478
511.696	25.8592
515.071	19.686
518.446	1.89502
521.82	4.45752
525.195	7.25537
528.57	13.0339
531.945	23.2592
535.32	44.8512
538.694	52.7811
542.069	68.033
545.444	78.6046
548.819	87.1335
552.194	81.3987
555.568	68.6344
558.943	56.8131
562.318	39.533
565.693	23.7834
569.068	16.1123
572.443	20.9708
575.817	32.7797
579.192	62.3418
582.567	97.4998
585.942	140.315
589.317	169.796
592.692	181.85
596.066	170.299
599.441	139.447
602.816	93.1909
606.191	59.6724
609.566	22.4377
612.94	7.83789
616.315	1.56152
619.69	0.04541
623.065	1.10205
626.44	1.94238
629.814	0.488281
633.189	15.129
636.564	32.8163
639.939	54.8911
643.314	80.1223
646.688	115.965
650.063	161.704
653.438	211.073
656.813	257.075
660.188	289.767
663.563	297.573
666.937	273.662
670.312	232.061
673.687	182.351
677.062	132.101
680.437	97.3397
683.812	79.0619
687.186	70.5214
690.561	61.9965
693.936	47.694
697.311	39.2783
700.686	24.9793
704.06	24.2275
707.435	19.2513
710.81	10.5432
714.185	5.72009
717.56	0.64917
720.934	0.120361
724.309	0.983276
727.684	5.80518
731.059	7.87756
734.434	0.148438
737.809	0.900757
741.183	0.874878
744.558	15.1122
747.933	30.2152
751.308	31.0773
754.683	33.5555
758.058	39.7256
761.432	52.8557
764.807	65.7593
768.182	74.6885
771.557	76.0017
774.932	88.0754
778.306	88.1218
781.681	90.0063
785.056	88.1431
788.431	98.2991
791.806	132.737
795.181	143.849
798.555	168.01
801.93	185.531
805.305	203.136
808.68	223.315
812.055	232.414
815.429	234.869
818.804	240.282
822.179	245.285
825.554	235.731
828.929	217.94
832.303	204.297
835.678	200.87
839.053	187.498
842.428	168.705
845.803	141.031
849.178	99.5195
852.552	68.4827
855.927	51.3518
859.302	27.8355
862.677	14.3535
866.052	5.64819
869.427	4.34375
872.801	1.3894
876.176	8.24609
879.551	18.4959
882.926	12.467
886.301	17.4211
889.675	23.6577
893.05	21.8848
896.425	16.9692
899.8	12.895
903.175	12.5703
906.549	10.5322
909.924	13.436
913.299	7.17798
916.674	7.73633
920.049	1.41772
923.423	1.67334
926.798	2.62769
930.173	8.7002
933.548	2.38989
936.923	2.99194
940.298	8.36963
943.672	8.30615
947.047	20.8618
950.422	17.1226
953.797	7.48657
957.172	3.38769
960.547	5.14453
963.921	5.92896
967.296	6.69507
970.671	1.42798
974.046	7.70264
977.421	7.93408
980.795	2.29956
984.17	8.9519
987.545	14.7693
990.92	16.3308
994.295	15.4592
997.669	21.7752
1001.04	23.5613
1004.42	17.6846
1007.79	11.7605
1011.17	11.6448
1014.54	15.0068
1017.92	14.7893
1021.29	19.4197
1024.67	21.0708
1028.04	32.918
1031.42	39.179
1034.79	49.5474
1038.17	48.5168
1041.54	57.1731
1044.92	73.5918
1048.29	71.6411
1051.67	68.9141
1055.04	69.0273
1058.42	62.929
1061.79	53.7407
1065.17	52.2378
1068.54	49.8601
1071.92	50.9055
1075.29	46.7205
1078.66	44.0532
1082.04	50.9468
1085.41	51.2837
1088.79	48.1489
1092.16	35.0769
1095.54	24.5442
1098.91	21.2625
1102.29	19.8579
1105.66	16.4368
1109.04	10.1045
1112.41	15.4912
1115.79	10.5911
1119.16	12.2761
1122.54	9.89697
1125.91	4.27222
1129.29	5.60596
1132.66	3.58496
1136.04	5.85474
1139.41	0.531982
1142.79	0.163818
1146.16	4.39673
1149.54	5.18359
1152.91	2.52197
1156.29	2.07007
1159.66	0.979492
1163.04	3.26856
1166.41	0.738281
1169.79	1.26099
1173.16	5.95947
1176.54	14.0022
1179.91	7.62158
1183.28	12.3369
1186.66	7.03882
1190.03	5.07544
1193.41	7.0437
1196.78	18.364
1200.16	16.1848
1203.53	10.8713
1206.91	10.0127
1210.28	12.9988
1213.66	16.7656
1217.03	11.3667
1220.41	2.08398
1223.78	6.20337
1227.16	7.3479
1230.53	5.96631
1233.91	8.22315
1237.28	2.92554
1240.66	1.20703
1244.03	5.55908
1247.41	6.63037
1250.78	7.73462
1254.16	6.12256
1257.53	8.00854
1260.9	13.0124
1264.28	12.4724
1267.65	9.70337
1271.03	7.41235
1274.4	4.31372
1277.78	5.59546
1281.15	8.85571
1284.53	4.21777
1287.9	4.67017
1291.28	1.91846
1294.65	7.36157
1298.03	2.79028
1301.4	2.03174
