Measurement: Raman, 532 nm, unoriented, Raman Data Processed
Mineral: Gotzenite
Rruff sample: R141182
Ideal chemistry: Ca_4_NaCa_2_Ti^4+^(Si_2_O_7_)_2_(OF)F_2_
Locality: Po√ßos De Caldas, Minas Gerais, Brazil
Source: Marcelo B. Andrade
Description: Brown prismatic crystals
Measured chemistry: Na_1.00_(Ca_4.77_Na_0.62_Ce_0.12_Mn_0.12_Sr_0.10_Zr_0.07_Fe_0.07_La_0.06_Nd_0.04_Y_0.03_Dy_0.02_)(Ti_0.90_Zr_0.06_Nb_0.04_)(Si_2.01_O_7_)_2_OF_3.06_  ; lighter areas
Raman shift (cm-1)	intensity
89.7832	0
93.158	80.52
96.5328	40.1094
99.9077	11.1804
103.282	27.5535
106.657	105.353
110.032	207.778
113.407	269.089
116.782	336.301
120.157	328.219
123.531	313.496
126.906	278.181
130.281	250.891
133.656	205.129
137.031	180.626
140.405	180.357
143.78	136.62
147.155	118.832
150.53	91.3257
153.905	90.939
157.28	65.8235
160.654	43.1887
164.029	35.2234
167.404	19.1213
170.779	9.02979
174.154	1.28662
177.528	6.88794
180.903	15.8652
184.278	4.02148
187.653	0.11377
191.028	7.82202
194.403	13.228
197.777	29.1716
201.152	42.7483
204.527	71.792
207.902	98.5405
211.277	132.93
214.651	178.8
218.026	211.74
221.401	219.361
224.776	217.048
228.151	202.035
231.525	188.912
234.9	167.714
238.275	158.313
241.65	148.983
245.025	116.252
248.4	94.5547
251.774	65.3679
255.149	59.125
258.524	49.8162
261.899	38.2405
265.274	26.1309
268.649	22.1301
272.023	20.103
275.398	16.6912
278.773	12.8093
282.148	6.16406
285.523	0.319092
288.897	0.405762
292.272	0.597168
295.647	1.81738
299.022	12.5774
302.397	31.4602
305.772	82.1218
309.146	147.486
312.521	224.289
315.896	291.482
319.271	352.533
322.646	398.075
326.02	398.006
329.395	348.292
332.77	272.252
336.145	217.712
339.52	189.378
342.894	156.761
346.269	115.428
349.644	69.3037
353.019	25.301
356.394	4.09448
359.769	8.00049
363.143	6.69751
366.518	30.1834
369.893	57.2893
373.268	108.635
376.643	154.977
380.017	194.471
383.392	225.1
386.767	264.786
390.142	277.448
393.517	283.366
396.892	292.187
400.266	301.363
403.641	329.71
407.016	357.598
410.391	386.444
413.766	427.87
417.14	443.789
420.515	414.666
423.89	340.34
427.265	247.726
430.64	150.96
434.014	70.9883
437.389	10.561
440.764	18.8623
444.139	29.6047
447.514	22.9565
450.889	0.307129
454.263	49.7217
457.638	113.499
461.013	160.987
464.388	206.804
467.763	254.337
471.137	307.159
474.512	335.606
477.887	353.435
481.262	363.096
484.637	354.504
488.012	336.917
491.386	316.411
494.761	298.641
498.136	260.709
501.511	205.918
504.886	142.858
508.26	100.416
511.635	80.0169
515.01	74.1602
518.385	52.9197
521.76	52.1414
525.135	63.5029
528.509	86.9377
531.884	131.012
535.259	182.506
538.634	241.532
542.009	300.586
545.384	368.2
548.758	426.649
552.133	426.484
555.508	386.335
558.883	315.202
562.258	248.592
565.632	182.294
569.007	147.769
572.382	152.322
575.757	222.189
579.132	341.581
582.506	496.222
585.881	682.006
589.256	836.542
592.631	899.605
596.006	850.06
599.38	695.606
602.755	498.416
606.13	305.292
609.505	156.123
612.88	48.7883
616.255	11.6729
619.629	37.0342
623.004	36.0356
626.379	5.5354
629.754	44.2473
633.129	111.377
636.504	207.619
639.878	330.541
643.253	438.322
646.628	596.295
650.003	817.109
653.378	1072.23
656.752	1307.89
660.127	1537.02
663.502	1685.13
666.877	1667.63
670.252	1455.28
673.626	1134.2
677.001	818.56
680.376	577.872
683.751	426.724
687.126	325.921
690.5	270.662
693.875	217.972
697.25	177.678
700.625	137.889
704	103.296
707.375	70.3491
710.75	40.9236
714.124	9.74707
717.499	20.2124
720.874	35.0789
724.249	33.7378
727.624	21.4983
730.998	16.0669
734.373	19.4844
737.748	66.7078
741.123	112.753
744.498	193.073
747.872	292.137
751.247	409.381
754.622	509.569
757.997	623.453
761.372	734.234
764.746	840.13
768.121	930.647
771.496	1018.43
774.871	1073.04
778.246	1096.84
781.621	1123.8
784.995	1172.86
788.37	1236.36
791.745	1340.41
795.12	1470.44
798.495	1627.08
801.87	1784.54
805.244	1933.53
808.619	2059.67
811.994	2092.29
815.369	2093.6
818.744	2054.3
822.118	1969.11
825.493	1811.74
828.868	1635.33
832.243	1456.3
835.618	1281.39
838.992	1123.72
842.367	984.981
845.742	833.993
849.117	686.429
852.492	558.771
855.867	447.824
859.241	354.331
862.616	264.373
865.991	166.199
869.366	85.9517
872.741	28.7109
876.115	16.8677
879.49	34.0986
882.865	42.2739
886.24	27.3477
889.615	5.11279
892.99	17.6416
896.364	36.1235
899.739	60.5503
903.114	88.6992
906.489	120.666
909.864	161.007
913.239	194.226
916.613	227.791
919.988	243.739
923.363	256.877
926.738	257.166
930.112	256.234
933.487	270.447
936.862	257.039
940.237	261.375
943.612	277.729
946.987	311.46
950.361	343.06
953.736	331.405
957.111	265.897
960.486	164.347
963.861	75.3691
967.236	25.7451
970.61	15.3623
973.985	15.8296
977.36	19.8657
980.735	15.2393
984.11	6.09326
987.484	2.07617
990.859	7.01318
994.234	5.78369
997.609	12.5332
1000.98	39.6743
1004.36	56.0459
1007.73	81.8672
1011.11	101.069
1014.48	124.612
1017.86	129.814
1021.23	145.95
1024.61	171.355
1027.98	226.711
1031.36	262.727
1034.73	324.676
1038.11	381.778
1041.48	451.455
1044.86	509.791
1048.23	563.79
1051.61	596.507
1054.98	611.437
1058.36	614.114
1061.73	616.2
1065.11	641.665
1068.48	692.764
1071.86	734.668
1075.23	782.837
1078.6	824.485
1081.98	854.21
1085.35	865.494
1088.73	836.433
1092.1	791.721
1095.48	722.285
1098.85	666.115
1102.23	628.321
1105.6	600.664
1108.98	576.998
1112.35	563.036
1115.73	512.509
1119.1	433.312
1122.48	357.177
1125.85	271.611
1129.23	208.539
1132.6	162.879
1135.98	133.155
1139.35	90.6262
1142.73	57.4441
1146.1	30.0037
1149.48	11.3623
1152.85	11.5247
1156.22	11.5718
1159.6	5.0835
1162.97	13.2852
1166.35	21.5518
1169.72	31.53
1173.1	23.0598
1176.47	3.74341
1179.85	5.56689
1183.22	28.7209
1186.6	57.8547
1189.97	50.8794
1193.35	40.2749
1196.72	19.5356
1200.1	12.406
1203.47	8.93286
1206.85	27.1035
1210.22	30.1853
1213.6	47.9331
1216.97	55.5376
1220.35	77.1963
1223.72	89.6863
1227.1	82.0635
1230.47	83.4487
1233.85	65.2544
1237.22	57.3528
1240.6	59.3057
1243.97	66.7329
1247.35	84.8479
1250.72	86.0432
1254.1	80.3962
1257.47	72.4524
1260.85	54.1248
1264.22	41.9973
1267.59	19.6792
1270.97	8.21191
1274.34	7.25806
1277.72	11.3965
1281.09	7.68652
1284.47	3.02808
1287.84	20.3213
1291.22	18.1916
1294.59	14.272
1297.97	7.77588
1301.34	0.026367
