Measurement: Raman, 780 nm, unoriented, Raman Data Processed
Mineral: Grossular
Rruff sample: R141207
Ideal chemistry: Ca_3_Al_2_(SiO_4_)_3_
Locality: Katkamsandi, Hazaribagh District, Jharkhand, India
Source: Rock Currier
Description: Massive, vitreous, dark brown fragment
Measured chemistry: (Ca_2.90_Mg_0.02_Mn^2+^_0.03_)_Σ=2.95_(Al^3+^_1.08_Fe^3+^_0.92_Ti_0.03_)_Σ=2.03_[(Si_0.96_Al_0.04_)_Σ=1_O_4_]_3_
Raman shift (cm-1)	intensity
91.5599	0
94.9347	20.9008
98.3096	3.15784
101.684	1.42328
105.059	3.07971
108.434	12.6869
111.809	0.81012
115.184	0.118439
118.558	1.55603
121.933	6.04414
125.308	11.8258
128.683	10.0563
132.058	12.6786
135.433	8.99641
138.807	10.0387
142.182	6.91701
145.557	2.31371
148.932	1.98451
152.307	2.49532
155.681	9.13632
159.056	14.1432
162.431	18.1633
165.806	20.8055
169.181	23.1861
172.555	29.0581
175.93	33.9356
179.305	37.9291
182.68	30.3549
186.055	23.5091
189.43	22.033
192.804	20.6574
196.179	18.8341
199.554	18.5587
202.929	15.5618
206.304	11.8281
209.678	10.3767
213.053	8.86015
216.428	9.94331
219.803	11.1512
223.178	12.807
226.553	14.7669
229.927	19.9858
233.302	24.9793
236.677	28.613
240.052	33.3236
243.427	38.2379
246.801	25.4689
250.176	12.3628
253.551	6.68624
256.926	4.28841
260.301	5.27657
263.675	5.40779
267.05	5.07946
270.425	7.66902
273.8	8.67366
277.175	4.94108
280.55	2.78548
283.924	0.6418
287.299	0.598106
290.674	2.10842
294.049	1.96297
297.424	0.597191
300.798	1.14189
304.173	3.56315
307.548	6.88322
310.923	10.0379
314.298	14.2957
317.673	22.2643
321.047	29.7865
324.422	32.9697
327.797	25.906
331.172	18.2599
334.547	18.8516
337.921	21.6928
341.296	23.4732
344.671	29.4682
348.046	39.407
351.421	53.5694
354.796	80.2439
358.17	115.286
361.545	156.18
364.92	179.073
368.295	208.364
371.67	251.109
375.044	249.244
378.419	168.366
381.794	96.8751
385.169	61.2558
388.544	42.1004
391.918	30.7863
395.293	23.8183
398.668	19.9149
402.043	17.3967
405.418	15.1053
408.793	7.59047
412.167	1.84281
415.542	0.301033
418.917	1.4875
422.292	0.395714
425.667	1.20293
429.041	0.65567
432.416	0.434563
435.791	0.05304
439.166	1.91645
442.541	2.69928
445.915	3.00986
449.29	3.2076
452.665	3.28468
456.04	3.68415
459.415	4.9082
462.789	3.53313
466.164	3.06376
469.539	2.88958
472.914	2.1127
476.289	2.80051
479.664	2.57063
483.038	4.35586
486.413	5.65696
489.788	6.88142
493.163	8.25281
496.538	7.61484
499.913	7.46464
503.287	7.24724
506.662	6.63135
510.037	7.20888
513.412	6.80392
516.787	9.77439
520.161	14.843
523.536	21.2857
526.911	32.4591
530.286	47.7481
533.661	64.1412
537.035	61.389
540.41	34.1088
543.785	15.1281
547.16	8.95817
550.535	6.79802
553.909	6.66358
557.284	6.22044
560.659	6.60751
564.034	6.82935
567.409	5.21334
570.784	3.90946
574.158	2.70697
577.533	1.39157
580.908	0.450153
584.283	0.922169
587.658	0.802807
591.033	0.561264
594.407	0.045898
597.782	1.5221
601.157	1.19568
604.532	3.2171
607.907	3.39903
611.281	3.94734
614.656	3.99942
618.031	4.13496
621.406	3.71391
624.781	2.99271
628.155	2.01134
631.53	0.485863
634.905	0.595352
638.28	0.233456
641.655	0.451794
645.029	1.14712
648.404	2.06444
651.779	3.56258
655.154	6.71222
658.529	10.1638
661.904	15.5122
665.278	21.2989
668.653	20.0973
672.028	14.2
675.403	8.756
678.778	5.59765
682.153	3.83933
685.527	2.85342
688.902	2.31751
692.277	2.28501
695.652	2.22946
699.027	2.20056
702.401	1.9777
705.776	2.04353
709.151	1.6321
712.526	1.43013
715.901	1.54493
719.275	0.981277
722.65	0.592396
726.025	0.060802
729.4	0.083771
732.775	0.521507
736.149	0.348972
739.524	0.132294
742.899	0.327763
746.274	0.329208
749.649	0.870701
753.024	0.737156
756.398	0.125076
759.773	0.971867
763.148	0.039196
766.523	0.885929
769.898	0.305786
773.273	1.20827
776.647	0.161636
780.022	0.067162
783.397	0.690987
786.772	1.43282
790.146	2.02133
793.521	3.11042
796.896	6.3197
800.271	11.2139
803.646	17.4002
807.021	26.4602
810.395	36.1605
813.77	46.0973
817.145	58.2836
820.52	67.4823
823.895	69.6303
827.269	61.6169
830.644	49.3147
834.019	39.2753
837.394	32.0985
840.769	29.026
844.144	28.8725
847.518	26.9746
850.893	26.777
854.268	27.4949
857.643	29.177
861.018	32.345
864.393	40.772
867.767	54.7797
871.142	72.8498
874.517	94.0379
877.892	110.685
881.266	106.186
884.641	82.4737
888.016	54.5018
891.391	34.5025
894.766	22.5073
898.141	14.977
901.515	9.91103
904.89	6.06447
908.265	3.56474
911.64	1.65744
915.015	0.885414
918.389	0.049255
921.764	0.542217
925.139	0.304779
928.514	1.30244
931.889	0.161781
935.264	0.544624
938.638	1.82869
942.013	2.59008
945.388	1.79239
948.763	0.505802
952.138	0.212406
955.512	0.283989
958.887	0.035919
962.262	1.14628
965.637	2.47551
969.012	3.03545
972.386	3.79213
975.761	4.28776
979.136	5.64297
982.511	6.06545
985.886	6.58651
989.261	7.19864
992.635	7.27252
996.01	8.51571
999.385	10.0698
1002.76	11.2603
1006.13	13.687
1009.51	15.7732
1012.88	17.2506
1016.26	14.5165
1019.63	7.19095
1023.01	4.18076
1026.38	2.95599
1029.76	2.19836
1033.13	1.83603
1036.51	2.74357
1039.88	2.23886
1043.26	2.60265
1046.63	2.87088
1050.01	2.40831
1053.38	1.82353
1056.76	1.67323
1060.13	1.0775
1063.51	0.839912
1066.88	0.560375
1070.26	0.432762
1073.63	0.271687
1077.01	0.731106
1080.38	0.325504
1083.76	0.436508
1087.13	0.063362
1090.51	0.194626
1093.88	0.014893
1097.26	0.040459
1100.63	0.271397
1104	0.063065
1107.38	0.191647
1110.75	0.572586
1114.13	0.217443
1117.5	0.247234
1120.88	0.545542
1124.25	0.675854
1127.63	1.27983
1131	0.394861
1134.38	0.782787
1137.75	0.790131
1141.13	1.05627
1144.5	0.719727
1147.88	0.638165
1151.25	0.454378
1154.63	0.633823
1158	0.771429
1161.38	0.154539
1164.75	0.096949
1168.13	0.264297
1171.5	0.082422
1174.88	0.524641
1178.25	0.166491
1181.62	0.460533
1185	0.703196
1188.38	0.303305
1191.75	0.914953
1195.12	0.448109
1198.5	1.31879
1201.87	0.676155
1205.25	0.560471
1208.62	0.77808
1212	0.900017
1215.37	0.639366
1218.75	0.895817
1222.12	0.295284
1225.5	0.313713
1228.87	0.344101
1232.25	0.319126
1235.62	0.13512
1239	0.316113
1242.37	0.519447
1245.75	0.53558
1249.12	0.678638
1252.5	1.31132
1255.87	1.73487
1259.25	1.96117
1262.62	2.07688
1265.99	2.3502
1269.37	2.86166
1272.74	2.01465
1276.12	1.70269
1279.49	0.730793
1282.87	0.022591
