Measurement: Raman, 532 nm, unoriented, Raman Data Processed
Mineral: Grossular
Rruff sample: R141207
Ideal chemistry: Ca_3_Al_2_(SiO_4_)_3_
Locality: Katkamsandi, Hazaribagh District, Jharkhand, India
Source: Rock Currier
Description: Massive, vitreous, dark brown fragment
Measured chemistry: (Ca_2.90_Mg_0.02_Mn^2+^_0.03_)_Σ=2.95_(Al^3+^_1.08_Fe^3+^_0.92_Ti_0.03_)_Σ=2.03_[(Si_0.96_Al_0.04_)_Σ=1_O_4_]_3_
Raman shift (cm-1)	intensity
89.7832	0
93.158	12.8985
96.5328	12.5056
99.9077	5.37359
103.282	4.72027
106.657	0.235031
110.032	17.281
113.407	3.70849
116.782	10.1224
120.157	14.5791
123.531	9.58869
126.906	15.0389
130.281	9.2832
133.656	11.8908
137.031	6.37539
140.405	8.23999
143.78	7.84903
147.155	4.461
150.53	5.75088
153.905	6.31445
157.28	12.1188
160.654	12.4196
164.029	17.3849
167.404	22.7757
170.779	30.7869
174.154	49.3139
177.528	76.6062
180.903	67.0205
184.278	29.6531
187.653	14.2293
191.028	8.97411
194.403	3.88809
197.777	2.26004
201.152	0.303391
204.527	0.514786
207.902	1.03478
211.277	2.02631
214.651	0.809982
218.026	4.22745
221.401	11.093
224.776	21.2522
228.151	37.9124
231.525	57.9513
234.9	77.9928
238.275	94.8971
241.65	116.475
245.025	110.602
248.4	43.0225
251.774	10.8122
255.149	2.73863
258.524	2.56369
261.899	2.84605
265.274	8.59198
268.649	15.7133
272.023	28.9782
275.398	33.7182
278.773	24.053
282.148	16.6956
285.523	10.0746
288.897	1.71347
292.272	2.33675
295.647	5.09912
299.022	1.94968
302.397	2.16328
305.772	9.81984
309.146	18.035
312.521	27.9578
315.896	44.0392
319.271	69.7513
322.646	97.5827
326.02	86.515
329.395	64.0988
332.77	62.0319
336.145	78.6054
339.52	97.2599
342.894	115.352
346.269	157.535
349.644	225.401
353.019	325.832
356.394	490.72
359.769	721.962
363.143	929.019
366.518	1039.96
369.893	1244.64
373.268	1457.9
376.643	1226.33
380.017	718.661
383.392	407.597
386.767	255.037
390.142	171.456
393.517	125.43
396.892	98.6335
400.266	88.8553
403.641	79.1627
407.016	50.6883
410.391	23.3243
413.766	9.04094
417.14	0.231888
420.515	3.9319
423.89	4.25554
427.265	4.17383
430.64	2.8237
434.014	0.328827
437.389	4.98418
440.764	11.74
444.139	15.5852
447.514	17.1777
450.889	17.0555
454.263	20.4289
457.638	19.1687
461.013	15.6929
464.388	13.5193
467.763	8.73508
471.137	9.56016
474.512	8.29804
477.887	11.8286
481.262	21.2155
484.637	38.7315
488.012	50.4744
491.386	55.993
494.761	56.0128
498.136	52.5193
501.511	43.8304
504.886	33.4792
508.26	23.3285
511.635	20.4179
515.01	26.2802
518.385	45.7878
521.76	88.2011
525.135	147.497
528.509	225.082
531.884	326.723
535.259	382.216
538.634	270.989
542.009	105.115
545.384	33.5552
548.758	11.4797
552.133	7.13112
555.508	8.92078
558.883	13.4321
562.258	14.8289
565.632	11.8823
569.007	8.09743
572.382	2.74136
575.757	0.651993
579.132	1.27394
582.506	2.99823
585.881	0.787979
589.256	3.88881
592.631	11.5878
596.006	23.4159
599.381	33.4034
602.755	39.7933
606.13	44.9569
609.505	49.6461
612.88	53.2093
616.255	52.5812
619.63	49.3071
623.004	41.9524
626.379	28.2511
629.754	18.3408
633.129	9.60304
636.504	4.45039
639.878	2.26146
643.253	0.077385
646.628	0.406647
650.003	0.845146
653.378	1.81622
656.752	2.33264
660.127	3.82478
663.502	5.3962
666.877	8.48042
670.252	8.8213
673.626	8.9092
677.001	8.707
680.376	9.76075
683.751	10.105
687.126	10.2905
690.501	11.4744
693.875	12.4951
697.25	13.2624
700.625	14.3411
704	13.8318
707.375	12.9986
710.75	11.6051
714.124	10.089
717.499	8.89018
720.874	8.18675
724.249	7.28628
727.624	5.46956
730.998	4.5503
734.373	3.68875
737.748	2.00516
741.123	0.048744
744.498	0.389412
747.872	1.41669
751.247	1.91287
754.622	3.53056
757.997	3.0562
761.372	1.39592
764.747	0.507553
768.121	1.07298
771.496	5.7397
774.871	1.17792
778.246	1.4272
781.621	0.225342
784.995	3.15393
788.37	6.86383
791.745	15.8701
795.12	33.2699
798.495	62.1079
801.87	106.041
805.244	165.338
808.619	238.783
811.994	312.107
815.369	384.216
818.744	456.032
822.119	497.012
825.493	468.446
828.868	396.945
832.243	322.913
835.618	269.171
838.993	228.87
842.367	213.632
845.742	212.423
849.117	212.918
852.492	206.859
855.867	202.188
859.241	212.712
862.616	257.404
865.991	332.962
869.366	444.466
872.741	582.523
876.115	726.926
879.49	805.938
882.865	724.226
886.24	533.382
889.615	354.915
892.99	232.708
896.364	156.671
899.739	105.389
903.114	68.0227
906.489	40.9292
909.864	19.8315
913.239	7.62616
916.613	1.07666
919.988	4.63013
923.363	5.88112
926.738	5.73334
930.113	1.79692
933.487	6.20956
936.862	16.5233
940.237	26.1275
943.612	28.4577
946.987	20.6171
950.361	11.448
953.736	1.6889
957.111	1.80528
960.486	2.22069
963.861	11.5019
967.236	22.7194
970.61	36.1257
973.985	42.7659
977.36	53.9496
980.735	59.0136
984.11	63.0168
987.485	65.9879
990.859	69.5657
994.234	73.7161
997.609	77.7176
1000.98	80.4252
1004.36	74.9656
1007.73	54.5891
1011.11	32.7488
1014.48	17.1344
1017.86	7.90237
1021.23	4.71316
1024.61	2.43824
1027.98	2.33462
1031.36	0.540588
1034.73	0.340271
1038.11	0.427582
1041.48	0.0812
1044.86	0.612946
1048.23	0.199699
1051.61	1.28953
1054.98	0.308022
1058.36	0.048386
1061.73	0.028481
1065.11	0.206421
1068.48	0.166939
1071.86	0.084114
1075.23	0.587761
1078.6	1.44167
1081.98	0.960587
1085.35	0.560326
1088.73	1.15257
1092.1	1.20248
1095.48	1.30225
1098.85	1.56612
1102.23	1.83094
1105.6	3.02554
1108.98	3.83765
1112.35	4.86722
1115.73	4.49007
1119.1	5.51965
1122.48	5.57433
1125.85	3.99715
1129.23	5.21249
1132.6	4.63177
1135.98	4.55721
1139.35	4.29343
1142.73	4.20893
1146.1	3.23428
1149.48	2.78983
1152.85	1.45446
1156.22	2.02381
1159.6	1.37077
1162.97	0.452347
1166.35	0.884979
1169.72	0.1436
1173.1	0.597801
1176.47	0.195518
1179.85	0.612793
1183.22	0.050636
1186.6	1.47281
1189.97	1.59702
1193.35	1.75495
1196.72	2.10104
1200.1	1.56425
1203.47	2.56367
1206.85	4.09422
1210.22	3.43498
1213.6	3.2001
1216.97	4.32158
1220.35	3.92179
1223.72	4.5648
1227.1	4.92445
1230.47	4.60171
1233.85	4.36302
1237.22	4.58695
1240.6	4.17069
1243.97	2.8741
1247.35	2.68701
1250.72	2.19994
1254.1	1.52492
1257.47	1.92617
1260.85	0.924103
1264.22	1.18223
1267.59	0.259712
1270.97	0.527855
1274.34	0.077263
1277.72	0.747761
1281.09	0.007496
1284.47	4.69855
1287.84	0.0965
1291.22	0.558968
1294.59	0.536598
1297.97	0.381943
1301.34	0.003513
