Measurement: Raman, 780 nm, unoriented, Raman Data Processed
Mineral: Hemihedrite
Rruff sample: R141184
Ideal chemistry: Pb^2+^_10_Zn^2+^(Cr^6+^O_4_)_6_(SiO_4_)_2_(OH)_2_
Locality: Rat Tail Claim, Wickenburg Area, Belmont Mts, Maricopa County, Arizona, USA
Source: Marcus Origlieri
Description: Brown translucent spears
Measured chemistry: Pb_9.94_(Zn_0.91_Mg_0.02_)_∑=0.93_(Cr_5.91_S_0.08_P_0.02_)_∑=6.01_(Si_1.88_As_0.02_)_∑=1.90_O_34_H_2.62_ ; H_2_O calculated to achieve 34 O atoms.
Raman shift (cm-1)	intensity
91.5599	0
94.9347	368.896
98.3096	573.033
101.684	717.305
105.059	697.38
108.434	523.745
111.809	369.56
115.184	317.861
118.558	209.892
121.933	123.434
125.308	60.488
128.683	2.34717
132.058	36.6917
135.433	39.5518
138.807	10.9399
142.182	23.0005
145.557	41.6586
148.932	52.0131
152.307	89.8807
155.681	125.576
159.056	155.161
162.431	177.756
165.806	197.842
169.181	206.413
172.555	204.43
175.93	192.366
179.305	170.32
182.68	148.446
186.055	123.852
189.43	93.3453
192.804	61.9683
196.179	32.6719
199.554	20.9518
202.929	25.0476
206.304	31.1011
209.678	40.1346
213.053	55.7398
216.428	69.9794
219.803	81.0194
223.178	84.1334
226.553	85.7704
229.927	90.3151
233.302	75.4016
236.677	69.1968
240.052	62.6379
243.427	53.5356
246.801	45.0923
250.176	32.8449
253.551	36.8778
256.926	11.2736
260.301	2.32733
263.675	5.06641
267.05	11.083
270.425	17.6173
273.8	19.4381
277.175	17.2449
280.55	12.1577
283.924	5.50449
287.299	5.19083
290.674	25.3935
294.049	46.8355
297.424	78.6606
300.798	120.024
304.173	178.229
307.548	252.957
310.923	358.53
314.298	514.724
317.673	747.836
321.047	1068.85
324.422	1525.28
327.797	2137.35
331.172	2864.69
334.547	3575.29
337.921	4057.95
341.296	4208.25
344.671	4152.1
348.046	3931.16
351.421	3759.49
354.796	3782.85
358.17	3697.48
361.545	3193.57
364.92	2622.66
368.295	2365.89
371.67	2252.91
375.044	2059.42
378.419	1773.49
381.794	1596.34
385.169	1426.1
388.544	1339.35
391.918	1295.83
395.293	1045.57
398.668	693.227
402.043	439.971
405.418	291.885
408.793	193.889
412.167	116.204
415.542	65.3837
418.917	33.6875
422.292	15.4714
425.667	4.6192
429.041	4.42246
432.416	8.51034
435.791	10.6513
439.166	9.38648
442.541	12.04
445.915	11.9003
449.29	10.8186
452.665	7.21344
456.04	0.930008
459.415	2.22408
462.789	8.36723
466.164	19.5617
469.539	21.1051
472.914	28.6351
476.289	34.8602
479.664	45.3909
483.038	55.7242
486.413	65.1469
489.788	73.7413
493.163	78.9467
496.538	79.2123
499.913	68.1047
503.287	52.6756
506.662	42.4469
510.037	32.3501
513.412	26.2702
516.787	22.5941
520.161	20.8255
523.536	20.1553
526.911	22.4324
530.286	23.8635
533.661	26.0093
537.035	22.5325
540.41	17.0949
543.785	12.5512
547.16	8.64036
550.535	6.37662
553.909	2.93488
557.284	1.99887
560.659	0.921486
564.034	0.290924
567.409	0.226967
570.784	4.92756
574.158	0.093575
577.533	0.276085
580.908	1.52821
584.283	3.18339
587.658	3.04154
591.033	3.62782
594.407	5.94451
597.782	8.44959
601.157	10.1773
604.532	13.0815
607.907	14.5195
611.281	16.7535
614.656	19.0726
618.031	21.7421
621.406	25.2012
624.781	27.9908
628.155	31.5251
631.53	35.4472
634.905	41.2514
638.28	45.5972
641.655	50.7888
645.029	55.1274
648.404	59.5646
651.779	66.259
655.154	71.6698
658.529	77.3937
661.904	83.1455
665.278	90.1261
668.653	95.3025
672.028	99.7665
675.403	108.163
678.778	116.165
682.153	123.99
685.527	130.023
688.902	135.253
692.277	135.214
695.652	129.847
699.027	120.704
702.401	109.165
705.776	98.6427
709.151	84.801
712.526	71.4964
715.901	56.9218
719.275	41.8089
722.65	28.1086
726.025	21.2084
729.4	3.31596
732.775	8.23933
736.149	17.5038
739.524	26.8201
742.899	31.3987
746.274	34.4141
749.649	28.3167
753.024	16.6984
756.398	5.99954
759.773	45.8388
763.148	112.356
766.523	207.572
769.898	343.377
773.273	512.107
776.647	703.549
780.022	895.558
783.397	1007.83
786.772	1003.83
790.146	895.611
793.521	778.004
796.896	725.043
800.271	746.516
803.646	864.029
807.021	1091.53
810.395	1432.61
813.77	1901.55
817.145	2515.19
820.52	3225.79
823.895	3847.18
827.269	4322.51
830.644	4666.5
834.019	5020.07
837.394	5411.63
840.769	5723.91
844.144	5692.14
847.518	5205.36
850.893	4464.9
854.268	3859.89
857.643	3547.69
861.018	3376.78
864.393	3107.32
867.767	2633.67
871.142	1999.24
874.517	1374.05
877.892	867.495
881.266	534.802
884.641	320.747
888.016	169.349
891.391	62.7071
894.766	5.70654
898.141	34.6282
901.515	25.2685
904.89	14.1166
908.265	62.322
911.64	98.5999
915.015	102.208
918.389	89.037
921.764	65.6583
925.139	36.5414
928.514	3.58893
931.889	16.5064
935.264	26.3185
938.638	25.0519
942.013	20.6239
945.388	8.82137
948.763	5.55145
952.138	21.0871
955.512	36.0457
958.887	48.9961
962.262	63.8
965.637	77.8111
969.012	98.2568
972.386	103.279
975.761	111.719
979.136	124.002
982.511	134.879
985.886	144.468
989.261	149.72
992.635	146.995
996.01	138.315
999.385	127.66
1002.76	114.237
1006.13	103.989
1009.51	96.1181
1012.88	89.2715
1016.26	85.6948
1019.63	81.0867
1023.01	77.5421
1026.38	74.5029
1029.76	70.9617
1033.13	67.3698
1036.51	62.8943
1039.88	57.9308
1043.26	53.1221
1046.63	49.9528
1050.01	45.0889
1053.38	39.423
1056.76	35.7351
1060.13	31.1004
1063.51	27.786
1066.88	24.7935
1070.26	21.8115
1073.63	18.9101
1077.01	16.2774
1080.38	13.6621
1083.76	19.0952
1087.13	11.8332
1090.51	8.25011
1093.88	6.6432
1097.26	5.26298
1100.63	3.5827
1104	2.07285
1107.38	2.02583
1110.75	0.877937
1114.13	0.333145
1117.5	0.081707
1120.88	1.32707
1124.25	0.902107
1127.63	0.361217
1131	1.73991
1134.38	1.19214
1137.75	0.747772
1141.13	0.755329
1144.5	0.004051
1147.88	0.577843
1151.25	0.167889
1154.63	0.645893
1158	0.160088
1161.38	0.308617
1164.75	0.80851
1168.13	0.165993
1171.5	0.065147
1174.88	0.215408
1178.25	0.866108
1181.62	0.335735
1185	0.310699
1188.38	0.156124
1191.75	0.561825
1195.12	0.700645
1198.5	1.27628
1201.87	0.819252
1205.25	1.24556
1208.62	1.51418
1212	2.18554
1215.37	1.59755
1218.75	1.71801
1222.12	2.31644
1225.5	2.4483
1228.87	2.08215
1232.25	1.98388
1235.62	2.36723
1239	1.41262
1242.37	0.721859
1245.75	0.889847
1249.12	0.961582
1252.5	1.22395
1255.87	0.512295
1259.25	1.13866
1262.62	0.43293
1265.99	0.32148
1269.37	0.538788
1272.74	0.443413
1276.12	0.927399
1279.49	0.823227
1282.87	0.623577
