Measurement: Raman, 532 nm, unoriented, Raman Data Processed
Mineral: Hemihedrite
Rruff sample: R141184
Ideal chemistry: Pb^2+^_10_Zn^2+^(Cr^6+^O_4_)_6_(SiO_4_)_2_(OH)_2_
Locality: Rat Tail Claim, Wickenburg Area, Belmont Mts, Maricopa County, Arizona, USA
Source: Marcus Origlieri
Description: Brown translucent spears
Measured chemistry: Pb_9.94_(Zn_0.91_Mg_0.02_)_∑=0.93_(Cr_5.91_S_0.08_P_0.02_)_∑=6.01_(Si_1.88_As_0.02_)_∑=1.90_O_34_H_2.62_ ; H_2_O calculated to achieve 34 O atoms.
Raman shift (cm-1)	intensity
89.7832	0
93.158	14.0192
96.5328	9.79901
99.9077	0.141388
103.282	1.88968
106.657	1.60873
110.032	21.4328
113.407	16.833
116.782	34.3796
120.157	47.2933
123.531	48.1704
126.906	55.5119
130.281	52.4018
133.656	57.5973
137.031	56.7262
140.405	62.1237
143.78	61.7097
147.155	56.2295
150.53	52.081
153.905	49.1945
157.28	46.7414
160.654	39.2828
164.029	36.6509
167.404	30.4375
170.779	26.6944
174.154	23.6813
177.528	17.241
180.903	13.9412
184.278	10.8978
187.653	9.78125
191.028	9.26456
194.403	7.43045
197.777	7.57611
201.152	5.28635
204.527	5.32895
207.902	5.51154
211.277	4.93329
214.651	5.85251
218.026	4.45969
221.401	4.28555
224.776	2.8172
228.151	4.17783
231.525	1.75046
234.9	1.14963
238.275	1.46448
241.65	2.40726
245.025	2.79031
248.4	0.293823
251.774	0.194122
255.149	0.907135
258.524	0.483398
261.899	1.44833
265.274	0.844147
268.649	0.972748
272.023	1.91867
275.398	0.967773
278.773	1.28885
282.148	2.70328
285.523	0.359222
288.897	1.25357
292.272	2.13797
295.647	2.59128
299.022	4.62622
302.397	5.88327
305.772	8.27878
309.146	12.4874
312.521	15.5936
315.896	22.7886
319.271	33.9057
322.646	54.8539
326.02	79.9824
329.395	117.836
332.77	158.47
336.145	196.861
339.52	220.111
342.894	234.617
346.269	248.268
349.644	272.995
353.019	314.352
356.394	368.151
359.769	393.113
363.143	376.282
366.518	359.142
369.893	363.983
373.268	346.908
376.643	280.997
380.017	225.31
383.392	198.183
386.767	203.589
390.142	218.589
393.517	206.594
396.892	154.095
400.266	103.757
403.641	70.2202
407.016	54.7755
410.391	36.2377
413.766	26.9501
417.14	18.2345
420.515	14.5766
423.89	9.52292
427.265	7.02164
430.64	3.51575
434.014	1.34967
437.389	0.160522
440.764	0.915497
444.139	1.10245
447.514	1.90811
450.889	1.82187
454.263	1.90451
457.638	0.805145
461.013	2.1445
464.388	1.37167
467.763	0.150024
471.137	2.13095
474.512	1.84738
477.887	3.1015
481.262	3.95667
484.637	8.11291
488.012	14.6045
491.386	19.6646
494.761	21.0363
498.136	20.4016
501.511	13.9884
504.886	8.23245
508.26	5.67835
511.635	3.90878
515.01	2.20404
518.385	1.12289
521.76	0.624481
525.135	0.089142
528.509	1.52499
531.884	1.4137
535.259	0.144806
538.634	0.694031
542.009	0.139069
545.384	0.519592
548.758	0.30719
552.133	0.882904
555.508	0.246796
558.883	1.58817
562.258	1.74051
565.632	2.47879
569.007	3.67966
572.382	3.57886
575.757	4.31741
579.132	6.23953
582.506	12.1879
585.881	9.5043
589.256	9.3208
592.631	11.4822
596.006	12.7675
599.381	13.2789
602.755	14.9517
606.13	18.83
609.505	19.9577
612.88	20.8273
616.255	23.1819
619.63	25.124
623.004	26.9825
626.379	28.5118
629.754	32.1805
633.129	33.2834
636.504	36.14
639.878	37.9552
643.253	40.2663
646.628	43.8079
650.003	44.303
653.378	48.4443
656.752	47.8563
660.127	51.3149
663.502	55.954
666.877	58.8483
670.252	61.1803
673.626	62.1696
677.001	63.4504
680.376	67.5028
683.751	60.5804
687.126	56.564
690.501	52.625
693.875	45.1183
697.25	41.0057
700.625	32.5095
704	28.3315
707.375	21.4975
710.75	14.7916
714.124	10.0147
717.499	4.15729
720.874	2.47031
724.249	6.49875
727.624	11.7059
730.998	15.0815
734.373	15.4581
737.748	14.7189
741.123	12.984
744.498	6.19122
747.872	3.21722
751.247	15.4355
754.622	35.9246
757.997	60.4179
761.372	98.3769
764.747	153.214
768.121	223.49
771.496	318.345
774.871	410.463
778.246	493.295
781.621	552.187
784.995	552.882
788.37	516.335
791.745	478.169
795.12	455.973
798.495	481.727
801.87	561.066
805.244	693.304
808.619	898.379
811.994	1151.07
815.369	1481.03
818.744	1843.57
822.119	2182.07
825.493	2428.45
828.868	2606.94
832.243	2755.94
835.618	2890.74
838.993	2988.41
842.367	2932.47
845.742	2733.05
849.117	2419.61
852.492	2119.6
855.867	1897.67
859.241	1723.51
862.616	1520.6
865.991	1264.11
869.366	976.857
872.741	699.126
876.115	466.654
879.49	293.298
882.865	174.256
886.24	87.4271
889.615	30.5759
892.99	2.13885
896.364	19.4068
899.739	24.9676
903.114	18.0016
906.489	9.55176
909.864	2.74756
913.239	2.44238
916.613	2.81586
919.988	5.96442
923.363	1.91943
926.738	2.74164
930.113	0.737122
933.487	2.01092
936.862	0.902832
940.237	5.26947
943.612	10.2928
946.987	16.1358
950.361	22.3129
953.736	27.2077
957.111	27.2406
960.486	30.1744
963.861	36.3593
967.236	41.7007
970.61	46.2105
973.985	53.059
977.36	57.7675
980.735	61.0525
984.11	63.8415
987.485	64.9265
990.859	64.234
994.234	61.2114
997.609	58.8755
1000.98	57.6027
1004.36	52.0992
1007.73	50.1537
1011.11	50.472
1014.48	45.6114
1017.86	43.2468
1021.23	40.6926
1024.61	38.2203
1027.98	39.3728
1031.36	36.0057
1034.73	35.0201
1038.11	31.6003
1041.48	31.0906
1044.86	27.8265
1048.23	25.7116
1051.61	22.6393
1054.98	22.9097
1058.36	19.3981
1061.73	17.8095
1065.11	15.7678
1068.48	14.5799
1071.86	12.1213
1075.23	10.1011
1078.6	9.69684
1081.98	8.70914
1085.35	7.00137
1088.73	5.2515
1092.1	3.52637
1095.48	1.38168
1098.85	2.26294
1102.23	1.60089
1105.6	0.643555
1108.98	1.12595
1112.35	1.23361
1115.73	1.26929
1119.1	0.82132
1122.48	0.234772
1125.85	1.21985
1129.23	1.47537
1132.6	0.595306
1135.98	0.566925
1139.35	0.59964
1142.73	0.58432
1146.1	0.559814
1149.48	0.397766
1152.85	1.8205
1156.22	2.91482
1159.6	2.38574
1162.97	1.81519
1166.35	0.075256
1169.72	0.197937
1173.1	2.10736
1176.47	0.177307
1179.85	1.23618
1183.22	2.2912
1186.6	2.37976
1189.97	1.80557
1193.35	3.08188
1196.72	4.26132
1200.1	2.92108
1203.47	6.54672
1206.85	4.06589
1210.22	8.19394
1213.6	7.81036
1216.97	8.60889
1220.35	10.2449
1223.72	11.0779
1227.1	10.1497
1230.47	10.2492
1233.85	7.70654
1237.22	11.3087
1240.6	14.6206
1243.97	8.33108
1247.35	8.64862
1250.72	6.57837
1254.1	5.17154
1257.47	8.1084
1260.85	4.15216
1264.22	3.49307
1267.59	2.45691
1270.97	2.23721
1274.34	2.77338
1277.72	1.78854
1281.09	4.28903
1284.47	4.24786
1287.84	1.82532
1291.22	2.0925
1294.59	1.78503
1297.97	1.4353
1301.34	0.474609
