Measurement: Raman, 532 nm, unoriented, Raman Data Processed
Mineral: Holdenite
Rruff sample: R150129
Ideal chemistry: Mn^2+^_6_Zn^2+^_3_(As^5+^O_4_)_2_(SiO_4_)(OH)_8_
Locality: Sterling Hill, Ogdensburg, Franklin Mining District, Sussex County, New Jersey, USA
Source: Marcus Origlieri
Description: Aggregates of highly irregular pinkish microcrystals, associated with franklinite, willemite, pyrochroite, zincite, and rhodochrosite
Raman shift (cm-1)	intensity
89.7832	0
93.158	47.0952
96.5328	19.7979
99.9077	2.7229
103.282	4.4082
106.657	78.9544
110.032	41.4514
113.407	4.10181
116.782	52.3506
120.157	80.3342
123.531	79.1287
126.906	110.63
130.281	92.9092
133.656	103.511
137.031	99.6086
140.405	132.767
143.78	177.456
147.155	210.222
150.53	207.285
153.905	154.445
157.28	159.867
160.654	187.116
164.029	143.181
167.404	90.2825
170.779	61.2339
174.154	63.0806
177.528	63.481
180.903	90.0039
184.278	112.124
187.653	93.3569
191.028	82.0303
194.403	97.2622
197.777	127.942
201.152	144.898
204.527	117.595
207.902	117.427
211.277	101.436
214.651	83.8384
218.026	94.8442
221.401	122.781
224.776	148.493
228.151	134.18
231.525	63.03
234.9	26.0549
238.275	1.08765
241.65	4.32373
245.025	7.96118
248.4	11.3047
251.774	2.20264
255.149	1.54004
258.524	4.09229
261.899	7.37988
265.274	29.1184
268.649	41.4539
272.023	56.8801
275.398	84.1907
278.773	101.457
282.148	83.5554
285.523	73.3379
288.897	53.2227
292.272	44.8728
295.647	41.3982
299.022	49.6387
302.397	35.6804
305.772	42.749
309.146	45.2739
312.521	44.2581
315.896	41.8398
319.271	46.3174
322.646	94.9114
326.02	182.751
329.395	276.77
332.77	292.294
336.145	250.497
339.52	233.087
342.894	215.11
346.269	192.825
349.644	152.227
353.019	93.9348
356.394	55.2224
359.769	59.74
363.143	89.74
366.518	123.856
369.893	113.711
373.268	65.677
376.643	11.1577
380.017	7.45532
383.392	0.195313
386.767	3.54761
390.142	4.21265
393.517	11.2324
396.892	62.2446
400.266	133.917
403.641	228.216
407.016	324.425
410.391	410.047
413.766	429.084
417.14	435.574
420.515	445.821
423.89	389.953
427.265	264.519
430.64	142.929
434.014	84.4934
437.389	23.3699
440.764	11.489
444.139	6.61304
447.514	6.92188
450.889	4.29785
454.263	3.37915
457.638	5.98926
461.013	34.9451
464.388	62.8955
467.763	99.0972
471.137	112.898
474.512	99.772
477.887	93.1016
481.262	106.219
484.637	115.254
488.012	133.623
491.386	151.118
494.761	135.781
498.136	93.262
501.511	72.0142
504.886	58.7842
508.26	88.343
511.635	122.751
515.01	189.8
518.385	254.861
521.76	336.246
525.135	402.416
528.509	373.49
531.884	261.88
535.259	162.479
538.634	107.647
542.009	64.4158
545.384	46.6643
548.758	47.8296
552.133	48.3042
555.508	44.5181
558.883	49.3274
562.258	67.6943
565.632	52.9414
569.007	33.0671
572.382	18.667
575.757	3.52808
579.132	11.7329
582.506	3.67212
585.881	5.68115
589.256	0.075439
592.631	4.23047
596.006	6.3103
599.381	3.69238
602.755	4.81885
606.13	12.9614
609.505	16.4456
612.88	22.9211
616.255	29.9006
619.63	34.0344
623.004	29.5957
626.379	35.1501
629.754	26.8235
633.129	23.0561
636.504	20.2029
639.878	23.3294
643.253	19.0601
646.628	20.5359
650.003	31.4795
653.378	32.1292
656.752	24.6592
660.127	12.8679
663.502	30.0105
666.877	36.4775
670.252	35.8625
673.626	36.3328
677.001	45.2886
680.376	51.6531
683.751	58.2634
687.126	49.4228
690.501	61.3882
693.875	35.5823
697.25	31.7053
700.625	25.3523
704	23.6033
707.375	21.6724
710.75	12.9612
714.124	0.002686
717.499	0.051025
720.874	2.82495
724.249	5.38672
727.624	0.964844
730.998	15.1338
734.373	17.3818
737.748	9.95215
741.123	6.80322
744.498	1.14893
747.872	36.9531
751.247	87.7441
754.622	138.898
757.997	250.514
761.372	425.764
764.747	652.399
768.121	805.396
771.496	749.278
774.871	622.573
778.246	585.725
781.621	643.313
784.995	865.015
788.37	1295.6
791.745	2028.63
795.12	3022.33
798.495	3565.87
801.87	2988.55
805.244	2621.27
808.619	2840.15
811.994	3523.19
815.369	4617.31
818.744	5092.75
822.119	3615.12
825.493	1861.66
828.868	925.576
832.243	525.405
835.618	373.484
838.993	365.614
842.367	401.999
845.742	438.41
849.117	399.508
852.492	301.042
855.867	304.143
859.241	407.846
862.616	604.347
865.991	765.904
869.366	623.223
872.741	344.482
876.115	157.367
879.49	55.3105
882.865	8.55566
886.24	17.8096
889.615	20.0474
892.99	16.1025
896.364	14.3403
899.739	11.6299
903.114	0.42041
906.489	5.72168
909.864	16.2534
913.239	5.93652
916.613	22.3218
919.988	25.9722
923.363	23.2451
926.738	19.9062
930.113	20.8071
933.487	12.02
936.862	20.624
940.237	33.2358
943.612	39.3804
946.987	43.5239
950.361	39.8081
953.736	23.3916
957.111	10.0933
960.486	2.72315
963.861	6.85107
967.236	22.4517
970.61	29.602
973.985	20.5122
977.36	28.6182
980.735	27.1904
984.11	19.4316
987.485	32.1719
990.859	32.6914
994.234	22.1104
997.609	18.0518
1000.98	24.1714
1004.36	18.102
1007.73	18.4766
1011.11	17.0845
1014.48	25.0132
1017.86	13.979
1021.23	15.0864
1024.61	6.46094
1027.98	22.2944
1031.36	17.2515
1034.73	20.6773
1038.11	26.5064
1041.48	22.2637
1044.86	17.3931
1048.23	13.6904
1051.61	12.8496
1054.98	17.9927
1058.36	2.85205
1061.73	1.01807
1065.11	4.12402
1068.48	0.405762
1071.86	1.48584
1075.23	2.25732
1078.6	2.72852
1081.98	2.94922
1085.35	10.354
1088.73	8.87109
1092.1	10.064
1095.48	2.875
1098.85	4.64404
1102.23	3.34326
1105.6	13.2891
1108.98	12.9917
1112.35	13.7549
1115.73	7.82715
1119.1	2.36865
1122.48	20.1206
1125.85	9.09326
1129.23	2.44922
1132.6	0.459961
1135.98	3.81982
1139.35	9.52197
1142.73	12.5801
1146.1	8.5332
1149.48	11.771
1152.85	20.1948
1156.22	15.4302
1159.6	15.2153
1162.97	8.74219
1166.35	14.4795
1169.72	1.04492
1173.1	17.9072
1176.47	22.0913
1179.85	19.3931
1183.22	22.188
1186.6	26.5928
1189.97	19.8164
1193.35	22.1025
1196.72	14.6514
1200.1	15.6191
1203.47	5.49268
1206.85	12.6479
1210.22	14.7539
1213.6	12.9067
1216.97	9.96924
1220.35	9.00342
1223.72	15.1309
1227.1	4.80908
1230.47	1.17383
1233.85	1.00928
1237.22	4.96875
1240.6	4.79492
1243.97	10.9014
1247.35	15.2041
1250.72	16.2646
1254.1	18.4194
1257.47	13.9717
1260.85	19.0493
1264.22	13.1304
1267.59	3.57178
1270.97	0.245605
1274.34	13.2109
1277.72	12.8345
1281.09	12.4888
1284.47	7.3125
1287.84	7.22168
1291.22	10.9224
1294.59	5.92139
1297.97	10.5264
1301.34	0.004883
