Measurement: Raman, 780 nm, unoriented, Raman Data Processed
Mineral: Holdenite
Rruff sample: R150129
Ideal chemistry: Mn^2+^_6_Zn^2+^_3_(As^5+^O_4_)_2_(SiO_4_)(OH)_8_
Locality: Sterling Hill, Ogdensburg, Franklin Mining District, Sussex County, New Jersey, USA
Source: Marcus Origlieri
Description: Aggregates of highly irregular pinkish microcrystals, associated with franklinite, willemite, pyrochroite, zincite, and rhodochrosite
Raman shift (cm-1)	intensity
93.9705	0
97.3453	10.7596
100.72	25.6246
104.095	69.2125
107.47	171.636
110.845	20.5764
114.219	1.49805
117.594	9.99847
120.969	2.24512
124.344	2.32104
127.719	5.83368
131.094	2.0296
134.468	9.29126
137.843	20.4801
141.218	52.2568
144.593	78.3792
147.968	115.511
151.342	84.6208
154.717	67.1915
158.092	75.4835
161.467	91.051
164.842	51.5146
168.216	22.0089
171.591	10.0783
174.966	18.8737
178.341	35.9083
181.716	67.2679
185.09	67.2841
188.465	49.3623
191.84	50.0032
195.215	62.0583
198.59	87.0881
201.965	92.0124
205.339	77.9476
208.714	73.8937
212.089	65.0892
215.464	54.0291
218.839	68.8243
222.214	95.0575
225.588	117.323
228.963	87.0438
232.338	42.9178
235.713	14.2159
239.088	3.22553
242.462	9.63446
245.837	5.02954
249.212	5.35022
252.587	7.37878
255.962	0.420715
259.336	4.84949
262.711	18.4117
266.086	35.1628
269.461	46.8505
272.836	61.1306
276.211	82.5471
279.585	91.8818
282.96	78.5895
286.335	61.8043
289.71	44.269
293.085	36.0949
296.459	31.1865
299.834	30.4841
303.209	26.4412
306.584	24.6738
309.959	30.8784
313.334	32.476
316.708	40.8458
320.083	71.6639
323.458	117.096
326.833	188.416
330.207	256.881
333.582	243.852
336.957	201.217
340.332	185.54
343.707	172.25
347.082	146.977
350.456	103.825
353.831	53.7044
357.206	29.1536
360.581	31.0153
363.956	49.0563
367.33	61.1385
370.705	52.4926
374.08	18.809
377.455	2.42761
380.83	5.13483
384.205	2.16113
387.579	5.4931
390.954	7.10681
394.329	13.8729
397.704	28.5877
401.079	66.451
404.453	103.656
407.828	150.151
411.203	184.25
414.578	179.046
417.953	178.211
421.327	191.55
424.702	171.809
428.077	119.183
431.452	71.3722
434.827	35.5939
438.202	16.753
441.576	3.72754
444.951	4.77191
448.326	0.305786
451.701	0.100586
455.076	8.03809
458.45	2.61658
461.825	10.1274
465.2	28.3668
468.575	46.001
471.95	44.2148
475.325	36.0365
478.699	39.6868
482.074	37.7438
485.449	41.8886
488.824	50.9609
492.199	53.6356
495.573	44.4327
498.948	26.5172
502.323	22.1019
505.698	22.1218
509.073	42.0309
512.447	61.8185
515.822	88.1997
519.197	123.863
522.572	159.839
525.947	188.412
529.322	169.296
532.696	114.398
536.071	71.6598
539.446	44.7664
542.821	28.045
546.196	23.6609
549.57	20.1858
552.945	24.6455
556.32	26.1187
559.695	33.677
563.07	33.7403
566.444	32.9652
569.819	18.2529
573.194	12.1832
576.569	6.79727
579.944	4.91083
583.319	1.53241
586.693	2.69949
590.068	1.04282
593.443	0.132751
596.818	2.0965
600.193	4.88553
603.567	4.83456
606.942	10.1035
610.317	9.87219
613.692	14.9368
617.067	19.2721
620.442	21.1003
623.816	22.3885
627.191	22.0787
630.566	18.577
633.941	19.386
637.316	14.821
640.69	16.6877
644.065	13.0174
647.44	11.6788
650.815	11.98
654.19	11.5437
657.564	14.9119
660.939	15.3475
664.314	16.6394
667.689	16.3383
671.064	20.7701
674.439	22.615
677.813	27.0656
681.188	28.701
684.563	29.1564
687.938	31.2918
691.313	26.9482
694.688	23.3896
698.062	18.3403
701.437	15.1186
704.812	11.0059
708.187	7.27939
711.562	4.05396
714.936	1.34976
718.311	1.87122
721.686	0.568481
725.061	6.02109
728.436	8.21649
731.81	5.96478
735.185	7.10947
738.56	3.8934
741.935	1.66748
745.31	7.29379
748.684	20.8691
752.059	46.9603
755.434	93.34
758.809	157.766
762.184	253.416
765.559	371.579
768.933	422.843
772.308	359.159
775.683	295.387
779.058	288.05
782.433	347.783
785.808	484.011
789.182	711.256
792.557	1098.01
795.932	1592.78
799.307	1664.69
802.682	1318.73
806.056	1141.97
809.431	1167.78
812.806	1411.92
816.181	1803.3
819.556	1807.13
822.93	1163.45
826.305	595.092
829.68	304.44
833.055	190.27
836.43	157.71
839.804	168.32
843.179	190.326
846.554	205.324
849.929	174.221
853.304	128.564
856.679	113.459
860.053	143.706
863.428	211.651
866.803	254.302
870.178	195.791
873.553	107.289
876.927	45.5653
880.302	11.7865
883.677	0.995911
887.052	8.15173
890.427	7.88953
893.802	6.67984
897.176	5.83893
900.551	4.86932
903.926	1.00842
907.301	3.27731
910.676	5.88083
914.05	9.09317
917.425	8.66937
920.8	9.89966
924.175	10.962
927.55	9.58179
930.924	9.80151
934.299	13.5199
937.674	13.6433
941.049	15.4379
944.424	17.2344
947.799	16.4897
951.173	11.6341
954.548	7.63565
957.923	7.3367
961.298	3.17502
964.673	3.32056
968.047	4.23798
971.422	4.83814
974.797	3.47659
978.172	5.06531
981.547	5.09735
984.922	5.90671
988.296	5.09644
991.671	2.83411
995.046	3.71014
998.421	3.60443
1001.8	4.49359
1005.17	3.97732
1008.54	3.43082
1011.92	2.56738
1015.29	5.31332
1018.67	3.11096
1022.04	2.94696
1025.42	4.24835
1028.79	3.85678
1032.17	7.56384
1035.54	6.634
1038.92	3.78464
1042.29	1.30685
1045.67	2.14594
1049.04	1.58685
1052.42	0.672882
1055.79	0.662842
1059.17	0.624084
1062.54	3.56906
1065.92	1.24359
1069.29	1.9436
1072.67	0.59613
1076.04	3.18454
1079.42	1.51968
1082.79	6.38419
1086.17	9.92902
1089.54	13.9684
1092.92	6.09134
1096.29	2.66949
1099.66	1.82822
1103.04	0.104248
1106.41	0.1492
1109.79	0.875458
1113.16	0.825623
1116.54	1.09228
1119.91	0.490082
1123.29	2.11133
1126.66	1.46738
1130.04	0.804016
1133.41	0.884613
1136.79	0.19812
1140.16	3.04904
1143.54	5.27386
1146.91	2.50857
1150.29	4.98169
1153.66	3.27332
1157.04	2.27939
1160.41	4.82593
1163.79	3.52069
1167.16	6.32846
1170.54	4.90808
1173.91	4.98534
1177.29	4.53258
1180.66	5.32147
1184.04	5.06445
1187.41	5.57031
1190.79	3.3907
1194.16	3.58939
1197.54	3.63417
1200.91	2.13876
1204.28	3.79305
1207.66	3.19516
1211.03	3.04649
1214.41	1.82863
1217.78	2.48431
1221.16	0.869354
1224.53	0.649704
1227.91	1.47217
1231.28	0.727051
1234.66	2.29593
1238.03	0.778046
1241.41	0.504333
1244.78	2.17419
1248.16	2.82056
1251.53	3.10718
1254.91	2.40498
1258.28	3.84863
1261.66	1.7753
1265.03	4.29329
1268.41	0.462143
1271.78	0.067795
1275.16	0.872391
1278.53	1.73616
1281.9	3.77383
