Measurement: Raman, 780 nm, unoriented, Raman Data Processed
Mineral: Humboldtine
Rruff sample: R170002
Ideal chemistry: Fe^2+^(C_2_)^6+^O_4_2H_2_O
Locality: Zomba, Malawi
Source: Donald Doell
Description: Small yellow granular to short prismatic crystals with good cleavage, grown on aegirine. Associated with albite.
Measured chemistry: EDS analysis only revealed Fe, with some Mn and Al.
Raman shift (cm-1)	intensity
102.528	0
105.903	36.6782
109.277	94.467
112.652	155.778
116.027	139.394
119.402	97.7766
122.777	82.8098
126.151	71.8529
129.526	53.0357
132.901	27.6811
136.276	11.7977
139.651	1.41913
143.025	6.33032
146.4	4.29788
149.775	3.71655
153.15	2.35599
156.525	5.20904
159.9	12.0999
163.274	33.7574
166.649	41.9591
170.024	48.4759
173.399	57.4457
176.774	78.1136
180.149	105.138
183.523	136.413
186.898	174.816
190.273	220.963
193.648	274.888
197.023	326.828
200.397	361.884
203.772	316.689
207.147	210.237
210.522	131.964
213.897	87.3917
217.272	66.3058
220.646	58.784
224.021	61.4755
227.396	70.5166
230.771	90.4277
234.146	115.409
237.52	143.051
240.895	167.383
244.27	165.826
247.645	128.578
251.02	82.689
254.394	47.8085
257.769	26.4317
261.144	15.5434
264.519	9.90248
267.894	5.77564
271.269	6.3373
274.643	6.75992
278.018	6.25572
281.393	7.95784
284.768	8.79788
288.143	9.89664
291.517	8.09706
294.892	4.96443
298.267	4.69864
301.642	3.64438
305.017	2.64742
308.392	1.76208
311.766	0.20575
315.141	2.20338
318.516	2.04616
321.891	1.6463
325.266	1.61231
328.64	1.97617
332.015	0.210724
335.39	0.325607
338.765	1.1079
342.14	2.04369
345.515	2.47089
348.889	2.99322
352.264	4.18616
355.639	3.78177
359.014	4.27847
362.389	4.40288
365.764	6.15314
369.138	4.13519
372.513	4.70375
375.888	4.05815
379.263	3.9742
382.637	3.71667
386.012	2.13359
389.387	3.1244
392.762	3.28517
396.137	2.86388
399.512	3.18282
402.886	3.54468
406.261	2.94369
409.636	2.9442
413.011	2.92723
416.386	2.75447
419.76	4.52339
423.135	3.2897
426.51	1.73447
429.885	2.08029
433.26	1.88693
436.635	0.027374
440.01	0.22229
443.384	0.788635
446.759	0.665176
450.134	0.781387
453.509	0.448242
456.884	1.55154
460.258	0.385025
463.633	0.40625
467.008	1.61478
470.383	4.22408
473.758	5.35879
477.132	8.72467
480.507	10.7254
483.882	14.0564
487.257	17.8977
490.632	27.0207
494.007	32.376
497.381	39.9695
500.756	47.3393
504.131	54.5039
507.506	61.5723
510.881	66.8364
514.255	71.2041
517.63	75.3311
521.005	73.4252
524.38	69.1885
527.755	59.6769
531.13	48.6432
534.504	39.691
537.879	29.0993
541.254	21.6555
544.629	16.3224
548.004	12.6484
551.378	10.8659
554.753	9.86836
558.128	10.8246
561.503	10.6909
564.878	12.8153
568.253	17.7376
571.627	25.9014
575.002	38.7036
578.377	54.6048
581.752	58.0917
585.127	41.5473
588.501	20.329
591.876	10.6046
595.251	5.21574
598.626	4.06239
602.001	2.41046
605.375	0.371765
608.75	0.12291
612.125	0.143433
615.5	0.200531
618.875	0.874374
622.25	0.77092
625.625	0.637833
628.999	0.749893
632.374	0.654526
635.749	0.158752
639.124	1.32431
642.499	1.16621
645.873	1.58525
649.248	0.937195
652.623	1.64677
655.998	2.91069
659.373	3.11136
662.747	3.77537
666.122	3.03406
669.497	3.41916
672.872	3.53874
676.247	3.65863
679.621	4.44029
682.996	3.03047
686.371	2.41003
689.746	2.19707
693.121	2.50357
696.496	1.57638
699.87	0.707001
703.245	1.45186
706.62	0.886093
709.995	0.830002
713.37	1.32147
716.745	0.49086
720.119	1.84506
723.494	1.51643
726.869	1.35757
730.244	1.91951
733.619	1.11984
736.993	0.063965
740.368	0.584404
743.743	0.624863
747.118	0.785049
750.493	1.26988
753.867	1.45734
757.242	0.624413
760.617	0.612907
763.992	0.683647
767.367	0.36618
770.742	0.497391
774.116	1.33007
777.491	0.210007
780.866	0.345253
784.241	0.900917
787.616	0.370293
790.99	0.761391
794.365	0.617317
797.74	0.714928
801.115	1.05862
804.49	0.024666
807.865	1.00737
811.239	0.52533
814.614	0.841606
817.989	0.608803
821.364	0.601051
824.739	2.37499
828.114	0.334923
831.488	1.61314
834.863	1.4026
838.238	2.48622
841.613	1.39501
844.988	2.38309
848.362	2.55064
851.737	6.29398
855.112	10.5239
858.487	5.91933
861.862	3.10004
865.236	1.2555
868.611	1.434
871.986	2.13149
875.361	2.51504
878.736	1.65472
882.111	3.3503
885.485	3.36782
888.86	4.93192
892.235	9.02021
895.61	14.3783
898.985	26.6787
902.36	43.1682
905.734	67.7435
909.109	102.245
912.484	116.139
915.859	86.4839
919.234	44.895
922.608	22.3272
925.983	13.2241
929.358	7.63895
932.733	4.47433
936.108	2.39497
939.482	0.966843
942.857	0.950745
946.232	0.544556
949.607	0.758835
952.982	0.099083
956.357	0.276924
959.731	0.869423
963.106	0.111328
966.481	1.05329
969.856	0.663864
973.231	0.00103
976.606	0.701538
979.98	1.68575
983.355	0.900848
986.73	1.0279
990.105	1.34468
993.48	1.32371
996.854	0.280975
1000.23	0.745148
1003.6	1.76734
1006.98	0.60257
1010.35	1.78073
1013.73	2.02615
1017.1	1.00533
1020.48	1.08212
1023.85	0.617325
1027.23	1.38132
1030.6	0.996101
1033.98	2.75321
1037.35	1.47174
1040.73	2.29242
1044.1	2.47767
1047.48	1.06554
1050.85	1.96075
1054.23	1.85535
1057.6	1.68952
1060.98	0.109253
1064.35	1.76414
1067.73	1.53892
1071.1	1.03129
1074.47	0.804489
1077.85	0.953873
1081.22	0.70005
1084.6	1.74493
1087.97	1.27813
1091.35	1.4472
1094.72	0.03231
1098.1	0.39489
1101.47	0.359344
1104.85	0.201111
1108.22	1.16816
1111.6	0.415855
1114.97	0.085243
1118.35	0.512138
1121.72	0.504494
1125.1	1.12698
1128.47	0.37381
1131.85	0.051971
1135.22	1.8149
1138.6	1.40887
1141.97	0.72847
1145.35	1.25494
1148.72	1.30668
1152.1	1.69303
1155.47	1.50209
1158.85	1.40627
1162.22	0.859703
1165.6	1.15311
1168.97	1.29465
1172.35	1.58479
1175.72	1.58375
1179.1	1.36317
1182.47	2.54565
1185.84	0.912331
1189.22	2.39527
1192.59	2.11477
1195.97	1.02077
1199.34	0.691376
1202.72	1.00377
1206.09	0.644302
1209.47	1.40292
1212.84	0.496658
1216.22	0.118713
1219.59	0.336601
1222.97	0.793633
1226.34	0.236465
1229.72	0.728134
1233.09	0.358147
1236.47	0.884331
1239.84	2.32366
1243.22	2.15063
1246.59	2.77051
1249.97	3.71817
1253.34	5.3076
1256.71	5.0358
1260.09	6.73811
1263.46	6.25676
1266.84	5.921
1270.21	5.02897
1273.59	2.46426
1276.96	0.936424
1280.34	0.84845
