Measurement: Raman, 532 nm, unoriented, Raman Data Processed
Mineral: Humboldtine
Rruff sample: R170002
Ideal chemistry: Fe^2+^(C_2_)^6+^O_4_2H_2_O
Locality: Zomba, Malawi
Source: Donald Doell
Description: Small yellow granular to short prismatic crystals with good cleavage, grown on aegirine. Associated with albite.
Measured chemistry: EDS analysis only revealed Fe, with some Mn and Al.
Raman shift (cm-1)	intensity
127.188	0
130.563	0.193115
133.938	0.654297
137.313	28.23
140.687	55.8345
144.062	26.698
147.437	4.10669
150.812	0.330811
154.187	2.16382
157.561	2.68872
160.936	16.0222
164.311	67.6504
167.686	71.4092
171.061	41.8984
174.436	46.4326
177.81	89.875
181.185	167.67
184.56	284.731
187.935	472.4
191.31	688.089
194.685	936.46
198.059	1199.51
201.434	1386.41
204.809	1299.77
208.184	917.775
211.559	549.237
214.933	329.555
218.308	191.19
221.683	130.977
225.058	124.817
228.433	168.676
231.808	257.668
235.182	369.352
238.557	492.254
241.932	624.862
245.307	688.863
248.682	600.73
252.056	396.017
255.431	226.27
258.806	124.433
262.181	65.8989
265.556	21.3916
268.93	3.0625
272.305	14.6274
275.68	36.8208
279.055	32.6421
282.43	26.3115
285.805	41.8809
289.179	49.9658
292.554	41.6577
295.929	31.9932
299.304	35.4321
302.679	34.0586
306.053	26.2788
309.428	18.2065
312.803	2.10693
316.178	8.79053
319.553	10.8604
322.928	8.62695
326.302	0.54248
329.677	6.15186
333.052	3.61816
336.427	5.6875
339.802	29.7217
343.176	34.8574
346.551	36.1065
349.926	36.605
353.301	49.3452
356.676	34.5767
360.051	25.4204
363.425	29.1645
366.8	49.7578
370.175	45.1065
373.55	24.2334
376.925	8.6626
380.3	16.2061
383.674	22.6948
387.049	31.7852
390.424	20.5278
393.799	23.251
397.174	35.1475
400.548	44.022
403.923	53.5474
407.298	51.4043
410.673	57.648
414.048	62.4102
417.423	53.4277
420.797	28.4717
424.172	18.4956
427.547	30.7319
430.922	19.8203
434.296	12.0332
437.671	8.69678
441.046	6.23584
444.421	3.97461
447.796	13.8789
451.171	2.2456
454.545	17.4517
457.92	3.87988
461.295	13.2446
464.67	12.6489
468.045	9.27441
471.42	20.5088
474.794	25.3218
478.169	27.3696
481.544	43.8735
484.919	67.9199
488.294	82.6397
491.668	122.485
495.043	170.495
498.418	222.982
501.793	266.815
505.168	301.554
508.543	337.023
511.917	354.7
515.292	359.39
518.667	370.141
522.042	385.364
525.417	382.217
528.791	330.185
532.166	277.625
535.541	218.825
538.916	188.663
542.291	142.658
545.665	105.934
549.04	87.1479
552.415	78.3579
555.79	72.0083
559.165	56.6235
562.54	52.3545
565.914	69.7227
569.289	105.295
572.664	164.458
576.039	230.035
579.414	302.666
582.788	341.718
586.163	272.077
589.538	142.402
592.913	58.6103
596.288	25.4595
599.663	11.4419
603.037	4.68457
606.412	5.48389
609.787	6.11865
613.162	14.6435
616.537	19.8501
619.912	14.6899
623.286	6.95264
626.661	5.93994
630.036	7.10498
633.411	8.95898
636.786	5.29785
640.16	2.71387
643.535	3.88135
646.91	9.97021
650.285	18.3247
653.66	19.5815
657.034	21.9141
660.409	23.6401
663.784	16.52
667.159	32.1279
670.534	58.044
673.909	51.5693
677.283	22.227
680.658	25.9273
684.033	47.0547
687.408	43.7573
690.783	30.9199
694.158	15.5747
697.532	16.3931
700.907	4.47705
704.282	0.218262
707.657	18.0767
711.032	29.4678
714.406	17.9263
717.781	2.8501
721.156	13.6148
724.531	8.45312
727.906	0.528809
731.28	8.61572
734.655	26.8516
738.03	46.0176
741.405	21.1401
744.78	12.5283
748.154	14.7842
751.529	11.2822
754.904	26.2842
758.279	34.769
761.654	28.7759
765.029	12.0962
768.403	14.0371
771.778	21.8711
775.153	6.71973
778.528	7.59033
781.903	13.5229
785.278	23.7217
788.652	15.1148
792.027	18.2988
795.402	21.6352
798.777	36.166
802.152	15.2124
805.526	6.4541
808.901	4.65723
812.276	10.9941
815.651	10.4966
819.026	18.6934
822.4	10.6323
825.775	2.62549
829.15	4.68848
832.525	33.4273
835.9	27.2461
839.275	33.3037
842.649	44.0723
846.024	42.5781
849.399	25.3486
852.774	49.0215
856.149	79.8047
859.524	59.2803
862.898	32.0825
866.273	23.1987
869.648	23.6743
873.023	3.5708
876.398	7.0332
879.773	1.04443
883.147	21.4311
886.522	40.6421
889.897	54.0137
893.272	62.6011
896.646	91.3525
900.021	173.233
903.396	317.947
906.771	497.959
910.146	731.896
913.521	858.654
916.895	681.96
920.27	371.19
923.645	181.429
927.02	88.6567
930.395	56.4907
933.769	39.4824
937.144	21.7656
940.519	25.2295
943.894	24.165
947.269	7.21436
950.644	17.2544
954.018	3.62207
957.393	7.82861
960.768	16.1191
964.143	18.1768
967.518	12.6406
970.893	25.6929
974.267	14.7329
977.642	41.9062
981.017	22.0552
984.392	10.7285
987.767	7.40625
991.141	5.03906
994.516	24.582
997.891	24.813
1001.27	27.6943
1004.64	17.7217
1008.02	32.2139
1011.39	16.9883
1014.76	3.64356
1018.14	3.97559
1021.51	1.77393
1024.89	14.1289
1028.26	14.8267
1031.64	23.5161
1035.01	36.5142
1038.39	41.0234
1041.76	28.4102
1045.14	28.314
1048.51	4.95019
1051.89	14.0991
1055.26	35.5523
1058.64	40.9819
1062.01	32.8023
1065.39	39.2197
1068.76	40.6343
1072.14	38.501
1075.51	38.5449
1078.89	42.9053
1082.26	35.7666
1085.64	39.8813
1089.01	28.3896
1092.39	20.2168
1095.76	28.3779
1099.14	46.5562
1102.51	48.498
1105.88	35.2964
1109.26	14.8916
1112.63	17.5308
1116.01	0.490723
1119.38	38.7017
1122.76	44.8291
1126.13	18.3516
1129.51	1.14453
1132.88	26.8237
1136.26	37.9273
1139.63	36.7905
1143.01	37.0264
1146.38	41.5576
1149.76	32.6157
1153.13	36.876
1156.51	41.147
1159.88	47.7573
1163.26	46.3984
1166.63	24.3457
1170.01	31.6191
1173.38	44.8794
1176.76	55.9365
1180.13	51.9307
1183.51	25.4443
1186.88	43.2339
1190.26	59.1963
1193.63	53.4331
1197.01	53.5176
1200.38	54.1333
1203.76	45.5864
1207.13	19.2378
1210.51	27.3262
1213.88	42.5239
1217.25	44.9048
1220.63	43.8472
1224	30.0532
1227.38	7.90137
1230.75	1.62158
1234.13	1.96826
1237.5	6.43115
1240.88	27.5444
1244.25	50.2212
1247.63	52.7144
1251	37.9951
1254.38	32.4902
1257.75	43.8086
1261.13	50.5703
1264.5	18.9902
1267.88	31.5918
1271.25	11.8623
1274.63	5.65479
1278	10.541
1281.38	25.0625
1284.75	17.4644
1288.12	8.74658
1291.5	6.18262
1294.88	20.5801
1298.25	27
