Measurement: Raman, 532 nm, unoriented, Raman Data Processed
Mineral: Hydrocerussite
Rruff sample: R160062
Ideal chemistry: Pb^2+^_3_(CO_3_)_2_(OH)_2_
Locality: Tiger, Pinal County, Arizona, USA
Source: University of Arizona Mineral Museum
Description: Colorless massive crystals, associated with pale bluish leadhillite and colorless susannite. Both leadhillite and susannite show good cleavage.
Raman shift (cm-1)	intensity
89.7832	0
93.158	58.645
96.5328	98.1421
99.9077	138.633
103.282	239.498
106.657	406.834
110.032	637.67
113.407	808.707
116.782	894.552
120.157	939.762
123.531	991.905
126.906	1094.46
130.281	1052.94
133.656	652.074
137.031	258.32
140.405	67.6464
143.78	11.0248
147.155	4.06836
150.53	5.77673
153.905	21.5278
157.28	70.2339
160.654	138.05
164.029	214.571
167.404	281.669
170.779	312.814
174.154	294.146
177.528	234.217
180.903	154.048
184.278	82.3707
187.653	32.9029
191.028	3.62946
194.403	12.4052
197.777	14.8192
201.152	9.0351
204.527	2.19507
207.902	7.53943
211.277	18.2698
214.651	30.5839
218.026	42.7325
221.401	53.826
224.776	65.9993
228.151	78.8382
231.525	85.5649
234.9	98.8083
238.275	104.837
241.65	112.903
245.025	118.343
248.4	120.788
251.774	120.174
255.149	123.042
258.524	137.115
261.899	156.668
265.274	187.671
268.649	218.399
272.023	239.334
275.398	236.272
278.773	210.529
282.148	175.222
285.523	140.785
288.897	108.898
292.272	86.2092
295.647	70.5102
299.022	59.697
302.397	52.3817
305.772	50.3638
309.146	46.957
312.521	40.363
315.896	33.325
319.271	24.7584
322.646	16.9873
326.02	8.31824
329.395	1.14139
332.77	0.631256
336.145	5.02768
339.52	5.15579
342.894	0.507629
346.269	0.25116
349.644	4.25656
353.019	8.18698
356.394	14.7412
359.769	24.2615
363.143	34.0521
366.518	49.2455
369.893	63.6163
373.268	84.7207
376.643	108.74
380.017	134.279
383.392	162.411
386.767	186.267
390.142	203.683
393.517	213.103
396.892	214.369
400.266	205.286
403.641	191.359
407.016	173.626
410.391	158.901
413.766	138.723
417.14	121.408
420.515	102.73
423.89	83.7909
427.265	69.8473
430.64	60.871
434.014	58.783
437.389	72.8085
440.764	92.996
444.139	75.5896
447.514	34.9912
450.889	11.7927
454.263	1.93469
457.638	0.307098
461.013	2.78628
464.388	1.99777
467.763	0.909668
471.137	0.800537
474.512	0.043243
477.887	1.16617
481.262	4.80942
484.637	5.02612
488.012	8.21002
491.386	9.28256
494.761	12.4437
498.136	14.5717
501.511	13.4386
504.886	16.6168
508.26	16.8224
511.635	18.103
515.01	17.9866
518.385	17.143
521.76	14.6003
525.135	12.178
528.509	10.3549
531.884	8.07385
535.259	7.32657
538.634	4.70664
542.009	3.45905
545.384	3.72555
548.758	4.13995
552.133	3.22543
555.508	1.48544
558.883	2.57916
562.258	2.2182
565.632	2.043
569.007	1.78674
572.382	4.49194
575.757	0.276855
579.132	2.10467
582.506	1.51813
585.881	0.844147
589.256	2.21051
592.631	5.84082
596.006	9.25156
599.381	16.5599
602.755	23.3363
606.13	40.5808
609.505	43.2064
612.88	34.1656
616.255	22.8447
619.63	20.1318
623.004	14.1257
626.379	5.84427
629.754	1.96115
633.129	0.532959
636.504	0.641785
639.878	0.00766
643.253	0.033051
646.628	4.36316
650.003	0.140198
653.378	0.812927
656.752	0.051819
660.127	1.02924
663.502	0.223969
666.877	0.15274
670.252	1.98117
673.626	5.53268
677.001	11.3474
680.376	23.645
683.751	26.7952
687.126	22.0962
690.501	22.391
693.875	26.1625
697.25	34.5825
700.625	30.327
704	28.8176
707.375	33.9612
710.75	31.7392
714.124	8.50503
717.499	0.256683
720.874	1.28711
724.249	0.16925
727.624	0.249084
730.998	1.34653
734.373	3.88565
737.748	3.18985
741.123	2.87265
744.498	3.16037
747.872	3.0257
751.247	4.07422
754.622	2.16394
757.997	0.489258
761.372	1.0932
764.747	2.09317
768.121	4.143
771.496	5.547
774.871	6.64896
778.246	6.40338
781.621	8.69571
784.995	10.2018
788.37	10.2749
791.745	10.5679
795.12	11.1587
798.495	13.3171
801.87	14.3935
805.244	15.8075
808.619	13.8053
811.994	9.93591
815.369	10.2689
818.744	6.08814
822.119	4.49429
825.493	4.05746
828.868	7.16129
832.243	13.8598
835.618	25.4469
838.993	23.6534
842.367	13.1116
845.742	7.69611
849.117	7.40649
852.492	8.92172
855.867	13.4511
859.241	16.3619
862.616	17.0222
865.991	14.5497
869.366	8.8728
872.741	4.39847
876.115	2.33783
879.49	1.44934
882.865	0.811188
886.24	0.210663
889.615	1.05707
892.99	1.16046
896.364	0.653717
899.739	0.458893
903.114	0.931488
906.489	3.07645
909.864	0.079712
913.239	0.079681
916.613	0.0159
919.988	0.155304
923.363	0.358826
926.738	0.205109
930.113	1.26437
933.487	1.61346
936.862	0.175232
940.237	0.252625
943.612	2.41669
946.987	1.50592
950.361	7.12646
953.736	15.5843
957.111	34.2125
960.486	87.8379
963.861	178.351
967.236	388.547
970.61	632.615
973.985	303.229
977.36	79.9667
980.735	25.1787
984.11	11.8784
987.485	8.4596
990.859	1.75034
994.234	1.59109
997.609	0.344482
1000.98	0.527557
1004.36	0.963501
1007.73	0.681122
1011.11	0.751556
1014.48	0.818695
1017.86	2.35062
1021.23	4.48984
1024.61	11.8106
1027.98	20.6895
1031.36	21.476
1034.73	50.2374
1038.11	150.013
1041.48	433.64
1044.86	1064.02
1048.23	1970.94
1051.61	3148.39
1054.98	1455.55
1058.36	242.917
1061.73	83.8789
1065.11	79.5463
1068.48	89.7069
1071.86	105.147
1075.23	109.365
1078.6	106.004
1081.98	98.0371
1085.35	86.9111
1088.73	66.6847
1092.1	46.1511
1095.48	28.9302
1098.85	16.514
1102.23	10.8707
1105.6	6.35489
1108.98	5.05154
1112.35	5.23645
1115.73	2.36038
1119.1	1.58041
1122.48	0.171082
1125.85	0.835083
1129.23	0.797211
1132.6	1.11926
1135.98	0.97583
1139.35	0.225494
1142.73	0.234406
1146.1	0.04184
1149.48	0.530121
1152.85	1.43939
1156.22	1.00433
1159.6	1.96707
1162.97	1.24323
1166.35	0.984161
1169.72	1.81851
1173.1	1.92862
1176.47	2.96661
1179.85	3.96176
1183.22	3.01294
1186.6	3.12708
1189.97	3.64212
1193.35	4.48553
1196.72	5.03415
1200.1	5.04981
1203.47	3.60367
1206.85	5.27911
1210.22	5.30127
1213.6	5.49737
1216.97	4.69656
1220.35	5.26968
1223.72	5.95639
1227.1	3.23264
1230.47	4.26218
1233.85	2.16894
1237.22	1.73511
1240.6	1.37769
1243.97	1.83984
1247.35	0.094116
1250.72	1.50162
1254.1	1.06833
1257.47	1.84845
1260.85	1.32596
1264.22	1.53342
1267.59	1.02924
1270.97	1.04111
1274.34	1.68665
1277.72	2.6745
1281.09	1.11374
1284.47	2.42676
1287.84	1.34457
1291.22	1.53943
1294.59	1.99268
1297.97	0.097748
1301.34	0.002991
