Measurement: Raman, 780 nm, unoriented, Raman Data Processed
Mineral: Hydrocerussite
Rruff sample: R160062
Ideal chemistry: Pb^2+^_3_(CO_3_)_2_(OH)_2_
Locality: Tiger, Pinal County, Arizona, USA
Source: University of Arizona Mineral Museum
Description: Colorless massive crystals, associated with pale bluish leadhillite and colorless susannite. Both leadhillite and susannite show good cleavage.
Raman shift (cm-1)	intensity
93.9705	0
97.3453	12.1377
100.72	51.4553
104.095	130.446
107.47	214.641
110.845	269.859
114.219	286.816
117.594	286.668
120.969	310.347
124.344	339.867
127.719	347.209
131.094	276.099
134.468	132.42
137.843	39.4323
141.218	3.82873
144.593	7.39136
147.968	8.89099
151.342	7.27368
154.717	21.8156
158.092	55.7293
161.467	98.5234
164.842	143.628
168.216	175.734
171.591	189.901
174.966	179.521
178.341	151.034
181.716	115.061
185.09	82.869
188.465	59.3646
191.84	44.0463
195.215	35.6905
198.59	30.5719
201.965	23.1478
205.339	13.4336
208.714	5.54822
212.089	1.9637
215.464	3.91394
218.839	7.33745
222.214	7.99405
225.588	14.0373
228.963	15.9598
232.338	21.6503
235.713	24.3204
239.088	28.991
242.462	31.7433
245.837	31.1315
249.212	30.733
252.587	28.6492
255.962	29.0979
259.336	33.5674
262.711	40.8282
266.086	51.2626
269.461	59.2422
272.836	61.1173
276.211	58.5408
279.585	48.013
282.96	37.4082
286.335	27.6619
289.71	18.7751
293.085	13.8396
296.459	9.75304
299.834	8.7373
303.209	10.7589
306.584	6.6016
309.959	6.63084
313.334	4.39056
316.708	4.01921
320.083	2.49509
323.458	0.335648
326.833	0.175667
330.207	1.8555
333.582	2.79118
336.957	1.4008
340.332	1.56014
343.707	1.07375
347.082	0.156937
350.456	1.6121
353.831	3.05801
357.206	3.72295
360.581	6.1615
363.956	8.21509
367.33	11.588
370.705	15.3365
374.08	19.5425
377.455	25.1317
380.83	31.4296
384.205	37.0883
387.579	42.6176
390.954	47.8535
394.329	50.223
397.704	48.8927
401.079	46.7153
404.453	43.8187
407.828	39.2032
411.203	35.0566
414.578	30.8119
417.953	25.7586
421.327	21.5023
424.702	17.0235
428.077	16.9307
431.452	12.402
434.827	13.1585
438.202	19.7749
441.576	24.6938
444.951	16.5489
448.326	6.9057
451.701	2.58788
455.076	0.55619
458.45	0.039085
461.825	0.269691
465.2	0.508904
468.575	0.105194
471.95	1.6771
475.325	2.08154
478.699	0.862206
482.074	1.71474
485.449	1.95879
488.824	3.11862
492.199	3.23326
495.573	4.20649
498.948	4.70643
502.323	5.46598
505.698	5.55159
509.073	5.93888
512.447	6.33333
515.822	7.12931
519.197	5.37167
522.572	4.78083
525.947	3.38515
529.322	3.21666
532.696	3.10595
536.071	4.39057
539.446	1.77085
542.821	2.24435
546.196	1.70778
549.57	1.30353
552.945	1.60745
556.32	0.363636
559.695	1.11769
563.07	0.627628
566.444	0.842857
569.819	0.067654
573.194	0.853004
576.569	0.044941
579.944	0.118393
583.319	0.193878
586.693	0.007343
590.068	0.085983
593.443	2.67
596.818	2.03966
600.193	5.16016
603.567	4.31866
606.942	7.23231
610.317	7.56234
613.692	6.31378
617.067	3.52243
620.442	3.14702
623.816	1.77991
627.191	0.862583
630.566	0.503704
633.941	0.704842
637.316	0.064991
640.69	0.010017
644.065	0.104557
647.44	0.06937
650.815	0.002213
654.19	0.126987
657.564	0.321522
660.939	0.595028
664.314	0.466141
667.689	0.057175
671.064	0.766991
674.439	2.23598
677.813	7.00647
681.188	10.3726
684.563	8.36494
687.938	4.57689
691.313	4.68695
694.688	5.93441
698.062	5.28302
701.437	3.92327
704.812	3.7788
708.187	4.28771
711.562	2.92188
714.936	0.585609
718.311	0.00322
721.686	0.047634
725.061	0.532421
728.436	0.560215
731.81	0.686531
735.185	0.891228
738.56	0.196507
741.935	0.880093
745.31	0.479214
748.684	0.052151
752.059	0.638756
755.434	1.05982
758.809	0.935184
762.184	0.794556
765.559	0.271042
768.933	0.787571
772.308	0.95491
775.683	1.83926
779.058	1.55434
782.433	1.40897
785.808	0.947094
789.182	1.23634
792.557	2.28852
795.932	2.43391
799.307	2.42641
802.682	2.21366
806.056	2.75999
809.431	2.04007
812.806	1.55045
816.181	1.10787
819.556	0.394745
822.93	0.116657
826.305	0.660801
829.68	1.74621
833.055	3.89479
836.43	6.60529
839.804	4.68994
843.179	2.32903
846.554	1.14569
849.929	1.73663
853.304	2.3819
856.679	3.31273
860.053	3.32047
863.428	3.87025
866.803	2.96981
870.178	1.65466
873.553	0.80513
876.927	0.667164
880.302	0.335239
883.677	0.759556
887.052	0.364967
890.427	0.660488
893.802	0.21579
897.176	0.094864
900.551	0.718777
903.926	0.383072
907.301	0.135582
910.676	0.009972
914.05	0.42123
917.425	0.844921
920.8	0.915821
924.175	0.819496
927.55	0.826908
930.924	0.267578
934.299	0.351498
937.674	0.784687
941.049	0.367859
944.424	0.547386
947.799	0.902424
951.173	1.1112
954.548	2.9645
957.923	4.66468
961.298	11.4291
964.673	29.059
968.047	76.9952
971.422	88.3928
974.797	33.6469
978.172	8.39046
981.547	3.25218
984.922	1.36417
988.296	0.363632
991.671	1.18952
995.046	0.522671
998.421	0.203251
1001.8	0.229118
1005.17	0.684765
1008.54	0.464504
1011.92	0.120193
1015.29	0.096741
1018.67	0.719101
1022.04	0.84927
1025.42	1.80726
1028.79	2.97934
1032.17	3.03861
1035.54	6.88966
1038.92	17.1437
1042.29	53.438
1045.67	165.182
1049.04	342.848
1052.42	438.806
1055.79	126.218
1059.17	20.3938
1062.54	10.3412
1065.92	11.3133
1069.29	13.0788
1072.67	15.1855
1076.04	15.0604
1079.42	14.4425
1082.79	13.6156
1086.17	11.7657
1089.54	8.43333
1092.92	6.39989
1096.29	2.85933
1099.66	2.25773
1103.04	1.08222
1106.41	0.530281
1109.79	0.577351
1113.16	0.773846
1116.54	0.095085
1119.91	0.160564
1123.29	0.358189
1126.66	0.403702
1130.04	0.027332
1133.41	0.281639
1136.79	0.048977
1140.16	0.355694
1143.54	0.28194
1146.91	0.240208
1150.29	0.196869
1153.66	0.669018
1157.04	0.362793
1160.41	0.336014
1163.79	0.520683
1167.16	0.185226
1170.54	0.260574
1173.91	1.63119
1177.29	1.44623
1180.66	1.50536
1184.04	1.52115
1187.41	0.770851
1190.79	0.800636
1194.16	0.22184
1197.54	0.826515
1200.91	1.23143
1204.28	1.34715
1207.66	0.642151
1211.03	0.781441
1214.41	1.79361
1217.78	1.41049
1221.16	0.830879
1224.53	1.51015
1227.91	1.03287
1231.28	0.810905
1234.66	0.987335
1238.03	0.441391
1241.41	0.402855
1244.78	0.371254
1248.16	0.715874
1251.53	0.076172
1254.91	0.501762
1258.28	0.429085
1261.66	0.741966
1265.03	0.709953
1268.41	0.705391
1271.78	0.522247
1275.16	0.708809
1278.53	0.792725
1281.9	0.665695
