Measurement: Raman, 780 nm, unoriented, Raman Data Processed
Mineral: Johannsenite
Rruff sample: R140753
Ideal chemistry: CaMn^2+^Si_2_O_6_
Locality: Franklin, Franklin Mining District, Sussex County, New Jersey, USA
Source: Rock Currier
Description: Vitreous white small prismatic striated crystals on tips and edges of pink rhodochrosite crystals on beige fine granular matrix, associated with prismatic colorless willemite.
Measured chemistry: (Ca_0.97_Na_0.02_)_Σ=0.99_(Mn^2+^_0.86_Mg_0.11_Fe_0.04_Zn_0.02_)_Σ=1.03_(Si_1.99_Al_0.01_)_Σ=1_O_6_
Raman shift (cm-1)	intensity
93.9705	0
97.3453	20.275
100.72	13.4761
104.095	27.2455
107.47	16.8856
110.845	5.85925
114.219	5.10706
117.594	28.3414
120.969	37.5791
124.344	82.2007
127.719	60.3377
131.094	42.8726
134.468	23.3323
137.843	17.1011
141.218	28.0811
144.593	15.9812
147.968	4.44421
151.342	7.29925
154.717	1.53534
158.092	7.33478
161.467	14.724
164.842	28.0615
168.216	36.5748
171.591	35.0742
174.966	38.2922
178.341	53.1829
181.716	83.7686
185.09	66.9143
188.465	62.8976
191.84	62.1833
195.215	65.6767
198.59	44.0262
201.965	31.0181
205.339	26.4421
208.714	22.2272
212.089	15.6233
215.464	11.9392
218.839	15.9042
222.214	15.6619
225.588	20.0687
228.963	26.9714
232.338	33.6668
235.713	39.8135
239.088	24.0815
242.462	10.3684
245.837	8.99457
249.212	4.10559
252.587	5.64252
255.962	1.76605
259.336	3.83868
262.711	0.237366
266.086	0.48822
269.461	0.876953
272.836	1.20142
276.211	4.0069
279.585	2.12018
282.96	8.31396
286.335	17.8095
289.71	36.9474
293.085	61.4235
296.459	97.4932
299.834	136.56
303.209	143.167
306.584	108.644
309.959	61.9307
313.334	36.9088
316.708	26.19
320.083	27.5046
323.458	39.1266
326.833	53.8184
330.207	79.1769
333.582	103.413
336.957	131.654
340.332	139.721
343.707	92.3444
347.082	56.2038
350.456	38.575
353.831	39.6198
357.206	51.3984
360.581	79.2297
363.956	113.258
367.33	167.262
370.705	242.68
374.08	297.257
377.455	245.365
380.83	136.014
384.205	68.3494
387.579	34.3076
390.954	17.9725
394.329	8.26862
397.704	3.66583
401.079	0.273438
404.453	0.618774
407.828	0.127808
411.203	2.08044
414.578	0.555847
417.953	2.13629
421.327	0.060242
424.702	1.9953
428.077	4.17975
431.452	4.48053
434.827	5.18372
438.202	6.35998
441.576	8.71265
444.951	9.82141
448.326	3.97687
451.701	3.97534
455.076	5.6684
458.45	4.73041
461.825	6.25879
465.2	6.50098
468.575	10.4345
471.95	7.82214
475.325	5.86529
478.699	7.03619
482.074	7.96716
485.449	9.86041
488.824	20.2534
492.199	21.6107
495.573	20.2499
498.948	13.6337
502.323	11.4676
505.698	6.43225
509.073	8.73846
512.447	10.9373
515.822	10.9877
519.197	17.9692
522.572	23.0661
525.947	21.9992
529.322	14.2036
532.696	6.70282
536.071	6.4234
539.446	10.9672
542.821	13.9269
546.196	21.5128
549.57	36.0475
552.945	43.1624
556.32	30.9846
559.695	13.8333
563.07	6.60797
566.444	2.80783
569.819	3.88144
573.194	2.78998
576.569	2.07181
579.944	1.75284
583.319	0.635437
586.693	2.86633
590.068	0.845428
593.443	1.43558
596.818	1.91797
600.193	4.48132
603.567	4.83328
606.942	4.28409
610.317	6.02368
613.692	7.16971
617.067	6.2789
620.442	7.50244
623.816	11.6814
627.191	15.716
630.566	21.735
633.941	27.9004
637.316	40.1458
640.69	62.8335
644.065	92.2887
647.44	149.378
650.815	225.445
654.19	298.291
657.564	257.988
660.939	153.668
664.314	79.9477
667.689	46.6493
671.064	26.5286
674.439	19.9616
677.813	13.6857
681.188	10.601
684.563	6.85791
687.938	6.58365
691.313	5.83276
694.688	4.40653
698.062	7.69498
701.437	5.1814
704.812	0.645599
708.187	3.03888
711.562	0.890778
714.936	2.888
718.311	1.05365
721.686	0.45697
725.061	0.397461
728.436	0.660858
731.81	0.493744
735.185	1.83716
738.56	0.265533
741.935	0.535156
745.31	0.684967
748.684	1.35934
752.059	1.51935
755.434	1.01465
758.809	0.154419
762.184	3.81769
765.559	2.2384
768.933	0.972168
772.308	4.56723
775.683	1.9397
779.058	0.999939
782.433	2.99948
785.808	3.07617
789.182	2.52649
792.557	0.076874
795.932	1.54981
799.307	2.51184
802.682	4.51633
806.056	7.14807
809.431	1.95483
812.806	4.60321
816.181	6.77081
819.556	6.62051
822.93	7.68503
826.305	6.10703
829.68	5.77411
833.055	6.33658
836.43	7.48346
839.804	12.2762
843.179	13.0837
846.554	16.1267
849.929	14.996
853.304	11.165
856.679	15.7638
860.053	16.5607
863.428	9.06747
866.803	13.0956
870.178	10.3959
873.553	10.4326
876.927	9.02744
880.302	8.4848
883.677	8.45477
887.052	10.318
890.427	8.46643
893.802	9.63681
897.176	9.01096
900.551	11.0778
903.926	12.8477
907.301	13.6782
910.676	8.59628
914.05	4.05499
917.425	1.8057
920.8	3.11877
924.175	0.259521
927.55	3.16547
930.924	2.7717
934.299	2.65149
937.674	0.068604
941.049	1.43506
944.424	2.26446
947.799	0.174225
951.173	0.454041
954.548	2.13977
957.923	3.18024
961.298	3.51071
964.673	1.22473
968.047	2.89273
971.422	1.8829
974.797	3.81915
978.172	5.92468
981.547	10.3432
984.922	8.8349
988.296	12.7221
991.671	16.6035
995.046	29.1486
998.421	45.583
1001.8	82.7309
1005.17	150.554
1008.54	273.21
1011.92	484.56
1015.29	571.5
1018.67	280.174
1022.04	124.148
1025.42	82.0662
1028.79	73.3175
1032.17	82.6842
1035.54	69.1792
1038.92	41.9819
1042.29	25.3564
1045.67	16.0252
1049.04	12.2852
1052.42	11.7035
1055.79	8.35037
1059.17	8.84561
1062.54	7.31613
1065.92	2.22937
1069.29	0.676178
1072.67	4.52286
1076.04	1.6488
1079.42	0.193237
1082.79	0.037567
1086.17	0.511536
1089.54	0.611298
1092.92	1.24835
1096.29	1.17923
1099.66	0.410217
1103.04	2.70554
1106.41	2.20252
1109.79	0.842865
1113.16	1.55426
1116.54	3.4541
1119.91	5.91303
1123.29	2.33255
1126.66	0.269989
1130.04	2.10171
1133.41	2.70334
1136.79	1.77197
1140.16	2.35785
1143.54	0.006958
1146.91	1.51315
1150.29	2.66626
1153.66	0.55249
1157.04	2.97418
1160.41	0.764435
1163.79	1.6543
1167.16	5.11218
1170.54	3.78125
1173.91	4.68198
1177.29	1.01978
1180.66	4.85229
1184.04	4.96439
1187.41	3.81616
1190.79	3.53021
1194.16	3.67429
1197.54	2.66431
1200.91	3.53723
1204.28	3.42792
1207.66	2.43262
1211.03	2.55225
1214.41	2.64038
1217.78	2.24042
1221.16	0.593506
1224.53	0.635437
1227.91	2.68164
1231.28	1.47809
1234.66	2.39404
1238.03	2.26282
1241.41	3.51389
1244.78	0.925415
1248.16	2.7612
1251.53	1.14691
1254.91	0.841217
1258.28	3.79269
1261.66	2.7692
1265.03	3.39352
1268.41	3.38403
1271.78	3.99124
1275.16	4.86954
1278.53	2.18539
1281.9	0.994598
