Measurement: Raman, 532 nm, unoriented, Raman Data Processed
Mineral: Johannsenite
Rruff sample: R140753
Ideal chemistry: CaMn^2+^Si_2_O_6_
Locality: Franklin, Franklin Mining District, Sussex County, New Jersey, USA
Source: Rock Currier
Description: Vitreous white small prismatic striated crystals on tips and edges of pink rhodochrosite crystals on beige fine granular matrix, associated with prismatic colorless willemite.
Measured chemistry: (Ca_0.97_Na_0.02_)_Σ=0.99_(Mn^2+^_0.86_Mg_0.11_Fe_0.04_Zn_0.02_)_Σ=1.03_(Si_1.99_Al_0.01_)_Σ=1_O_6_
Raman shift (cm-1)	intensity
89.7832	0
93.158	28.1397
96.5328	11.9914
99.9077	5.21478
103.282	6.86585
106.657	0.055817
110.032	22.07
113.407	12.8668
116.782	32.759
120.157	50.8258
123.531	72.8108
126.906	73.7282
130.281	37.585
133.656	23.638
137.031	16.8244
140.405	31.9993
143.78	24.4882
147.155	14.711
150.53	5.4584
153.905	1.86505
157.28	3.19638
160.654	2.11874
164.029	14.3511
167.404	22.0852
170.779	17.425
174.154	23.5414
177.528	40.179
180.903	64.7715
184.278	53.1253
187.653	44.5663
191.028	52.277
194.403	47.8308
197.777	29.1855
201.152	13.7496
204.527	7.643
207.902	2.04138
211.277	2.26059
214.651	2.17929
218.026	1.7876
221.401	5.36963
224.776	9.96039
228.151	16.7758
231.525	20.2169
234.9	19.4807
238.275	7.63345
241.65	0.182617
245.025	2.55054
248.4	4.27499
251.774	5.33963
255.149	4.5329
258.524	1.77216
261.899	5.0708
265.274	6.85791
268.649	9.14023
272.023	7.98178
275.398	10.5499
278.773	17.6196
282.148	32.0454
285.523	49.7598
288.897	73.5476
292.272	104.452
295.647	150.973
299.022	180.083
302.397	171.869
305.772	126.529
309.146	86.2781
312.521	61.3936
315.896	52.8136
319.271	60.8003
322.646	80.2987
326.02	107.327
329.395	143.781
332.77	177.776
336.145	204.797
339.52	184.579
342.894	134.023
346.269	89.9873
349.644	72.2465
353.019	77.4922
356.394	99.8518
359.769	139.262
363.143	192.502
366.518	266.426
369.893	343.264
373.268	359.796
376.643	273.671
380.017	163.947
383.392	92.6392
386.767	49.9669
390.142	27.6435
393.517	14.9428
396.892	8.83044
400.266	5.67297
403.641	3.58813
407.016	0.703278
410.391	3.17502
413.766	2.10037
417.14	0.073486
420.515	1.19919
423.89	1.32025
427.265	0.548218
430.64	1.10901
434.014	1.4083
437.389	4.52652
440.764	6.82385
444.139	7.39911
447.514	3.3439
450.889	3.23233
454.263	1.45627
457.638	4.3902
461.013	3.42813
464.388	2.77466
467.763	7.92743
471.137	3.80246
474.512	5.86774
477.887	9.15063
481.262	14.1377
484.637	24.1552
488.012	27.9552
491.386	29.4284
494.761	25.9242
498.136	20.0092
501.511	16.3818
504.886	17.8274
508.26	20.3541
511.635	24.1454
515.01	28.1876
518.385	35.1518
521.76	40.9633
525.135	37.1643
528.509	27.3967
531.884	23.8502
535.259	27.0167
538.634	31.4912
542.009	40.062
545.384	56.1601
548.758	69.4876
552.133	71.1079
555.508	46.2638
558.883	29.0946
562.258	17.9206
565.632	10.9764
569.007	6.02203
572.382	3.50952
575.757	1.86349
579.132	0.66684
582.506	1.54544
585.881	0.155701
589.256	1.19498
592.631	0.980194
596.006	0.496582
599.381	0.410187
602.755	2.33417
606.13	4.48059
609.505	5.04886
612.88	8.29608
616.255	10.5712
619.63	14.8301
623.004	20.6548
626.379	23.8245
629.754	37.4311
633.129	53.2506
636.504	85.6168
639.878	138.024
643.253	209.678
646.628	314.357
650.003	439.506
653.378	512.686
656.752	415.231
660.127	250.066
663.502	145.742
666.877	86.8323
670.252	56.6382
673.626	38.9119
677.001	24.2383
680.376	17.8513
683.751	18.7391
687.126	12.8087
690.501	13.2919
693.875	11.8677
697.25	11.4531
700.625	3.87824
704	2.17398
707.375	4.17532
710.75	0.895966
714.124	0.169464
717.499	0.389343
720.874	0.341705
724.249	1.71466
727.624	2.22891
730.998	3.02652
734.373	4.87009
737.748	6.58215
741.123	7.02966
744.498	9.1683
747.872	11.1851
751.247	15.5393
754.622	11.2742
757.997	13.0891
761.372	8.33673
764.747	7.79053
768.121	7.0816
771.496	1.021
774.871	2.42407
778.246	2.93921
781.621	4.47559
784.995	1.57599
788.37	1.21014
791.745	0.67688
795.12	0.525757
798.495	0.595093
801.87	0.258362
805.244	1.51465
808.619	5.09796
811.994	4.66809
815.369	4.62537
818.744	4.42438
822.119	6.11224
825.493	6.95904
828.868	8.41339
832.243	11.1538
835.618	19.3523
838.993	32.7101
842.367	36.8674
845.742	35.8492
849.117	29.8612
852.492	26.7297
855.867	26.8
859.241	24.1358
862.616	23.6095
865.991	21.0282
869.366	24.8351
872.741	21.799
876.115	21.684
879.49	22.5023
882.865	22.3376
886.24	19.5187
889.615	21.5811
892.99	24.3663
896.364	26.0497
899.739	28.8785
903.114	34.057
906.489	32.1555
909.864	21.8047
913.239	17.4153
916.613	8.60419
919.988	9.45502
923.363	5.91461
926.738	1.33545
930.113	1.73633
933.487	2.36377
936.862	0.786133
940.237	1.20721
943.612	0.971313
946.987	1.11523
950.361	3.66284
953.736	6.21295
957.111	5.17761
960.486	5.29645
963.861	8.34033
967.236	10.211
970.61	12.7871
973.985	13.5452
977.36	14.4116
980.735	18.9705
984.11	27.1125
987.485	37.8719
990.859	52.5359
994.234	84.3709
997.609	143.08
1000.98	269.398
1004.36	471.455
1007.73	773.213
1011.11	1180.17
1014.48	1079
1017.86	523.855
1021.23	273.072
1024.61	198.048
1027.98	189.428
1031.36	186.744
1034.73	140.189
1038.11	83.7409
1041.48	55.8559
1044.86	37.544
1048.23	30.059
1051.61	22.0028
1054.98	15.5633
1058.36	9.27716
1061.73	4.70904
1065.11	2.58588
1068.48	0.327942
1071.86	2.21777
1075.23	2.08569
1078.6	1.43487
1081.98	0.931335
1085.35	1.43878
1088.73	0.136353
1092.1	0.721802
1095.48	1.03394
1098.85	4.99207
1102.23	2.68915
1105.6	9.22723
1108.98	5.61346
1112.35	7.32031
1115.73	10.0155
1119.1	6.19617
1122.48	8.87958
1125.85	7.57849
1129.23	1.44281
1132.6	3.04217
1135.98	1.61969
1139.35	0.468384
1142.73	0.198547
1146.1	3.55719
1149.48	1.12677
1152.85	1.41534
1156.22	0.776489
1159.6	2.29517
1162.97	1.38727
1166.35	2.71551
1169.72	0.898499
1173.1	0.054688
1176.47	2.52997
1179.85	3.76849
1183.22	5.2478
1186.6	4.784
1189.97	3.93646
1193.35	2.63007
1196.72	4.38471
1200.1	2.92645
1203.47	7.39661
1206.85	3.34235
1210.22	5.64392
1213.6	3.44592
1216.97	5.07025
1220.35	3.58606
1223.72	3.19348
1227.1	2.69391
1230.47	5.99622
1233.85	4.42389
1237.22	5.66095
1240.6	5.32312
1243.97	3.83258
1247.35	5.90576
1250.72	9.03162
1254.1	5.47516
1257.47	6.52722
1260.85	1.61597
1264.22	1.99603
1267.59	4.6366
1270.97	0.010864
1274.34	1.91449
1277.72	2.44977
1281.09	2.58868
1284.47	2.66425
1287.84	1.06531
1291.22	2.95148
1294.59	2.72076
1297.97	2.3714
1301.34	0.37439
