Measurement: Raman, 532 nm, unoriented, Raman Data Processed
Mineral: Kapellasite
Rruff sample: R140623
Ideal chemistry: Cu^2+^_3_Zn^2+^(OH)_6_Cl_2_
Locality: Sounion mine No. 19, Lavrion District, Attik√≠ Prefecture, Greece
Source: Stefan Schorn
Description: Acicular green-blue tufts
Raman shift (cm-1)	intensity
89.7832	0
93.158	25.7254
96.5328	21.6602
99.9077	4.23438
103.282	19.2323
106.657	36.9534
110.032	77.8533
113.407	78.1752
116.782	109.538
120.157	155.31
123.531	100.462
126.906	30.2823
130.281	1.26892
133.656	0.149048
137.031	5.28775
140.405	18.5843
143.78	49.8471
147.155	81.8624
150.53	129.037
153.905	198.788
157.28	296.941
160.654	339.924
164.029	247.465
167.404	150.397
170.779	91.1636
174.154	47.873
177.528	18.9158
180.903	7.89044
184.278	5.31204
187.653	6.89108
191.028	6.80844
194.403	3.01096
197.777	5.61526
201.152	10.6222
204.527	21.1217
207.902	29.7886
211.277	43.7383
214.651	60.6639
218.026	84.6355
221.401	100.327
224.776	115.749
228.151	138.269
231.525	168.218
234.9	199.609
238.275	226.404
241.65	246.58
245.025	252.481
248.4	241.212
251.774	209.778
255.149	166.17
258.524	121.827
261.899	89.6955
265.274	62.1439
268.649	43.9043
272.023	30.3131
275.398	19.5853
278.773	11.483
282.148	5.67081
285.523	0.389435
288.897	1.67102
292.272	3.47617
295.647	3.13922
299.022	0.68045
302.397	4.81662
305.772	13.69
309.146	27.8651
312.521	52.3982
315.896	79.6525
319.271	112.745
322.646	153.946
326.02	184.88
329.395	183.648
332.77	145.879
336.145	97.8053
339.52	57.5309
342.894	30.7094
346.269	12.432
349.644	2.83984
353.019	2.42719
356.394	3.18707
359.769	0.727356
363.143	1.90161
366.518	4.6322
369.893	7.32877
373.268	8.58164
376.643	9.05701
380.017	10.8174
383.392	21.4829
386.767	40.4102
390.142	75.7567
393.517	129.117
396.892	209.853
400.266	312.857
403.641	437.407
407.016	605.231
410.391	790.515
413.766	806.997
417.14	577.582
420.515	332.026
423.89	180.651
427.265	104.523
430.64	67.0011
434.014	49.1253
437.389	35.444
440.764	25.2193
444.139	15.1327
447.514	12.3398
450.889	14.8332
454.263	25.4494
457.638	45.6752
461.013	69.5872
464.388	103.56
467.763	143.246
471.137	185.524
474.512	229.851
477.887	276.447
481.262	325.103
484.637	319.993
488.012	250.589
491.386	172.491
494.761	115.598
498.136	79.8388
501.511	55.498
504.886	38.8809
508.26	25.0477
511.635	15.1298
515.01	6.17584
518.385	0.419556
521.76	2.07194
525.135	3.16884
528.509	3.73585
531.884	2.57726
535.259	0.813202
538.634	0.32547
542.009	3.03796
545.384	1.99306
548.758	4.49941
552.133	5.70004
555.508	5.95511
558.883	9.70233
562.258	11.0108
565.632	11.746
569.007	12.192
572.382	14.2969
575.757	15.7441
579.132	15.8086
582.506	15.0253
585.881	15.0574
589.256	12.5018
592.631	12.641
596.006	10.3019
599.381	10.3733
602.755	9.04935
606.13	7.51608
609.505	7.41892
612.88	5.98358
616.255	5.71197
619.63	4.90112
623.004	4.44369
626.379	1.88692
629.754	2.71938
633.129	0.093735
636.504	1.2883
639.878	0.719955
643.253	0.571548
646.628	1.8143
650.003	0.306793
653.378	2.30791
656.752	0.408264
660.127	0.518967
663.502	0.199463
666.877	1.97276
670.252	1.51672
673.626	1.36771
677.001	0.63298
680.376	2.26944
683.751	1.97311
687.126	2.66859
690.501	3.43008
693.875	4.23343
697.25	3.38916
700.625	2.97601
704	4.11874
707.375	2.97836
710.75	3.47015
714.124	2.97485
717.499	1.15262
720.874	0.906464
724.249	0.249908
727.624	3.11276
730.998	2.0871
734.373	3.22876
737.748	4.82843
741.123	6.36621
744.498	8.65613
747.872	10.0437
751.247	9.50241
754.622	6.12601
757.997	6.21362
761.372	2.5527
764.747	2.69263
768.121	1.44244
771.496	0.210968
774.871	1.26184
778.246	0.421814
781.621	0.295074
784.995	0.079315
788.37	0.907684
791.745	1.55359
795.12	0.987671
798.495	1.34924
801.87	2.75421
805.244	1.43887
808.619	0.038635
811.994	0.02063
815.369	1.5502
818.744	0.873383
822.119	0.37912
825.493	0.796173
828.868	1.89011
832.243	4.44675
835.618	7.82062
838.993	14.9567
842.367	20.518
845.742	31.6597
849.117	40.0021
852.492	45.5959
855.867	47.7571
859.241	47.5779
862.616	48.1721
865.991	46.9814
869.366	42.3692
872.741	43.0562
876.115	40.2087
879.49	41.9175
882.865	44.1013
886.24	48.6643
889.615	56.9754
892.99	65.5378
896.364	78.9966
899.739	90.0633
903.114	99.6439
906.489	104.751
909.864	108.127
913.239	102.567
916.613	86.4908
919.988	63.3328
923.363	42.6692
926.738	26.4051
930.113	17.1211
933.487	12.2835
936.862	7.44263
940.237	6.12335
943.612	4.64745
946.987	2.27861
950.361	2.09856
953.736	0.994598
957.111	0.811508
960.486	0.62088
963.861	0.7612
967.236	0.766006
970.61	0.415192
973.985	2.20918
977.36	1.89455
980.735	0.431747
984.11	1.64038
987.485	1.84705
990.859	1.55414
994.234	0.458878
997.609	0.774857
1000.98	0.749237
1004.36	1.04424
1007.73	2.40816
1011.11	1.72125
1014.48	2.12488
1017.86	2.51051
1021.23	2.25122
1024.61	0.878448
1027.98	2.2708
1031.36	2.92483
1034.73	4.35686
1038.11	3.97322
1041.48	4.51604
1044.86	4.11659
1048.23	4.27191
1051.61	4.70223
1054.98	3.72697
1058.36	2.84532
1061.73	2.04298
1065.11	1.57875
1068.48	2.09666
1071.86	0.272324
1075.23	0.97963
1078.6	1.82665
1081.98	3.77216
1085.35	0.172897
1088.73	1.40291
1092.1	0.518661
1095.48	0.395844
1098.85	1.43375
1102.23	0.213669
1105.6	0.410202
1108.98	0.848419
1112.35	1.78177
1115.73	0.405304
1119.1	0.392029
1122.48	1.16873
1125.85	0.316101
1129.23	1.41228
1132.6	0.681061
1135.98	0.097794
1139.35	1.21226
1142.73	1.11131
1146.1	1.67625
1149.48	0.863586
1152.85	0.830551
1156.22	1.26463
1159.6	0.80014
1162.97	1.15082
1166.35	1.0741
1169.72	0.55011
1173.1	1.25017
1176.47	0.380112
1179.85	1.87268
1183.22	0.983887
1186.6	1.60667
1189.97	1.33603
1193.35	1.64157
1196.72	1.45731
1200.1	1.31486
1203.47	2.03748
1206.85	1.98996
1210.22	0.006714
1213.6	1.00128
1216.97	1.6125
1220.35	1.73682
1223.72	1.31805
1227.1	0.565475
1230.47	0.137131
1233.85	1.24733
1237.22	0.878403
1240.6	0.913879
1243.97	0.6987
1247.35	1.94135
1250.72	2.07631
1254.1	1.67258
1257.47	1.54361
1260.85	0.696579
1264.22	1.09895
1267.59	1.57465
1270.97	0.838135
1274.34	1.21811
1277.72	1.27422
1281.09	0.251831
1284.47	0.242844
1287.84	0.184235
1291.22	0.934982
1294.59	1.93993
1297.97	1.43091
1301.34	0.002808
