Measurement: Raman, 780 nm, unoriented, Raman Data Processed
Mineral: Katoptrite
Rruff sample: R140009
Ideal chemistry: Mn^2+^_13_Al_4_Sb^5+^_2_O_20_(SiO_4_)_2_
Locality: Brattfors mine, Nordmark, Filipstad, VÃ¤rmland, Sweden
Source: Rock Currier
Description: Tiny grains of thin black splinters or flakes
Raman shift (cm-1)	intensity
97.8274	0
101.202	5.20789
104.577	0.02124
107.952	5.62143
111.327	3.28201
114.701	16.6989
118.076	33.1592
121.451	25.2323
124.826	18.1645
128.201	7.1702
131.576	7.55444
134.95	5.26234
138.325	0.385529
141.7	2.32899
145.075	1.17748
148.45	0.214798
151.825	0.934875
155.199	1.05959
158.574	2.63516
161.949	2.1136
165.324	7.85919
168.698	8.18543
172.073	11.3602
175.448	12.8919
178.823	15.9149
182.198	16.9821
185.573	14.9374
188.947	15.85
192.322	17.8915
195.697	21.4196
199.072	24.1345
202.447	20.828
205.821	19.8172
209.196	16.8619
212.571	15.8511
215.946	17.2908
219.321	18.1609
222.696	20.0098
226.07	20.8446
229.445	20.2099
232.82	17.1866
236.195	13.5707
239.57	11.93
242.945	11.6157
246.319	12.1957
249.694	13.3482
253.069	13.2505
256.444	11.4051
259.818	9.01582
263.193	6.49776
266.568	4.13565
269.943	1.5574
273.318	0.402298
276.693	0.315544
280.067	0.974739
283.442	1.89726
286.817	1.33278
290.192	3.12734
293.567	4.93037
296.942	6.33321
300.316	9.37083
303.691	6.71298
307.066	7.95177
310.441	4.96027
313.816	5.14738
317.19	6.89164
320.565	8.66874
323.94	9.01359
327.315	6.56497
330.69	3.65736
334.065	2.25931
337.439	1.67809
340.814	1.0808
344.189	1.62003
347.564	2.19914
350.938	2.77937
354.313	2.61607
357.688	2.35474
361.063	1.98042
364.438	0.939873
367.813	0.100426
371.187	0.562195
374.562	0.37513
377.937	0.37796
381.312	0.535896
384.687	1.09936
388.062	4.11289
391.436	6.11631
394.811	6.61205
398.186	7.41452
401.561	7.25648
404.935	7.4257
408.31	8.75563
411.685	9.30267
415.06	10.9444
418.435	12.4258
421.81	15.436
425.184	15.7113
428.559	14.9509
431.934	11.9896
435.309	8.14682
438.684	3.76665
442.058	0.855438
445.433	1.40463
448.808	1.32579
452.183	0.168533
455.558	2.69821
458.933	7.12678
462.307	10.1732
465.682	15.9332
469.057	19.8557
472.432	22.6316
475.807	23.3951
479.182	22.6475
482.556	19.5982
485.931	18.9667
489.306	19.3013
492.681	25.6202
496.055	32.2742
499.43	42.2915
502.805	53.7466
506.18	65.7506
509.555	75.125
512.93	79.4228
516.304	72.6916
519.679	59.3858
523.054	41.6924
526.429	26.5868
529.804	14.2807
533.178	7.849
536.553	1.2247
539.928	0.425995
543.303	0.453842
546.678	1.62546
550.053	3.39841
553.427	5.59631
556.802	11.7474
560.177	19.7464
563.552	31.5552
566.927	46.525
570.302	61.2896
573.676	77.5388
577.051	88.9419
580.426	100.359
583.801	104.292
587.176	100.464
590.55	78.4616
593.925	50.5383
597.3	30.2232
600.675	14.7627
604.05	7.81515
607.424	2.58325
610.799	0.541016
614.174	1.64218
617.549	0.265511
620.924	0.196381
624.298	2.02749
627.673	4.857
631.048	7.18147
634.423	10.0148
637.798	13.2366
641.173	16.9029
644.547	26.5267
647.922	38.9068
651.297	60.0097
654.672	87.126
658.047	122.686
661.421	158.488
664.796	193.462
668.171	217.882
671.546	222.24
674.921	200.625
678.295	165.147
681.67	134.285
685.045	107.515
688.42	81.2575
691.795	60.1608
695.17	42.9103
698.544	28.8292
701.919	18.1238
705.294	11.0768
708.669	5.8962
712.044	1.82737
715.418	0.816803
718.793	1.52764
722.168	2.24576
725.543	0.218819
728.918	0.580986
732.293	3.26597
735.667	7.4273
739.042	11.6296
742.417	16.9731
745.792	22.4892
749.167	29.126
752.541	37.3896
755.916	47.5837
759.291	55.5451
762.666	62.4463
766.041	61.9359
769.415	56.4606
772.79	53.6918
776.165	53.3032
779.54	58.969
782.915	64.1859
786.29	69.7383
789.664	65.2418
793.039	57.1182
796.414	46.4909
799.789	31.9814
803.164	18.7381
806.538	10.3796
809.913	3.94411
813.288	1.5415
816.663	2.96946
820.038	3.34402
823.413	4.10588
826.787	6.16791
830.162	9.62962
833.537	14.7769
836.912	21.595
840.287	31.723
843.661	40.4113
847.036	46.0793
850.411	43.8622
853.786	33.9951
857.161	23.1356
860.535	13.4155
863.91	8.93845
867.285	4.02356
870.66	1.76518
874.035	0.980789
877.409	0.067635
880.784	0.298111
884.159	0.230522
887.534	0.036003
890.909	1.01986
894.284	1.23816
897.658	0.657562
901.033	0.133591
904.408	1.04999
907.783	1.87727
911.158	2.67846
914.533	4.77597
917.907	7.1472
921.282	6.9966
924.657	4.55844
928.032	2.4306
931.407	0.781197
934.781	0.457985
938.156	0.748322
941.531	2.23216
944.906	3.82265
948.281	4.8921
951.655	5.00167
955.03	4.13982
958.405	1.88121
961.78	0.882767
965.155	1.76281
968.529	1.96812
971.904	0.687225
975.279	2.08794
978.654	1.7503
982.029	1.78921
985.404	2.05088
988.778	0.930801
992.153	1.0959
995.528	1.11435
998.903	0.408775
1002.28	0.30513
1005.65	0.064888
1009.03	0.730034
1012.4	1.17521
1015.78	1.01703
1019.15	0.42775
1022.53	0.727783
1025.9	0.614983
1029.28	0.114059
1032.65	0.125038
1036.03	1.26025
1039.4	1.78149
1042.78	2.34251
1046.15	1.8846
1049.53	1.99072
1052.9	1.41006
1056.28	0.84063
1059.65	0.9608
1063.02	1.95295
1066.4	0.907036
1069.77	0.764847
1073.15	0.47406
1076.52	0.63031
1079.9	0.534981
1083.27	0.002876
1086.65	0.877823
1090.02	0.23111
1093.4	0.448006
1096.77	0.831902
1100.15	0.42485
1103.52	0.084198
1106.9	0.50721
1110.27	0.608917
1113.65	0.313515
1117.02	0.084137
1120.4	0.240974
1123.77	0.74054
1127.15	0.190697
1130.52	0.286873
1133.9	0.260818
1137.27	1.20364
1140.64	0.632118
1144.02	1.07904
1147.39	0.708038
1150.77	1.76231
1154.14	0.390045
1157.52	2.05993
1160.89	1.22863
1164.27	1.33153
1167.64	1.42865
1171.02	0.993637
1174.39	1.35153
1177.77	1.45434
1181.14	1.57743
1184.52	2.51894
1187.89	0.927391
1191.27	1.45467
1194.64	0.72467
1198.02	0.774902
1201.39	1.33718
1204.77	0.554184
1208.14	0.981155
1211.52	1.41817
1214.89	1.10418
1218.27	1.60871
1221.64	0.504814
1225.02	0.185638
1228.39	0.971298
1231.77	0.991386
1235.14	1.03526
1238.52	0.823288
1241.89	1.03973
1245.26	0.618271
1248.64	0.488472
1252.01	0.661156
1255.39	0.736397
1258.76	0.83651
1262.14	1.49875
1265.51	0.924667
1268.89	0.817856
1272.26	1.23201
1275.64	0.707504
1279.01	0.147743
1282.39	0.865585
