Measurement: Raman, 532 nm, unoriented, Raman Data Processed
Mineral: Kenoplumbomicrolite
Rruff sample: R130729
Ideal chemistry: (Pb^2+^,[box])_2_Ta^5+^_2_O_6_[[box],(OH),O]
Locality: Ploskaya Mountains, Keivy Massif, Kola, Russian Federation
Source: Donald Doell
Description: Massive brown crystals with uneven fracture.
Measured chemistry: (Pb_1.36_Ca_0.36_Na_0.05_)_Σ1.77_(Ta_0.97_Nb_0.69_Fe_0.19_Sn_0.08_Ti_0.07_)_Σ2_O_6.48_
Raman shift (cm-1)	intensity
88.1367	0
91.5115	10.1589
94.8863	3.65894
98.2612	64.1405
101.636	225.405
105.011	454.461
108.386	756.542
111.76	1104.78
115.135	1490.23
118.51	1844.84
121.885	2103.41
125.26	2200.2
128.635	2182.25
132.009	2038.67
135.384	1636.37
138.759	1248.41
142.134	987.697
145.509	855.109
148.883	747.395
152.258	685.583
155.633	611.43
159.008	550.234
162.383	492.486
165.757	430.253
169.132	373.223
172.507	314.735
175.882	267.542
179.257	229.246
182.632	197.629
186.006	157.525
189.381	130.132
192.756	98.6875
196.131	78.7656
199.506	51.2827
202.881	26.1043
206.255	2.76807
209.63	16.1523
213.005	25.48
216.38	36.1182
219.755	36.7886
223.129	26.1084
226.504	14.5564
229.879	16.6118
233.254	59.3342
236.629	118.54
240.004	181.668
243.378	251.307
246.753	356.119
250.128	484.708
253.503	644.922
256.878	826
260.252	1036.12
263.627	1291.86
267.002	1564.77
270.377	1848.91
273.752	2155.54
277.127	2420.74
280.501	2633.88
283.876	2783.7
287.251	2805.2
290.626	2692.2
294.001	2471.11
297.375	2234.77
300.75	1986.93
304.125	1756.1
307.5	1541.32
310.875	1357.07
314.25	1186.95
317.624	1037.09
320.999	902.648
324.374	780.665
327.749	669.743
331.124	556.4
334.498	465.303
337.873	385.128
341.248	303.828
344.623	233.663
347.998	184.271
351.373	145.414
354.747	110.119
358.122	83.0845
361.497	64.529
364.872	55.7949
368.247	51.0039
371.621	37.0337
374.996	22.9746
378.371	17.2617
381.746	2.59253
385.121	1.82519
388.495	2.01221
391.87	0.288574
395.245	1.29688
398.62	1.19824
401.995	3.17993
405.37	9.59326
408.744	17.385
412.119	18.2257
415.494	18.605
418.869	18.7318
422.244	7.521
425.618	3.83044
428.993	24.548
432.368	42.8901
435.743	60.6315
439.118	84.3757
442.493	105.82
445.867	125.491
449.242	135.477
452.617	140.108
455.992	149.697
459.367	142.822
462.741	144.798
466.116	140.28
469.491	159.75
472.866	186.138
476.241	220.003
479.615	268.533
482.99	332.982
486.365	405.646
489.74	463.815
493.115	502.854
496.49	507.148
499.864	503.214
503.239	474.48
506.614	435.74
509.989	378.03
513.364	323.312
516.739	261.947
520.113	201.004
523.488	141.504
526.863	94.1956
530.238	57.7969
533.613	29.7283
536.987	4.33008
540.362	2.26685
543.737	4.28589
547.112	8.13794
550.487	20.792
553.861	47.5066
557.236	71.9512
560.611	90.0088
563.986	103.964
567.361	123.007
570.736	139.235
574.11	156.833
577.485	169.399
580.86	174.565
584.235	181.541
587.61	176
590.985	179.402
594.359	166.916
597.734	170.533
601.109	164.121
604.484	157.782
607.859	153.318
611.233	152.519
614.608	145.907
617.983	146.001
621.358	141.947
624.733	144.972
628.107	145.766
631.482	141.584
634.857	131.774
638.232	111.007
641.607	91.5641
644.982	78.8384
648.356	67.8466
651.731	53.5464
655.106	47.8796
658.481	32.2888
661.856	14.1136
665.231	6.04846
668.605	3.32397
671.98	6.34473
675.355	7.79517
678.73	14.2223
682.105	12.7614
685.479	11.8351
688.854	4.17566
692.229	3.80701
695.604	15.4409
698.979	30.5085
702.354	49.1886
705.728	69.3535
709.103	91.3607
712.478	120.944
715.853	146.778
719.227	191.287
722.602	200.819
725.977	222.151
729.352	233.941
732.727	239.252
736.102	245.501
739.476	236.772
742.851	228.081
746.226	221.434
749.601	211.437
752.976	198.64
756.351	186.244
759.725	166.476
763.1	157.412
766.475	138.149
769.85	124.247
773.225	112.165
776.599	102.846
779.974	87.2693
783.349	80.3464
786.724	68.3701
790.099	61.0735
793.473	53.6675
796.848	49.7865
800.223	53.0372
803.598	46.062
806.973	52.4547
810.348	46.0031
813.722	45.2847
817.097	51.0251
820.472	57.3417
823.847	51.0548
827.222	54.0276
830.597	49.8522
833.971	52.1306
837.346	52.7822
840.721	55.6515
844.096	50.4349
847.471	46.6929
850.846	48.5902
854.22	50.5772
857.595	50.1276
860.97	56.5078
864.345	54.8528
867.72	55.0925
871.094	48.7043
874.469	34.2661
877.844	32.2595
881.219	25.834
884.594	22.3148
887.968	12.8283
891.343	7.16235
894.718	4.93115
898.093	5.91016
901.468	1.92749
904.842	6.55554
908.217	8.27002
911.592	9.95044
914.967	10.0863
918.342	5.89844
921.717	3.97241
925.091	2.01733
928.466	8.6029
931.841	9.22852
935.216	10.7717
938.591	16.496
941.966	20.199
945.34	25.9038
948.715	28.2612
952.09	30.9316
955.465	35.1835
958.84	42.6638
962.214	48.0553
965.589	42.8425
968.964	43.4821
972.339	39.6691
975.714	40.9148
979.088	41.4071
982.463	36.1229
985.838	31.849
989.213	29.7047
992.588	27.5516
995.963	27.908
999.337	25.3428
1002.71	26.1379
1006.09	22.5783
1009.46	23.6385
1012.84	22.7784
1016.21	20.7703
1019.59	19.7019
1022.96	12.7596
1026.34	16.9669
1029.71	16.5526
1033.09	19.7375
1036.46	14.4465
1039.84	12.5161
1043.21	11.9115
1046.59	13.9508
1049.96	10.3766
1053.33	10.3184
1056.71	10.0887
1060.08	10.959
1063.46	6.48901
1066.83	5.90442
1070.21	8.39563
1073.58	5.67993
1076.96	5.03748
1080.33	1.52051
1083.71	0.487671
1087.08	4.66309
1090.46	4.45483
1093.83	1.41589
1097.21	0.966309
1100.58	3.76099
1103.96	0.919556
1107.33	1.25476
1110.71	0.014526
1114.08	1.76538
1117.46	3.72522
1120.83	0.098145
1124.21	0.657715
1127.58	1.98511
1130.95	0.294189
1134.33	2.12085
1137.7	2.42835
1141.08	3.98828
1144.45	2.53052
1147.83	3.60339
1151.2	1.51379
1154.58	5.62561
1157.95	5.81885
1161.33	4.38782
1164.7	8.70544
1168.08	8.05347
1171.45	4.0979
1174.83	7.94531
1178.2	5.34998
1181.58	7.49854
1184.95	7.76611
1188.33	5.36401
1191.7	11.9947
1195.08	10.9021
1198.45	7.98364
1201.83	3.64087
1205.2	5.8136
1208.58	4.58521
1211.95	5.5564
1215.33	4.854
1218.7	7.44861
1222.08	9.76001
1225.45	4.36426
1228.83	3.83228
1232.2	4.07458
1235.58	1.21814
1238.95	2.24609
1242.32	3.52905
1245.7	0.136475
1249.07	2.8169
1252.45	3.14551
1255.82	4.95447
1259.2	6.54675
1262.57	5.54614
1265.95	3.13806
1269.32	2.52502
1272.7	5.31189
1276.07	0.624878
1279.45	3.84082
1282.82	3.72827
1286.2	9.40784
1289.57	4.41931
1292.95	6.95606
1296.32	3.63318
1299.7	3.33716
