Measurement: Raman, 780 nm, unoriented, Raman Data Processed
Mineral: Kenoplumbomicrolite
Rruff sample: R130729
Ideal chemistry: (Pb^2+^,[box])_2_Ta^5+^_2_O_6_[[box],(OH),O]
Locality: Ploskaya Mountains, Keivy Massif, Kola, Russian Federation
Source: Donald Doell
Description: Massive brown crystals with uneven fracture.
Measured chemistry: (Pb_1.36_Ca_0.36_Na_0.05_)_Σ1.77_(Ta_0.97_Nb_0.69_Fe_0.19_Sn_0.08_Ti_0.07_)_Σ2_O_6.48_
Raman shift (cm-1)	intensity
94.8141	0
98.1889	24.3604
101.564	4.40088
104.939	81.8274
108.313	204.924
111.688	359.059
115.063	539.038
118.438	710.916
121.813	851.832
125.187	880.737
128.562	838.775
131.937	721.037
135.312	470.435
138.687	221.628
142.061	94.1531
145.436	53.4085
148.811	34.197
152.186	21.9646
155.561	29.1582
158.936	27.193
162.31	17.8641
165.685	16.7483
169.06	2.74585
172.435	1.94067
175.81	1.90222
179.185	0.53125
182.559	2.4541
185.934	9.64795
189.309	3.17847
192.684	4.12256
196.059	4.26819
199.433	0.626099
202.808	1.59753
206.183	9.32837
209.558	13.4273
212.933	15.7843
216.308	14.9246
219.682	6.80981
223.057	1.22302
226.432	15.9443
229.807	28.1808
233.182	55.7249
236.556	84.1634
239.931	123.424
243.306	181.029
246.681	254.746
250.056	341.216
253.43	445.727
256.805	575.492
260.18	723.385
263.555	898.64
266.93	1092.86
270.305	1295.73
273.679	1496.41
277.054	1692.33
280.429	1859.44
283.804	1955.18
287.179	1972.06
290.553	1903.79
293.928	1768.32
297.303	1599.58
300.678	1423.1
304.053	1254.82
307.428	1102.35
310.802	969.768
314.177	852.528
317.552	746.487
320.927	651.221
324.302	563.199
327.676	481.991
331.051	410.751
334.426	349.611
337.801	290.219
341.176	239.637
344.551	200.048
347.925	163.073
351.3	132.446
354.675	105.842
358.05	80.6539
361.425	63.1935
364.8	43.7734
368.174	30.1558
371.549	15.1106
374.924	8.93579
378.299	0.045776
381.674	3.59509
385.048	8.94141
388.423	11.8192
391.798	6.98853
395.173	7.55689
398.548	7.60095
401.923	7.13354
405.297	5.90942
408.672	1.17163
412.047	3.27081
415.422	2.67212
418.796	3.25488
422.171	9.66968
425.546	13.0915
428.921	21.3356
432.296	31.5349
435.671	43.2042
439.045	54.5561
442.42	59.8172
445.795	63.8829
449.17	64.3043
452.545	67.3023
455.92	58.8937
459.294	47.7341
462.669	40.8731
466.044	34.3993
469.419	34.2416
472.794	36.5703
476.168	46.0093
479.543	63.0792
482.918	86.5063
486.293	110.503
489.668	138.183
493.043	156.193
496.417	165.205
499.792	169.906
503.167	163.281
506.542	152.763
509.917	136.928
513.291	118.557
516.666	100.314
520.041	76.8347
523.416	54.8145
526.791	36.4878
530.165	19.053
533.54	7.3064
536.915	1.18243
540.29	1.36737
543.665	1.27429
547.04	8.06775
550.414	14.3981
553.789	22.615
557.164	30.1787
560.539	40.5246
563.914	53.5267
567.288	63.1553
570.663	70.3097
574.038	80.1561
577.413	86.8555
580.788	91.744
584.163	93.1788
587.537	94.2447
590.912	89.9718
594.287	90.2469
597.662	87.5246
601.037	89.2735
604.412	80.6702
607.786	74.7767
611.161	71.6495
614.536	69.2684
617.911	67.9248
621.286	65.0557
624.66	62.9115
628.035	62.7156
631.41	63.1234
634.785	58.8679
638.16	51.45
641.534	44.8829
644.909	37.3973
648.284	31.2271
651.659	22.6647
655.034	16.4724
658.409	12.6028
661.783	5.99548
665.158	4.53229
668.533	3.05206
671.908	3.40387
675.283	1.45801
678.658	2.82153
682.032	4.8786
685.407	4.60346
688.782	3.63946
692.157	1.54126
695.532	1.96893
698.906	5.67224
702.281	7.31238
705.656	15.6643
709.031	24.5863
712.406	37.7408
715.78	45.8389
719.155	58.5917
722.53	73.6143
725.905	82.6693
729.28	88.9883
732.654	92.6985
736.029	96.8239
739.404	96.8691
742.779	98.029
746.154	95.1928
749.529	94.0593
752.903	86.8617
756.278	83.3267
759.653	83.6793
763.028	75.8362
766.403	69.5436
769.778	64.4039
773.152	56.6077
776.527	52.0266
779.902	45.3613
783.277	45.4672
786.652	38.511
790.026	34.6235
793.401	35.7368
796.776	30.8007
800.151	30.0233
803.526	30.4939
806.9	32.8449
810.275	28.5987
813.65	31.7488
817.025	30.404
820.4	28.4591
823.775	30.1229
827.149	28.2901
830.524	25.9888
833.899	30.6474
837.274	27.5682
840.649	27.3387
844.024	25.9167
847.398	22.7985
850.773	24.675
854.148	22.7398
857.523	21.5745
860.898	20.5117
864.272	20.9324
867.647	19.24
871.022	19.0237
874.397	15.3812
877.772	15.7341
881.146	12.1218
884.521	9.37234
887.896	5.29602
891.271	3.06781
894.646	1.00586
898.021	0.002441
901.395	2.13919
904.77	3.12439
908.145	3.44501
911.52	3.56372
914.895	4.2504
918.269	2.2692
921.644	0.526428
925.019	1.24911
928.394	1.73834
931.769	3.40799
935.144	6.25659
938.518	7.33356
941.893	9.75858
945.268	10.8691
948.643	12.0231
952.018	15.6977
955.393	16.8106
958.767	18.5803
962.142	18.6288
965.517	19.3178
968.892	19.793
972.266	18.3719
975.641	17.6092
979.016	17.0858
982.391	15.7743
985.766	15.4514
989.141	13.7863
992.515	14.8308
995.89	13.5947
999.265	12.1771
1002.64	12.1194
1006.01	11.4794
1009.39	11.0688
1012.76	12.2593
1016.14	11.2147
1019.51	7.52214
1022.89	7.52608
1026.26	7.45676
1029.64	5.39024
1033.01	7.63826
1036.39	6.71446
1039.76	5.15198
1043.14	5.06343
1046.51	5.38287
1049.89	6.14302
1053.26	5.1526
1056.64	3.76814
1060.01	5.20309
1063.39	4.09317
1066.76	4.20674
1070.14	3.68266
1073.51	3.44737
1076.89	2.81375
1080.26	1.26369
1083.63	2.79446
1087.01	2.50826
1090.38	1.24913
1093.76	0.553314
1097.13	2.1286
1100.51	0.74617
1103.88	0.388641
1107.26	0.694809
1110.63	0.18045
1114.01	0.525955
1117.38	0.350983
1120.76	0.326141
1124.13	0.167053
1127.51	0.852921
1130.88	0.68013
1134.26	0.557785
1137.63	1.26405
1141.01	1.78581
1144.38	1.28648
1147.76	1.23012
1151.13	1.95058
1154.51	1.5695
1157.88	1.783
1161.26	1.17149
1164.63	1.901
1168.01	1.03433
1171.38	1.17575
1174.76	1.39267
1178.13	0.782257
1181.51	0.689743
1184.88	0.127625
1188.26	1.10171
1191.63	0.663849
1195.01	1.16596
1198.38	0.104858
1201.75	0.209778
1205.13	3.38104
1208.5	0.729126
1211.88	1.12241
1215.25	2.63196
1218.63	4.16
1222	3.23746
1225.38	4.2225
1228.75	4.58841
1232.13	6.68564
1235.5	8.08295
1238.88	7.6965
1242.25	8.92691
1245.63	9.51599
1249	9.47464
1252.38	8.63971
1255.75	10.6357
1259.13	8.78156
1262.5	7.08423
1265.88	6.5993
1269.25	5.69263
1272.62	4.44663
1276	2.56598
1279.38	0.111603
