Measurement: Raman, 780 nm, unoriented, Raman Data Processed
Mineral: Kleinite
Rruff sample: R150103
Ideal chemistry: Hg_2_N(Cl,S^6+^O_4_)nH_2_O
Locality: Terlingua, Brewster Co., Texas, USA
Source: William W. Pinch
Description: Aggregates of orange short hexagonal prismatic crystals, associated with colorless or white prismatic gypsum. Part of the type find.
Raman shift (cm-1)	intensity
93.9705	0
97.3453	29.2622
100.72	75.4604
104.095	461.943
107.47	730.87
110.845	1058.83
114.219	1313.82
117.594	1187.09
120.969	910.325
124.344	545.927
127.719	441.718
131.094	332.894
134.468	251.351
137.843	224.83
141.218	173.324
144.593	132.16
147.968	211.086
151.342	57.7163
154.717	7.77002
158.092	3.81397
161.467	56.9326
164.842	40.041
168.216	21.8135
171.591	8.72876
174.966	1.12524
178.341	41.3162
181.716	88.3889
185.09	110.736
188.465	140.371
191.84	149.166
195.215	165.618
198.59	169.815
201.965	172.104
205.339	177.573
208.714	161.889
212.089	143.972
215.464	135.38
218.839	119.083
222.214	66.6968
225.588	36.773
228.963	41.989
232.338	26.4766
235.713	23.7539
239.088	53.6926
242.462	92.8909
245.837	89.3494
249.212	125.835
252.587	145.898
255.962	160.315
259.336	167.795
262.711	166.853
266.086	175.495
269.461	196.794
272.836	220.188
276.211	242.613
279.585	275.834
282.96	331.973
286.335	416.401
289.71	546.574
293.085	694.097
296.459	839.773
299.834	939.848
303.209	986.604
306.584	1065.92
309.959	1162.26
313.334	1282.41
316.708	1450.4
320.083	1571.38
323.458	1603.8
326.833	1430.01
330.207	1054.23
333.582	642.294
336.957	335.877
340.332	154.721
343.707	75.7678
347.082	36.4114
350.456	18.9831
353.831	28.769
357.206	6.66602
360.581	8.04761
363.956	14.9802
367.33	0.675049
370.705	4.9978
374.08	5.14722
377.455	1.77124
380.83	3.67749
384.205	7.40039
387.579	7.40064
390.954	8.01123
394.329	4.99268
397.704	11.8831
401.079	7.72339
404.453	17.8044
407.828	0.865967
411.203	15.5193
414.578	37.2754
417.953	13.5713
421.327	51.1157
424.702	59.2856
428.077	59.8054
431.452	90.1628
434.827	113.01
438.202	146.643
441.576	116.014
444.951	61.7476
448.326	54.9983
451.701	76.8455
455.076	67.9673
458.45	65.9048
461.825	54.9924
465.2	57.2432
468.575	46.5081
471.95	37.0979
475.325	33.8506
478.699	41.6641
482.074	51.8543
485.449	51.8982
488.824	63.406
492.199	46.8499
495.573	44.3513
498.948	28.1008
502.323	20.9353
505.698	4.45581
509.073	2.18701
512.447	0.983398
515.822	11.2488
519.197	4.04858
522.572	18.4729
525.947	57.2966
529.322	115.779
532.696	198.433
536.071	342.505
539.446	549.204
542.821	839.909
546.196	1164.44
549.57	1540.02
552.945	1915.84
556.32	2101.84
559.695	2105.13
563.07	2266.02
566.444	2625.21
569.819	2857.7
573.194	2558.43
576.569	1917.51
579.944	1276.44
583.319	849.971
586.693	596.776
590.068	432.059
593.443	325.664
596.818	264.703
600.193	217.278
603.567	170.993
606.942	119.235
610.317	99.3411
613.692	56.0183
617.067	32.0591
620.442	44.9075
623.816	31.5566
627.191	12.1167
630.566	8.58813
633.941	11.9604
637.316	10.8284
640.69	6.56665
644.065	4.04126
647.44	16.4607
650.815	5.33936
654.19	5.00635
657.564	1.16919
660.939	13.6931
664.314	12.228
667.689	5.57007
671.064	12.8992
674.439	17.6216
677.813	21.4045
681.188	15.8977
684.563	24.8423
687.938	29.9563
691.313	30.2493
694.688	40.2527
698.062	41.6846
701.437	50.9055
704.812	45.9878
708.187	38.3494
711.562	36.5613
714.936	42.2148
718.311	42.0898
721.686	35.9062
725.061	38.3779
728.436	33.2356
731.81	41.2605
735.185	36.7583
738.56	48.3503
741.935	33.1819
745.31	39.1812
748.684	27.2541
752.059	28.043
755.434	24.7939
758.809	11.6736
762.184	13.4863
765.559	13.6313
768.933	2.44287
772.308	12.2085
775.683	8.65552
779.058	3.0332
782.433	14.5032
785.808	8.00708
789.182	12.0693
792.557	2.41065
795.932	10.0852
799.307	14.939
802.682	9.58301
806.056	9.00171
809.431	6.1731
812.806	6.6936
816.181	17.5027
819.556	23.4514
822.93	14.4854
826.305	21.0505
829.68	8.65308
833.055	17.5659
836.43	25.4041
839.804	6.09253
843.179	9.14258
846.554	14.5183
849.929	3.9187
853.304	4.69482
856.679	13.9627
860.053	6.17163
863.428	10.2847
866.803	1.51685
870.178	0.648926
873.553	4.54321
876.927	0.775146
880.302	6.08423
883.677	8.41821
887.052	4.59326
890.427	1.30298
893.802	8.84424
897.176	4.38647
900.551	10.9509
903.926	3.90576
907.301	18.511
910.676	9.66113
914.05	16.1841
917.425	11.3423
920.8	13.3838
924.175	1.47876
927.55	28.5355
930.924	30.479
934.299	62.3115
937.674	125.357
941.049	181.51
944.424	347.059
947.799	756.933
951.173	674.213
954.548	315.971
957.923	224.768
961.298	154.941
964.673	80.9792
968.047	35.6509
971.422	13.1389
974.797	0.207153
978.172	6.09265
981.547	8.33154
984.922	6.79163
988.296	9.53394
991.671	8.04504
995.046	2.30786
998.421	12.9517
1001.8	31.2051
1005.17	32.9996
1008.54	36.3509
1011.92	37.3849
1015.29	38.6298
1018.67	35.13
1022.04	20.8662
1025.42	19.921
1028.79	18.8851
1032.17	5.41248
1035.54	23.3158
1038.92	24.7024
1042.29	8.17773
1045.67	11.2902
1049.04	21.7173
1052.42	26.2653
1055.79	44.1509
1059.17	45.629
1062.54	50.9133
1065.92	58.5969
1069.29	53.2732
1072.67	24.4581
1076.04	25.8643
1079.42	7.7876
1082.79	5.73328
1086.17	4.2616
1089.54	5.49451
1092.92	3.70947
1096.29	4.80872
1099.66	2.63086
1103.04	7.38562
1106.41	10.7771
1109.79	4.97742
1113.16	1.62366
1116.54	4.66943
1119.91	14.3241
1123.29	13.5796
1126.66	7.18164
1130.04	9.19141
1133.41	3.1189
1136.79	3.55249
1140.16	6.43469
1143.54	16.6066
1146.91	12.811
1150.29	6.8125
1153.66	2.88086
1157.04	16.0719
1160.41	6.78516
1163.79	8.25623
1167.16	14.5638
1170.54	10.0043
1173.91	4.29126
1177.29	4.40869
1180.66	3.46753
1184.04	16.6393
1187.41	10.5265
1190.79	5.7959
1194.16	6.5802
1197.54	17.0989
1200.91	17.4017
1204.28	6.30798
1207.66	6.9696
1211.03	12.2873
1214.41	15.6077
1217.78	5.89221
1221.16	7.46448
1224.53	17.5219
1227.91	14.3977
1231.28	3.78479
1234.66	8.33948
1238.03	1.62964
1241.41	7.34839
1244.78	4.6073
1248.16	11.1705
1251.53	11.5006
1254.91	12.0754
1258.28	15.592
1261.66	13.2076
1265.03	20.6462
1268.41	18.1149
1271.78	4.59375
1275.16	7.34363
1278.53	7.17505
1281.9	9.50867
