Measurement: Raman, 532 nm, unoriented, Raman Data Processed
Mineral: Kleinite
Rruff sample: R150103
Ideal chemistry: Hg_2_N(Cl,S^6+^O_4_)nH_2_O
Locality: Terlingua, Brewster Co., Texas, USA
Source: William W. Pinch
Description: Aggregates of orange short hexagonal prismatic crystals, associated with colorless or white prismatic gypsum. Part of the type find.
Raman shift (cm-1)	intensity
89.7832	0
93.158	101.158
96.5328	40.252
99.9077	61.2673
103.282	202.036
106.657	400.919
110.032	659.325
113.407	882.843
116.782	980.813
120.157	972.946
123.531	856.482
126.906	754.948
130.281	644.305
133.656	564.152
137.031	528.425
140.405	507.414
143.78	501.103
147.155	616.24
150.53	524.461
153.905	506.888
157.28	409.435
160.654	216.511
164.029	98.9888
167.404	51.8877
170.779	14.3484
174.154	1.06616
177.528	1.13525
180.903	7.56201
184.278	12.6682
187.653	1.30017
191.028	0.082642
194.403	4.46106
197.777	8.09985
201.152	2.3418
204.527	11.3822
207.902	18.5975
211.277	14.5469
214.651	1.21716
218.026	3.96082
221.401	1.87
224.776	2.81641
228.151	8.81714
231.525	8.19898
234.9	26.4796
238.275	42.7058
241.65	72.0637
245.025	113.164
248.4	144.058
251.774	177.122
255.149	229.893
258.524	262.436
261.899	287.618
265.274	317.616
268.649	351.665
272.023	380.459
275.398	446.294
278.773	515.869
282.148	609.834
285.523	720.835
288.897	862.305
292.272	1036.06
295.647	1155.78
299.022	1271.89
302.397	1326.03
305.772	1413.13
309.146	1515.31
312.521	1652.26
315.896	1814.79
319.271	1926.35
322.646	1886.68
326.02	1639.87
329.395	1244.57
332.77	759.94
336.145	441.492
339.52	254.205
342.894	179.336
346.269	123.616
349.644	98.3241
353.019	88.021
356.394	82.6141
359.769	74.1067
363.143	53.5092
366.518	41.3446
369.893	29.3843
373.268	14.1995
376.643	18.2214
380.017	17.2599
383.392	3.47022
386.767	3.60998
390.142	8.0249
393.517	13.9668
396.892	16.8362
400.266	5.77026
403.641	5.28345
407.016	4.15503
410.391	5.44556
413.766	0.461426
417.14	16.9695
420.515	31.3852
423.89	25.6323
427.265	38.1431
430.64	49.249
434.014	72.6914
437.389	76.301
440.764	83.4109
444.139	59.3083
447.514	53.4912
450.889	50.4893
454.263	59.4392
457.638	65.634
461.013	64.0745
464.388	74.5222
467.763	70.311
471.137	70.8916
474.512	83.6863
477.887	83.3335
481.262	88.8997
484.637	93.1816
488.012	85.2485
491.386	58.6567
494.761	41.1951
498.136	12.1257
501.511	5.92847
504.886	17.947
508.26	9.07495
511.635	13.1704
515.01	7.03906
518.385	9.92627
521.76	37.9136
525.135	81.1758
528.509	155.131
531.884	271.113
535.259	445.921
538.634	704.855
542.009	1050.03
545.384	1497.32
548.758	2031.56
552.133	2560.32
555.508	2985.76
558.883	3411.04
562.258	3970.53
565.632	4385.36
569.007	4259.08
572.382	3490.93
575.757	2563.62
579.132	1793.15
582.506	1267.54
585.881	911.786
589.256	686.103
592.631	483.066
596.006	368.201
599.381	264.45
602.755	207.125
606.13	138.402
609.505	80.5779
612.88	74.8682
616.255	45.0452
619.63	32.8474
623.004	29.7293
626.379	19.8259
629.754	23.301
633.129	18.4714
636.504	8.51904
639.878	3.7876
643.253	6.5625
646.628	2.92603
650.003	5.96533
653.378	1.00586
656.752	3.35474
660.127	15.7419
663.502	3.15308
666.877	3.96899
670.252	7.04834
673.626	6.24561
677.001	0.30957
680.376	15.0139
683.751	14.9607
687.126	28.7795
690.501	25.1919
693.875	30.8262
697.25	46.2532
700.625	46.8301
704	50.5825
707.375	64.0659
710.75	63.1763
714.124	66.1733
717.499	64.2651
720.874	62.8872
724.249	62.4338
727.624	72.2498
730.998	70.5584
734.373	67.3198
737.748	68.5283
741.123	53.1455
744.498	69.7363
747.872	71.3262
751.247	60.6416
754.622	56.9373
757.997	50.3962
761.372	37.4377
764.747	33.9917
768.121	33.7998
771.496	37.5906
774.871	31.6255
778.246	14.1013
781.621	10.4866
784.995	11.1443
788.37	8.35815
791.745	8.34399
795.12	2.87158
798.495	8.34985
801.87	15.5515
805.244	15.8635
808.619	17.8369
811.994	2.92529
815.369	28.4656
818.744	20.2602
822.119	38.9392
825.493	23.0862
828.868	12.6582
832.243	7.52368
835.618	21.1865
838.993	26.6697
842.367	17.803
845.742	16.0908
849.117	26.2229
852.492	14.282
855.867	28.0081
859.241	28.7412
862.616	37.3603
865.991	27.7024
869.366	6.55371
872.741	24.7839
876.115	19.3533
879.49	13.6743
882.865	1.97559
886.24	7.93384
889.615	5.55347
892.99	20.9336
896.364	5.75903
899.739	15.8044
903.114	14.8142
906.489	7.97192
909.864	0.239502
913.239	5.66138
916.613	9.97095
919.988	0.046875
923.363	9.9646
926.738	35.4602
930.113	44.626
933.487	74.9941
936.862	155.502
940.237	292.749
943.612	595.369
946.987	1069.62
950.361	971.556
953.736	481.047
957.111	342.952
960.486	221.954
963.861	106.522
967.236	65.4993
970.61	34.5071
973.985	6.93262
977.36	3.54565
980.735	4.00415
984.11	1.84619
987.485	4.27344
990.859	22.3765
994.234	11.3508
997.609	11.3184
1000.98	26.4265
1004.36	36.8699
1007.73	45.0322
1011.11	57.3884
1014.48	55.2432
1017.86	40.7251
1021.23	40.6304
1024.61	21.8645
1027.98	20.2485
1031.36	17.5564
1034.73	23.8123
1038.11	25.8625
1041.48	19.4321
1044.86	31.0354
1048.23	32.5478
1051.61	43.1187
1054.98	47.602
1058.36	64.2344
1061.73	80.4741
1065.11	76.9419
1068.48	78.2817
1071.86	40.0915
1075.23	19.1924
1078.6	14.3833
1081.98	1.21777
1085.35	8.49097
1088.73	4.64722
1092.1	6.78101
1095.48	14.5564
1098.85	8.05542
1102.23	7.35938
1105.6	20.2485
1108.98	11.988
1112.35	25.8198
1115.73	19.4094
1119.1	25.9211
1122.48	37.0732
1125.85	30.4468
1129.23	22.2922
1132.6	4.78467
1135.98	20.7395
1139.35	16.4905
1142.73	15.3584
1146.1	15.9514
1149.48	3.28979
1152.85	12.1291
1156.22	21.6294
1159.6	10.1982
1162.97	6.96924
1166.35	12.8369
1169.72	2.19019
1173.1	9.51367
1176.47	4.33936
1179.85	18.4375
1183.22	9.93896
1186.6	7.74268
1189.97	20.5806
1193.35	22.2927
1196.72	19.5283
1200.1	3.59082
1203.47	7.07495
1206.85	17.3164
1210.22	6.83008
1213.6	11.73
1216.97	1.50684
1220.35	14.0115
1223.72	7.87183
1227.1	1.07275
1230.47	7.68311
1233.85	0.372314
1237.22	26.5205
1240.6	11.7573
1243.97	8.02295
1247.35	22.0908
1250.72	22.009
1254.1	29.3118
1257.47	13.6138
1260.85	13.7839
1264.22	16.0327
1267.59	13.3008
1270.97	1.87695
1274.34	12.9932
1277.72	6.63086
1281.09	12.2165
1284.47	12.8001
1287.84	24.5518
1291.22	25.6594
1294.59	13.7004
1297.97	15.3635
1301.34	0.861572
