Measurement: Raman, 532 nm, unoriented, Raman Data Processed
Mineral: Kobyashevite
Rruff sample: R160001
Ideal chemistry: Cu^2+^_5_(S^6+^O_4_)_2_(OH)_6_4H_2_O
Locality: Ojuela mine (Cumbres lugar), Mapim√≠, Durango, Mexico
Source: Eugene Schlepp
Description: Turquoise colored short-bladed or tabular crystals associated with gypsum microcrystals coating calcite and hemimorphite
Raman shift (cm-1)	intensity
89.7832	0
93.158	16.2147
96.5328	16.165
99.9077	24.4986
103.282	14.8388
106.657	2.1989
110.032	7.53482
113.407	4.08481
116.782	35.1571
120.157	72.6835
123.531	20.6313
126.906	22.7281
130.281	29.0964
133.656	48.9075
137.031	63.5233
140.405	91.9195
143.78	98.4235
147.155	56.1768
150.53	31.9183
153.905	31.3855
157.28	44.8243
160.654	46.0674
164.029	41.6824
167.404	25.6565
170.779	12.4771
174.154	5.63644
177.528	4.05287
180.903	3.69359
184.278	6.38902
187.653	13.4144
191.028	2.9716
194.403	5.5869
197.777	3.88681
201.152	2.41896
204.527	7.6171
207.902	13.6478
211.277	23.8597
214.651	32.0214
218.026	39.9447
221.401	44.2753
224.776	46.2259
228.151	49.3728
231.525	48.4254
234.9	44.4796
238.275	36.2299
241.65	22.7411
245.025	13.0347
248.4	8.40572
251.774	5.30179
255.149	4.98311
258.524	11.4664
261.899	20.9229
265.274	41.4826
268.649	59.1918
272.023	58.0557
275.398	65.2996
278.773	82.004
282.148	107.719
285.523	120.522
288.897	111.943
292.272	84.9708
295.647	57.0278
299.022	39.7471
302.397	32.5948
305.772	33.6624
309.146	41.2932
312.521	49.7063
315.896	54.1495
319.271	53.4248
322.646	48.0605
326.02	46.0724
329.395	41.5292
332.77	35.0856
336.145	26.432
339.52	17.268
342.894	10.1836
346.269	6.66571
349.644	3.47897
353.019	1.47166
356.394	0.392433
359.769	1.02028
363.143	3.27354
366.518	2.07073
369.893	3.47991
373.268	3.94788
376.643	2.48124
380.017	1.57039
383.392	0.392311
386.767	4.30555
390.142	10.7648
393.517	22.0612
396.892	39.8014
400.266	64.369
403.641	96.9666
407.016	133.762
410.391	166.353
413.766	172.928
417.14	153.196
420.515	125.509
423.89	113.781
427.265	126.57
430.64	156.304
434.014	217.691
437.389	321.642
440.764	397.226
444.139	324.182
447.514	270.867
450.889	262.279
454.263	261.325
457.638	256.024
461.013	220.007
464.388	159.296
467.763	115.309
471.137	100.781
474.512	95.7033
477.887	87.2917
481.262	78.632
484.637	76.8607
488.012	79.5312
491.386	84.4082
494.761	80.1065
498.136	67.707
501.511	52.7515
504.886	41.1855
508.26	35.3464
511.635	34.1418
515.01	36.0668
518.385	34.7278
521.76	25.4993
525.135	14.2913
528.509	5.77198
531.884	1.36313
535.259	1.58524
538.634	3.8038
542.009	3.20061
545.384	2.37032
548.758	2.86574
552.133	0.839218
555.508	0.360344
558.883	2.61872
562.258	4.08414
565.632	9.24981
569.007	13.3031
572.382	19.8686
575.757	25.3855
579.132	32.8137
582.506	41.4329
585.881	50.6785
589.256	61.2869
592.631	74.2886
596.006	89.6356
599.381	105.17
602.755	120.028
606.13	128.72
609.505	116.486
612.88	95.1633
616.255	77.8125
619.63	64.7652
623.004	50.9592
626.379	39.9155
629.754	33.8454
633.129	28.2944
636.504	26.1421
639.878	25.4687
643.253	24.9289
646.628	26.7919
650.003	26.8555
653.378	28.5096
656.752	28.1678
660.127	25.4514
663.502	22.6404
666.877	17.9
670.252	12.8674
673.626	9.4244
677.001	5.38498
680.376	2.98146
683.751	0.521339
687.126	0.436569
690.501	1.00967
693.875	1.86532
697.25	1.38978
700.625	0.193039
704	0.772728
707.375	2.43459
710.75	7.02705
714.124	13.162
717.499	7.73251
720.874	7.33552
724.249	8.56442
727.624	11.6469
730.998	13.4113
734.373	16.6518
737.748	18.8131
741.123	21.473
744.498	22.1634
747.872	21.7081
751.247	22.0369
754.622	21.9875
757.997	22.9222
761.372	23.8879
764.747	24.8243
768.121	25.9395
771.496	27.6812
774.871	27.3011
778.246	28.0573
781.621	28.3288
784.995	28.4472
788.37	27.3277
791.745	23.9067
795.12	19.988
798.495	16.6135
801.87	16.0962
805.244	13.8651
808.619	14.2633
811.994	12.7733
815.369	11.4476
818.744	9.86143
822.119	7.48309
825.493	4.70885
828.868	1.54976
832.243	1.3954
835.618	0.027306
838.993	0.264786
842.367	0.528534
845.742	0.067055
849.117	0.049515
852.492	1.01483
855.867	1.09507
859.241	0.373924
862.616	0.786049
865.991	0.478767
869.366	0.47097
872.741	1.70152
876.115	1.28088
879.49	0.324417
882.865	0.550056
886.24	0.460258
889.615	0.026093
892.99	0.635544
896.364	0.595993
899.739	0.157234
903.114	0.128777
906.489	0.382233
909.864	0.852135
913.239	0.607727
916.613	1.5193
919.988	3.17306
923.363	3.8644
926.738	5.06712
930.113	6.30029
933.487	8.36175
936.862	10.6978
940.237	16.2358
943.612	19.7529
946.987	25.331
950.361	31.6077
953.736	36.022
957.111	40.9268
960.486	49.9452
963.861	66.7684
967.236	100.318
970.61	174.322
973.985	365.854
977.36	627.271
980.735	1177.96
984.11	1943.57
987.485	1003.76
990.859	323.321
994.234	133.915
997.609	65.7219
1000.98	37.1314
1004.36	22.6816
1007.73	15.4573
1011.11	11.0697
1014.48	4.85954
1017.86	2.15594
1021.23	0.083946
1024.61	0.009682
1027.98	0.882172
1031.36	1.45055
1034.73	0.388634
1038.11	0.53569
1041.48	0.848824
1044.86	1.29287
1048.23	2.83836
1051.61	5.04925
1054.98	8.79675
1058.36	13.0244
1061.73	19.3526
1065.11	28.8276
1068.48	39.3353
1071.86	51.4925
1075.23	62.5199
1078.6	71.4862
1081.98	70.8611
1085.35	83.4565
1088.73	120.948
1092.1	53.0487
1095.48	37.5256
1098.85	45.8856
1102.23	61.9227
1105.6	81.8116
1108.98	100.719
1112.35	109.896
1115.73	120.033
1119.1	138.114
1122.48	137.614
1125.85	98.2247
1129.23	60.9265
1132.6	36.0772
1135.98	24.8574
1139.35	16.2401
1142.73	10.5626
1146.1	6.98466
1149.48	4.46317
1152.85	2.24527
1156.22	0.808708
1159.6	0.541382
1162.97	0.121361
1166.35	1.14423
1169.72	1.81001
1173.1	7.08543
1176.47	3.00413
1179.85	0.568413
1183.22	0.368553
1186.6	0.11763
1189.97	0.356972
1193.35	0.446983
1196.72	0.453201
1200.1	0.007759
1203.47	0.380058
1206.85	0.003975
1210.22	0.283913
1213.6	1.15263
1216.97	1.979
1220.35	1.49538
1223.72	1.8987
1227.1	2.59103
1230.47	2.68443
1233.85	2.7755
1237.22	3.07115
1240.6	2.9668
1243.97	2.91165
1247.35	2.5509
1250.72	1.14822
1254.1	2.28766
1257.47	1.16857
1260.85	0.335533
1264.22	0.286873
1267.59	1.39081
1270.97	0.823273
1274.34	1.48061
1277.72	0.56134
1281.09	0.919258
1284.47	0.092857
1287.84	0.309601
1291.22	0.047966
1294.59	0.594505
1297.97	0.090607
1301.34	0.107254
