Measurement: Raman, 532 nm, unoriented, Raman Data Processed
Mineral: Lammerite
Rruff sample: R140108
Ideal chemistry: Cu^2+^_3_(As^5+^O_4_)_2_
Locality: Veta Negra, Laurani District, Aroma Province, La Paz Department, Bolivia
Source: Rock Currier
Description: Massive green on a matrix consisting of quartz and anatase
Raman shift (cm-1)	intensity
116.3	0
119.674	12.1554
123.049	1.11237
126.424	12.3707
129.799	8.84439
133.174	19.8492
136.548	26.8952
139.923	55.3202
143.298	98.6845
146.673	93.6641
150.048	49.1442
153.423	39.1097
156.797	72.9748
160.172	132.084
163.547	202.755
166.922	150.205
170.297	200.892
173.672	358.858
177.046	284.566
180.421	60.3155
183.796	12.2736
187.171	1.37982
190.546	3.5423
193.92	0.303909
197.295	11.9663
200.67	22.3496
204.045	34.1375
207.42	53.5748
210.794	87.3392
214.169	109.842
217.544	61.1015
220.919	19.846
224.294	9.47162
227.669	8.0654
231.043	9.01083
234.418	8.35396
237.793	2.94638
241.168	3.40515
244.543	10.5787
247.917	16.7773
251.292	26.4966
254.667	44.4777
258.042	74.8955
261.417	93.326
264.792	61.0096
268.166	36.259
271.541	12.7762
274.916	0.182526
278.291	2.68578
281.666	0.871704
285.041	0.518021
288.415	4.7796
291.79	13.6297
295.165	22.1871
298.54	42.4455
301.915	67.3782
305.289	69.7279
308.664	43.9734
312.039	30.7381
315.414	29.8075
318.789	40.091
322.163	57.5117
325.538	83.594
328.913	124.258
332.288	181.917
335.663	250.828
339.038	306.452
342.412	365.773
345.787	443.491
349.162	472.591
352.537	340.767
355.912	192.836
359.286	108.38
362.661	58.6496
366.036	33.8155
369.411	19.8837
372.786	8.50865
376.161	4.23219
379.535	2.63988
382.91	0.152832
386.285	0.329651
389.66	0.468033
393.035	0.571091
396.409	0.204773
399.784	0.854538
403.159	0.921936
406.534	1.53265
409.909	1.24617
413.284	3.38834
416.658	10.4329
420.033	18.9405
423.408	29.988
426.783	39.6584
430.158	48.3577
433.532	46.3431
436.907	39.4097
440.282	35.2488
443.657	38.0945
447.032	46.2839
450.406	56.1455
453.781	59.5265
457.156	51.4316
460.531	39.8698
463.906	38.4571
467.281	39.3483
470.655	51.9593
474.03	85.4337
477.405	136.433
480.78	203.341
484.155	302.677
487.529	420.285
490.904	466.319
494.279	361.761
497.654	250.198
501.029	168.03
504.404	104.059
507.778	61.7743
511.153	37.3384
514.528	27.9937
517.903	18.9835
521.278	12.5448
524.653	7.57736
528.027	4.99203
531.402	3.81476
534.777	3.03824
538.152	2.48689
541.527	0.200073
544.901	2.51218
548.276	2.86266
551.651	1.82126
555.026	1.67191
558.401	6.79796
561.775	14.3921
565.15	20.3726
568.525	28.34
571.9	39.0624
575.275	40.8048
578.649	30.1545
582.024	18.3072
585.399	11.0722
588.774	6.62344
592.149	3.50134
595.524	2.8161
598.898	2.99179
602.273	3.09648
605.648	1.855
609.023	1.69873
612.398	2.71374
615.773	3.79866
619.147	5.49214
622.522	7.98978
625.897	10.3906
629.272	14.4137
632.647	17.2954
636.021	21.7342
639.396	23.3639
642.771	24.0304
646.146	18.7274
649.521	18.5062
652.895	17.8024
656.27	18.8019
659.645	20.6317
663.02	21.3382
666.395	22.3444
669.77	24.3557
673.144	23.5326
676.519	22.4004
679.894	21.3856
683.269	20.3768
686.644	19.6133
690.019	19.8507
693.393	17.4672
696.768	14.1586
700.143	12.0325
703.518	9.03406
706.893	5.23312
710.267	0.415039
713.642	3.89191
717.017	5.43185
720.392	5.8981
723.767	4.77649
727.141	6.56067
730.516	6.0979
733.891	2.05997
737.266	1.39737
740.641	6.94885
744.016	11.0903
747.39	14.1168
750.765	19.6285
754.14	22.2599
757.515	37.8798
760.89	71.5475
764.264	119.513
767.639	190.327
771.014	274.158
774.389	310.814
777.764	232.447
781.139	167.451
784.513	175.168
787.888	230.808
791.263	332.911
794.638	447.962
798.013	534.325
801.388	701.09
804.762	988.412
808.137	1386.04
811.512	1762.33
814.887	1655.33
818.261	1036.21
821.636	593.765
825.011	401.543
828.386	288.946
831.761	180.385
835.136	115.73
838.51	104.863
841.885	149.221
845.26	262.665
848.635	477.587
852.01	748.239
855.385	1137.96
858.759	1606.79
862.134	1480.78
865.509	797.164
868.884	378.655
872.259	194.086
875.633	104.893
879.008	56.4318
882.383	29.4884
885.758	14.2775
889.133	4.4599
892.508	0.262085
895.882	4.3819
899.257	6.57349
902.632	7.85199
906.007	7.93884
909.382	5.60403
912.756	3.58627
916.131	1.13846
919.506	2.48642
922.881	6.46225
926.256	7.58548
929.63	9.36993
933.005	10.9998
936.38	14.0193
939.755	13.6316
943.13	17.4579
946.505	18.658
949.879	19.5322
953.254	19.7734
956.629	17.2717
960.004	16.029
963.379	14.2491
966.754	14.1353
970.128	13.1597
973.503	12.8561
976.878	12.6576
980.253	12.9188
983.628	12.9701
987.002	12.0219
990.377	11.7836
993.752	9.37836
997.127	9.08571
1000.5	10.195
1003.88	8.93105
1007.25	9.44054
1010.63	8.9017
1014	8.3669
1017.38	8.91205
1020.75	9.11099
1024.12	8.61586
1027.5	8.39352
1030.88	7.85655
1034.25	11.1282
1037.62	10.1877
1041	10.1908
1044.37	10.2369
1047.75	9.01344
1051.12	9.45598
1054.5	9.57725
1057.87	8.08336
1061.25	8.46658
1064.62	7.57579
1068	5.95786
1071.37	5.8651
1074.75	4.17899
1078.12	4.55125
1081.5	1.59058
1084.87	0.323456
1088.25	0.114319
1091.62	0.14447
1095	1.06679
1098.37	0.403198
1101.75	0.86702
1105.12	1.59081
1108.5	2.34497
1111.87	5.13637
1115.24	5.05868
1118.62	2.61052
1121.99	1.2516
1125.37	1.213
1128.74	0.136414
1132.12	0.070938
1135.49	0.87532
1138.87	3.41266
1142.24	1.77158
1145.62	1.91919
1148.99	1.72633
1152.37	2.5883
1155.74	2.85086
1159.12	1.90236
1162.49	2.83516
1165.87	2.13417
1169.24	0.946457
1172.62	1.46701
1175.99	2.6288
1179.37	1.49132
1182.74	2.32335
1186.12	5.57202
1189.49	4.95779
1192.87	3.29453
1196.24	1.00919
1199.62	1.41365
1202.99	0.038773
1206.37	0.52002
1209.74	0.068024
1213.12	0.06282
1216.49	1.25688
1219.87	1.52277
1223.24	1.07591
1226.61	1.50073
1229.99	2.01802
1233.36	2.2433
1236.74	1.74034
1240.11	2.57411
1243.49	0.725723
1246.86	2.27409
1250.24	2.33795
1253.61	3.68011
1256.99	1.13187
1260.36	1.85727
1263.74	2.53647
1267.11	2.4529
1270.49	1.73438
1273.86	0.711792
1277.24	1.49611
1280.61	0.182281
1283.99	0.586502
1287.36	1.01465
1290.74	1.2392
1294.11	2.48605
1297.49	1.58112
1300.86	0.002777
