Measurement: Raman, 532 nm, unoriented, Raman Data Processed
Mineral: Laurionite
Rruff sample: R130788
Ideal chemistry: Pb^2+^Cl(OH)
Locality: Pacha Limani, Laurion, Greece
Source: Bob Jenkins
Description: Colorless prismatic crystals in a vug
Raman shift (cm-1)	intensity
89.7832	0
93.158	192.616
96.5328	1125.7
99.9077	2883.41
103.282	5554.71
106.657	4281.12
110.032	1451.3
113.407	1314.03
116.782	1510.54
120.157	1370.15
123.531	1924.71
126.906	2853.05
130.281	4204.95
133.656	5466.9
137.031	4256.39
140.405	2038.21
143.78	779.23
147.155	229.869
150.53	19.1294
153.905	60.4934
157.28	79.8843
160.654	66.7593
164.029	28.0938
167.404	1.8512
170.779	28.7096
174.154	45.5685
177.528	68.425
180.903	80.6306
184.278	99.3398
187.653	111.216
191.028	120.62
194.403	132.645
197.777	149.741
201.152	171.724
204.527	198.78
207.902	215.835
211.277	222.441
214.651	202.385
218.026	174.355
221.401	141.358
224.776	110.64
228.151	78.1934
231.525	54.0404
234.9	52.1663
238.275	58.0411
241.65	73.0625
245.025	91.6238
248.4	129.931
251.774	204.982
255.149	335.201
258.524	505.562
261.899	737.406
265.274	1009.42
268.649	1299.28
272.023	1435.1
275.398	1305.26
278.773	952.366
282.148	532.44
285.523	234.644
288.897	70.2673
292.272	14.1576
295.647	31.0557
299.022	5.39673
302.397	53.0844
305.772	172.829
309.146	366.051
312.521	678.649
315.896	1160.03
319.271	1706.36
322.646	2459.88
326.02	3449.89
329.395	4320.88
332.77	4102.3
336.145	2880.41
339.52	1758.74
342.894	1103.15
346.269	713.624
349.644	489.888
353.019	337.055
356.394	242.25
359.769	176.389
363.143	130.436
366.518	105.984
369.893	75.3577
373.268	64.8158
376.643	56.2932
380.017	48.5125
383.392	35.2764
386.767	22.7112
390.142	4.47046
393.517	5.85498
396.892	15.4199
400.266	5.07446
403.641	1.3866
407.016	3.59729
410.391	0.487061
413.766	4.52429
417.14	14.0568
420.515	25.2804
423.89	25.5938
427.265	31.1556
430.64	34.3551
434.014	38.4663
437.389	38.189
440.764	54.177
444.139	53.3525
447.514	55.8997
450.889	50.6997
454.263	50.8972
457.638	47.1843
461.013	42.9058
464.388	44.5853
467.763	39.4727
471.137	33.0648
474.512	26.5173
477.887	26.0109
481.262	25.7288
484.637	28.3543
488.012	32.4629
491.386	28.3024
494.761	20.4529
498.136	12.7865
501.511	12.8221
504.886	8.22315
508.26	9.05554
511.635	10.1604
515.01	5.98877
518.385	4.30518
521.76	5.04297
525.135	4.73059
528.509	2.6543
531.884	2.29907
535.259	0.824097
538.634	1.72314
542.009	0.072388
545.384	12.022
548.758	14.0531
552.133	7.13855
555.508	8.69922
558.883	14.4519
562.258	20.4061
565.632	34.1517
569.007	41.2978
572.382	55.0039
575.757	69.385
579.132	87.6504
582.506	101.609
585.881	122.518
589.256	133.61
592.631	133.851
596.006	135.52
599.381	122.69
602.755	114.852
606.13	96.7059
609.505	74.009
612.88	66.0409
616.255	42.5695
619.63	24.4214
623.004	12.5947
626.379	8.24463
629.754	2.31763
633.129	3.66321
636.504	3.49402
639.878	6.17444
643.253	0.953003
646.628	0.696411
650.003	2.05945
653.378	1.72559
656.752	0.36438
660.127	15.7967
663.502	3.25684
666.877	11.7655
670.252	14.7543
673.626	20.7671
677.001	23.8301
680.376	33.4138
683.751	43.4149
687.126	60.963
690.501	76.8015
693.875	92.2378
697.25	108.629
700.625	131.775
704	153.936
707.375	176.096
710.75	203.848
714.124	229.204
717.499	252.663
720.874	273.687
724.249	288.568
727.624	307.189
730.998	300.244
734.373	294.45
737.748	283.738
741.123	270.002
744.498	241.677
747.872	221.246
751.247	207.508
754.622	179.252
757.997	157.151
761.372	128.112
764.747	113.392
768.121	90.0126
771.496	77.6585
774.871	67.422
778.246	55.2279
781.621	45.6679
784.995	36.9199
788.37	25.056
791.745	15.1836
795.12	11.3036
798.495	3.6394
801.87	2.8335
805.244	0.294434
808.619	0.64209
811.994	2.16089
815.369	0.859131
818.744	0.503418
822.119	2.86999
825.493	0.15979
828.868	2.66174
832.243	5.52014
835.618	4.19104
838.993	5.19373
842.367	10.2529
845.742	8.32825
849.117	9.97473
852.492	10.6758
855.867	12.5986
859.241	12.9824
862.616	16.0286
865.991	12.5491
869.366	15.8252
872.741	13.2355
876.115	13.4622
879.49	17.1438
882.865	11.8448
886.24	12.7933
889.615	13.7113
892.99	13.2417
896.364	10.4537
899.739	7.24219
903.114	12.5389
906.489	10.1831
909.864	8.9707
913.239	5.62585
916.613	10.2808
919.988	6.79285
923.363	12.1156
926.738	8.78565
930.113	10.8125
933.487	7.95105
936.862	6.26978
940.237	2.56982
943.612	6.14392
946.987	11.5393
950.361	4.81641
953.736	5.36755
957.111	1.21155
960.486	2.58606
963.861	7.19641
967.236	11.0984
970.61	9.91882
973.985	11.9355
977.36	10.6973
980.735	6.23206
984.11	12.2537
987.485	5.78332
990.859	10.845
994.234	7.01575
997.609	6.44849
1000.98	11.4823
1004.36	6.5061
1007.73	5.63135
1011.11	12.2496
1014.48	6.5542
1017.86	4.58447
1021.23	9.17212
1024.61	5.30432
1027.98	5.06177
1031.36	5.99146
1034.73	9.37122
1038.11	6.54309
1041.48	6.20593
1044.86	9.6322
1048.23	10.8297
1051.61	5.18689
1054.98	0.849609
1058.36	2.89551
1061.73	1.52039
1065.11	4.90173
1068.48	5.96216
1071.86	8.82507
1075.23	2.38782
1078.6	1.70618
1081.98	3.37903
1085.35	5.62256
1088.73	3.58032
1092.1	5.06055
1095.48	0.39624
1098.85	3.37317
1102.23	2.776
1105.6	1.24792
1108.98	0.014038
1112.35	10.7212
1115.73	0.200073
1119.1	2.0105
1122.48	9.06897
1125.85	4.573
1129.23	0.953125
1132.6	1.05566
1135.98	3.8009
1139.35	6.31128
1142.73	1.29553
1146.1	4.37537
1149.48	1.73547
1152.85	4.81873
1156.22	9.90271
1159.6	7.21887
1162.97	6.3573
1166.35	11.1739
1169.72	2.84143
1173.1	8.09216
1176.47	9.04175
1179.85	7.10657
1183.22	7.22546
1186.6	9.73108
1189.97	14.6827
1193.35	8.58984
1196.72	10.3281
1200.1	7.50964
1203.47	5.41785
1206.85	9.5636
1210.22	12.6924
1213.6	9.73889
1216.97	7.04553
1220.35	11.1215
1223.72	7.24512
1227.1	0.634521
1230.47	4.26086
1233.85	2.82873
1237.22	6.47327
1240.6	3.47156
1243.97	5.31616
1247.35	8.98047
1250.72	13.8307
1254.1	14.8934
1257.47	11.7706
1260.85	11.2026
1264.22	1.72949
1267.59	1.88074
1270.97	7.20044
1274.34	5.57324
1277.72	2.79492
1281.09	3.26831
1284.47	4.77832
1287.84	4.69189
1291.22	5.45874
1294.59	9.01807
1297.97	6.72559
1301.34	0.032959
