Measurement: Raman, 780 nm, unoriented, Raman Data Processed
Mineral: Laurionite
Rruff sample: R130788
Ideal chemistry: Pb^2+^Cl(OH)
Locality: Pacha Limani, Laurion, Greece
Source: Bob Jenkins
Description: Colorless prismatic crystals in a vug
Raman shift (cm-1)	intensity
91.5599	0
94.9347	333.571
98.3096	894.905
101.684	2048.25
105.059	2436
108.434	916.881
111.809	358.242
115.184	456.338
118.558	278.234
121.933	505.377
125.308	976.842
128.683	1516.08
132.058	2063.42
135.433	1970.72
138.807	1070.98
142.182	410.966
145.557	101.214
148.932	34.2855
152.307	72.1584
155.681	60.1303
159.056	39.0593
162.431	2.10022
165.806	39.2548
169.181	74.4871
172.555	108.255
175.93	138.689
179.305	166.726
182.68	188.814
186.055	201.434
189.43	218.309
192.804	227.057
196.179	240.9
199.554	256.049
202.929	270.835
206.304	275.263
209.678	248.485
213.053	210.537
216.428	179.307
219.803	152.73
223.178	132.867
226.553	117.749
229.927	105.006
233.302	98.4412
236.677	93.903
240.052	100.495
243.427	105.009
246.801	117.986
250.176	143.927
253.551	187.224
256.926	244.59
260.301	317.16
263.675	401.693
267.05	491.577
270.425	550.389
273.8	535.409
277.175	433.913
280.55	274.057
283.924	136.561
287.299	51.2744
290.674	5.40442
294.049	17.3389
297.424	15.0496
300.798	0.615234
304.173	30.9793
307.548	92.922
310.923	197.124
314.298	328.309
317.673	490.03
321.047	691.36
324.422	929.721
327.797	1173.83
331.172	1217.32
334.547	936.996
337.921	589.348
341.296	356.175
344.671	221.817
348.046	140.789
351.421	92.9796
354.796	57.318
358.17	35.7259
361.545	22.1413
364.92	12.3512
368.295	10.1197
371.67	7.90369
375.044	3.26013
378.419	2.43243
381.794	1.1994
385.169	0.562561
388.544	2.20608
391.918	4.36375
395.293	2.78139
398.668	3.40434
402.043	1.16452
405.418	1.94246
408.793	3.84874
412.167	7.0567
415.542	7.74741
418.917	10.9125
422.292	14.0498
425.667	14.3
429.041	18.8068
432.416	21.1313
435.791	24.083
439.166	25.2685
442.541	26.4894
445.915	25.5747
449.29	27.0855
452.665	25.439
456.04	22.7186
459.415	22.4228
462.789	20.1145
466.164	17.3297
469.539	17.21
472.914	15.7695
476.289	14.2996
479.664	14.4429
483.038	12.1994
486.413	11.5649
489.788	10.2897
493.163	11.368
496.538	9.46683
499.913	6.34178
503.287	9.8237
506.662	4.27589
510.037	4.30039
513.412	4.22279
516.787	2.1945
520.161	4.87213
523.536	2.18813
526.911	1.21658
530.286	1.12203
533.661	1.05405
537.035	0.541199
540.41	1.94287
543.785	3.19104
547.16	3.19568
550.535	1.31978
553.909	4.09927
557.284	4.58809
560.659	8.33135
564.034	9.90443
567.409	13.9222
570.784	16.6492
574.158	19.1803
577.533	21.6645
580.908	28.6763
584.283	29.7085
587.658	33.0902
591.033	33.8477
594.407	33.1043
597.782	33.453
601.157	31.0713
604.532	25.5386
607.907	22.3721
611.281	19.1853
614.656	11.7629
618.031	8.16049
621.406	5.72949
624.781	4.37457
628.155	1.30339
631.53	0.242874
634.905	0.216476
638.28	2.68131
641.655	1.06839
645.029	1.80309
648.404	0.682831
651.779	1.33234
655.154	1.17188
658.529	1.08775
661.904	2.57903
665.278	3.37213
668.653	2.07509
672.028	3.32083
675.403	7.77893
678.778	9.18303
682.153	11.6191
685.527	13.1714
688.902	16.8412
692.277	17.3704
695.652	23.4594
699.027	28.0607
702.401	31.0407
705.776	35.7187
709.151	39.6928
712.526	43.8464
715.901	50.7003
719.275	54.006
722.65	56.802
726.025	60.2201
729.4	59.2268
732.775	59.0358
736.149	57.7675
739.524	53.3769
742.899	48.2119
746.274	43.3623
749.649	39.227
753.024	34.2925
756.398	31.6763
759.773	26.8682
763.148	20.5692
766.523	18.319
769.898	17.0121
773.273	13.0255
776.647	8.61917
780.022	8.83189
783.397	5.73691
786.772	4.79474
790.146	5.17297
793.521	1.57799
796.896	1.94484
800.271	0.58989
803.646	0.873825
807.021	0.340942
810.395	0.123535
813.77	0.018539
817.145	0.33963
820.52	1.0591
823.895	0.141174
827.269	1.25331
830.644	0.171799
834.019	1.07495
837.394	0.933426
840.769	1.23558
844.144	1.67687
847.518	3.14403
850.893	2.58214
854.268	4.24596
857.643	2.90179
861.018	4.11255
864.393	3.92046
867.767	4.01038
871.142	3.63957
874.517	2.09267
877.892	2.45084
881.266	2.61823
884.641	3.9764
888.016	3.60751
891.391	1.77456
894.766	1.83431
898.141	1.44955
901.515	1.60593
904.89	2.11216
908.265	1.8558
911.64	1.64828
915.015	2.34825
918.389	1.27668
921.764	1.98328
925.139	2.75713
928.514	0.005852
931.889	1.50549
935.264	1.30796
938.638	0.666702
942.013	1.22768
945.388	1.50658
948.763	0.9823
952.138	1.16021
955.512	1.67226
958.887	1.39518
962.262	0.44207
965.637	2.02118
969.012	0.813202
972.386	0.012398
975.761	0.796478
979.136	1.51381
982.511	1.20194
985.886	1.36465
989.261	0.6343
992.635	0.425766
996.01	0.791374
999.385	0.534035
1002.76	1.91444
1006.13	0.116142
1009.51	1.26568
1012.88	1.21249
1016.26	0.044357
1019.63	1.71825
1023.01	1.45477
1026.38	2.18877
1029.76	1.35327
1033.13	1.32159
1036.51	2.4569
1039.88	2.70501
1043.26	1.06532
1046.63	1.36966
1050.01	1.46612
1053.38	0.687317
1056.76	1.14597
1060.13	2.54323
1063.51	0.866653
1066.88	1.57506
1070.26	2.05805
1073.63	1.25867
1077.01	0.332794
1080.38	2.37188
1083.76	0.208549
1087.13	1.45635
1090.51	1.34587
1093.88	0.73777
1097.26	0.876862
1100.63	0.399628
1104	1.6559
1107.38	1.34645
1110.75	1.3801
1114.13	1.30738
1117.5	1.43295
1120.88	1.49149
1124.25	0.130386
1127.63	1.98265
1131	0.062309
1134.38	1.32912
1137.75	1.50353
1141.13	0.3368
1144.5	1.87537
1147.88	1.13645
1151.25	1.61736
1154.63	1.6377
1158	1.70236
1161.38	0.234764
1164.75	1.25375
1168.13	2.44268
1171.5	0.804138
1174.88	2.64257
1178.25	1.73668
1181.62	1.72485
1185	1.09694
1188.38	1.69189
1191.75	1.07546
1195.12	2.39384
1198.5	1.78036
1201.87	2.35043
1205.25	1.67199
1208.62	2.812
1212	2.94532
1215.37	1.13284
1218.75	0.825699
1222.12	1.52862
1225.5	1.808
1228.87	0.246071
1232.25	2.21183
1235.62	0.025871
1239	0.651878
1242.37	0.811356
1245.75	0.515671
1249.12	0.222153
1252.5	1.05469
1255.87	1.52071
1259.25	1.61473
1262.62	0.806435
1265.99	1.73792
1269.37	0.56295
1272.74	0.563423
1276.12	1.39006
1279.49	0.795609
1282.87	1.33373
