Measurement: Raman, 532 nm, unoriented, Raman Data Processed
Mineral: Laurionite
Rruff sample: R140025
Ideal chemistry: Pb^2+^Cl(OH)
Locality: Lavrion District, Attik√≠ Prefecture, Greece
Source: Rock Currier
Description: Colorless prismatic or bladed crystals.
Raman shift (cm-1)	intensity
89.7832	0
93.158	199.654
96.5328	767.306
99.9077	1448.59
103.282	2442.13
106.657	3496.86
110.032	3257.82
113.407	3312.61
116.782	2399.09
120.157	1540.91
123.531	1449.9
126.906	1247.83
130.281	611.888
133.656	221.995
137.031	53.2599
140.405	20.238
143.78	44.587
147.155	66.8285
150.53	39.2925
153.905	0.19635
157.28	38.7205
160.654	73.3753
164.029	108.986
167.404	143.453
170.779	178.353
174.154	203.469
177.528	211.566
180.903	218.576
184.278	227.098
187.653	240.292
191.028	250.063
194.403	254.274
197.777	245.08
201.152	221.355
204.527	182.945
207.902	145.922
211.277	120.819
214.651	112.186
218.026	102.857
221.401	91.4263
224.776	79.9053
228.151	67.667
231.525	55.3082
234.9	47.8991
238.275	49.1771
241.65	54.7064
245.025	61.16
248.4	80.0378
251.774	112.667
255.149	163.999
258.524	233.368
261.899	312.883
265.274	400.057
268.649	480.507
272.023	513.904
275.398	452.077
278.773	315.217
282.148	177.754
285.523	89.0678
288.897	27.5062
292.272	3.93091
295.647	16.4593
299.022	16.1843
302.397	1.23377
305.772	29.4503
309.146	80.5218
312.521	150.777
315.896	238.217
319.271	338.957
322.646	461.165
326.02	571.534
329.395	588.527
332.77	470.243
336.145	318.275
339.52	194.837
342.894	121.833
346.269	75.4576
349.644	46.3018
353.019	29.8588
356.394	14.3966
359.769	11.5132
363.143	8.7807
366.518	5.72565
369.893	4.29669
373.268	0.160095
376.643	1.24121
380.017	0.423218
383.392	0.448914
386.767	0.518311
390.142	1.24561
393.517	0.070313
396.892	1.19513
400.266	4.25415
403.641	9.48554
407.016	8.08759
410.391	10.4462
413.766	13.7614
417.14	18.3248
420.515	24.6885
423.89	26.2949
427.265	26.587
430.64	29.0226
434.014	29.4504
437.389	30.0334
440.764	30.8502
444.139	31.2117
447.514	30.8928
450.889	27.2916
454.263	25.6142
457.638	23.6221
461.013	24.0057
464.388	23.8286
467.763	20.5169
471.137	22.7192
474.512	19.7148
477.887	15.812
481.262	17.9064
484.637	20.3358
488.012	16.7064
491.386	16.3979
494.761	13.2847
498.136	9.48706
501.511	9.08832
504.886	6.43573
508.26	4.00903
511.635	3.29407
515.01	4.62091
518.385	2.98932
521.76	2.10998
525.135	2.2984
528.509	2.1521
531.884	0.118347
535.259	1.45325
538.634	0.167786
542.009	1.29138
545.384	3.90631
548.758	6.64374
552.133	5.48108
555.508	2.53577
558.883	10.8342
562.258	13.1592
565.632	15.1425
569.007	18.5914
572.382	22.0892
575.757	29.0564
579.132	29.8227
582.506	35.3471
585.881	36.6471
589.256	36.7639
592.631	34.0049
596.006	34.0874
599.381	29.1864
602.755	27.2552
606.13	25.9177
609.505	20.2568
612.88	17.772
616.255	12.051
619.63	10.2963
623.004	5.76697
626.379	9.67566
629.754	7.12793
633.129	5.93079
636.504	5.77258
639.878	7.11768
643.253	5.46143
646.628	6.30017
650.003	5.70312
653.378	5.16467
656.752	5.33386
660.127	4.1886
663.502	9.80408
666.877	9.21374
670.252	7.37195
673.626	7.18127
677.001	6.44751
680.376	7.4928
683.751	5.8689
687.126	7.73413
690.501	2.90234
693.875	3.36267
697.25	1.03418
700.625	6.04907
704	3.17554
707.375	2.60266
710.75	3.10535
714.124	4.53589
717.499	2.28003
720.874	2.13379
724.249	6.56738
727.624	7.35364
730.998	3.96399
734.373	0.695068
737.748	1.28564
741.123	5.41125
744.498	3.8158
747.872	7.14087
751.247	12.5939
754.622	2.35596
757.997	2.88782
761.372	1.29614
764.747	1.24109
768.121	0.749268
771.496	1.29211
774.871	2.74402
778.246	2.36694
781.621	2.89832
784.995	2.49866
788.37	6.10828
791.745	1.37341
795.12	2.7583
798.495	4.52588
801.87	2.02612
805.244	13.0326
808.619	12.9742
811.994	12.7435
815.369	13.4767
818.744	12.3402
822.119	12.0867
825.493	10.0361
828.868	8.61511
832.243	9.27918
835.618	4.85925
838.993	14.5841
842.367	8.62793
845.742	13.2634
849.117	9.3468
852.492	10.3496
855.867	7.29517
859.241	11.7953
862.616	11.1166
865.991	11.2621
869.366	9.31885
872.741	10.2492
876.115	4.05103
879.49	4.89417
882.865	4.50183
886.24	3.9823
889.615	5.19202
892.99	5.46936
896.364	5.74658
899.739	7.94141
903.114	3.86548
906.489	4.8103
909.864	3.08325
913.239	1.49853
916.613	2.38916
919.988	0.04187
923.363	1.12158
926.738	2.58716
930.113	0.931519
933.487	3.92761
936.862	0.609375
940.237	0.323608
943.612	3.4165
946.987	2.88721
950.361	3.67957
953.736	1.86414
957.111	0.138062
960.486	0.674927
963.861	3.33496
967.236	5.82703
970.61	6.16699
973.985	4.98071
977.36	2.99878
980.735	8.33813
984.11	5.03149
987.485	3.76514
990.859	5.93665
994.234	5.9353
997.609	6.67578
1000.98	3.52856
1004.36	5.44031
1007.73	2.98633
1011.11	4.12341
1014.48	3.9154
1017.86	5.82861
1021.23	3.62305
1024.61	5.20691
1027.98	6.0741
1031.36	3.95203
1034.73	4.77551
1038.11	7.29748
1041.48	7.12036
1044.86	8.36267
1048.23	6.32043
1051.61	5.48547
1054.98	2.67188
1058.36	3.30212
1061.73	0.80835
1065.11	1.46252
1068.48	6.78235
1071.86	1.97571
1075.23	4.24634
1078.6	8.35388
1081.98	0.579468
1085.35	2.2124
1088.73	2.7915
1092.1	1.10779
1095.48	2.71875
1098.85	4.96533
1102.23	3.5199
1105.6	2.30457
1108.98	7.15649
1112.35	4.21631
1115.73	4.71631
1119.1	8.29663
1122.48	7.06885
1125.85	1.63769
1129.23	0.437256
1132.6	1.39417
1135.98	3.08435
1139.35	2.8429
1142.73	4.37927
1146.1	3.83777
1149.48	1.25378
1152.85	10.0599
1156.22	7.59106
1159.6	4.84509
1162.97	4.51306
1166.35	3.83057
1169.72	2.9613
1173.1	6.4165
1176.47	5.86719
1179.85	5.47498
1183.22	6.6687
1186.6	3.48035
1189.97	8.86438
1193.35	5.41504
1196.72	7.08411
1200.1	0.118042
1203.47	2.02161
1206.85	6.60107
1210.22	4.17444
1213.6	3.03772
1216.97	3.07129
1220.35	5.04541
1223.72	4.92078
1227.1	3.10596
1230.47	0.11084
1233.85	1.5907
1237.22	2.12048
1240.6	4.25122
1243.97	3.5011
1247.35	4.47974
1250.72	2.62219
1254.1	5.75073
1257.47	5.57263
1260.85	4.56799
1264.22	2.85767
1267.59	0.110352
1270.97	0.229858
1274.34	3.12878
1277.72	0.331665
1281.09	1.51892
1284.47	4.47327
1287.84	0.856812
1291.22	3.6333
1294.59	3.37634
1297.97	2.85059
1301.34	0.333496
