Measurement: Raman, 780 nm, unoriented, Raman Data Processed
Mineral: Laurionite
Rruff sample: R140025
Ideal chemistry: Pb^2+^Cl(OH)
Locality: Lavrion District, Attik√≠ Prefecture, Greece
Source: Rock Currier
Description: Colorless prismatic or bladed crystals.
Raman shift (cm-1)	intensity
91.5599	0
94.9347	196.61
98.3096	460.732
101.684	1010.1
105.059	1659.99
108.434	1628.19
111.809	1533.47
115.184	1094.67
118.558	671.527
121.933	642.054
125.308	590.964
128.683	319.483
132.058	108.581
135.433	18.6885
138.807	14.7013
142.182	26.2827
145.557	30.5985
148.932	37.9796
152.307	17.6903
155.681	14.6908
159.056	44.7187
162.431	78.1068
165.806	109.57
169.181	137.348
172.555	159.902
175.93	171.617
179.305	182.636
182.68	189.491
186.055	198.584
189.43	208.467
192.804	210.264
196.179	204.13
199.554	188.962
202.929	167.888
206.304	145.477
209.678	122.383
213.053	109.939
216.428	103.727
219.803	95.1434
223.178	89.4868
226.553	81.3888
229.927	77.6304
233.302	72.4121
236.677	68.4783
240.052	68.6042
243.427	70.6642
246.801	76.6028
250.176	89.1612
253.551	103.035
256.926	128.305
260.301	158.767
263.675	190.445
267.05	217.726
270.425	224.446
273.8	197.495
277.175	144.171
280.55	86.1892
283.924	43.9135
287.299	14.1796
290.674	1.12082
294.049	6.01566
297.424	8.81662
300.798	4.93903
304.173	6.18549
307.548	22.1321
310.923	46.6402
314.298	76.2596
317.673	115.727
321.047	158.052
324.422	192.409
327.797	203.706
331.172	171.098
334.547	121.045
337.921	77.2013
341.296	48.4955
344.671	28.5446
348.046	15.7001
351.421	8.9841
354.796	3.5661
358.17	0.254807
361.545	0.814957
364.92	0.206024
368.295	0.780106
371.67	0.641083
375.044	0.337967
378.419	1.53409
381.794	0.632507
385.169	0.419067
388.544	0.400497
391.918	1.86917
395.293	1.95987
398.668	3.16122
402.043	4.31013
405.418	6.3986
408.793	6.55618
412.167	8.34779
415.542	8.89874
418.917	11.3033
422.292	12.778
425.667	13.8526
429.041	14.68
432.416	14.0654
435.791	15.1075
439.166	14.1413
442.541	15.4744
445.915	12.788
449.29	12.797
452.665	12.4889
456.04	12.2018
459.415	10.3262
462.789	10.9055
466.164	10.0524
469.539	9.19228
472.914	10.2022
476.289	7.41264
479.664	7.04689
483.038	6.54115
486.413	5.62642
489.788	5.22395
493.163	4.9153
496.538	4.15982
499.913	3.65498
503.287	3.29848
506.662	2.36757
510.037	1.48576
513.412	2.18857
516.787	1.01744
520.161	4.33993
523.536	1.34773
526.911	0.043564
530.286	0.338211
533.661	0.803375
537.035	1.18153
540.41	0.590881
543.785	0.979843
547.16	0.457199
550.535	1.03508
553.909	1.45696
557.284	2.53101
560.659	3.62511
564.034	4.20546
567.409	4.93463
570.784	5.79135
574.158	8.36774
577.533	8.7502
580.908	9.26955
584.283	10.5131
587.658	9.85184
591.033	10.9624
594.407	10.4133
597.782	10.732
601.157	9.17096
604.532	9.19633
607.907	8.79689
611.281	6.08818
614.656	6.05695
618.031	4.42145
621.406	3.57361
624.781	2.81671
628.155	3.35841
631.53	1.74615
634.905	4.16846
638.28	2.90558
641.655	1.74709
645.029	3.70668
648.404	2.67468
651.779	1.79889
655.154	1.68156
658.529	2.0275
661.904	3.34561
665.278	1.06667
668.653	1.30322
672.028	1.3452
675.403	1.06717
678.778	1.85832
682.153	1.17177
685.527	0.493576
688.902	0.407288
692.277	0.008347
695.652	0.878326
699.027	0.360992
702.401	0.92691
705.776	0.286301
709.151	0.012482
712.526	1.37332
715.901	1.09784
719.275	0.713669
722.65	1.35068
726.025	0.006058
729.4	0.732986
732.775	0.174774
736.149	1.31305
739.524	0.848236
742.899	1.9274
746.274	0.262299
749.649	0.024277
753.024	0.663513
756.398	0.564117
759.773	0.174393
763.148	0.155457
766.523	0.332626
769.898	0.049896
773.273	0.222321
776.647	0.243774
780.022	1.40222
783.397	0.868134
786.772	1.82964
790.146	1.64275
793.521	2.26743
796.896	2.32951
800.271	2.03531
803.646	3.17435
807.021	3.9379
810.395	3.66832
813.77	3.31583
817.145	4.53087
820.52	3.97363
823.895	4.79598
827.269	4.74712
830.644	3.04648
834.019	4.37849
837.394	4.3499
840.769	3.77745
844.144	5.23197
847.518	5.00149
850.893	5.6406
854.268	4.47228
857.643	4.43976
861.018	4.42754
864.393	4.35078
867.767	6.56011
871.142	4.61345
874.517	4.15437
877.892	3.22571
881.266	3.22919
884.641	3.03626
888.016	2.95747
891.391	2.70669
894.766	2.4231
898.141	0.581726
901.515	0.267029
904.89	1.85546
908.265	3.20887
911.64	0.894836
915.015	0.07196
918.389	1.49628
921.764	0.05835
925.139	0.357269
928.514	0.102989
931.889	0.04261
935.264	0.688248
938.638	0.2174
942.013	1.08453
945.388	0.108177
948.763	0.512192
952.138	1.1473
955.512	0.928879
958.887	0.766998
962.262	1.22063
965.637	0.405891
969.012	0.598969
972.386	0.454041
975.761	1.13147
979.136	0.201607
982.511	0.329414
985.886	0.395645
989.261	1.00688
992.635	0.727051
996.01	0.319649
999.385	1.48953
1002.76	0.457458
1006.13	0.619209
1009.51	1.09499
1012.88	0.38559
1016.26	0.195946
1019.63	0.796921
1023.01	0.408722
1026.38	1.53165
1029.76	0.594498
1033.13	0.910873
1036.51	0.846474
1039.88	0.240746
1043.26	1.64383
1046.63	0.882446
1050.01	1.50266
1053.38	0.992615
1056.76	1.75062
1060.13	1.16901
1063.51	0.754288
1066.88	0.365082
1070.26	1.22823
1073.63	0.95607
1077.01	0.290344
1080.38	1.99999
1083.76	0.479019
1087.13	0.539841
1090.51	0.231476
1093.88	0.117188
1097.26	0.002457
1100.63	0.151688
1104	0.613487
1107.38	0.835388
1110.75	0.621521
1114.13	0.559517
1117.5	0.696625
1120.88	1.34934
1124.25	0.720566
1127.63	0.568832
1131	0.124283
1134.38	0.464127
1137.75	0.58152
1141.13	1.66662
1144.5	0.405815
1147.88	0.718338
1151.25	1.20937
1154.63	0.833931
1158	0.747513
1161.38	1.32503
1164.75	1.28356
1168.13	1.1031
1171.5	1.40999
1174.88	1.28803
1178.25	1.56649
1181.62	1.02741
1185	1.18228
1188.38	1.15627
1191.75	1.3335
1195.12	1.617
1198.5	1.91633
1201.87	1.47623
1205.25	1.54076
1208.62	1.06197
1212	1.06749
1215.37	1.24538
1218.75	0.726181
1222.12	1.05773
1225.5	0.923721
1228.87	1.20001
1232.25	1.45961
1235.62	0.278297
1239	0.393654
1242.37	1.02781
1245.75	0.471001
1249.12	0.966354
1252.5	0.581863
1255.87	1.87888
1259.25	1.17308
1262.62	1.31454
1265.99	0.956345
1269.37	0.459015
1272.74	0.782677
1276.12	0.808052
1279.49	0.959549
1282.87	1.04197
