Measurement: Raman, 532 nm, unoriented, Raman Data Processed
Mineral: Lavinskyite
Rruff sample: R120057
Ideal chemistry: K(LiCu^2+^)Cu^2+^_6_(Si_4_O_11_)_2_(OH)_4_
Locality: Wessels mine, Kalahari manganese field, Northern Cape Province, South Africa
Source: William W. Pinch, Robert Lavinsky, and Marcus Origlieri
Description: Light blue plates, associated with R120019 wesselsite, and R120077 scottyite. This is the type sample.
Measured chemistry: (K_0.99_Ba_0.01_)_Σ=1.00_(Li_1.04_Cu_0.50_Mg_0.43_Na_0.10_Mn_0.01_)_Σ=2.08_Cu_6.00_Si_7.99_O_22_(OH)_4.00_  ; (Lavinskyite is the darkest material in the image)
Raman shift (cm-1)	intensity
90.4922	0
93.867	1.44809
97.2418	22.1182
100.617	113.985
103.992	134.636
107.366	227.145
110.741	277.569
114.116	316.831
117.491	389.286
120.865	511.857
124.24	709.227
127.615	659.936
130.99	564.332
134.365	417.345
137.74	345.419
141.114	241.908
144.489	115.797
147.864	7.30304
151.239	59.3062
154.614	108.423
157.988	68.8636
161.363	52.4224
164.738	332.468
168.113	668.694
171.488	885.676
174.863	1093.9
178.237	1389.64
181.612	1643.44
184.987	1914.79
188.362	2142.68
191.737	2384.12
195.112	2601.03
198.486	2840.06
201.861	3207.68
205.236	3660.12
208.611	4059.2
211.986	3922.66
215.36	3392.83
218.735	2920.18
222.11	2621.69
225.485	2483.73
228.86	2416.05
232.234	2344.22
235.609	2316.59
238.984	2150.83
242.359	1934.01
245.734	1718.17
249.109	1527.92
252.483	1338.13
255.858	1153.21
259.233	997.519
262.608	875.816
265.983	748.681
269.358	625.421
272.732	557.993
276.107	475.681
279.482	385.101
282.857	256.832
286.232	138.028
289.606	69.8984
292.981	6.99707
296.356	17.937
299.731	64.0449
303.106	33.2056
306.481	34.0298
309.855	87.0649
313.23	109.94
316.605	150.656
319.98	150.444
323.355	192.267
326.729	179.278
330.104	203.576
333.479	240.96
336.854	305.727
340.229	351.405
343.603	311.956
346.978	267.773
350.353	188.856
353.728	102.432
357.103	36.9351
360.478	21.5034
363.852	23.9106
367.227	53.4722
370.602	51.0762
373.977	9.75391
377.352	35.0581
380.726	122.892
384.101	225.003
387.476	308.344
390.851	445.267
394.226	540.015
397.601	619.679
400.975	688.579
404.35	760.102
407.725	869.786
411.1	994.666
414.475	1181.45
417.849	1290.33
421.224	1350.18
424.599	1386.81
427.974	1469.29
431.349	1614.59
434.724	1746.26
438.098	1887.57
441.473	1964.6
444.848	1972.67
448.223	1809.31
451.598	1469.13
454.972	1117.56
458.347	855.109
461.722	563.243
465.097	361.342
468.472	200.546
471.846	136.467
475.221	97.4898
478.596	118.556
481.971	124.609
485.346	186.461
488.721	299.481
492.095	437.709
495.47	644.919
498.845	796.96
502.22	809.308
505.595	746.588
508.969	565.594
512.344	401.622
515.719	245.567
519.094	133.832
522.469	68.0352
525.844	31.3267
529.218	21.3579
532.593	57.6235
535.968	24.0845
539.343	6.39258
542.718	37.666
546.092	92.2822
549.467	169.388
552.842	226.691
556.217	251.833
559.592	249.831
562.967	261.848
566.341	266.62
569.716	226.808
573.091	208.894
576.466	198.142
579.841	195.65
583.216	136.914
586.59	119.123
589.965	54.4565
593.34	27.3657
596.715	2.49902
600.09	11.9209
603.464	1.53125
606.839	7.89795
610.214	2.00586
613.589	21.1924
616.964	0.072754
620.338	8.38135
623.713	7.00586
627.088	8.98877
630.463	13.165
633.838	28.4097
637.212	63.6953
640.587	77.4287
643.962	84.1352
647.337	122.835
650.712	128.091
654.087	211.398
657.461	268.209
660.836	347.264
664.211	468.148
667.586	688.82
670.961	987.1
674.335	1487.22
677.71	2188.83
681.085	2897.02
684.46	2854.83
687.835	1960.15
691.21	1188.98
694.584	743.363
697.959	477.263
701.334	320.348
704.709	213.896
708.084	200.974
711.458	184.332
714.833	176.95
718.208	120.394
721.583	61.3057
724.958	62.5371
728.332	46.1875
731.707	28.2964
735.082	16.8774
738.457	10.1602
741.832	4.50146
745.207	11.4819
748.581	13.0908
751.956	91.4219
755.331	117.624
758.706	131.787
762.081	159.355
765.456	170.85
768.83	143.993
772.205	114.526
775.58	75.9844
778.955	69.2559
782.33	47.3726
785.704	28.5898
789.079	3.05566
792.454	42.2783
795.829	39.0508
799.204	21.0083
802.578	7.87061
805.953	7.4624
809.328	17.2656
812.703	16.1768
816.078	4.95654
819.453	36.4893
822.827	41.7842
826.202	36.8086
829.577	34.8955
832.952	49.9898
836.327	35.1255
839.702	38.0571
843.076	37.8555
846.451	18.3096
849.826	0.259766
853.201	39.2134
856.576	24.9048
859.95	14.729
863.325	11.7602
866.7	10.8994
870.075	8.33447
873.45	30.0454
876.824	34.3779
880.199	51.1352
883.574	88.1084
886.949	98.6069
890.324	143.436
893.698	111.593
897.073	116.657
900.448	108.88
903.823	139.697
907.198	181.028
910.573	227.936
913.947	275.755
917.322	301.381
920.697	287.959
924.072	212.126
927.447	154.011
930.822	106.158
934.196	41.5347
937.571	10.8989
940.946	1.58106
944.321	11.6118
947.696	12.0332
951.07	11.2012
954.445	21.1982
957.82	2.97363
961.195	1.271
964.57	37.4238
967.944	67.0117
971.319	83.0127
974.694	93.2031
978.069	105.871
981.444	106.413
984.819	99.0835
988.193	116.882
991.568	130.659
994.943	124.8
998.318	94.4297
1001.69	74.9707
1005.07	54.8555
1008.44	70.9062
1011.82	52.4688
1015.19	45.1118
1018.57	61.7993
1021.94	82.7275
1025.32	57.3916
1028.69	115.094
1032.07	150.989
1035.44	219.185
1038.82	287.204
1042.19	268.012
1045.57	257.426
1048.94	240.865
1052.32	182.062
1055.69	161.195
1059.07	115.146
1062.44	88.7578
1065.81	84.5772
1069.19	77.7022
1072.56	105.085
1075.94	123.696
1079.31	169.486
1082.69	222.305
1086.06	275.589
1089.44	267.873
1092.81	216.47
1096.19	155.193
1099.56	100.981
1102.94	39.1494
1106.31	34.752
1109.69	24.8115
1113.06	24.9766
1116.44	31.5791
1119.81	6.07617
1123.19	29.7524
1126.56	8.98779
1129.94	17.4209
1133.31	0.192383
1136.68	5.99072
1140.06	18.5088
1143.43	13.6294
1146.81	22.6611
1150.18	26.3696
1153.56	50.7456
1156.93	64.4517
1160.31	38.7319
1163.68	41.6216
1167.06	27.3379
1170.43	18.5967
1173.81	31.29
1177.18	43.6758
1180.56	39.4136
1183.93	34.102
1187.31	46.0264
1190.68	35.7476
1194.06	28.9541
1197.43	49.4575
1200.81	12.1792
1204.18	21.3926
1207.56	36.2676
1210.93	55.3701
1214.31	59.0112
1217.68	35.481
1221.06	37.9004
1224.43	37.2949
1227.81	37.4526
1231.18	34.5425
1234.56	12.313
1237.93	0.804688
1241.31	23.1436
1244.68	22.1597
1248.05	28.5298
1251.43	19.8506
1254.8	21.4541
1258.18	42.4907
1261.55	39.1885
1264.93	34.3408
1268.3	27.6973
1271.68	21.523
1275.05	18.9233
1278.43	28.9497
1281.8	3.68701
1285.18	18.3892
1288.55	12.4653
1291.93	19.9766
1295.3	2.53076
1298.68	26.2827
1302.05	9.60498
