Measurement: Raman, 532 nm, unoriented, Raman Data Processed
Mineral: Leucophoenicite
Rruff sample: R150131
Ideal chemistry: Mn^2+^_7_(SiO_4_)_3_(OH)_2_
Locality: Franklin, Sussex County, New Jersey, USA
Source: Steven Kuitems
Description: Striated raspberry-red or deep to light pink prismatic crystals, associated with white prismatic willemite
Raman shift (cm-1)	intensity
89.7832	0
93.158	41.1332
96.5328	36.969
99.9077	27.1995
103.282	18.0884
106.657	2.03742
110.032	11.5976
113.407	0.33139
116.782	20.3906
120.157	12.3448
123.531	15.0985
126.906	30.3925
130.281	40.6074
133.656	60.2824
137.031	67.8673
140.405	86.5678
143.78	86.3949
147.155	78.7888
150.53	71.1058
153.905	56.9727
157.28	43.6873
160.654	18.1589
164.029	14.1446
167.404	22.7146
170.779	25.6154
174.154	31.0725
177.528	29.2941
180.903	27.4674
184.278	30.2937
187.653	31.3772
191.028	21.9302
194.403	9.79968
197.777	1.29694
201.152	4.02975
204.527	4.85626
207.902	2.13644
211.277	6.67651
214.651	19.4399
218.026	29.43
221.401	50.8421
224.776	73.3633
228.151	101.483
231.525	125.146
234.9	136.502
238.275	135.063
241.65	135.364
245.025	137.439
248.4	148.992
251.774	155.881
255.149	157.863
258.524	153.175
261.899	146.534
265.274	120.501
268.649	97.707
272.023	76.4257
275.398	61.5543
278.773	53.1463
282.148	49.1069
285.523	44.1227
288.897	37.7784
292.272	33.3934
295.647	26.8414
299.022	23.1977
302.397	24.5462
305.772	31.4027
309.146	39.7663
312.521	49.2812
315.896	56.3695
319.271	56.5538
322.646	48.1256
326.02	35.4665
329.395	24.5637
332.77	9.68066
336.145	6.16229
339.52	0.310364
342.894	4.16064
346.269	5.07147
349.644	2.66894
353.019	2.69153
356.394	0.439697
359.769	4.4494
363.143	10.6538
366.518	16.5451
369.893	27.4999
373.268	42.3914
376.643	68.2166
380.017	96.6142
383.392	134.208
386.767	173.162
390.142	198.447
393.517	204.443
396.892	213.958
400.266	221.252
403.641	217.631
407.016	192.153
410.391	157.956
413.766	120.152
417.14	92.8311
420.515	70.8251
423.89	54.841
427.265	40.4762
430.64	33.3099
434.014	26.167
437.389	21.9074
440.764	19.6571
444.139	18.3481
447.514	20.7355
450.889	21.1265
454.263	24.89
457.638	18.8775
461.013	13.1267
464.388	7.06442
467.763	2.3316
471.137	1.297
474.512	3.87619
477.887	2.20334
481.262	5.66852
484.637	13.3396
488.012	17.1689
491.386	25.9211
494.761	39.8268
498.136	36.1559
501.511	28.4824
504.886	16.6805
508.26	12.1477
511.635	8.62959
515.01	10.0685
518.385	15.2931
521.76	12.6162
525.135	5.20528
528.509	0.300385
531.884	0.232849
535.259	3.34419
538.634	6.86282
542.009	12.5058
545.384	18.6315
548.758	24.2967
552.133	31.9382
555.508	37.1646
558.883	41.9156
562.258	50.8698
565.632	64.0607
569.007	86.3345
572.382	111.579
575.757	114.29
579.132	94.9226
582.506	69.992
585.881	52.7439
589.256	38.5504
592.631	27.1721
596.006	15.5853
599.381	8.56935
602.755	4.60524
606.13	0.37532
609.505	0.173859
612.88	2.04555
616.255	0.030533
619.63	0.663345
623.004	0.246582
626.379	1.61836
629.754	2.33499
633.129	4.25401
636.504	6.85738
639.878	4.28569
643.253	5.7942
646.628	6.96843
650.003	8.74643
653.378	11.048
656.752	11.7138
660.127	14.026
663.502	13.8109
666.877	12.9546
670.252	15.9885
673.626	16.5167
677.001	16.0479
680.376	15.4834
683.751	14.8893
687.126	15.2556
690.501	17.1343
693.875	16.006
697.25	16.2623
700.625	18.5347
704	19.2852
707.375	17.7359
710.75	15.815
714.124	16.8481
717.499	12.9642
720.874	11.1923
724.249	9.40144
727.624	9.72025
730.998	7.30702
734.373	4.1353
737.748	4.00125
741.123	1.43893
744.498	2.17131
747.872	1.53915
751.247	3.84207
754.622	5.23984
757.997	5.81174
761.372	5.96841
764.747	4.939
768.121	1.78674
771.496	4.19226
774.871	8.70288
778.246	22.3984
781.621	38.8894
784.995	70.8564
788.37	130.731
791.745	235.803
795.12	435.965
798.495	785.084
801.87	1344.17
805.244	2036.58
808.619	2607.66
811.994	2989.13
815.369	3065.35
818.744	2827.92
822.119	2786.5
825.493	2642.24
828.868	2367.87
832.243	2343.21
835.618	2584.6
838.993	2824.62
842.367	2790.69
845.742	2433.48
849.117	1902.75
852.492	1291.06
855.867	840.747
859.241	585.876
862.616	444.05
865.991	347.203
869.366	264.131
872.741	186.28
876.115	126.108
879.49	86.4103
882.865	61.2542
886.24	45.1265
889.615	33.6077
892.99	27.6357
896.364	21.9092
899.739	8.35022
903.114	1.3804
906.489	8.55457
909.864	10.8695
913.239	9.28818
916.613	5.25195
919.988	4.19232
923.363	18.5407
926.738	39.7726
930.113	72.5787
933.487	133.56
936.862	214.05
940.237	232.606
943.612	163.596
946.987	93.2458
950.361	48.4723
953.736	21.6267
957.111	8.73178
960.486	0.829865
963.861	0.064911
967.236	0.832611
970.61	0.21463
973.985	1.91254
977.36	4.14871
980.735	9.00676
984.11	8.59979
987.485	11.1986
990.859	14.4872
994.234	14.4219
997.609	17.9622
1000.98	17.8757
1004.36	19.3479
1007.73	15.9704
1011.11	14.1471
1014.48	13.9426
1017.86	12.7424
1021.23	8.59586
1024.61	5.06346
1027.98	3.67302
1031.36	3.85243
1034.73	5.05249
1038.11	4.89673
1041.48	6.37138
1044.86	4.43747
1048.23	4.02368
1051.61	3.98604
1054.98	2.67381
1058.36	1.24881
1061.73	1.48405
1065.11	0.208084
1068.48	1.76349
1071.86	0.914749
1075.23	0.958237
1078.6	1.10088
1081.98	1.0003
1085.35	2.29686
1088.73	2.63066
1092.1	4.1243
1095.48	3.17528
1098.85	4.4779
1102.23	4.07726
1105.6	2.91841
1108.98	3.86684
1112.35	2.51912
1115.73	0.46347
1119.1	0.931381
1122.48	0.368301
1125.85	0.592667
1129.23	1.43982
1132.6	0.522034
1135.98	3.08057
1139.35	5.30768
1142.73	6.94917
1146.1	9.37318
1149.48	9.64502
1152.85	10.48
1156.22	11.4526
1159.6	12.5455
1162.97	10.6761
1166.35	10.7028
1169.72	10.9053
1173.1	11.9498
1176.47	8.53828
1179.85	8.42003
1183.22	5.59262
1186.6	4.6216
1189.97	3.47519
1193.35	1.48463
1196.72	0.959473
1200.1	0.702362
1203.47	0.995514
1206.85	0.595322
1210.22	1.17323
1213.6	1.10754
1216.97	0.961441
1220.35	1.97527
1223.72	2.36894
1227.1	1.68518
1230.47	1.37032
1233.85	2.98334
1237.22	2.19069
1240.6	3.3497
1243.97	5.32364
1247.35	3.13895
1250.72	4.8291
1254.1	4.87424
1257.47	1.31534
1260.85	4.85278
1264.22	3.20926
1267.59	1.67889
1270.97	1.20514
1274.34	2.74878
1277.72	1.87647
1281.09	0.995209
1284.47	7.62274
1287.84	1.11688
1291.22	2.71823
1294.59	2.18765
1297.97	3.39706
1301.34	0.458221
