Measurement: Raman, 780 nm, unoriented, Raman Data Processed
Mineral: Leucophoenicite
Rruff sample: R150131
Ideal chemistry: Mn^2+^_7_(SiO_4_)_3_(OH)_2_
Locality: Franklin, Sussex County, New Jersey, USA
Source: Steven Kuitems
Description: Striated raspberry-red or deep to light pink prismatic crystals, associated with white prismatic willemite
Raman shift (cm-1)	intensity
90.5957	0
93.9705	22.0676
97.3453	8.13278
100.72	4.87062
104.095	6.39163
107.47	9.09776
110.845	3.41107
114.219	1.73973
117.594	3.26704
120.969	1.28296
124.344	0.505478
127.719	3.82565
131.094	9.93391
134.468	13.143
137.843	15.3877
141.218	15.5715
144.593	13.307
147.968	9.59437
151.342	7.56229
154.717	5.71847
158.092	5.07471
161.467	2.49325
164.842	3.21606
168.216	7.31285
171.591	10.0933
174.966	10.9934
178.341	11.0429
181.716	9.56007
185.09	9.38295
188.465	9.63046
191.84	5.74484
195.215	2.71974
198.59	0.062683
201.965	1.33045
205.339	0.773483
208.714	0.433907
212.089	3.28529
215.464	5.66787
218.839	9.29434
222.214	14.1047
225.588	18.7124
228.963	27.3881
232.338	34.8397
235.713	35.8389
239.088	32.1361
242.462	31.5571
245.837	29.6349
249.212	31.3248
252.587	30.3654
255.962	29.2123
259.336	26.0153
262.711	23.6649
266.086	19.2421
269.461	13.4917
272.836	9.92335
276.211	6.58325
279.585	5.86816
282.96	4.99644
286.335	5.49534
289.71	4.13499
293.085	4.70514
296.459	4.0746
299.834	5.02702
303.209	6.28869
306.584	7.6022
309.959	9.50605
313.334	13.0376
316.708	14.9769
320.083	16.2777
323.458	14.0185
326.833	10.2582
330.207	5.80715
333.582	3.42874
336.957	2.54477
340.332	0.004341
343.707	0.519928
347.082	0.803604
350.456	1.33929
353.831	0.600056
357.206	0.267513
360.581	1.49239
363.956	3.27043
367.33	5.28624
370.705	7.8033
374.08	10.9579
377.455	16.2106
380.83	22.4365
384.205	29.866
387.579	38.6473
390.954	44.3528
394.329	47.7446
397.704	50.8499
401.079	51.2448
404.453	50.994
407.828	46.8255
411.203	38.9493
414.578	30.5333
417.953	23.074
421.327	18.2264
424.702	14.4071
428.077	11.2446
431.452	9.27249
434.827	6.83864
438.202	6.53079
441.576	5.68727
444.951	5.13725
448.326	4.30571
451.701	5.26037
455.076	5.21135
458.45	4.50452
461.825	3.5683
465.2	2.02806
468.575	0.963467
471.95	0.321949
475.325	0.50444
478.699	0.417213
482.074	0.349148
485.449	0.702118
488.824	1.60054
492.199	2.50261
495.573	2.95972
498.948	3.41647
502.323	2.49198
505.698	2.33416
509.073	1.31905
512.447	0.850922
515.822	2.36878
519.197	3.27897
522.572	3.06949
525.947	2.68454
529.322	0.977451
532.696	1.07715
536.071	1.15151
539.446	2.95903
542.821	4.28479
546.196	5.79407
549.57	7.48549
552.945	8.62484
556.32	10.7173
559.695	12.7048
563.07	15.5471
566.444	19.1791
569.819	27.9293
573.194	36.7439
576.569	37.6525
579.944	28.2295
583.319	19.9411
586.693	12.2334
590.068	8.58687
593.443	5.35631
596.818	3.00013
600.193	1.36291
603.567	0.45574
606.942	0.409155
610.317	0.26564
613.692	0.116528
617.067	0.339563
620.442	0.264496
623.816	0.197407
627.191	0.329487
630.566	0.860573
633.941	0.737774
637.316	0.016321
640.69	0.953112
644.065	1.4315
647.44	0.471363
650.815	1.4795
654.19	1.82914
657.564	1.53237
660.939	1.96299
664.314	1.91662
667.689	2.16653
671.064	2.97629
674.439	2.73877
677.813	2.08501
681.188	2.34811
684.563	1.66308
687.938	2.6592
691.313	1.9331
694.688	3.09481
698.062	2.67316
701.437	3.08297
704.812	2.87434
708.187	3.0339
711.562	2.39546
714.936	2.25169
718.311	1.94412
721.686	1.62823
725.061	2.14251
728.436	1.78944
731.81	1.28949
735.185	0.915615
738.56	0.704405
741.935	0.192701
745.31	0.236332
748.684	0.41662
752.059	0.541075
755.434	0.313663
758.809	0.44652
762.184	0.421801
765.559	0.227554
768.933	0.37566
772.308	1.01822
775.683	1.49572
779.058	2.22646
782.433	5.23831
785.808	9.07687
789.182	17.192
792.557	29.8841
795.932	52.0113
799.307	90.2345
802.682	155.738
806.056	238.552
809.431	309.882
812.806	367.653
816.181	384.408
819.556	349.355
822.93	345.068
826.305	323.55
829.68	273.356
833.055	249.15
836.43	263.202
839.804	283.184
843.179	279.808
846.554	244.051
849.929	191.389
853.304	129.797
856.679	83.993
860.053	56.8558
863.428	43.7022
866.803	33.8609
870.178	24.4615
873.553	18.0426
876.927	11.2343
880.302	6.92735
883.677	4.01027
887.052	2.63799
890.427	1.74418
893.802	0.92363
897.176	0.675663
900.551	0.484707
903.926	0.798321
907.301	0.430622
910.676	0.734177
914.05	0.226852
917.425	1.39878
920.8	2.5979
924.175	5.38919
927.55	6.25958
930.924	8.58123
934.299	16.9978
937.674	27.5707
941.049	33.0153
944.424	24.4587
947.799	14.3828
951.173	8.38312
954.548	4.60388
957.923	1.07849
961.298	0.172735
964.673	0.316296
968.047	0.134531
971.422	0.648716
974.797	0.125399
978.172	0.791208
981.547	0.399269
984.922	1.47422
988.296	0.561584
991.671	0.819311
995.046	1.43114
998.421	2.0228
1001.8	1.67609
1005.17	1.79136
1008.54	1.99184
1011.92	1.58831
1015.29	2.0684
1018.67	2.16374
1022.04	1.32536
1025.42	0.946743
1028.79	1.05438
1032.17	0.844624
1035.54	0.947218
1038.92	1.35739
1042.29	1.14878
1045.67	1.51785
1049.04	0.839897
1052.42	0.965126
1055.79	0.979845
1059.17	0.770033
1062.54	1.16944
1065.92	0.844227
1069.29	0.885696
1072.67	1.81992
1076.04	1.31581
1079.42	1.14576
1082.79	0.964504
1086.17	0.839113
1089.54	0.602875
1092.92	0.009541
1096.29	0.567125
1099.66	0.60397
1103.04	0.458397
1106.41	0.488176
1109.79	1.25689
1113.16	0.283878
1116.54	0.826454
1119.91	0.276867
1123.29	0.150606
1126.66	0.572968
1130.04	0.35214
1133.41	0.312775
1136.79	0.710623
1140.16	0.572329
1143.54	0.811888
1146.91	1.23431
1150.29	1.28312
1153.66	0.729256
1157.04	1.19922
1160.41	1.33248
1163.79	1.70713
1167.16	1.12253
1170.54	1.06117
1173.91	1.30769
1177.29	1.57207
1180.66	1.22272
1184.04	0.692541
1187.41	0.626416
1190.79	0.840328
1194.16	0.245466
1197.54	0.393101
1200.91	0.133897
1204.28	0.595768
1207.66	0.856001
1211.03	0.449065
1214.41	0.013608
1217.78	0.195564
1221.16	0.009199
1224.53	0.833271
1227.91	0.531973
1231.28	0.589528
1234.66	0.419498
1238.03	0.243632
1241.41	0.602941
1244.78	0.621487
1248.16	0.680507
1251.53	0.416947
1254.91	0.850028
1258.28	1.26974
1261.66	0.823163
1265.03	0.43013
1268.41	1.05258
1271.78	0.923312
1275.16	0.266032
1278.53	0.794256
1281.9	0.747906
