Measurement: Raman, 532 nm, unoriented, Raman Data Processed
Mineral: Meierite
Rruff sample: R170045
Ideal chemistry: Ba_44_Si_66_Al_30_O_192_Cl_25_(OH)_33_
Locality: Gun Claim, Yukon Canada
Source: Ron Peterson
Description: Colorless sub-millimeter equant inclusions within pink gillespite crystals. Type sample
Measured chemistry: Ba_41.1_Na_0.7_K_0.6_Fe_0.5_Ca_0.5_Ti_0.1_[Si_62.5_Al_30.5_P_3.0_]O_192_Cl_24.82_(OH)_33.4_
Raman shift (cm-1)	intensity
94.1222	0
97.4971	5.71024
100.872	6.17188
104.247	1.29678
107.621	20.9537
110.996	47.5734
114.371	77.675
117.746	101.105
121.121	112.046
124.496	134.29
127.87	145.812
131.245	166.411
134.62	188.205
137.995	209.974
141.37	229.117
144.744	241.226
148.119	248.268
151.494	241.487
154.869	233.9
158.244	220.532
161.619	210.193
164.993	207.05
168.368	194.302
171.743	176.311
175.118	149.856
178.493	122.537
181.868	100.201
185.242	76.0022
188.617	63.6572
191.992	53.3852
195.367	47.0221
198.742	42.1127
202.116	44.0742
205.491	42.1783
208.866	41.8036
212.241	40.2945
215.616	39.2461
218.99	33.6391
222.365	26.299
225.74	22.5373
229.115	18.0448
232.49	11.5899
235.865	11.2955
239.239	11.0055
242.614	8.88238
245.989	2.65369
249.364	0.854767
252.739	3.93825
256.113	4.37201
259.488	4.70789
262.863	4.52466
266.238	3.06848
269.613	1.28772
272.988	6.31895
276.362	14.2618
279.737	20.0439
283.112	32.0839
286.487	44.4965
289.862	54.1944
293.236	65.1971
296.611	71.46
299.986	73.7247
303.361	76.2941
306.736	75.7684
310.111	73.7589
313.485	75.9599
316.86	76.6594
320.235	81.1138
323.61	99.5432
326.985	133.266
330.359	184.163
333.734	249.848
337.109	321.057
340.484	365.723
343.859	337.108
347.233	263.521
350.608	193.636
353.983	141.164
357.358	99.9718
360.733	67.8971
364.108	46.045
367.482	29.2933
370.857	15.9553
374.232	7.88792
377.607	3.0952
380.982	0.040039
384.356	1.85135
387.731	2.30745
391.106	3.35613
394.481	0.985825
397.856	2.65327
401.231	9.6542
404.605	18.706
407.98	29.3803
411.355	40.8217
414.73	50.3584
418.105	56.4399
421.479	61.1649
424.854	65.0708
428.229	72.309
431.604	78.2796
434.979	85.5234
438.354	98.8127
441.728	116.781
445.103	146.775
448.478	183.016
451.853	227.38
455.228	286.946
458.603	352.021
461.977	420.978
465.352	480.616
468.727	510.405
472.102	501.752
475.477	458.999
478.851	403.036
482.226	344.078
485.601	274.678
488.976	214.872
492.351	161.113
495.726	116.125
499.1	81.3761
502.475	57.8797
505.85	40.1452
509.225	27.1891
512.6	17.6275
515.974	10.4296
519.349	5.07021
522.724	1.24408
526.099	2.61421
529.474	4.06515
532.848	1.89319
536.223	2.18877
539.598	0.087921
542.973	1.30231
546.348	4.3607
549.722	4.22994
553.097	4.65959
556.472	8.08856
559.847	12.7539
563.222	18.2786
566.597	22.2527
569.971	21.6098
573.346	18.6399
576.721	14.725
580.096	13.5323
583.471	13.0109
586.846	13.1827
590.22	10.8736
593.595	8.28302
596.97	6.17741
600.345	6.84018
603.72	5.83481
607.094	7.58525
610.469	8.2977
613.844	10.0419
617.219	8.53332
620.594	7.24481
623.968	4.28534
627.343	1.78619
630.718	0.591339
634.093	1.73932
637.468	0.796432
640.843	0.398911
644.217	1.04724
647.592	2.45122
650.967	5.00343
654.342	6.66072
657.717	3.77098
661.091	1.62483
664.466	1.73993
667.841	1.33467
671.216	0.991592
674.591	1.86293
677.966	3.6584
681.34	9.24173
684.715	13.5721
688.09	18.7191
691.465	18.1874
694.84	15.9814
698.215	13.5916
701.589	12.8878
704.964	14.5957
708.339	13.0248
711.714	8.80411
715.089	6.86345
718.463	7.14026
721.838	7.78699
725.213	10.8135
728.588	13.6195
731.963	14.8718
735.337	19.1891
738.712	22.4833
742.087	24.4659
745.462	28.216
748.837	30.6932
752.212	35.258
755.586	36.9604
758.961	41.8103
762.336	47.7671
765.711	50.4631
769.086	54.3794
772.46	53.5228
775.835	55.1633
779.21	53.4791
782.585	48.6562
785.96	43.2801
789.335	32.1444
792.709	21.9867
796.084	14.0265
799.459	8.22562
802.834	3.65945
806.209	3.76935
809.583	0.871033
812.958	0.435654
816.333	1.48575
819.708	1.82454
823.083	0.63649
826.457	0.707764
829.832	0.98764
833.207	1.0273
836.582	1.94774
839.957	2.44286
843.332	2.03328
846.706	2.4443
850.081	3.43567
853.456	2.05501
856.831	1.1427
860.206	0.828278
863.581	1.00236
866.955	0.928162
870.33	2.58568
873.705	3.3494
877.08	4.16811
880.455	6.16792
883.829	2.79901
887.204	2.79149
890.579	3.41722
893.954	10.5407
897.329	15.2016
900.703	28.14
904.078	61.1408
907.453	113.54
910.828	163.678
914.203	204.034
917.578	218.499
920.952	184.339
924.327	111.674
927.702	55.553
931.077	27.6477
934.452	14.9741
937.827	6.96037
941.201	3.49674
944.576	5.08238
947.951	0.590042
951.326	0.288971
954.701	0.362015
958.075	0.291885
961.45	1.32979
964.825	0.011032
968.2	0.858337
971.575	0.578079
974.949	1.91597
978.324	2.61881
981.699	1.95979
985.074	1.5033
988.449	2.55325
991.823	1.50523
995.198	0.742783
998.573	0.95491
1001.95	3.75389
1005.32	5.20525
1008.7	4.58319
1012.07	5.92711
1015.45	5.82179
1018.82	7.19539
1022.2	5.89452
1025.57	7.07904
1028.95	9.70889
1032.32	14.4656
1035.7	29.4698
1039.07	59.0123
1042.45	110.58
1045.82	191.573
1049.19	267.82
1052.57	325.44
1055.94	364.304
1059.32	327.817
1062.69	233.055
1066.07	131.282
1069.44	60.2958
1072.82	26.9092
1076.19	15.3428
1079.57	10.2277
1082.94	8.95303
1086.32	7.73111
1089.69	8.88043
1093.07	12.5978
1096.44	13.9516
1099.82	15.5628
1103.19	15.8964
1106.57	16.8668
1109.94	18.1469
1113.32	12.7088
1116.69	10.4948
1120.07	9.6472
1123.44	7.20575
1126.82	3.9865
1130.19	2.50775
1133.57	0.022156
1136.94	0.745407
1140.32	2.53439
1143.69	0.140671
1147.07	0.440643
1150.44	2.64189
1153.82	0.075165
1157.19	0.772781
1160.56	0.512741
1163.94	0.962387
1167.31	0.582031
1170.69	2.10724
1174.06	2.12527
1177.44	1.59689
1180.81	2.09825
1184.19	2.15204
1187.56	2.0007
1190.94	1.65086
1194.31	1.38939
1197.69	0.646194
1201.06	0.208374
1204.44	0.399323
1207.81	1.18462
1211.19	0.542999
1214.56	0.300293
1217.94	0.416443
1221.31	0.581528
1224.69	1.1727
1228.06	1.43898
1231.44	2.26738
1234.81	2.68671
1238.18	2.8862
1241.56	3.9165
1244.93	4.00577
1248.31	5.42998
1251.68	4.63683
1255.06	4.90132
1258.43	6.39726
1261.81	4.23888
1265.18	3.9619
1268.56	3.9196
1271.93	0.801926
1275.31	2.07896
1278.68	2.62303
1282.06	2.94601
1285.43	2.70174
1288.81	2.62235
1292.18	1.77634
1295.56	1.07201
1298.93	0.426605
