Measurement: Raman, 780 nm, unoriented, Raman Data Processed
Mineral: Microcline
Rruff sample: R150015
Ideal chemistry: KAlSi_3_O_8_
Source: Jennifer Schmidt
Description: Pale pick, massive
Measured chemistry: (K_0.88_Na_0.10_Ba_0.02_)Al_1.02_Si_2.97_O_8_
Raman shift (cm-1)	intensity
104.577	0
107.952	74.5679
111.327	83.7044
114.701	57.5214
118.076	30.0463
121.451	60.8219
124.826	74.3044
128.201	30.1417
131.576	12.5902
134.95	14.0508
138.325	4.79224
141.7	34.5831
145.075	55.7664
148.45	99.7803
151.825	145.618
155.199	196.123
158.574	154.917
161.949	91.4166
165.324	57.3268
168.698	33.4354
172.073	38.2741
175.448	38.917
178.823	44.5821
182.198	32.4386
185.573	26.9095
188.947	16.9956
192.322	0.177246
195.697	0.651855
199.072	0.487427
202.447	1.10669
205.821	2.97522
209.196	1.85583
212.571	2.229
215.946	0.678589
219.321	6.50061
222.696	9.66455
226.07	10.012
229.445	14.0585
232.82	15.865
236.195	17.0549
239.57	28.0193
242.945	35.8715
246.319	39.8027
249.694	53.468
253.069	57.8363
256.444	70.8084
259.818	94.2134
263.193	119.411
266.568	137.339
269.943	150.623
273.318	158.171
276.693	178.492
280.067	201.486
283.442	197.871
286.817	166.827
290.192	129.838
293.567	90.6713
296.942	57.4181
300.316	37.0718
303.691	21.4597
307.066	15.962
310.441	8.35474
313.816	7.62
317.19	4.65564
320.565	0.310791
323.94	9.73315
327.315	8.43909
330.69	7.5188
334.065	5.61939
337.439	13.7872
340.814	2.9823
344.189	5.16467
347.564	3.20178
350.938	5.72632
354.313	2.19336
357.688	5.11389
361.063	8.05127
364.438	7.28369
367.813	16.6665
371.187	20.7062
374.562	15.3096
377.937	14.532
381.312	10.8107
384.687	16.7477
388.062	11.772
391.436	28.7352
394.811	34.6644
398.186	40.4875
401.561	48.1453
404.935	67.4006
408.31	59.3982
411.685	42.0251
415.06	23.4269
418.435	0.865356
421.81	6.27881
425.184	5.3927
428.559	7.49744
431.934	3.60644
435.309	2.578
438.684	14.5179
442.058	34.4023
445.433	46.5194
448.808	71.0758
452.183	115.663
455.558	154.305
458.933	182.932
462.307	215.692
465.682	265.228
469.057	346.521
472.432	470.324
475.807	544.749
479.182	471.878
482.556	317.05
485.931	196.371
489.306	146.82
492.681	142.148
496.055	180.673
499.43	243.191
502.805	337.671
506.18	485.086
509.555	718.384
512.93	907.97
516.304	855.373
519.679	521.862
523.054	272.54
526.429	140.576
529.804	90.8671
533.178	47.4255
536.553	32.4524
539.928	26.1931
543.303	9.80371
546.678	12.4983
550.053	3.50464
553.427	6.5846
556.802	0.350952
560.177	1.2699
563.552	5.1471
566.927	0.891479
570.302	1.69385
573.676	7.54285
577.051	12.2045
580.426	17.9026
583.801	14.7031
587.176	7.98755
590.55	2.44067
593.925	2.74268
597.3	22.6091
600.675	16.6148
604.05	22.9211
607.424	14.9748
610.799	25.3945
614.174	26.5877
617.549	30.4404
620.924	26.446
624.298	31.3508
627.673	28.8276
631.048	16.1516
634.423	32.1838
637.798	18.9033
641.173	24.7717
644.547	25.4387
647.922	15.0474
651.297	16.7949
654.672	12.0559
658.047	20.7285
661.421	18.5139
664.796	4.73755
668.171	4.10303
671.546	0.220215
674.921	0.016357
678.295	5.74146
681.67	3.83325
685.045	5.28638
688.42	9.2793
691.795	9.99634
695.17	1.99145
698.544	12.0964
701.919	6.25659
705.294	14.2983
708.669	13.1748
712.044	12.4951
715.418	12.4138
718.793	11.761
722.168	12.3181
725.543	14.1174
728.918	7.70044
732.293	21.6694
735.667	27.6497
739.042	28.6433
742.417	29.0493
745.792	32.3179
749.167	31.0938
752.541	40.3628
755.916	36.0249
759.291	16.1538
762.666	21.5723
766.041	22.2451
769.415	7.14014
772.79	17.2644
776.165	0.278809
779.54	6.68677
782.915	7.94824
786.29	1.7793
789.664	6.78613
793.039	0.058105
796.414	13.8765
799.789	10.1836
803.164	8.05005
806.538	10.9207
809.913	20.9341
813.288	12.8469
816.663	19.9336
820.038	21.3403
823.413	14.2376
826.787	23.02
830.162	7.63892
833.537	4.90381
836.912	10.6509
840.287	22.4639
843.661	29.6609
847.036	12.1846
850.411	23.1289
853.786	34.9614
857.161	16.5222
860.535	16.4002
863.91	39.5415
867.285	24.5969
870.66	26.1902
874.035	31.5464
877.409	25.0105
880.784	12.7918
884.159	26.0395
887.534	26.1096
890.909	19.9636
894.284	36.5122
897.658	14.6348
901.033	18.4854
904.408	13.6235
907.783	32.5159
911.158	23.8391
914.533	4.4856
917.907	26.5811
921.282	2.89819
924.657	2.12793
928.032	18.761
931.407	25.2656
934.781	16.3555
938.156	31.0894
941.531	6.01245
944.906	7.6709
948.281	1.27978
951.655	5.46826
955.03	16.8696
958.405	24.9551
961.78	15.0713
965.155	8.14111
968.529	21.877
971.904	17.3857
975.279	3.06201
978.654	16.1343
982.029	30.2515
985.404	10.665
988.778	19.5732
992.153	17.229
995.528	17.0967
998.903	24.1201
1002.28	27.8569
1005.65	28.9106
1009.03	11.8271
1012.4	13.7769
1015.78	50.9878
1019.15	15.2183
1022.53	21.5137
1025.9	10.6294
1029.28	10.0674
1032.65	3.91553
1036.03	47.2349
1039.4	26.2773
1042.78	25.1211
1046.15	5.79297
1049.53	5.38623
1052.9	16.9365
1056.28	12.2715
1059.65	6.96289
1063.02	10.0234
1066.4	13.4258
1069.77	5.87549
1073.15	5.84814
1076.52	6.87695
1079.9	4.24512
1083.27	6.14404
1086.65	21.5889
1090.02	41.5185
1093.4	50.3603
1096.77	16.291
1100.15	53.4902
1103.52	65.1963
1106.9	77.9946
1110.27	99.644
1113.65	80.1328
1117.02	81.5571
1120.4	111.477
1123.77	109.451
1127.15	76.3657
1130.52	78.6836
1133.9	77.5693
1137.27	72.7573
1140.64	81.791
1144.02	38.8511
1147.39	43.6255
1150.77	43.2026
1154.14	33.1352
1157.52	15.0332
1160.89	13.7148
1164.27	14.1226
1167.64	4.90234
1171.02	21.2944
1174.39	21.437
1177.77	16.4609
1181.14	21.7949
1184.52	7.78906
1187.89	24.9053
1191.27	14.8384
1194.64	23.8184
1198.02	26.8662
1201.39	18.1562
1204.77	20.7231
1208.14	8.81006
1211.52	13.8291
1214.89	30.9898
1218.27	11.7705
1221.64	10.0718
1225.02	27.4966
1228.39	10.6753
1231.77	8.51465
1235.14	6.77441
1238.52	3.2583
1241.89	0.67334
1245.26	7.63428
1248.64	10.3164
1252.01	1.32324
1255.39	33.1162
1258.76	35.6597
1262.14	38.0513
1265.51	21.6035
1268.89	21.894
1272.26	2.42969
1275.64	3.35596
1279.01	19.0171
1282.39	21.0454
