Measurement: Raman, 532 nm, unoriented, Raman Data Processed
Mineral: Microcline
Rruff sample: R150015
Ideal chemistry: KAlSi_3_O_8_
Source: Jennifer Schmidt
Description: Pale pick, massive
Measured chemistry: (K_0.88_Na_0.10_Ba_0.02_)Al_1.02_Si_2.97_O_8_
Raman shift (cm-1)	intensity
89.7832	0
93.158	72.1093
96.5328	78.9291
99.9077	82.5594
103.282	144.456
106.657	244.612
110.032	373.811
113.407	250.273
116.782	145.665
120.157	121.792
123.531	126.715
126.906	131.697
130.281	51.8579
133.656	19.0739
137.031	0.177734
140.405	41.7578
143.78	77.21
147.155	119.908
150.53	212.33
153.905	327.917
157.28	333.478
160.654	211.567
164.029	132.611
167.404	88.7129
170.779	74.4999
174.154	89.952
177.528	96.579
180.903	74.4638
184.278	37.062
187.653	18.5156
191.028	8.85461
194.403	1.09912
197.777	8.06751
201.152	4.37293
204.527	4.4054
207.902	7.26404
211.277	5.75207
214.651	5.84546
218.026	1.90601
221.401	5.37256
224.776	7.00549
228.151	13.5134
231.525	13.3461
234.9	16.1258
238.275	31.25
241.65	45.6461
245.025	79.3455
248.4	85.5576
251.774	112.916
255.149	153.416
258.524	198.702
261.899	251.862
265.274	313.239
268.649	347.751
272.023	376.27
275.398	422.208
278.773	479.387
282.148	501.759
285.523	452.116
288.897	348.628
292.272	253.529
295.647	170.641
299.022	114.352
302.397	68.1171
305.772	57.4722
309.146	38.3434
312.521	35.5388
315.896	23.9164
319.271	17.4766
322.646	20.0753
326.02	30.4392
329.395	28.3423
332.77	25.0041
336.145	18.937
339.52	15.4724
342.894	6.27124
346.269	2.62781
349.644	2.45923
353.019	3.58521
356.394	0.399414
359.769	2.06494
363.143	15.7408
366.518	24.3608
369.893	29.3656
373.268	33.3023
376.643	28.3757
380.017	18.9342
383.392	10.745
386.767	17.8511
390.142	18.0889
393.517	27.1548
396.892	49.7251
400.266	73.764
403.641	122.847
407.016	132.233
410.391	112.72
413.766	59.8625
417.14	29.1157
420.515	9.02222
423.89	4.92456
427.265	16.0166
430.64	8.79578
434.014	0.992065
437.389	25.7987
440.764	66.5691
444.139	122.787
447.514	189.269
450.889	273.017
454.263	374.537
457.638	456.06
461.013	551.904
464.388	696.875
467.763	917.309
471.137	1250.58
474.512	1567.61
477.887	1521.62
481.262	1061.84
484.637	688.152
488.012	466.681
491.386	376.833
494.761	397.095
498.136	535.951
501.511	814.755
504.886	1209.32
508.26	1783.97
511.635	2438.35
515.01	2655.62
518.385	1873.25
521.76	985.352
525.135	523.495
528.509	297.932
531.884	173.706
535.259	109.414
538.634	66.77
542.009	40.0464
545.384	26.678
548.758	14.2493
552.133	9.36621
555.508	8.0481
558.883	5.48462
562.258	3.80225
565.632	0.987793
569.007	1.33716
572.382	5.24097
575.757	5.04346
579.132	10.721
582.506	8.50244
585.881	9.77759
589.256	11.9221
592.631	8.28149
596.006	3.31812
599.381	5.5354
602.755	9.229
606.13	8.79053
609.505	18.5105
612.88	19.7188
616.255	18.1343
619.63	17.3193
623.004	23.7017
626.379	30.6819
629.754	31.3999
633.129	31.7012
636.504	25.9006
639.878	21.5076
643.253	22.6977
646.628	34.0906
650.003	40.2949
653.378	35.6345
656.752	27.4299
660.127	23.9158
663.502	22.7932
666.877	13.657
670.252	14.6841
673.626	7.70044
677.001	1.93213
680.376	2.03857
683.751	0.575195
687.126	4.97241
690.501	1.94727
693.875	2.31103
697.25	5.14673
700.625	0.906982
704	10.5825
707.375	22.9119
710.75	23.3953
714.124	28
717.499	35.4145
720.874	41.6926
724.249	45.3332
727.624	50.9907
730.998	56.4546
734.373	67.5254
737.748	86.2507
741.123	105.439
744.498	122.569
747.872	128.193
751.247	128.429
754.622	113.707
757.997	101.054
761.372	94.7869
764.747	80.8931
768.121	72.0613
771.496	49.9377
774.871	40.7583
778.246	28.1887
781.621	24.0193
784.995	20.8235
788.37	17.2422
791.745	12.4451
795.12	13.1043
798.495	23.7886
801.87	26.5483
805.244	25.3074
808.619	37.1382
811.994	44.3323
815.369	32.8945
818.744	24.1765
822.119	14.2183
825.493	3.78296
828.868	0.75293
832.243	0.249756
835.618	1.08545
838.993	5.0166
842.367	11.3694
845.742	11.0081
849.117	12.2839
852.492	6.48682
855.867	2.9978
859.241	10.1011
862.616	13.7742
865.991	10.9817
869.366	13.5874
872.741	19.8945
876.115	13.5645
879.49	6.33545
882.865	5.43628
886.24	6.2666
889.615	10.1074
892.99	11.1748
896.364	4.97119
899.739	7.4397
903.114	6.92456
906.489	6.35767
909.864	3.30884
913.239	2.81616
916.613	3.1106
919.988	0.673828
923.363	0.644531
926.738	6.38306
930.113	0.560303
933.487	0.510254
936.862	2.30859
940.237	0.614746
943.612	7.58545
946.987	6.7666
950.361	7.23975
953.736	9.8833
957.111	6.31201
960.486	9.57202
963.861	11.52
967.236	16.1248
970.61	25.0349
973.985	23.6179
977.36	25.6668
980.735	35.355
984.11	31.8306
987.485	43.4514
990.859	46.2212
994.234	47.2861
997.609	52.1819
1000.98	52.9321
1004.36	54.3677
1007.73	50.3718
1011.11	48.8
1014.48	41.6548
1017.86	41.4092
1021.23	34.7366
1024.61	29.5364
1027.98	34.978
1031.36	28.0364
1034.73	28.6223
1038.11	32.4853
1041.48	38.4783
1044.86	29.9712
1048.23	26.6455
1051.61	37.5281
1054.98	24.7554
1058.36	14.8123
1061.73	1.01172
1065.11	0.742432
1068.48	4.82129
1071.86	7.58838
1075.23	2.49487
1078.6	6.47144
1081.98	12.5569
1085.35	23.0481
1088.73	36.6292
1092.1	54.0493
1095.48	71.3457
1098.85	85.3919
1102.23	111.553
1105.6	132.729
1108.98	167.596
1112.35	214.396
1115.73	266.571
1119.1	307.693
1122.48	344.415
1125.85	338.893
1129.23	306.324
1132.6	274.881
1135.98	239.738
1139.35	210.568
1142.73	181.54
1146.1	143.605
1149.48	115.446
1152.85	89.8086
1156.22	66.5623
1159.6	45.9409
1162.97	32.0452
1166.35	22.0874
1169.72	17.5383
1173.1	17.0657
1176.47	8.0918
1179.85	0.149902
1183.22	1.91919
1186.6	8.4541
1189.97	0.400635
1193.35	2.05933
1196.72	5.47363
1200.1	3.48169
1203.47	3.70557
1206.85	3.21558
1210.22	5.55298
1213.6	5.99439
1216.97	4.18164
1220.35	10.3918
1223.72	2.99536
1227.1	4.53149
1230.47	1.55859
1233.85	1.97485
1237.22	1.19922
1240.6	13.3857
1243.97	6.90698
1247.35	8.59229
1250.72	15.0335
1254.1	22.0776
1257.47	16.1333
1260.85	14.8855
1264.22	12.3335
1267.59	13.0217
1270.97	5.34448
1274.34	5.92114
1277.72	5.23389
1281.09	1.75513
1284.47	18.0774
1287.84	19.2361
1291.22	22.1431
1294.59	10.0984
1297.97	11.0808
1301.34	0.19751
