Measurement: Raman, 780 nm, unoriented, Raman Data Processed
Mineral: Montgomeryite
Rruff sample: R140625
Ideal chemistry: Ca_4_MgAl_4_(PO_4_)_6_(OH)_4_12H_2_O
Locality: Near Milgun Station, Meekatharra Shire, Western Australia, Australia
Source: Rock Currier
Description: Colorless lathy crystals with striation along the elongated direction. Associated with gordonite (R130671), collinsite (R140626), and hydroxylapatite (R140987).
Raman shift (cm-1)	intensity
93.4884	0
96.8632	2.45074
100.238	4.45212
103.613	3.52122
106.988	5.11191
110.362	2.13954
113.737	2.44777
117.112	5.20613
120.487	2.41873
123.862	3.15323
127.237	1.54947
130.611	0.52536
133.986	0.460114
137.361	1.73935
140.736	1.72064
144.111	1.98811
147.485	2.88733
150.86	3.71852
154.235	9.88058
157.61	15.3707
160.985	18.1612
164.359	19.8246
167.734	17.0977
171.109	15.8448
174.484	15.1
177.859	12.7991
181.234	12.3821
184.608	9.60934
187.983	9.02682
191.358	6.81318
194.733	6.74203
198.108	6.27877
201.482	5.71424
204.857	5.79769
208.232	2.78172
211.607	1.86141
214.982	0.767151
218.357	0.565506
221.731	0.473862
225.106	0.656929
228.481	0.618698
231.856	1.75621
235.231	2.00999
238.605	1.44138
241.98	2.28188
245.355	1.35041
248.73	2.32573
252.105	1.63161
255.48	2.13953
258.854	3.66335
262.229	4.68239
265.604	5.00067
268.979	5.8493
272.354	4.3724
275.728	4.92325
279.103	5.21242
282.478	6.03056
285.853	7.08126
289.228	7.22012
292.602	9.59569
295.977	9.32001
299.352	10.3301
302.727	8.78578
306.102	8.26559
309.476	7.17775
312.851	7.70649
316.226	7.31077
319.601	6.16074
322.976	4.85535
326.351	2.11024
329.725	1.2879
333.1	0.932617
336.475	1.43787
339.85	0.947838
343.225	0.158714
346.599	0.382164
349.974	0.669334
353.349	0.499573
356.724	0.268188
360.099	1.00845
363.474	0.470253
366.848	0.25016
370.223	2.03465
373.598	2.61591
376.973	3.5668
380.348	4.27222
383.722	6.14358
387.097	7.69827
390.472	8.13512
393.847	7.92298
397.222	6.85738
400.596	5.48741
403.971	4.34626
407.346	2.45682
410.721	1.8271
414.096	1.48889
417.471	0.862595
420.845	1.23506
424.22	0.054886
427.595	1.103
430.97	0.931427
434.345	1.98206
437.719	3.0423
441.094	5.12131
444.469	7.03684
447.844	9.8976
451.219	13.2628
454.594	14.8999
457.968	17.5318
461.343	17.5856
464.718	15.4535
468.093	12.0503
471.468	9.17786
474.842	6.52862
478.217	4.12923
481.592	3.23467
484.967	2.29851
488.342	2.49868
491.716	2.70064
495.091	3.43008
498.466	4.97707
501.841	5.78013
505.216	7.54295
508.591	8.86857
511.965	8.99707
515.34	8.07788
518.715	5.97872
522.09	4.15749
525.465	3.57269
528.84	2.95079
532.214	1.71586
535.589	1.77854
538.964	0.8899
542.339	0.114609
545.713	0.065224
549.088	0.039398
552.463	0.80175
555.838	0.267235
559.213	0.02198
562.588	0.149567
565.962	0.897949
569.337	1.92977
572.712	3.33439
576.087	4.16907
579.462	5.02115
582.837	5.74106
586.211	6.27752
589.586	7.19349
592.961	7.57309
596.336	8.41038
599.711	7.54517
603.085	6.86577
606.46	6.80396
609.835	5.41492
613.21	5.1542
616.585	4.45393
619.96	2.99798
623.334	3.52613
626.709	3.75303
630.084	4.1596
633.459	4.13935
636.833	5.06514
640.208	5.26086
643.583	6.41279
646.958	6.46361
650.333	7.1844
653.708	6.67412
657.082	6.19674
660.457	6.60274
663.832	4.92637
667.207	4.19752
670.582	4.02369
673.957	3.56175
677.331	2.20499
680.706	1.84848
684.081	0.937714
687.456	0.216396
690.831	0.371719
694.205	0.726051
697.58	0.041134
700.955	0.590111
704.33	0.081142
707.705	0.029873
711.079	0.261642
714.454	0.058601
717.829	0.309212
721.204	0.400574
724.579	0.733364
727.953	0.141521
731.328	0.001431
734.703	1.23628
738.078	0.619965
741.453	0.63147
744.828	0.87019
748.202	0.808861
751.577	0.242447
754.952	0.22263
758.327	0.788651
761.702	1.04932
765.077	0.234028
768.451	0.554455
771.826	1.14923
775.201	0.652977
778.576	0.913467
781.951	1.14901
785.325	0.477936
788.7	0.670502
792.075	0.975281
795.45	1.15986
798.825	0.770962
802.199	1.16873
805.574	0.872559
808.949	0.44326
812.324	1.03015
815.699	1.50531
819.073	2.11842
822.448	1.78724
825.823	2.03625
829.198	1.83271
832.573	1.8816
835.948	2.04596
839.322	1.70591
842.697	2.56285
846.072	2.28421
849.447	2.12128
852.822	2.33926
856.197	2.54185
859.571	2.37202
862.946	2.32096
866.321	2.37141
869.696	2.04153
873.071	2.37369
876.445	1.36076
879.82	1.55933
883.195	1.20377
886.57	1.26199
889.945	0.907078
893.319	1.29564
896.694	0.743164
900.069	0.641041
903.444	0.3377
906.819	0.179482
910.193	0.286945
913.568	0.246475
916.943	1.49899
920.318	0.399223
923.693	0.223076
927.068	0.15353
930.442	0.472652
933.817	0.19693
937.192	0.297596
940.567	0.004311
943.942	0.225643
947.317	0.825218
950.691	1.2088
954.066	2.87859
957.441	3.80628
960.816	5.85527
964.191	8.18885
967.565	9.34057
970.94	9.32021
974.315	9.98507
977.69	12.8419
981.065	13.502
984.439	13.059
987.814	13.0356
991.189	14.2507
994.564	18.5255
997.939	22.8037
1001.31	28.7064
1004.69	34.7242
1008.06	37.5383
1011.44	37.4652
1014.81	34.9481
1018.19	31.1407
1021.56	25.2984
1024.94	16.6614
1028.31	9.9535
1031.69	6.84626
1035.06	4.44473
1038.44	3.06092
1041.81	3.31146
1045.19	2.30591
1048.56	3.26111
1051.94	3.06871
1055.31	2.99225
1058.68	3.06414
1062.06	3.71525
1065.43	3.79622
1068.81	3.62112
1072.18	4.01726
1075.56	3.91
1078.93	3.91742
1082.31	3.95104
1085.68	2.71045
1089.06	2.68547
1092.43	1.71221
1095.81	0.975498
1099.18	1.10698
1102.56	0.385326
1105.93	0.356464
1109.31	0.519501
1112.68	0.603992
1116.06	0.420406
1119.43	0.004555
1122.81	0.013088
1126.18	0.852341
1129.56	2.0065
1132.93	2.90612
1136.31	3.87853
1139.68	4.12814
1143.06	4.47981
1146.43	4.79961
1149.81	4.64758
1153.18	4.73732
1156.56	4.55433
1159.93	3.1473
1163.31	1.64909
1166.68	1.0338
1170.05	0.881207
1173.43	1.11764
1176.8	1.01309
1180.18	0.819962
1183.55	1.04942
1186.93	1.2065
1190.3	0.672886
1193.68	0.64267
1197.05	0.663349
1200.43	1.54647
1203.8	0.865139
1207.18	1.02077
1210.55	1.3094
1213.93	1.2657
1217.3	0.414326
1220.68	0.979137
1224.05	0.715027
1227.43	0.109493
1230.8	0.331116
1234.18	0.323715
1237.55	0.574127
1240.92	0.267441
1244.3	0.81274
1247.67	0.676575
1251.05	0.970814
1254.42	0.84832
1257.8	0.591171
1261.17	0.890572
1264.55	0.594841
1267.92	1.04359
1271.3	3.16166
1274.67	0.36628
1278.05	0.751129
1281.42	0.721611
1284.8	0
