Measurement: Raman, 532 nm, unoriented, Raman Data Processed
Mineral: Montgomeryite
Rruff sample: R140625
Ideal chemistry: Ca_4_MgAl_4_(PO_4_)_6_(OH)_4_12H_2_O
Locality: Near Milgun Station, Meekatharra Shire, Western Australia, Australia
Source: Rock Currier
Description: Colorless lathy crystals with striation along the elongated direction. Associated with gordonite (R130671), collinsite (R140626), and hydroxylapatite (R140987).
Raman shift (cm-1)	intensity
89.7832	0
93.158	15.0701
96.5328	16.9252
99.9077	12.957
103.282	9.04662
106.657	0.217819
110.032	6.02498
113.407	0.471817
116.782	2.64093
120.157	4.45612
123.531	0.935059
126.906	4.43289
130.281	1.75418
133.656	3.81856
137.031	3.73537
140.405	8.56383
143.78	12.7247
147.155	14.3643
150.53	20.2665
153.905	21.5728
157.28	26.8178
160.654	29.7306
164.029	32.7316
167.404	30.6101
170.779	23.842
174.154	21.7668
177.528	18.7137
180.903	17.4706
184.278	14.216
187.653	12.7881
191.028	10.342
194.403	12.057
197.777	11.0898
201.152	11.8428
204.527	12.0977
207.902	8.72684
211.277	4.35538
214.651	1.32793
218.026	0.131714
221.401	0.598465
224.776	0.892929
228.151	0.641678
231.525	0.549591
234.9	1.22322
238.275	3.43167
241.65	2.71902
245.025	2.70837
248.4	3.02182
251.774	3.90364
255.149	6.40176
258.524	10.4439
261.899	12.6984
265.274	17.285
268.649	19.5156
272.023	20.1307
275.398	20.5718
278.773	21.0587
282.148	21.7193
285.523	24.5483
288.897	27.998
292.272	32.9706
295.647	33.9546
299.022	33.25
302.397	32.6523
305.772	27.7495
309.146	25.1291
312.521	23.8068
315.896	23.83
319.271	21.4944
322.646	15.9053
326.02	12.4629
329.395	7.8447
332.77	5.84259
336.145	3.3642
339.52	3.47592
342.894	2.7135
346.269	0.743958
349.644	0.400543
353.019	0.43721
356.394	0.637817
359.769	0.783737
363.143	0.948853
366.518	0.523972
369.893	0.687988
373.268	2.50047
376.643	4.07838
380.017	7.24716
383.392	9.84326
386.767	12.39
390.142	15.2256
393.517	16.1072
396.892	15.1257
400.266	11.929
403.641	7.72473
407.016	4.14868
410.391	1.46701
413.766	0.607162
417.14	0.212616
420.515	1.55785
423.89	0.818146
427.265	0.337845
430.64	3.088
434.014	4.4964
437.389	6.90414
440.764	11.9053
444.139	18.0575
447.514	25.9593
450.889	33.2128
454.263	43.2058
457.638	51.2704
461.013	56.4188
464.388	47.1088
467.763	36.3287
471.137	27.6212
474.512	20.1721
477.887	14.0553
481.262	9.07245
484.637	7.95521
488.012	4.29771
491.386	3.16693
494.761	3.97876
498.136	5.07425
501.511	11.4471
504.886	16.9775
508.26	21.543
511.635	25.4467
515.01	25.4033
518.385	21.7324
521.76	17.4963
525.135	13.9195
528.509	12.4798
531.884	8.86421
535.259	7.42436
538.634	4.34375
542.009	3.32825
545.384	1.26773
548.758	0.099533
552.133	1.64593
555.508	1.36308
558.883	0.53775
562.258	0.762909
565.632	0.640137
569.007	2.32401
572.382	4.9747
575.757	7.83325
579.132	11.5624
582.506	14.8868
585.881	20.0123
589.256	19.9378
592.631	22.98
596.006	22.9914
599.381	20.6705
602.755	19.386
606.13	17.2711
609.505	16.8111
612.88	15.4264
616.255	12.4903
619.63	11.0021
623.004	10.1136
626.379	9.49716
629.754	10.1911
633.129	10.0129
636.504	11.6559
639.878	13.7383
643.253	16.3486
646.628	16.5466
650.003	15.9381
653.378	16.8516
656.752	15.8804
660.127	14.5987
663.502	14.3291
666.877	12.2392
670.252	11.324
673.626	8.49628
677.001	6.13916
680.376	4.34467
683.751	2.99243
687.126	0.982086
690.501	1.19131
693.875	0.149994
697.25	0.97699
700.625	1.30856
704	1.17477
707.375	0.125092
710.75	0.070251
714.124	0.399017
717.499	1.45813
720.874	0.266693
724.249	1.6579
727.624	1.43884
730.998	1.7012
734.373	1.74158
737.748	1.79184
741.123	2.59402
744.498	1.50461
747.872	3.04233
751.247	3.22418
754.622	2.62454
757.997	4.4765
761.372	1.67435
764.747	1.30557
768.121	2.36679
771.496	1.41745
774.871	5.05756
778.246	1.2146
781.621	4.04816
784.995	2.92239
788.37	2.64194
791.745	2.63202
795.12	1.62549
798.495	3.55792
801.87	3.77441
805.244	4.34253
808.619	4.88306
811.994	4.81741
815.369	5.36169
818.744	4.45493
822.119	3.91782
825.493	6.05008
828.868	4.52576
832.243	5.46222
835.618	6.09479
838.993	5.86926
842.367	6.73941
845.742	6.08167
849.117	5.08664
852.492	7.36337
855.867	5.8692
859.241	9.01013
862.616	7.72116
865.991	7.11615
869.366	4.49087
872.741	4.78769
876.115	4.69135
879.49	3.55399
882.865	4.16052
886.24	2.47293
889.615	2.84033
892.99	1.63742
896.364	2.46939
899.739	1.65436
903.114	0.624176
906.489	0.869568
909.864	1.90057
913.239	0.897919
916.613	0.275604
919.988	0.740967
923.363	1.08908
926.738	0.051971
930.113	0.351135
933.487	0.240997
936.862	0.57193
940.237	0.575806
943.612	0.226532
946.987	0.921387
950.361	4.02954
953.736	6.51858
957.111	10.58
960.486	17.9153
963.861	28.5147
967.236	32.5548
970.61	36.4385
973.985	46.139
977.36	56.4962
980.735	63.5301
984.11	63.9578
987.485	65.3794
990.859	70.5318
994.234	90.3122
997.609	117.059
1000.98	148.39
1004.36	174.528
1007.73	194.533
1011.11	191.332
1014.48	173.375
1017.86	153.234
1021.23	118.597
1024.61	76.1651
1027.98	48.0408
1031.36	29.4285
1034.73	18.351
1038.11	11.8046
1041.48	8.93787
1044.86	7.17435
1048.23	3.84882
1051.61	3.81543
1054.98	4.30936
1058.36	4.53793
1061.73	7.46005
1065.11	7.63583
1068.48	8.4119
1071.86	10.6088
1075.23	12.1944
1078.6	13.5265
1081.98	10.8915
1085.35	10.9485
1088.73	9.64722
1092.1	7.051
1095.48	4.60077
1098.85	1.89893
1102.23	2.37408
1105.6	0.436523
1108.98	1.08282
1112.35	1.66959
1115.73	2.1767
1119.1	0.106934
1122.48	0.95755
1125.85	1.93124
1129.23	3.16382
1132.6	6.3833
1135.98	12.0242
1139.35	12.3261
1142.73	14.6977
1146.1	14.1663
1149.48	15.841
1152.85	18.3311
1156.22	15.4446
1159.6	10.2224
1162.97	9.35376
1166.35	5.09454
1169.72	2.61469
1173.1	2.44922
1176.47	1.8074
1179.85	0.834167
1183.22	1.65353
1186.6	1.07834
1189.97	2.49185
1193.35	2.51291
1196.72	3.43536
1200.1	3.2038
1203.47	2.43271
1206.85	5.03726
1210.22	3.19901
1213.6	4.54852
1216.97	6.79169
1220.35	2.94727
1223.72	1.89755
1227.1	0.117889
1230.47	2.25
1233.85	1.1915
1237.22	2.08914
1240.6	1.65799
1243.97	0.806702
1247.35	2.01132
1250.72	1.40311
1254.1	1.94305
1257.47	0.995636
1260.85	5.17392
1264.22	0.989471
1267.59	0.953796
1270.97	0.919403
1274.34	1.8634
1277.72	0.970917
1281.09	1.84027
1284.47	1.58789
1287.84	2.0896
1291.22	1.43778
1294.59	0.871033
1297.97	1.56522
1301.34	0.663513
