Measurement: Raman, 780 nm, unoriented, Raman Data Processed
Mineral: Muirite
Rruff sample: R150098
Ideal chemistry: Ba_10_Ca_2_Mn^2+^Ti^4+^Si_10_O_30_(OH)_10_
Locality: Esquire No. 7 mine, Big Creek, Fresno County, California, USA
Source: James Shigley
Description: Isolated orange granular crystals, associated with quartz and sanbornite. Note that the c-cell edge is doubled relative to the literature
Raman shift (cm-1)	intensity
166.77	0
169.663	6.22498
172.555	19.8487
175.448	10.1276
178.341	26.3662
181.234	27.0045
184.126	11.8488
187.019	2.3573
189.912	1.57031
192.804	1.79321
195.697	3.29468
198.59	1.36353
201.482	5.92664
204.375	3.9331
207.268	8.51294
210.161	30.2461
213.053	58.3
215.946	97.1409
218.839	154.654
221.731	195.307
224.624	229.261
227.517	246.32
230.409	234.173
233.302	223.437
236.195	213.211
239.088	238.043
241.98	273.996
244.873	318.178
247.766	353.371
250.658	378.746
253.551	388.875
256.444	382.042
259.336	379.521
262.229	383.194
265.122	378.577
268.014	371.771
270.907	339.7
273.8	305.836
276.693	290.064
279.585	255.619
282.478	228.633
285.371	199.168
288.263	194.139
291.156	210.135
294.049	242.419
296.942	308.471
299.834	383.483
302.727	463.232
305.62	457.679
308.512	380.949
311.405	275.966
314.298	188.985
317.19	126.075
320.083	68.9995
322.976	30.9387
325.868	0.798828
328.761	7.64356
331.654	15.2014
334.547	2.44067
337.439	43.5925
340.332	95.9453
343.225	141.897
346.117	192.637
349.01	252.701
351.903	320.596
354.796	397.81
357.688	474.835
360.581	492.314
363.474	480.365
366.366	449.867
369.259	413.966
372.152	381.459
375.044	353.464
377.937	344.482
380.83	332.53
383.722	325.394
386.615	326.722
389.508	333.545
392.401	338.08
395.293	339.445
398.186	328.526
401.079	323.331
403.971	328.582
406.864	325.142
409.757	329.741
412.649	324.983
415.542	313.033
418.435	290.798
421.327	260.6
424.22	209.246
427.113	162.596
430.006	121.762
432.898	64.7505
435.791	13.4248
438.684	40.9141
441.576	70.1165
444.469	94.2463
447.362	94.3613
450.255	85.9368
453.147	58.0173
456.04	11.626
458.933	44.9048
461.825	108.471
464.718	169.617
467.611	231.078
470.503	291.245
473.396	337.966
476.289	360.715
479.182	388.898
482.074	411.416
484.967	417.209
487.86	436.683
490.752	443.711
493.645	436.99
496.538	442.613
499.43	430.052
502.323	448.691
505.216	491.747
508.108	576.864
511.001	692.832
513.894	813.12
516.787	961.26
519.679	1144.64
522.572	1304.27
525.465	1463.89
528.357	1637.93
531.25	1820.58
534.143	1988.05
537.035	2140.49
539.928	2281.88
542.821	2393.04
545.713	2507.55
548.606	2582.21
551.499	2643.01
554.392	2659
557.284	2648.65
560.177	2581.73
563.07	2471.69
565.962	2341.86
568.855	2167.04
571.748	1961.93
574.64	1755.96
577.533	1527.2
580.426	1319.56
583.319	1104.51
586.211	928.455
589.104	782.382
591.997	653.574
594.889	546.366
597.782	459.738
600.675	371.517
603.567	331.765
606.46	270.627
609.353	258.103
612.246	268.786
615.138	290.404
618.031	308.833
620.924	322.354
623.816	315.296
626.709	302.729
629.602	280.9
632.494	251.233
635.387	224.634
638.28	195.618
641.173	163.018
644.065	134.663
646.958	96.6204
649.851	64.5105
652.743	26.844
655.636	6.67261
658.529	35.6775
661.421	62.5171
664.314	71.2114
667.207	80.6196
670.1	80.6218
672.992	74.4927
675.885	26.2527
678.778	39.1426
681.67	107.484
684.563	254.815
687.456	458.891
690.348	652.919
693.241	593.665
696.134	365.056
699.027	252.652
701.919	240.457
704.812	253.87
707.705	279.824
710.597	308.718
713.49	349.655
716.383	374.796
719.275	391.113
722.168	392.198
725.061	381.949
727.953	359.787
730.846	329.035
733.739	306.012
736.632	296.334
739.524	299.027
742.417	308.531
745.31	328.625
748.202	338.616
751.095	354.238
753.988	366.271
756.88	377.095
759.773	374.328
762.666	371.49
765.559	366.842
768.451	361.658
771.344	364.844
774.237	370.025
777.129	362.298
780.022	354.165
782.915	348.901
785.808	339.223
788.7	301.441
791.593	241.934
794.486	192.54
797.378	147.004
800.271	110.689
803.164	85.0737
806.056	60.5635
808.949	46.6858
811.842	29.9202
814.734	19.8906
817.627	11.5222
820.52	7.98364
823.413	1.14941
826.305	3.70776
829.198	3.99829
832.091	6.09351
834.983	1.44214
837.876	18.2632
840.769	45.5149
843.661	85.104
846.554	133.838
849.447	175.707
852.34	224.236
855.232	285.512
858.125	347.569
861.018	394.074
863.91	419.71
866.803	406.85
869.696	380.792
872.588	337.971
875.481	304.503
878.374	247.092
881.266	186.761
884.159	131.778
887.052	77.0996
889.945	42.5859
892.837	21.0092
895.73	6.06213
898.623	1.69128
901.515	0.977539
904.408	6.04785
907.301	0.294312
910.193	1.40027
913.086	1.05395
915.979	8.29748
918.872	17.2384
921.764	30.2915
924.657	40.4646
927.55	60.1993
930.442	60.1173
933.335	71.7905
936.228	80.5072
939.12	80.7328
942.013	77.5559
944.906	75.3542
947.799	78.8106
950.691	68.1337
953.584	67.1486
956.477	54.8964
959.369	41.1443
962.262	30.9294
965.155	18.7931
968.047	0.852173
970.94	1.80676
973.833	12.7178
976.726	12.2324
979.618	8.75647
982.511	12.8718
985.404	14.0199
988.296	13.8239
991.189	8.15393
994.082	1.97974
996.974	12.4901
999.867	32.6096
1002.76	64.6074
1005.65	94.9465
1008.54	121.163
1011.44	130.136
1014.33	112.703
1017.22	93.8241
1020.12	85.2689
1023.01	76.9694
1025.9	63.8828
1028.79	64.0071
1031.69	66.3489
1034.58	65.2878
1037.47	74.6148
1040.37	83.1479
1043.26	97.6887
1046.15	110.21
1049.04	160.253
1051.94	195.115
1054.83	251.464
1057.72	336.587
1060.61	655.529
1063.51	423.085
1066.4	212.178
1069.29	147.952
1072.18	154.027
1075.08	158.439
1077.97	172.337
1080.86	183.602
1083.76	201.99
1086.65	207.083
1089.54	221.743
1092.43	224.493
1095.33	237.212
1098.22	250.078
1101.11	247.122
1104	251.609
1106.9	255.392
1109.79	266.07
1112.68	274.428
1115.58	270.541
1118.47	282.635
1121.36	303.087
1124.25	318.592
1127.15	345.955
1130.04	377.581
1132.93	409.484
1135.82	436.182
1138.72	448.55
1141.61	440.294
1144.5	429.539
1147.39	413.614
1150.29	393.215
1153.18	365.685
1156.07	329.544
1158.97	289.887
1161.86	256.515
1164.75	220.644
1167.64	157.627
1170.54	129.931
1173.43	86.6982
1176.32	46.1221
1179.21	22.7808
1182.11	14.3916
1185	48.1802
1187.89	52.7368
1190.79	52.9746
1193.68	35.3857
1196.57	21.0469
1199.46	61.2207
1202.36	143.912
1205.25	212.888
1208.14	278.815
1211.03	380.491
1213.93	509.528
1216.82	555.04
1219.71	611.527
1222.61	641.41
1225.5	737.42
1228.39	788.053
1231.28	808.112
1234.18	768.848
1237.07	649.226
1239.96	471.833
1242.85	342.08
1245.75	309.377
1248.64	206.055
1251.53	179.496
1254.42	160.764
1257.32	175.022
1260.21	185.617
1263.1	238.738
1265.99	275.065
1268.89	307.381
1271.78	311.201
1274.67	251.373
1277.57	250.799
1280.46	171.789
1283.35	33.7363
