Measurement: Raman, 532 nm, unoriented, Raman Data Processed
Mineral: Muirite
Rruff sample: R140248
Ideal chemistry: Ba_10_Ca_2_Mn^2+^Ti^4+^Si_10_O_30_(OH)_10_
Locality: Esquire No. 7 Claim, Big Creek, Fresno County, California, USA
Source: Rock Currier
Description: Scattered orange grains and aggregates associated with taramellite, walstromite and sanbornite.
Raman shift (cm-1)	intensity
99.4255	0
102.8	14.3524
106.175	9.69916
109.55	113.159
112.925	129.751
116.3	196.561
119.674	262.21
123.049	281.247
126.424	379.846
129.799	440.236
133.174	379.041
136.548	323.803
139.923	263.206
143.298	229.155
146.673	201.983
150.048	191.03
153.423	176.851
156.797	158.099
160.172	111.112
163.547	78.7319
166.922	47.7213
170.297	27.1829
173.672	5.32141
177.046	11.8533
180.421	15.8058
183.796	13.3401
187.171	0.276367
190.546	31.4358
193.92	58.6079
197.295	92.4011
200.67	117.736
204.045	136.127
207.42	134.355
210.794	111.376
214.169	88.4796
217.544	66.142
220.919	50.9027
224.294	30.2344
227.669	19.3704
231.043	0.86084
234.418	4.34497
237.793	12.1807
241.168	71.7466
244.543	177.71
247.917	353.51
251.292	603.762
254.667	929.174
258.042	1361.39
261.417	1890.45
264.792	2395.82
268.166	2686.9
271.541	2605.05
274.916	2269.25
278.291	1824.43
281.666	1360.38
285.041	952.458
288.415	672.567
291.79	517.055
295.165	438.658
298.54	396.31
301.915	369.593
305.289	337.074
308.664	258.336
312.039	182.424
315.414	141.917
318.789	109.332
322.163	87.7675
325.538	89.1179
328.913	82.9153
332.288	82.4695
335.663	91.7556
339.038	102.183
342.412	73.3394
345.787	30.7699
349.162	0.629395
352.537	10.2681
355.912	52.5949
359.286	64.7197
362.661	27.182
366.036	11.1498
369.411	32.7318
372.786	10.8062
376.161	17.233
379.535	47.0292
382.91	73.5513
386.285	79.256
389.66	77.4541
393.035	69.3364
396.409	60.9346
399.784	45.8857
403.159	57.223
406.534	67.5102
409.909	43.2526
413.284	27.5142
416.658	15.6948
420.033	9.65613
423.408	3.02649
426.783	5.47082
430.158	7.32043
433.532	4.9314
436.907	5.91943
440.282	25.9542
443.657	44.6926
447.032	60.2815
450.406	106.844
453.781	177.958
457.156	298.445
460.531	508.621
463.906	765.709
467.281	842.029
470.655	634.406
474.03	471.4
477.405	345.275
480.78	224.105
484.155	152.871
487.529	108.167
490.904	73.4678
494.279	55.0676
497.654	47.5919
501.029	66.4571
504.404	111.55
507.778	183.06
511.153	275.12
514.528	383.395
517.903	493.913
521.278	558.436
524.653	540.21
528.027	478.551
531.402	415.719
534.777	349.401
538.152	261.735
541.527	181.826
544.901	135.119
548.276	114.779
551.651	104.51
555.026	97.811
558.401	98.0303
561.775	111.851
565.15	90.8026
568.525	79.611
571.9	55.7189
575.275	42.9126
578.649	15.1065
582.024	3.1654
585.399	0.499634
588.774	2.85059
592.149	3.2207
595.524	2.94055
598.898	4.29639
602.273	4.60059
605.648	1.26733
609.023	0.199951
612.398	1.16296
615.773	2.87756
619.147	0.525391
622.522	1.57397
625.897	5.1626
629.272	2.56836
632.647	2.84033
636.021	5.82983
639.396	6.90869
642.771	11.0063
646.146	11.2284
649.521	12.2297
652.895	21.9197
656.27	20.9999
659.645	27.39
663.02	34.7892
666.395	38.3176
669.77	39.4648
673.144	47.7404
676.519	86.1882
679.894	147.475
683.269	247.666
686.644	408.991
690.019	565.644
693.393	471.55
696.768	196.813
700.143	69.2529
703.518	29.2294
706.893	11.2866
710.267	1.39893
713.642	2.82385
717.017	2.68591
720.392	4.44116
723.767	8.49548
727.141	16.3235
730.516	19.3648
733.891	28.2003
737.266	41.647
740.641	45.6804
744.016	64.1388
747.39	79.0503
750.765	94.2401
754.14	108.1
757.515	129.428
760.89	138.694
764.264	148.319
767.639	136.24
771.014	120.546
774.389	114.984
777.764	126.696
781.139	156.876
784.513	183.3
787.888	195.154
791.263	159.658
794.638	94.0525
798.013	46.2976
801.388	24.7273
804.762	19.4229
808.137	24.594
811.512	12.5236
814.887	1.30176
818.261	3.00964
821.636	7.90649
825.011	2.71826
828.386	2.34119
831.761	17.597
835.136	39.5719
838.51	77.3179
841.885	139.106
845.26	234.909
848.635	356.86
852.01	511.337
855.385	700.432
858.759	882.187
862.134	1017.59
865.509	1050.08
868.884	978.991
872.259	858.917
875.633	706.489
879.008	555.472
882.383	406.269
885.758	276.737
889.133	184.617
892.508	113.32
895.882	78.88
899.257	48.6669
902.632	37.3719
906.007	18.7565
909.382	8.42725
912.756	7.91943
916.131	7.8324
919.506	1.88257
922.881	1.28564
926.256	10.2283
929.63	25.2422
933.005	21.358
936.38	29.4432
939.755	34.5525
943.13	44.4517
946.505	56.5487
949.879	70.2383
953.254	74.9152
956.629	57.8938
960.004	25.4395
963.379	29.7135
966.754	27.6057
970.128	32.1344
973.503	56.4124
976.878	78.2218
980.253	87.1582
983.628	77.3379
987.002	61.5911
990.377	45.5896
993.752	49.5565
997.127	59.4697
1000.5	82.1234
1003.88	115.418
1007.25	153.411
1010.63	153.679
1014	138.721
1017.38	115.951
1020.75	101.089
1024.12	82.5104
1027.5	79.5751
1030.88	71.5636
1034.25	68.2892
1037.62	59.7931
1041	60.1007
1044.37	52.8165
1047.75	73.3197
1051.12	107.191
1054.5	161.731
1057.87	285.926
1061.25	469.903
1064.62	142.244
1068	27.1333
1071.37	4.75378
1074.75	8.9021
1078.12	7.64856
1081.5	1.90039
1084.87	2.12805
1088.25	5.14123
1091.62	0.623413
1095	1.75964
1098.37	4.64551
1101.75	5.82849
1105.12	6.17383
1108.5	3.88733
1111.87	6.21021
1115.24	5.59399
1118.62	7.78528
1121.99	13.606
1125.37	6.17334
1128.74	10.3927
1132.12	6.50073
1135.49	4.31396
1138.87	4.04394
1142.24	8.14392
1145.62	5.13159
1148.99	7.55847
1152.37	13.3245
1155.74	12.9857
1159.12	14.427
1162.49	19.0577
1165.87	12.0945
1169.24	6.56177
1172.62	9.48767
1175.99	5.12964
1179.37	2.5321
1182.74	1.71558
1186.12	3.62109
1189.49	1.57166
1192.87	5.17322
1196.24	1.54321
1199.62	7.00452
1202.99	5.14771
1206.37	9.95239
1209.74	4.1654
1213.12	0.616577
1216.49	6.92053
1219.87	3.52197
1223.24	7.11011
1226.61	3.71912
1229.99	5.19409
1233.36	3.86072
1236.74	4.86426
1240.11	2.35156
1243.49	10.3357
1246.86	8.98682
1250.24	7.72778
1253.61	5.11194
1256.99	10.8133
1260.36	5.4397
1263.74	5.30493
1267.11	0.677734
1270.49	0.904541
1273.86	5.97986
1277.24	0.558838
1280.61	4.63733
1283.99	5.67529
1287.36	2.61987
1290.74	8.76575
1294.11	9.28381
1297.49	0.828003
1300.86	2.84802
