Measurement: Raman, 780 nm, unoriented, Raman Data Processed
Mineral: Muirite
Rruff sample: R140248
Ideal chemistry: Ba_10_Ca_2_Mn^2+^Ti^4+^Si_10_O_30_(OH)_10_
Locality: Esquire No. 7 Claim, Big Creek, Fresno County, California, USA
Source: Rock Currier
Description: Scattered orange grains and aggregates associated with taramellite, walstromite and sanbornite.
Raman shift (cm-1)	intensity
166.77	0
169.663	2.57385
172.555	6.57654
175.448	0.368286
178.341	19.275
181.234	28.787
184.126	9.82745
187.019	1.69574
189.912	5.43805
192.804	11.8524
195.697	20.8871
198.59	32.8055
201.482	42.6963
204.375	55.4927
207.268	58.6759
210.161	56.7027
213.053	54.2694
215.946	58.4237
218.839	68.559
221.731	65.9914
224.624	65.9618
227.517	55.6232
230.409	30.1529
233.302	9.79205
236.195	1.69818
239.088	5.25561
241.98	0.51709
244.873	9.41028
247.766	29.6854
250.658	41.4791
253.551	53.1146
256.444	63.6819
259.336	85.0429
262.229	110.178
265.122	132.978
268.014	140.382
270.907	141.769
273.8	137.327
276.693	135.593
279.585	128.756
282.478	115.275
285.371	92.4727
288.263	74.0081
291.156	74.3019
294.049	85.2322
296.942	104.062
299.834	130.079
302.727	156.798
305.62	155.758
308.512	124.269
311.405	83.0253
314.298	60.1518
317.19	37.5212
320.083	27.1911
322.976	11.54
325.868	9.59491
328.761	1.19379
331.654	4.15112
334.547	0.434265
337.439	8.76209
340.332	17.681
343.225	16.6388
346.117	10.7493
349.01	14.7132
351.903	26.9117
354.796	51.9253
357.688	75.4306
360.581	71.8563
363.474	56.242
366.366	42.6838
369.259	37.6773
372.152	33.861
375.044	45.609
377.937	47.6666
380.83	57.3691
383.722	58.1143
386.615	54.9214
389.508	47.4647
392.401	41.8746
395.293	35.7653
398.186	20.3706
401.079	13.242
403.971	15.7173
406.864	19.3654
409.757	18.7001
412.649	18.4921
415.542	15.9357
418.435	14.143
421.327	12.6995
424.22	9.67035
427.113	8.79804
430.006	6.67847
432.898	2.34772
435.791	3.40863
438.684	7.78375
441.576	9.17139
444.469	11.0905
447.362	8.65753
450.255	4.01965
453.147	16.6082
456.04	39.7332
458.933	87.4947
461.825	149.466
464.718	227.677
467.611	231.566
470.503	155.83
473.396	105.041
476.289	74.1526
479.182	54.0751
482.074	36.8155
484.967	31.8592
487.86	24.7934
490.752	24.9311
493.645	22.8425
496.538	19.2314
499.43	17.2911
502.323	25.534
505.216	30.1795
508.108	45.6579
511.001	69.8185
513.894	89.874
516.787	120.326
519.679	145.432
522.572	166.374
525.465	169.98
528.357	174.112
531.25	176.211
534.143	185.733
537.035	191.359
539.928	192.247
542.821	195.144
545.713	209.822
548.606	225.908
551.499	238.347
554.392	251.341
557.284	256.748
560.177	257.021
563.07	250.622
565.962	239.088
568.855	229.667
571.748	209.918
574.64	177.676
577.533	148.372
580.426	124.099
583.319	100.204
586.211	83.0097
589.104	62.5629
591.997	54.187
594.889	46.3077
597.782	34.748
600.675	28.1776
603.567	22.8889
606.46	19.0301
609.353	16.7576
612.246	20.9058
615.138	18.3689
618.031	17.8038
620.924	13.9808
623.816	10.6881
626.709	8.77295
629.602	7.53796
632.494	5.48212
635.387	9.49274
638.28	9.73572
641.173	7.57404
644.065	2.70465
646.958	0.922424
649.851	3.31537
652.743	6.04901
655.636	4.82092
658.529	3.8169
661.421	1.47003
664.314	4.34699
667.207	7.31421
670.1	4.5274
672.992	2.12451
675.885	20.4769
678.778	45.4935
681.67	79.5565
684.563	136.161
687.456	241.278
690.348	352.15
693.241	302.438
696.134	143.326
699.027	58.7291
701.919	32.5439
704.812	15.272
707.705	13.9328
710.597	14.0851
713.49	12.5185
716.383	17.7062
719.275	16.1486
722.168	13.2872
725.061	13.6964
727.953	9.9375
730.846	17.561
733.739	16.9224
736.632	22.6094
739.524	21.3685
742.417	26.3196
745.31	28.7776
748.202	30.5927
751.095	33.7628
753.988	33.7186
756.88	43.2305
759.773	45.8919
762.666	53.7207
765.559	48.6154
768.451	51.0463
771.344	51.602
774.237	57.7176
777.129	63.3056
780.022	75.8304
782.915	85.5778
785.808	96.105
788.7	96.3204
791.593	78.5166
794.486	48.0254
797.378	39.5945
800.271	16.7221
803.164	12.7438
806.056	5.11218
808.949	2.58606
811.842	0.694458
814.734	2.63599
817.627	5.24353
820.52	2.24414
823.413	0.293213
826.305	1.9187
829.198	2.37195
832.091	7.8009
834.983	13.238
837.876	22.7144
840.769	32.8268
843.661	42.6687
846.554	67.7333
849.447	94.8818
852.34	119.549
855.232	163.559
858.125	201.317
861.018	235.488
863.91	265.713
866.803	269.768
869.696	256.357
872.588	229.326
875.481	204.303
878.374	170.595
881.266	139.28
884.159	105.888
887.052	75.2158
889.945	51.6964
892.837	29.4471
895.73	21.495
898.623	12.1863
901.515	13.0105
904.408	6.6615
907.301	6.54797
910.193	0.381348
913.086	0.477783
915.979	4.73657
918.872	1.86426
921.764	4.1947
924.657	7.64624
927.55	9.57373
930.442	9.17712
933.335	14.4303
936.228	18.8241
939.12	18.6416
942.013	21.2675
944.906	16.6997
947.799	19.3895
950.691	24.6349
953.584	23.9442
956.477	22.311
959.369	13.6013
962.262	19.3462
965.155	9.3728
968.047	7.84839
970.94	6.83167
973.833	3.89648
976.726	2.91833
979.618	4.80432
982.511	5.43555
985.404	2.20862
988.296	2.24341
991.189	2.09399
994.082	1.20019
996.974	4.9967
999.867	12.9026
1002.76	23.4364
1005.65	38.7504
1008.54	52.9108
1011.44	53.2942
1014.33	40.67
1017.22	31.8477
1020.12	20.588
1023.01	16.6092
1025.9	7.74048
1028.79	10.1646
1031.69	0.668457
1034.58	7.82788
1037.47	8.25
1040.37	7.36133
1043.26	10.9334
1046.15	11.0333
1049.04	38.4412
1051.94	59.4115
1054.83	95.5928
1057.72	162.145
1060.61	540.217
1063.51	187.913
1066.4	50.7117
1069.29	13.0104
1072.18	6.30042
1075.08	4.13159
1077.97	12.2345
1080.86	9.29004
1083.76	14.317
1086.65	17.6176
1089.54	20.8418
1092.43	23.0328
1095.33	11.5598
1098.22	12.8522
1101.11	16.3867
1104	17.9896
1106.9	16.8569
1109.79	24.9901
1112.68	20.6081
1115.58	8.41479
1118.47	14.5569
1121.36	17.0842
1124.25	17.9273
1127.15	23.0584
1130.04	23.9707
1132.93	31.4065
1135.82	32.406
1138.72	33.7017
1141.61	32.1106
1144.5	27.1428
1147.39	32.5674
1150.29	27.2524
1153.18	29.2344
1156.07	20.5669
1158.97	23.1995
1161.86	19.6384
1164.75	15.2627
1167.64	10.346
1170.54	7.67456
1173.43	9.6123
1176.32	8.9624
1179.21	6.46143
1182.11	2.39185
1185	0.843506
1187.89	3.81519
1190.79	8.19531
1193.68	2.99731
1196.57	5.10376
1199.46	12.7358
1202.36	26.3525
1205.25	29.0064
1208.14	38.6357
1211.03	44.7761
1213.93	59.7795
1216.82	63.0977
1219.71	64.7266
1222.61	64.9026
1225.5	82.0356
1228.39	76.9297
1231.28	81.0305
1234.18	75.1641
1237.07	51.6155
1239.96	23.5684
1242.85	16.8359
1245.75	2.73242
1248.64	4.43848
1251.53	1.1626
1254.42	3.76514
1257.32	7.80957
1260.21	20.4204
1263.1	33.6528
1265.99	40.4507
1268.89	27.8071
1271.78	33.5
1274.67	35.499
1277.57	29.4785
1280.46	22.5225
1283.35	2.97168
