Measurement: Raman, 532 nm, unoriented, Raman Data Processed
Mineral: Muirite
Rruff sample: R150098
Ideal chemistry: Ba_10_Ca_2_Mn^2+^Ti^4+^Si_10_O_30_(OH)_10_
Locality: Esquire No. 7 mine, Big Creek, Fresno County, California, USA
Source: James Shigley
Description: Isolated orange granular crystals, associated with quartz and sanbornite. Note that the c-cell edge is doubled relative to the literature
Raman shift (cm-1)	intensity
110.032	0
113.407	0
116.782	49.3586
120.157	117.802
123.531	186.695
126.906	306.9
130.281	415.162
133.656	540.418
137.031	628.792
140.405	386.92
143.78	222.563
147.155	224.543
150.53	297.19
153.905	418.492
157.28	328.85
160.654	200.676
164.029	114.007
167.404	75.8125
170.779	66.9561
174.154	28.4253
177.528	0.606445
180.903	8.42505
184.278	19.333
187.653	10.7942
191.028	1.86816
194.403	24.0439
197.777	70.9036
201.152	46.9895
204.527	1.9585
207.902	2.70703
211.277	10.3784
214.651	33.9734
218.026	74.613
221.401	97.6726
224.776	116.721
228.151	109.829
231.525	72.8965
234.9	69.2625
238.275	106.626
241.65	181.075
245.025	305.18
248.4	477.962
251.774	643.293
255.149	854.072
258.524	1159.74
261.899	1494.76
265.274	1781.09
268.649	1952.26
272.023	1955.49
275.398	1842.57
278.773	1551.66
282.148	1165.34
285.523	832.858
288.897	634.496
292.272	539.104
295.647	485.069
299.022	476.763
302.397	501.42
305.772	489.149
309.146	390.181
312.521	267.59
315.896	187.141
319.271	123.01
322.646	91.6209
326.02	61.9741
329.395	36.1121
332.77	12.802
336.145	0.190186
339.52	3.76221
342.894	2.87671
346.269	6.73047
349.644	2.35132
353.019	33.241
356.394	93.5606
359.769	90.436
363.143	60.477
366.518	10.0178
369.893	14.8545
373.268	1.81616
376.643	28.9058
380.017	58.1875
383.392	78.106
386.767	81.3723
390.142	77.5
393.517	55.8398
396.892	34.4868
400.266	10.3948
403.641	1.0835
407.016	15.689
410.391	12.0078
413.766	1.9707
417.14	33.5984
420.515	59.0627
423.89	75.478
427.265	94.8691
430.64	104.883
434.014	88.9297
437.389	58.3052
440.764	51.9617
444.139	31.3667
447.514	14.1267
450.889	18.3281
454.263	30.2615
457.638	81.4465
461.013	148.176
464.388	215.648
467.763	243.282
471.137	235.837
474.512	190.661
477.887	99.7617
481.262	51.1148
484.637	45.1506
488.012	55.7803
491.386	67.022
494.761	99.2144
498.136	171.016
501.511	262.656
504.886	441.786
508.26	653.658
511.635	737.95
515.01	590.637
518.385	526.489
521.76	524.352
525.135	478.277
528.509	419.177
531.884	379.299
535.259	320.31
538.634	222.103
542.009	149.285
545.384	126.386
548.758	133.554
552.133	143.373
555.508	136.905
558.883	123.157
562.258	124.438
565.632	97.3897
569.007	67.699
572.382	35.4751
575.757	18.1384
579.132	4.57935
582.506	3.07349
585.881	0.317871
589.256	0.529297
592.631	4.21997
596.006	0.450439
599.381	2.896
602.755	8.86597
606.13	7.09302
609.505	0.832275
612.88	7.72559
616.255	5.17554
619.63	6.40332
623.004	5.49829
626.379	4.85522
629.754	4.84717
633.129	4.61646
636.504	1.82568
639.878	5.80713
643.253	7.75659
646.628	10.572
650.003	12.144
653.378	22.4998
656.752	21.864
660.127	33.1748
663.502	47.0803
666.877	49.573
670.252	64.9404
673.626	97.8484
677.001	180.58
680.376	324.159
683.751	509.613
687.126	780.372
690.501	929.894
693.875	610.363
697.25	238.912
700.625	117.373
704	64.2012
707.375	42.9375
710.75	24.5654
714.124	28.0535
717.499	31.2195
720.874	31.6089
724.249	44.8662
727.624	64.7773
730.998	59.4077
734.373	57.8159
737.748	74.5923
741.123	83.0347
744.498	100.527
747.872	135.128
751.247	167.091
754.622	160.448
757.997	141.97
761.372	133.613
764.747	123.411
768.121	115.34
771.496	132.244
774.871	147.744
778.246	177.973
781.621	205.292
784.995	216.343
788.37	176.435
791.745	107.875
795.12	35.9522
798.495	1.43164
801.87	10.3799
805.244	3.12695
808.619	2.48486
811.994	5.79834
815.369	3.89893
818.744	2.33447
822.119	19.4521
825.493	16.1133
828.868	14.4688
832.243	56.4961
835.618	98.2515
838.993	163.185
842.367	267.295
845.742	379.721
849.117	507.244
852.492	676.759
855.867	858.625
859.241	1046.59
862.616	1137.45
865.991	1132.34
869.366	1024.46
872.741	884.059
876.115	725.928
879.49	568.072
882.865	397.277
886.24	258.052
889.615	172.986
892.99	129.455
896.364	89.562
899.739	61.2217
903.114	36.2295
906.489	16.3794
909.864	2.97607
913.239	17.2754
916.613	5.9209
919.988	6.19678
923.363	3.56982
926.738	18.3662
930.113	21.9473
933.487	34.1992
936.862	30.8686
940.237	40.1797
943.612	59.3286
946.987	74.5386
950.361	81.9507
953.736	79.5034
957.111	49.542
960.486	37.8843
963.861	43.981
967.236	45.273
970.61	75.7207
973.985	113.234
977.36	123.191
980.735	132.6
984.11	149.118
987.485	145.087
990.859	122.736
994.234	115.441
997.609	134.353
1000.98	173.761
1004.36	213.128
1007.73	256.962
1011.11	251.487
1014.48	242.845
1017.86	206.779
1021.23	177.359
1024.61	155.718
1027.98	148.348
1031.36	134.657
1034.73	128.612
1038.11	131.479
1041.48	140.32
1044.86	148.186
1048.23	179.106
1051.61	283.43
1054.98	375.528
1058.36	647.143
1061.73	1170.58
1065.11	177.964
1068.48	11.5342
1071.86	6.23047
1075.23	6.33887
1078.6	4.09912
1081.98	4.39062
1085.35	3.3794
1088.73	11.6304
1092.1	4.01172
1095.48	6.16553
1098.85	19.4536
1102.23	8.49365
1105.6	7.84229
1108.98	9.36279
1112.35	10.3159
1115.73	19.2969
1119.1	13.458
1122.48	16.8774
1125.85	3.06885
1129.23	18.1939
1132.6	0.547363
1135.98	9.70068
1139.35	6.8125
1142.73	11.4927
1146.1	12.3833
1149.48	1.00342
1152.85	15.2915
1156.22	23.8457
1159.6	17.833
1162.97	11.585
1166.35	1.68603
1169.72	6.48975
1173.1	8.83691
1176.47	9.38428
1179.85	8.16992
1183.22	19.4243
1186.6	18.5142
1189.97	22.1172
1193.35	16.1162
1196.72	21.0249
1200.1	16.52
1203.47	0.078613
1206.85	17.7617
1210.22	14.6792
1213.6	6.93506
1216.97	12.9951
1220.35	13.3799
1223.72	8.85449
1227.1	6.30762
1230.47	1.0918
1233.85	1.77246
1237.22	7.71289
1240.6	10.563
1243.97	13.2925
1247.35	13.772
1250.72	21.9556
1254.1	19.688
1257.47	19.7173
1260.85	15.4961
1264.22	8.72168
1267.59	3.68994
1270.97	6.30273
1274.34	11.48
1277.72	12.4531
1281.09	6.42481
1284.47	11.2422
1287.84	1.44531
1291.22	10.3521
1294.59	12.0322
1297.97	1.51953
1301.34	1.03076
