Measurement: Raman, 780 nm, unoriented, Raman Data Processed
Mineral: Olshanskyite
Rruff sample: R170043
Ideal chemistry: Ca_2_[B_3_O_3_(OH)_6_]OH3H_2_O
Locality: Shijiangshan mine, Linxi, Chifeng, Inner Mongolia, China
Source: Mineral Zone
Description: White aggregate of prismatic or elongated bladed crystals with striations. Crystals are twinned with a two-fold rotation along [0 -1 1]*.
Raman shift (cm-1)	intensity
87.582	0
90.9569	52.1451
94.3317	42.3382
97.7065	16.9571
101.081	48.7682
104.456	41.8383
107.831	15.012
111.206	0.959167
114.581	0.251068
117.955	5.48038
121.33	5.79402
124.705	11.5061
128.08	29.5424
131.455	34.5676
134.829	19.6609
138.204	28.3999
141.579	48.5091
144.954	127.308
148.329	359.954
151.704	270.104
155.078	94.2894
158.453	117.984
161.828	169.491
165.203	96.6837
168.578	75.113
171.952	140.048
175.327	96.7721
178.702	8.71381
182.077	8.94702
185.452	13.3525
188.827	69.8544
192.201	59.1634
195.576	26.1145
198.951	25.3549
202.326	45.4718
205.701	95.841
209.076	95.6952
212.45	56.0209
215.825	82.0889
219.2	104.35
222.575	52.6523
225.95	19.2666
229.324	5.16992
232.699	5.62811
236.074	19.5247
239.449	33.9477
242.824	26.3005
246.198	18.2139
249.573	21.5348
252.948	39.5623
256.323	54.9276
259.698	67.6247
263.073	67.8434
266.447	54.3461
269.822	65.9033
273.197	97.1411
276.572	88.4757
279.947	64.3788
283.322	68.7497
286.696	92.8708
290.071	96.4911
293.446	70.6596
296.821	41.0707
300.196	15.0972
303.57	1.36346
306.945	6.06442
310.32	5.50768
313.695	2.23109
317.07	15.6343
320.445	31.3525
323.819	56.3286
327.194	82.3385
330.569	108.009
333.944	140.009
337.319	163.099
340.693	153.051
344.068	124.222
347.443	108.55
350.818	111.095
354.193	118.846
357.567	103.932
360.942	87.6872
364.317	80.762
367.692	71.2532
371.067	51.7788
374.442	38.4147
377.816	25.7158
381.191	14.6831
384.566	5.53394
387.941	1.29001
391.316	0.312897
394.69	0.949036
398.065	1.26439
401.44	0.854828
404.815	0.011467
408.19	0.251442
411.565	0.05809
414.939	3.45145
418.314	10.5176
421.689	19.6698
425.064	39.3265
428.439	58.8611
431.813	58.929
435.188	44.7034
438.563	41.1741
441.938	46.8166
445.313	34.3635
448.688	18.2258
452.062	7.54602
455.437	2.57739
458.812	0.125298
462.187	0.719818
465.562	0.696106
468.937	0.70536
472.311	0.542454
475.686	3.63207
479.061	5.67267
482.436	12.1033
485.81	16.2887
489.185	27.6996
492.56	47.6579
495.935	75.5553
499.31	81.2152
502.685	54.2914
506.059	32.2259
509.434	22.0708
512.809	22.9809
516.184	26.9543
519.559	29.3064
522.933	27.2137
526.308	19.737
529.683	11.8499
533.058	5.28396
536.433	2.47102
539.808	1.81889
543.182	2.48677
546.557	2.75758
549.932	7.87081
553.307	12.885
556.682	16.1575
560.057	17.6216
563.431	12.9691
566.806	2.25162
570.181	1.50375
573.556	2.07465
576.931	1.25376
580.305	0.167221
583.68	3.37113
587.055	8.75839
590.43	15.0463
593.805	19.5637
597.18	21.6923
600.554	25.8306
603.929	32.8332
607.304	41.5272
610.679	53.6724
614.054	75.9878
617.428	112.509
620.803	170.068
624.178	237.217
627.553	362.68
630.928	621.497
634.303	888.561
637.677	589.572
641.052	230.075
644.427	90.9234
647.802	40.8516
651.177	19.0305
654.552	7.81468
657.926	3.73148
661.301	2.66219
664.676	2.06743
668.051	1.6146
671.426	1.59645
674.8	2.7928
678.175	3.44495
681.55	3.9323
684.925	5.74882
688.3	9.13138
691.674	14.1501
695.049	18.4169
698.424	30.5279
701.799	41.795
705.174	63.053
708.548	91.0206
711.923	128.054
715.298	152.097
718.673	133.851
722.048	92.6316
725.423	56.0584
728.797	34.684
732.172	22.8063
735.547	13.9676
738.922	8.56532
742.297	4.86079
745.672	1.7481
749.046	0.532162
752.421	0.296963
755.796	0.952522
759.171	1.01667
762.546	1.51835
765.92	0.311256
769.295	0.373959
772.67	2.02378
776.045	2.4053
779.42	3.12562
782.795	4.89365
786.169	6.40725
789.544	6.68293
792.919	6.74735
796.294	6.02541
799.669	4.44389
803.043	5.78904
806.418	5.02364
809.793	5.3465
813.168	5.08577
816.543	4.55518
819.918	3.75337
823.292	1.25991
826.667	0.906742
830.042	0.625183
833.417	1.04871
836.792	2.09589
840.166	1.51199
843.541	2.6362
846.916	2.67509
850.291	2.43636
853.666	3.26535
857.04	3.77657
860.415	5.53558
863.79	6.49545
867.165	7.04509
870.54	7.4251
873.915	7.71968
877.289	8.29577
880.664	7.79392
884.039	9.48753
887.414	9.7639
890.789	10.841
894.163	8.85186
897.538	8.78722
900.913	6.9589
904.288	5.72131
907.663	5.5515
911.038	5.67107
914.412	5.42656
917.787	5.63544
921.162	5.69697
924.537	4.86517
927.912	5.21466
931.287	3.96484
934.661	3.14808
938.036	1.51504
941.411	0.923634
944.786	0.164867
948.161	0.960888
951.535	0.389824
954.91	1.33661
958.285	0.407253
961.66	0.334953
965.035	1.93168
968.409	2.4781
971.784	2.84799
975.159	5.43075
978.534	5.6961
981.909	5.47368
985.284	4.87205
988.658	5.27565
992.033	3.94109
995.408	2.94393
998.783	2.38794
1002.16	2.21193
1005.53	0.088791
1008.91	0.700951
1012.28	1.51117
1015.66	0.360386
1019.03	2.7322
1022.41	2.91143
1025.78	5.58252
1029.16	5.40107
1032.53	6.57779
1035.91	6.47099
1039.28	7.10821
1042.66	7.77916
1046.03	8.48627
1049.4	8.95746
1052.78	10.6595
1056.15	14.3699
1059.53	17.4427
1062.9	21.5864
1066.28	21.6145
1069.65	22.6178
1073.03	21.9715
1076.4	17.62
1079.78	14.5147
1083.15	10.7171
1086.53	7.07794
1089.9	5.39049
1093.28	3.0055
1096.65	2.59463
1100.03	1.54784
1103.4	0.8078
1106.78	0.050381
1110.15	0.663422
1113.53	0.620007
1116.9	0.056812
1120.28	0.485756
1123.65	0.723125
1127.03	2.08614
1130.4	1.71938
1133.78	3.47745
1137.15	4.39004
1140.53	6.38624
1143.9	6.7464
1147.28	8.97064
1150.65	11.0474
1154.03	11.551
1157.4	13.8249
1160.77	14.8923
1164.15	16.8007
1167.52	18.5891
1170.9	17.6744
1174.27	13.9753
1177.65	12.1125
1181.02	9.54145
1184.4	9.69214
1187.77	7.11586
1191.15	5.19721
1194.52	4.20213
1197.9	2.45812
1201.27	2.81979
1204.65	1.51232
1208.02	2.69587
1211.4	2.38799
1214.77	1.87945
1218.15	1.83829
1221.52	0.088768
1224.9	0.642559
1228.27	0.110332
1231.64	0.275452
1235.02	1.18158
1238.39	1.95645
1241.77	4.41375
1245.14	4.58023
1248.52	5.14769
1251.89	2.78521
1255.27	2.92442
1258.64	2.84361
1262.02	0.895664
1265.39	1.19411
1268.77	1.39606
1272.14	0.26252
1275.52	1.33869
1278.89	1.13998
1282.27	0
