Measurement: Raman, 532 nm, unoriented, Raman Data Processed
Mineral: Olshanskyite
Rruff sample: R170043
Ideal chemistry: Ca_2_[B_3_O_3_(OH)_6_]OH3H_2_O
Locality: Shijiangshan mine, Linxi, Chifeng, Inner Mongolia, China
Source: Mineral Zone
Description: White aggregate of prismatic or elongated bladed crystals with striations. Crystals are twinned with a two-fold rotation along [0 -1 1]*.
Raman shift (cm-1)	intensity
88.1367	0
91.5115	51.7323
94.8863	17.7063
98.2612	9.71773
101.636	59.217
105.011	56.9211
108.386	24.1527
111.76	3.497
115.135	5.39175
118.51	5.42477
121.885	9.96442
125.26	34.2255
128.635	57.2198
132.009	91.2754
135.384	105.298
138.759	80.6246
142.134	94.8602
145.509	161.175
148.883	409.466
152.258	873.755
155.633	313.661
159.008	206.426
162.383	363.173
165.757	353.681
169.132	132.354
172.507	156.405
175.882	269.681
179.257	123.368
182.632	12.6517
186.006	7.41046
189.381	83.1736
192.756	196.448
196.131	80.0592
199.506	41.2873
202.881	65.1101
206.255	173.766
209.63	342.908
213.005	233.111
216.38	194.466
219.755	321.863
223.129	270.052
226.504	112.044
229.879	40.6663
233.254	13.5812
236.629	29.6052
240.004	69.2333
243.378	88.2215
246.753	63.4413
250.128	54.8072
253.503	91.2983
256.878	135.582
260.252	153.793
263.627	155.228
267.002	123.862
270.377	119.727
273.752	159.844
277.127	196.64
280.501	152.551
283.876	138.684
287.251	197.209
290.626	252.646
294.001	217.939
297.375	159.01
300.75	88.575
304.125	23.6774
307.5	8.64713
310.875	15.5937
314.25	9.40553
317.624	8.14725
320.999	38.5487
324.374	84.2625
327.749	144.683
331.124	192.906
334.498	236.173
337.873	285.332
341.248	304.727
344.623	256.925
347.998	205.112
351.373	197.621
354.747	213.314
358.122	216.454
361.497	187.04
364.872	172.046
368.247	161.384
371.621	133.54
374.996	95.3766
378.371	66.6361
381.746	45.6649
385.121	21.3233
388.495	6.56369
391.87	0.272614
395.245	1.14821
398.62	3.56013
401.995	4.98897
405.37	0.95047
408.744	0.108185
412.119	2.51797
415.494	11.3586
418.869	26.4548
422.244	50.5581
425.618	97.137
428.993	158.047
432.368	195.926
435.743	150.047
439.118	103.402
442.493	94.8685
445.867	84.7422
449.242	46.8936
452.617	18.673
455.992	6.90479
459.367	1.64629
462.741	0.740364
466.116	2.37456
469.491	2.18148
472.866	0.443329
476.241	3.83584
479.615	13.777
482.99	25.4733
486.365	41.7961
489.74	68.6803
493.115	112.309
496.49	185.73
499.864	248.483
503.239	202.885
506.614	119.222
509.989	74.664
513.364	61.1714
516.739	62.2382
520.113	67.0293
523.488	70.3588
526.863	55.6408
530.238	33.3713
533.613	15.0763
536.987	5.12082
540.362	2.28004
543.737	0.114227
547.112	2.08293
550.487	13.2751
553.861	25.2347
557.236	38.1951
560.611	44.7884
563.986	47.13
567.361	22.0468
570.736	0.956909
574.11	4.66129
577.485	3.53648
580.86	3.89294
584.235	15.1291
587.61	30.3884
590.985	52.9958
594.359	69.005
597.734	72.9144
601.109	83.6244
604.484	106.528
607.859	133.093
611.233	167.793
614.608	225.413
617.983	316.32
621.358	467.156
624.733	684.605
628.107	1009.76
631.482	1584.87
634.857	2513.8
638.232	2523.2
641.607	1096.37
644.982	420.682
648.356	184.475
651.731	86.5504
655.106	38.8777
658.481	18.4229
661.856	7.15739
665.231	2.43237
668.605	1.50645
671.98	0.54184
675.355	2.46848
678.73	3.04514
682.105	5.28542
685.479	10.5158
688.854	17.8476
692.229	29.4411
695.604	47.7805
698.979	69.9269
702.354	110.245
705.728	167.539
709.103	254.325
712.478	365.262
715.853	469.617
719.227	474.23
722.602	353.788
725.977	223.715
729.352	139.123
732.727	86.7333
736.102	55.3021
739.476	32.7699
742.851	20.7708
746.226	10.4558
749.601	5.34325
752.976	0.836075
756.351	1.43109
759.725	2.27574
763.1	1.81595
766.475	2.28012
769.85	1.32538
773.225	0.220062
776.599	1.30176
779.974	4.35602
783.349	8.88528
786.724	12.4593
790.099	14.5745
793.473	15.696
796.848	13.398
800.223	13.1594
803.598	13.3523
806.973	10.8166
810.348	11.2587
813.722	9.25998
817.097	9.07301
820.472	6.4779
823.847	5.13478
827.222	3.35747
830.597	2.16418
833.971	1.90509
837.346	2.10832
840.721	1.23113
844.096	2.62117
847.471	3.97948
850.846	5.23702
854.22	8.39171
857.595	7.0388
860.97	10.505
864.345	13.652
867.72	16.0829
871.094	17.4668
874.469	17.5175
877.844	18.3076
881.219	19.1158
884.594	21.774
887.968	26.521
891.343	26.646
894.718	25.9599
898.093	22.8381
901.468	18.4495
904.842	17.8398
908.217	14.2731
911.592	14.1327
914.967	12.2806
918.342	13.9275
921.717	14.1614
925.091	14.5937
928.466	13.5192
931.841	11.7088
935.216	7.98216
938.591	5.8425
941.966	1.55739
945.34	1.3363
948.715	1.84011
952.09	0.965652
955.465	0.403915
958.84	1.16891
962.214	1.53851
965.589	2.49939
968.964	4.54294
972.339	7.31924
975.714	11.7182
979.088	14.8796
982.463	16.8572
985.838	18.6457
989.213	14.376
992.588	10.2909
995.963	6.08882
999.337	4.12308
1002.71	1.8205
1006.09	1.00089
1009.46	0.084305
1012.84	0.861526
1016.21	0.04303
1019.59	1.42392
1022.96	8.16193
1026.34	7.34204
1029.71	10.897
1033.09	11.9568
1036.46	14.1332
1039.84	16.102
1043.21	18.9471
1046.59	20.6794
1049.96	24.1484
1053.33	30.6911
1056.71	39.6181
1060.08	46.7578
1063.46	56.3578
1066.83	68.8146
1070.21	79.4048
1073.58	79.7947
1076.96	74.1971
1080.33	59.5821
1083.71	46.4552
1087.08	33.5258
1090.46	21.8374
1093.83	16.4282
1097.21	10.1325
1100.58	6.82567
1103.96	3.57237
1107.33	1.04008
1110.71	0.561295
1114.08	0.600677
1117.46	1.37895
1120.83	1.70371
1124.21	1.04242
1127.58	2.10512
1130.95	5.31062
1134.33	9.3725
1137.7	13.4518
1141.08	18.8181
1144.45	20.8726
1147.83	24.7145
1151.2	33.0234
1154.58	40.4314
1157.95	47.679
1161.33	57.0446
1164.7	61.2752
1168.08	63.4761
1171.45	63.9567
1174.83	61.1489
1178.2	52.6968
1181.58	42.8811
1184.95	34.5124
1188.33	26.4972
1191.7	20.7525
1195.08	15.8206
1198.45	12.7661
1201.83	9.68919
1205.2	7.74684
1208.58	6.31729
1211.95	6.57448
1215.33	5.27644
1218.7	2.66292
1222.08	3.36676
1225.45	1.22578
1228.83	0.89035
1232.2	0.514618
1235.58	1.88657
1238.95	6.62195
1242.32	10.461
1245.7	18.1758
1249.07	19.5946
1252.45	18.8943
1255.82	13.3293
1259.2	8.85402
1262.57	6.80283
1265.95	1.50479
1269.32	2.25505
1272.7	0.752075
1276.07	0.609268
1279.45	0.052216
1282.82	1.30425
1286.2	2.83992
1289.57	1.41522
1292.95	2.65497
1296.32	1.60271
1299.7	0.784088
