Measurement: Raman, 780 nm, unoriented, Raman Data Processed
Mineral: Orthoclase
Rruff sample: R150014
Ideal chemistry: KAlSi_3_O_8_
Locality: Locality: Cathedral Peak granite, near Toulumne meadows, Yosemite National Park, California, USA
Source: Jennifer Schmidt (LDP12-02)
Description: White to colorless, massive, in a granitic rock
Measured chemistry: (K_0.86_Na_0.14_)Al_1.01_Si_2.98_O_8_
Raman shift (cm-1)	intensity
93.4884	0
96.8632	7.32837
100.238	0.368286
103.613	0.033081
106.988	15.9202
110.362	23.8656
113.737	13.0396
117.112	9.03687
120.487	3.69199
123.862	3.84589
127.237	3.5929
130.611	2.81619
133.986	1.55984
137.361	2.36432
140.736	17.5302
144.111	24.2477
147.485	37.9709
150.86	51.1622
154.235	72.8006
157.61	64.5404
160.985	45.6221
164.359	27.8767
167.734	17.8804
171.109	14.0753
174.484	14.8798
177.859	13.4754
181.234	9.64963
184.608	3.06833
187.983	2.02466
191.358	0.139191
194.733	0.493103
198.108	1.77509
201.482	3.82733
204.857	1.05499
208.232	1.54654
211.607	0.804626
214.982	1.54004
218.357	0.057556
221.731	1.44305
225.106	3.37283
228.481	2.87396
231.856	3.38803
235.231	4.35983
238.605	6.58246
241.98	5.91687
245.355	8.90787
248.73	12.2874
252.105	16.1895
255.48	19.8115
258.854	25.7981
262.229	31.6546
265.604	39.7304
268.979	42.7497
272.354	38.5166
275.728	46.4258
279.103	48.4015
282.478	56.999
285.853	49.8721
289.228	36.7521
292.602	26.3701
295.977	16.5868
299.352	10.795
302.727	7.54153
306.102	5.34952
309.476	3.03421
312.851	2.88031
316.226	1.29416
319.601	0.598206
322.976	1.76086
326.351	2.08972
329.725	0.425171
333.1	1.37042
336.475	0.734924
339.85	1.2496
343.225	1.65445
346.599	0.545502
349.974	0.83194
353.349	1.25085
356.724	3.03046
360.099	3.61261
363.474	10.1585
366.848	4.25888
370.223	9.27246
373.598	7.78662
376.973	6.7236
380.348	4.30475
383.722	6.34387
387.097	6.00046
390.472	19.1678
393.847	8.89035
397.222	11.3448
400.596	14.2074
403.971	20.5143
407.346	18.1095
410.721	11.3874
414.096	8.08813
417.471	0.315308
420.845	1.1319
424.22	1.97144
427.595	1.81525
430.97	1.2262
434.345	1.39905
437.719	3.38855
441.094	9.2157
444.469	14.3833
447.844	21.9285
451.219	31.9096
454.594	43.4577
457.968	54.396
461.343	68.4431
464.718	80.5411
468.093	102.301
471.468	120.774
474.842	138.775
478.217	126.925
481.592	81.4931
484.967	52.2852
488.342	35.5598
491.716	33.346
495.091	40.0773
498.466	69.5944
501.841	77.0851
505.216	109.865
508.591	156.458
511.965	214.891
515.34	229.109
518.715	153.308
522.09	79.4268
525.465	40.574
528.84	24.7252
532.214	15.5145
535.589	7.61621
538.964	3.92352
542.339	1.8761
545.713	2.04877
549.088	0.680969
552.463	0.522522
555.838	1.88373
559.213	0.299622
562.588	0.72168
565.962	0.00708
569.337	2.41205
572.712	1.14862
576.087	4.98102
579.462	3.96356
582.837	2.63245
586.211	2.49988
589.586	1.45227
592.961	0.662476
596.336	1.09241
599.711	3.43213
603.085	2.34155
606.46	5.05255
609.835	3.50696
613.21	4.18665
616.585	6.59833
619.96	5.23859
623.334	3.50879
626.709	6.02142
630.084	6.11041
633.459	3.77362
636.833	4.58569
640.208	2.90692
643.583	5.95404
646.958	6.80902
650.333	2.11914
653.708	4.1355
657.082	5.45422
660.457	5.21899
663.832	4.03357
667.207	3.9585
670.582	1.27698
673.957	0.906006
677.331	1.16235
680.706	6.13257
684.081	0.71814
687.456	2.28589
690.831	1.7738
694.205	4.04639
697.58	0.387085
700.955	2.39539
704.33	4.37769
707.705	0.579224
711.079	1.92822
714.454	1.76404
717.829	3.63953
721.204	0.14209
724.579	5.89099
727.953	1.8092
731.328	2.66711
734.703	6.40662
738.078	8.93445
741.453	10.9263
744.828	14.7742
748.202	15.1134
751.577	19.2371
754.952	12.6244
758.327	9.25659
761.702	6.49243
765.077	1.39136
768.451	0.40918
771.826	5.03943
775.201	1.755
778.576	1.59558
781.951	1.1936
785.325	6.39697
788.7	3.96033
792.075	1.7749
795.45	7.52893
798.825	2.59424
802.199	4.73096
805.574	4.7229
808.949	9.10681
812.324	10.7803
815.699	10.7358
819.073	6.52307
822.448	7.39392
825.823	7.97998
829.198	8.20166
832.573	5.97009
835.948	8.57056
839.322	10.0241
842.697	7.69019
846.072	9.58655
849.447	10.792
852.822	7.39038
856.197	10.2883
859.571	7.55713
862.946	12.334
866.321	11.2216
869.696	6.28577
873.071	7.52771
876.445	8.36169
879.82	3.11121
883.195	11.7174
886.57	6.39502
889.945	7.24561
893.319	16.808
896.694	6.95703
900.069	10.4861
903.444	2.86121
906.819	8.09961
910.193	9.79028
913.568	4.84326
916.943	1.2229
920.318	5.90186
923.693	2.21313
927.068	5.83398
930.442	4.17139
933.817	5.30273
937.192	10.9895
940.567	1.76099
943.942	4.54248
947.317	3.56885
950.691	4.6228
954.066	2.59424
957.441	5.07397
960.816	9.26123
964.191	3.36084
967.565	4.03638
970.94	7.98975
974.315	3.39624
977.69	4.49634
981.065	5.78027
984.439	6.14893
987.814	4.87524
991.189	2.17407
994.564	10.8208
997.939	6.54541
1001.31	6.1499
1004.69	22.9424
1008.06	14.095
1011.44	7.35132
1014.81	5.09351
1018.19	12.9365
1021.56	8.35474
1024.94	10.7183
1028.31	2.1897
1031.69	0.335205
1035.06	15.6248
1038.44	14.2656
1041.81	2.98315
1045.19	2.42969
1048.56	7.17139
1051.94	8.37695
1055.31	4.55371
1058.68	1.3938
1062.06	11.0857
1065.43	8.62036
1068.81	1.51709
1072.18	0.056885
1075.56	4.40869
1078.93	0.613037
1082.31	2.01099
1085.68	3.51172
1089.06	7.44311
1092.43	8.49316
1095.81	0.064697
1099.18	1.56177
1102.56	7.42407
1105.93	7.16528
1109.31	14.8882
1112.68	13.23
1116.06	14.2388
1119.43	20.8875
1122.81	24.8535
1126.18	23.1375
1129.56	13.1457
1132.93	19.2754
1136.31	15.7248
1139.68	15.1519
1143.06	16.5686
1146.43	12.9758
1149.81	19.7676
1153.18	18.3516
1156.56	9.60132
1159.93	8.55176
1163.31	12.1516
1166.68	7.71777
1170.05	10.1052
1173.43	15.8062
1176.8	14.335
1180.18	14.9441
1183.55	20.5972
1186.93	13.8679
1190.3	15.5605
1193.68	15.1841
1197.05	17.1311
1200.43	14.3799
1203.8	15.6343
1207.18	16.4038
1210.55	14.5654
1213.93	20.1453
1217.3	13.1533
1220.68	4.58203
1224.05	5.24463
1227.43	17.5603
1230.8	7.65967
1234.18	7.14673
1237.55	5.87402
1240.92	1.19189
1244.3	0.577637
1247.67	1.19702
1251.05	0.055664
1254.42	9.3877
1257.8	9.30591
1261.17	5.08667
1264.55	14.7261
1267.92	7.81494
1271.3	3.80859
1274.67	1.47119
1278.05	17.9551
1281.42	9.5044
1284.8	0
