Measurement: Raman, 532 nm, unoriented, Raman Data Processed
Mineral: Orthoclase
Rruff sample: R150014
Ideal chemistry: KAlSi_3_O_8_
Locality: Locality: Cathedral Peak granite, near Toulumne meadows, Yosemite National Park, California, USA
Source: Jennifer Schmidt (LDP12-02)
Description: White to colorless, massive, in a granitic rock
Measured chemistry: (K_0.86_Na_0.14_)Al_1.01_Si_2.98_O_8_
Raman shift (cm-1)	intensity
89.7832	0
93.158	16.9182
96.5328	11.0362
99.9077	0.689316
103.282	1.63107
106.657	11.5887
110.032	45.5855
113.407	26.9906
116.782	17.9286
120.157	18.5386
123.531	19.8254
126.906	29.3428
130.281	18.5584
133.656	17.5981
137.031	20.6932
140.405	44.2459
143.78	72.3374
147.155	97.5696
150.53	158.885
153.905	231.807
157.28	240.122
160.654	158.458
164.029	94.4594
167.404	60.6356
170.779	42.0969
174.154	40.6872
177.528	41.4114
180.903	33.2574
184.278	15.5474
187.653	8.85193
191.028	6.55241
194.403	5.27261
197.777	12.1287
201.152	11.8395
204.527	4.33763
207.902	0.206848
211.277	1.23795
214.651	1.34022
218.026	0.163788
221.401	0.221436
224.776	0.095215
228.151	0.629059
231.525	0.053253
234.9	1.03444
238.275	3.93977
241.65	7.24666
245.025	11.5334
248.4	18.4934
251.774	27.3311
255.149	37.5333
258.524	51.0716
261.899	66.3637
265.274	81.3677
268.649	91.6086
272.023	94.7887
275.398	102.499
278.773	118.678
282.148	132.571
285.523	126.097
288.897	97.5098
292.272	70.7309
295.647	45.8412
299.022	35.4687
302.397	24.6571
305.772	15.264
309.146	12.5684
312.521	7.19939
315.896	6.62131
319.271	3.32401
322.646	3.00192
326.02	5.47075
329.395	6.04559
332.77	6.06728
336.145	3.46616
339.52	0.917786
342.894	0.874649
346.269	2.35126
349.644	0.526138
353.019	0.836533
356.394	5.15512
359.769	9.98581
363.143	14.4073
366.518	16.0642
369.893	20.5383
373.268	21.7505
376.643	15.2712
380.017	7.88167
383.392	5.25478
386.767	3.86824
390.142	5.73721
393.517	8.53397
396.892	15.1196
400.266	26.4847
403.641	38.7162
407.016	43.5558
410.391	34.4339
413.766	19.5021
417.14	8.08105
420.515	0.627609
423.89	1.61986
427.265	4.31081
430.64	1.80953
434.014	0.736465
437.389	5.33926
440.764	13.4683
444.139	24.7386
447.514	38.6717
450.889	59.6663
454.263	80.4213
457.638	92.0628
461.013	107.203
464.388	130.266
467.763	162.435
471.137	216.487
474.512	277.401
477.887	279.142
481.262	191.898
484.637	119.407
488.012	84.1722
491.386	66.5975
494.761	68.1252
498.136	88.242
501.511	135.422
504.886	203.076
508.26	313.308
511.635	461.418
515.01	542.058
518.385	392.102
521.76	205.193
525.135	107.132
528.509	60.9131
531.884	35.2182
535.259	23.0465
538.634	14.6442
542.009	8.58514
545.384	5.45151
548.758	4.72513
552.133	0.420258
555.508	0.265472
558.883	0.037476
562.258	1.72562
565.632	1.43222
569.007	1.03439
572.382	0.230713
575.757	1.44678
579.132	1.36896
582.506	1.17343
585.881	1.89111
589.256	1.32251
592.631	1.31012
596.006	1.0817
599.381	0.856049
602.755	0.969177
606.13	0.4776
609.505	2.02035
612.88	1.92551
616.255	2.82089
619.63	4.75705
623.004	5.74603
626.379	6.8938
629.754	7.33334
633.129	8.55731
636.504	6.52533
639.878	6.69614
643.253	7.72379
646.628	9.41031
650.003	10.2627
653.378	9.92282
656.752	9.52499
660.127	8.1716
663.502	5.22928
666.877	6.76288
670.252	2.97333
673.626	2.76205
677.001	2.05447
680.376	1.28055
683.751	0.258575
687.126	0.497375
690.501	1.00095
693.875	1.43503
697.25	0.321381
700.625	0.828552
704	0.907806
707.375	1.9249
710.75	2.77441
714.124	2.20663
717.499	4.08093
720.874	4.38928
724.249	5.64505
727.624	6.83847
730.998	8.08987
734.373	10.3547
737.748	15.7428
741.123	18.6994
744.498	22.4024
747.872	27.0855
751.247	27.1474
754.622	23.7457
757.997	20.0945
761.372	17.4447
764.747	15.2116
768.121	12.0688
771.496	9.90811
774.871	9.36758
778.246	4.73956
781.621	4.36758
784.995	4.27222
788.37	4.99594
791.745	4.0911
795.12	4.14771
798.495	5.8909
801.87	6.16492
805.244	6.20123
808.619	8.43512
811.994	5.96314
815.369	6.74796
818.744	6.71652
822.119	1.41312
825.493	1.39972
828.868	0.150421
832.243	2.41092
835.618	0.142151
838.993	3.78668
842.367	3.41623
845.742	3.76508
849.117	3.54901
852.492	3.39572
855.867	4.92883
859.241	4.45859
862.616	3.69592
865.991	3.19788
869.366	3.76099
872.741	3.99664
876.115	2.08984
879.49	1.76556
882.865	2.22327
886.24	3.61319
889.615	2.47015
892.99	1.21625
896.364	1.64923
899.739	1.25922
903.114	1.38666
906.489	0.334534
909.864	0.394836
913.239	0.528687
916.613	0.436798
919.988	1.08801
923.363	0.554443
926.738	0.923248
930.113	0.717926
933.487	0.607788
936.862	1.47879
940.237	0.494202
943.612	1.14026
946.987	0.902679
950.361	1.61316
953.736	0.597229
957.111	2.28186
960.486	0.785675
963.861	3.2905
967.236	3.83328
970.61	4.7608
973.985	4.96707
977.36	5.08578
980.735	5.41531
984.11	7.85941
987.485	8.81979
990.859	11.4876
994.234	11.9851
997.609	13.177
1000.98	14.031
1004.36	13.1235
1007.73	10.2782
1011.11	12.0211
1014.48	12.5247
1017.86	11.4197
1021.23	9.58139
1024.61	9.81262
1027.98	9.9183
1031.36	9.44113
1034.73	10.4631
1038.11	9.88876
1041.48	10.3662
1044.86	9.91876
1048.23	8.92306
1051.61	8.82095
1054.98	8.09552
1058.36	5.44806
1061.73	3.72864
1065.11	1.32629
1068.48	0.248352
1071.86	1.16113
1075.23	1.56049
1078.6	0.823792
1081.98	3.83994
1085.35	6.49979
1088.73	5.81226
1092.1	8.67233
1095.48	12.7296
1098.85	13.3203
1102.23	16.9587
1105.6	19.6609
1108.98	27.9673
1112.35	32.194
1115.73	42.7042
1119.1	53.6742
1122.48	62.8223
1125.85	63.4156
1129.23	58.9002
1132.6	52.7573
1135.98	49.0814
1139.35	42.8004
1142.73	35.9212
1146.1	29.5998
1149.48	20.8529
1152.85	16.3201
1156.22	12.7966
1159.6	8.78781
1162.97	7.32993
1166.35	4.28659
1169.72	3.31885
1173.1	3.33191
1176.47	2.74438
1179.85	1.70502
1183.22	1.68857
1186.6	1.57275
1189.97	0.64743
1193.35	0.059753
1196.72	1.01788
1200.1	0.805267
1203.47	0.278076
1206.85	0.37439
1210.22	1.28583
1213.6	0.716095
1216.97	0.408783
1220.35	0.85257
1223.72	2.26663
1227.1	0.377594
1230.47	2.94116
1233.85	0.745331
1237.22	2.31583
1240.6	1.02801
1243.97	1.60611
1247.35	3.65668
1250.72	2.36539
1254.1	2.15561
1257.47	3.9407
1260.85	2.54172
1264.22	2.56607
1267.59	0.303345
1270.97	0.197845
1274.34	3.23172
1277.72	0.462128
1281.09	0.630432
1284.47	1.28946
1287.84	1.2052
1291.22	1.43112
1294.59	0.771942
1297.97	0.293457
1301.34	0.60907
