Measurement: Raman, 532 nm, unoriented, Raman Data Processed
Mineral: Osumilite-(Mg)
Rruff sample: R141100
Ideal chemistry: KMg_2_(Al_5_Si_10_)O_30_
Locality: Weinberg, Nickenich, Eifel, Germany
Source: Ch. and H. Sch√§fer
Description: Light blue to colorless, short prismatic or tabular hexagonal crystals
Raman shift (cm-1)	intensity
89.7832	0
93.158	12.818
96.5328	6.09834
99.9077	3.15852
103.282	14.5492
106.657	28.3846
110.032	66.8979
113.407	83.6603
116.782	122.492
120.157	145.691
123.531	121.911
126.906	95.8369
130.281	64.8981
133.656	47.7828
137.031	22.8196
140.405	8.55824
143.78	5.43726
147.155	4.20079
150.53	9.43426
153.905	19.9684
157.28	51.4612
160.654	85.214
164.029	58.5376
167.404	15.2096
170.779	0.589294
174.154	3.01354
177.528	3.16473
180.903	2.5343
184.278	0.394241
187.653	5.56712
191.028	10.5416
194.403	10.5007
197.777	10.8449
201.152	7.54733
204.527	7.1026
207.902	7.86221
211.277	7.81421
214.651	9.56712
218.026	12.1863
221.401	13.172
224.776	14.5265
228.151	17.8084
231.525	17.4856
234.9	17.5506
238.275	16.754
241.65	18.5141
245.025	20.0579
248.4	23.062
251.774	26.0184
255.149	31.1127
258.524	40.3286
261.899	49.0828
265.274	61.1216
268.649	76.7115
272.023	97.4028
275.398	120.187
278.773	138.815
282.148	140.142
285.523	122.71
288.897	95.6115
292.272	70.6773
295.647	51.4553
299.022	36.2861
302.397	27.3248
305.772	19.9842
309.146	15.0039
312.521	11.4278
315.896	8.1944
319.271	6.13652
322.646	2.98631
326.02	2.33911
329.395	0.65773
332.77	0.451141
336.145	1.05661
339.52	0.157806
342.894	1.64075
346.269	0.02533
349.644	0.371475
353.019	0.246155
356.394	0.862854
359.769	4.24135
363.143	10.5988
366.518	17.5422
369.893	27.1393
373.268	39.2636
376.643	51.2799
380.017	61.6483
383.392	62.4998
386.767	58.7612
390.142	47.3359
393.517	35.0401
396.892	22.7011
400.266	15.4052
403.641	10.4874
407.016	4.9454
410.391	2.91036
413.766	1.15688
417.14	0.909973
420.515	2.5071
423.89	1.0941
427.265	5.11108
430.64	7.35626
434.014	10.1754
437.389	14.0144
440.764	19.158
444.139	29.6453
447.514	43.1545
450.889	65.5225
454.263	93.6705
457.638	135.042
461.013	188.594
464.388	253.566
467.763	323.027
471.137	393.878
474.512	442.316
477.887	430.261
481.262	347.259
484.637	239.556
488.012	149.239
491.386	89.6319
494.761	48.6454
498.136	24.9421
501.511	9.54823
504.886	1.68813
508.26	2.56496
511.635	1.66975
515.01	0.720352
518.385	4.19855
521.76	8.43698
525.135	15.5047
528.509	22.4553
531.884	32.4831
535.259	43.5132
538.634	59.422
542.009	76.8725
545.384	90.5693
548.758	91.1407
552.133	74.4118
555.508	51.2415
558.883	33.684
562.258	22.8403
565.632	15.1837
569.007	7.73329
572.382	4.38905
575.757	4.28366
579.132	1.95931
582.506	0.730286
585.881	0.157944
589.256	0.872711
592.631	0.439545
596.006	0.036407
599.381	2.37353
602.755	2.79962
606.13	5.4425
609.505	9.36035
612.88	15.1476
616.255	22.7863
619.63	32.4381
623.004	44.4394
626.379	55.2985
629.754	65.2861
633.129	69.2831
636.504	65.143
639.878	53.4509
643.253	38.4294
646.628	28.8274
650.003	22.6662
653.378	18.031
656.752	12.7101
660.127	12.1953
663.502	8.9827
666.877	5.74646
670.252	4.88159
673.626	3.09299
677.001	3.22342
680.376	1.07858
683.751	3.66815
687.126	0.430298
690.501	0.741943
693.875	1.06964
697.25	1.3884
700.625	1.46213
704	0.503784
707.375	0.456848
710.75	0.557953
714.124	0.205841
717.499	1.25427
720.874	0.479156
724.249	3.54306
727.624	4.11069
730.998	4.98169
734.373	6.07504
737.748	6.6351
741.123	9.2999
744.498	9.50085
747.872	10.0601
751.247	11.75
754.622	10.1136
757.997	9.58499
761.372	8.55243
764.747	7.98608
768.121	8.83072
771.496	8.27301
774.871	7.47025
778.246	6.56009
781.621	6.76428
784.995	7.64972
788.37	6.57153
791.745	4.65637
795.12	5.23907
798.495	4.80737
801.87	6.15851
805.244	6.35617
808.619	7.6763
811.994	5.7254
815.369	8.12164
818.744	8.9718
822.119	15.5602
825.493	14.1898
828.868	10.7165
832.243	7.07278
835.618	4.30701
838.993	1.66473
842.367	1.59692
845.742	2.04678
849.117	0.368591
852.492	1.74896
855.867	1.7298
859.241	1.86777
862.616	3.61658
865.991	1.82153
869.366	0.460419
872.741	1.14114
876.115	0.938141
879.49	0.453278
882.865	0.625244
886.24	0.560272
889.615	1.82376
892.99	2.75534
896.364	0.440155
899.739	0.088379
903.114	0.633972
906.489	0.124359
909.864	2.63913
913.239	2.13849
916.613	1.07611
919.988	3.24838
923.363	3.25915
926.738	1.68466
930.113	0.182526
933.487	1.62524
936.862	1.06097
940.237	0.015167
943.612	1.31686
946.987	1.58768
950.361	0.145691
953.736	2.30072
957.111	0.730286
960.486	1.06082
963.861	0.65033
967.236	2.69815
970.61	3.31009
973.985	4.98233
977.36	5.87799
980.735	5.47199
984.11	7.4613
987.485	5.43347
990.859	6.73166
994.234	5.27249
997.609	4.79779
1000.98	3.31427
1004.36	0.596405
1007.73	0.953735
1011.11	0.267517
1014.48	1.05557
1017.86	2.8176
1021.23	1.44571
1024.61	0.29953
1027.98	2.00873
1031.36	1.05762
1034.73	2.95871
1038.11	5.189
1041.48	7.11487
1044.86	10.0435
1048.23	11.2195
1051.61	15.693
1054.98	18.4366
1058.36	24.8119
1061.73	27.2588
1065.11	28.2384
1068.48	26.5774
1071.86	20.2036
1075.23	15.3933
1078.6	7.11697
1081.98	3.36298
1085.35	2.73181
1088.73	0.884888
1092.1	1.54691
1095.48	1.85617
1098.85	1.29465
1102.23	0.665375
1105.6	1.60202
1108.98	3.66147
1112.35	6.36682
1115.73	8.9122
1119.1	12.3102
1122.48	13.402
1125.85	13.4307
1129.23	14.5619
1132.6	15.9163
1135.98	14.4049
1139.35	16.0277
1142.73	19.0297
1146.1	16.6803
1149.48	18.2544
1152.85	16.9033
1156.22	18.7615
1159.6	17.6683
1162.97	15.6496
1166.35	16.0782
1169.72	11.7503
1173.1	12.0042
1176.47	12.7226
1179.85	11.1623
1183.22	8.82358
1186.6	10.4098
1189.97	5.34155
1193.35	6.32208
1196.72	6.24545
1200.1	4.53046
1203.47	3.2096
1206.85	4.06589
1210.22	3.29541
1213.6	2.56018
1216.97	1.65659
1220.35	1.67065
1223.72	0.532684
1227.1	0.583679
1230.47	1.47378
1233.85	0.506042
1237.22	0.276031
1240.6	3.49634
1243.97	0.528717
1247.35	2.95978
1250.72	3.67145
1254.1	1.57211
1257.47	4.27151
1260.85	2.04343
1264.22	3.10703
1267.59	0.961609
1270.97	2.23993
1274.34	1.24145
1277.72	1.10492
1281.09	0.699646
1284.47	3.70764
1287.84	1.37213
1291.22	1.69055
1294.59	3.17371
1297.97	0.25061
1301.34	0.626953
