Measurement: Raman, 780 nm, unoriented, Raman Data Processed
Mineral: Osumilite-(Mg)
Rruff sample: R141100
Ideal chemistry: KMg_2_(Al_5_Si_10_)O_30_
Locality: Weinberg, Nickenich, Eifel, Germany
Source: Ch. and H. Sch√§fer
Description: Light blue to colorless, short prismatic or tabular hexagonal crystals
Raman shift (cm-1)	intensity
93.4884	0
96.8632	7.21771
100.238	1.23377
103.613	0.859253
106.988	12.3835
110.362	26.7589
113.737	45.6579
117.112	76.0259
120.487	97.331
123.862	93.6273
127.237	64.493
130.611	46.528
133.986	27.3499
137.361	11.1627
140.736	3.99866
144.111	1.66806
147.485	5.17816
150.86	3.82684
154.235	16.3008
157.61	40.9019
160.985	61.3954
164.359	44.0714
167.734	21.3722
171.109	18.0391
174.484	17.6186
177.859	20.4279
181.234	24.6974
184.608	27.0774
187.983	31.8267
191.358	33.8281
194.733	34.7805
198.108	32.2318
201.482	27.5555
204.857	21.9171
208.232	17.806
211.607	16.4714
214.982	15.578
218.357	16.5297
221.731	17.8203
225.106	18.984
228.481	22.072
231.856	20.5774
235.231	18.554
238.605	20.3277
241.98	18.485
245.355	15.9934
248.73	18.2342
252.105	16.1229
255.48	14.9041
258.854	16.1824
262.229	19.289
265.604	23.2455
268.979	26.5916
272.354	32.7388
275.728	37.9439
279.103	43.662
282.478	42.6152
285.853	36.0802
289.228	29.3937
292.602	21.8155
295.977	15.9867
299.352	11.6483
302.727	7.66371
306.102	7.46059
309.476	2.64243
312.851	1.15894
316.226	3.23836
319.601	1.36871
322.976	0.019913
326.351	2.2316
329.725	1.2747
333.1	0.202789
336.475	0.240158
339.85	0.186096
343.225	0.426758
346.599	1.30258
349.974	0.716064
353.349	1.20422
356.724	0.784561
360.099	0.081741
363.474	1.34051
366.848	3.36043
370.223	5.51184
373.598	8.93829
376.973	11.2066
380.348	13.8475
383.722	14.4051
387.097	14.8903
390.472	12.8396
393.847	10.5501
397.222	7.57561
400.596	5.49355
403.971	2.84703
407.346	3.95456
410.721	1.51379
414.096	1.13321
417.471	0.105072
420.845	0.663757
424.22	1.84586
427.595	4.40454
430.97	5.29324
434.345	6.95633
437.719	12.0413
441.094	15.0011
444.469	22.1225
447.844	32.3589
451.219	48.642
454.594	68.4182
457.968	97.3199
461.343	131.112
464.718	167.898
468.093	211.435
471.468	253.78
474.842	278.071
478.217	264.032
481.592	207.315
484.967	140.48
488.342	87.2495
491.716	52.6508
495.091	29.958
498.466	16.0864
501.841	5.97534
505.216	2.49115
508.591	0.529999
511.965	0.733124
515.34	0.634064
518.715	1.04321
522.09	1.79126
525.465	3.05084
528.84	5.02664
532.214	9.39081
535.589	12.8021
538.964	17.1245
542.339	20.8459
545.713	27.2894
549.088	26.0955
552.463	21.1936
555.838	14.9307
559.213	9.67981
562.588	6.25482
565.962	3.09396
569.337	1.64804
572.712	0.060577
576.087	0.689117
579.462	1.37119
582.837	0.297852
586.211	0.649048
589.586	0.285278
592.961	1.11075
596.336	0.204224
599.711	2.01105
603.085	2.56952
606.46	3.31274
609.835	5.38501
613.21	6.42779
616.585	9.77405
619.96	12.3397
623.334	15.1218
626.709	17.8106
630.084	18.9715
633.459	20.3837
636.833	20.6422
640.208	15.3986
643.583	12.8817
646.958	8.13831
650.333	6.29691
653.708	4.96182
657.082	4.49539
660.457	4.03174
663.832	3.78043
667.207	2.50558
670.582	2.10522
673.957	2.06162
677.331	0.274689
680.706	1.20346
684.081	0.447021
687.456	0.797607
690.831	2.09345
694.205	0.133911
697.58	0.599976
700.955	0.640228
704.33	1.41745
707.705	0.910126
711.079	1.10294
714.454	2.22562
717.829	1.37793
721.204	0.265472
724.579	0.230072
727.953	1.0437
731.328	1.77435
734.703	2.27405
738.078	2.47769
741.453	3.04748
744.828	3.06915
748.202	1.45785
751.577	2.61179
754.952	1.84906
758.327	3.00241
761.702	2.47192
765.077	2.38193
768.451	1.2775
771.826	2.31445
775.201	0.874817
778.576	1.32257
781.951	1.88406
785.325	2.37784
788.7	0.236664
792.075	1.94669
795.45	1.29205
798.825	0.305695
802.199	0.23645
805.574	2.81656
808.949	2.92554
812.324	2.8779
815.699	4.51846
819.073	6.10889
822.448	10.2375
825.823	13.3233
829.198	10.1244
832.573	3.89624
835.948	4.21426
839.322	2.67062
842.697	1.55695
846.072	2.97256
849.447	1.75101
852.822	1.78757
856.197	0.87146
859.571	1.00977
862.946	2.62976
866.321	1.14496
869.696	0.330933
873.071	2.06842
876.445	1.45996
879.82	1.13339
883.195	1.60055
886.57	1.03226
889.945	0.02887
893.319	0.576965
896.694	1.47308
900.069	0.332581
903.444	0.710022
906.819	1.11374
910.193	1.31287
913.568	0.749084
916.943	1.13196
920.318	1.33508
923.693	0.1203
927.068	0.958374
930.442	0.621277
933.817	0.057983
937.192	2.69327
940.567	0.241241
943.942	0.673553
947.317	0.250366
950.691	0.370697
954.066	1.29333
957.441	0.203491
960.816	0.468842
964.191	1.51102
967.565	2.08664
970.94	2.88074
974.315	3.06458
977.69	3.21612
981.065	3.30731
984.439	3.28696
987.814	2.79529
991.189	3.99789
994.564	4.28064
997.939	2.66998
1001.31	3.67413
1004.69	2.83145
1008.06	1.17621
1011.44	0.481628
1014.81	2.91833
1018.19	2.95801
1021.56	1.05753
1024.94	1.37686
1028.31	0.086334
1031.69	1.60309
1035.06	3.15497
1038.44	4.07871
1041.81	5.94244
1045.19	5.35751
1048.56	5.26425
1051.94	7.06912
1055.31	11.4971
1058.68	10.2266
1062.06	11.2053
1065.43	12.9993
1068.81	10.2467
1072.18	6.95547
1075.56	4.60541
1078.93	1.34164
1082.31	3.23892
1085.68	1.92304
1089.06	2.78375
1092.43	1.24808
1095.81	0.806549
1099.18	0.462494
1102.56	1.36939
1105.93	0.462219
1109.31	3.74237
1112.68	1.40634
1116.06	3.37643
1119.43	2.19354
1122.81	4.56149
1126.18	3.17273
1129.56	5.87711
1132.93	5.75732
1136.31	5.62225
1139.68	6.98514
1143.06	5.4787
1146.43	7.11203
1149.81	4.94589
1153.18	8.62576
1156.56	5.13834
1159.93	5.08231
1163.31	4.54309
1166.68	4.68588
1170.05	4.3118
1173.43	3.71701
1176.8	3.47232
1180.18	5.54974
1183.55	5.23288
1186.93	2.8866
1190.3	3.09784
1193.68	3.61658
1197.05	2.09815
1200.43	4.43558
1203.8	3.94199
1207.18	3.13089
1210.55	3.37765
1213.93	2.46936
1217.3	0.355499
1220.68	0.679169
1224.05	1.07861
1227.43	0.890228
1230.8	1.18793
1234.18	1.05035
1237.55	1.05423
1240.92	1.92954
1244.3	0.990784
1247.67	3.04105
1251.05	1.53009
1254.42	0.83078
1257.8	3.06107
1261.17	4.11298
1264.55	2.61673
1267.92	2.33997
1271.3	0.794373
1274.67	0.726715
1278.05	2.47476
1281.42	0.340485
1284.8	0
