Measurement: Raman, 780 nm, unoriented, Raman Data Processed
Mineral: Oxyphlogopite
Rruff sample: R141078
Ideal chemistry: K(Mg,Ti^4+^,Fe^3+^,Fe^2+^)_3_[(Si,Al)_4_O_10_](O,F)_2_
Locality: Graulay, Hillesheim, Eifel, Rhineland-Palatinate, Germany
Source: Ch. and H. Sch√§fer
Description: Dark brown to almost black platy crystals, associated with schorlomite, pyroxene, leucite and nepheline
Raman shift (cm-1)	intensity
93.4884	0
96.8632	2.76623
100.238	1.88135
103.613	6.03085
106.988	4.89056
110.362	5.09757
113.737	3.00641
117.112	5.64856
120.487	5.15128
123.862	9.67929
127.237	9.22302
130.611	13.2142
133.986	7.25574
137.361	6.89987
140.736	6.56097
144.111	0.80072
147.485	2.11029
150.86	4.13687
154.235	3.13617
157.61	8.88728
160.985	11.4307
164.359	15.1332
167.734	17.6707
171.109	18.0154
174.484	17.542
177.859	20.2566
181.234	23.0962
184.608	25.3931
187.983	34.0974
191.358	45.942
194.733	62.602
198.108	74.3543
201.482	68.8421
204.857	51.2644
208.232	36.0124
211.607	24.3323
214.982	19.5308
218.357	15.2567
221.731	12.1308
225.106	10.5863
228.481	8.72563
231.856	7.9017
235.231	4.59499
238.605	7.03609
241.98	5.05266
245.355	4.06561
248.73	4.33922
252.105	2.67227
255.48	1.86946
258.854	3.20517
262.229	3.81277
265.604	5.08047
268.979	4.93823
272.354	5.86607
275.728	5.38213
279.103	5.54286
282.478	3.55662
285.853	2.70175
289.228	1.94771
292.602	1.03455
295.977	1.21391
299.352	2.93785
302.727	4.65189
306.102	6.23074
309.476	6.18988
312.851	6.85669
316.226	7.31297
319.601	5.4632
322.976	4.92924
326.351	2.96576
329.725	1.28343
333.1	0.173828
336.475	0.830811
339.85	0.722382
343.225	0.964096
346.599	1.24464
349.974	1.28828
353.349	0.513428
356.724	1.05087
360.099	0.434341
363.474	2.7101
366.848	3.15094
370.223	3.27647
373.598	4.49318
376.973	2.76231
380.348	3.36052
383.722	5.08232
387.097	3.93724
390.472	6.22559
393.847	6.34724
397.222	5.89308
400.596	4.18669
403.971	5.44035
407.346	4.50299
410.721	2.91981
414.096	2.33531
417.471	1.92316
420.845	3.05974
424.22	1.46172
427.595	2.19325
430.97	1.55353
434.345	0.607574
437.719	0.183853
441.094	1.17548
444.469	1.35587
447.844	0.43251
451.219	0.400742
454.594	2.27495
457.968	1.46681
461.343	1.88596
464.718	1.47466
468.093	0.669205
471.468	0.27243
474.842	0.173264
478.217	0.283699
481.592	0.129494
484.967	2.11583
488.342	2.81132
491.716	3.96399
495.091	4.37964
498.466	4.14771
501.841	5.34982
505.216	4.53681
508.591	4.74223
511.965	5.03618
515.34	5.45809
518.715	5.96217
522.09	5.80405
525.465	4.2851
528.84	4.75893
532.214	4.76718
535.589	5.66542
538.964	4.40285
542.339	4.50642
545.713	4.56724
549.088	3.69708
552.463	4.19036
555.838	3.44649
559.213	2.96938
562.588	3.19709
565.962	2.19036
569.337	3.31473
572.712	2.64168
576.087	4.46598
579.462	4.40518
582.837	3.89601
586.211	4.91864
589.586	6.23882
592.961	6.36287
596.336	5.99165
599.711	3.89509
603.085	2.94627
606.46	1.71101
609.835	1.15627
613.21	0.072052
616.585	0.371513
619.96	0.244942
623.334	0.857391
626.709	0.792068
630.084	1.06194
633.459	1.9139
636.833	4.1356
640.208	5.49202
643.583	5.17974
646.958	5.11935
650.333	5.61109
653.708	5.51017
657.082	7.67577
660.457	9.2543
663.832	11.7218
667.207	16.1036
670.582	21.0352
673.957	29.1572
677.331	37.297
680.706	40.2556
684.081	34.668
687.456	26.8331
690.831	17.8019
694.205	11.079
697.58	6.8591
700.955	3.69899
704.33	1.17867
707.705	0.922256
711.079	0.668655
714.454	0.439804
717.829	0.480865
721.204	0.48716
724.579	1.17664
727.953	1.56691
731.328	2.31739
734.703	3.03252
738.078	4.06883
741.453	5.79323
744.828	7.63399
748.202	9.52689
751.577	11.1557
754.952	13.0201
758.327	12.4795
761.702	11.4481
765.077	11.136
768.451	9.96722
771.826	10.6495
775.201	9.58987
778.576	10.1857
781.951	10.7296
785.325	12.5126
788.7	13.754
792.075	15.5449
795.45	14.8668
798.825	13.9837
802.199	10.5573
805.574	9.40819
808.949	7.36963
812.324	5.0388
815.699	2.24812
819.073	1.64664
822.448	0.35685
825.823	0.617447
829.198	0.176437
832.573	0.032822
835.948	0.368324
839.322	0.350471
842.697	0.37735
846.072	0.008842
849.447	0.383392
852.822	0.256073
856.197	0.912422
859.571	0.963539
862.946	1.59638
866.321	1.11344
869.696	0.723015
873.071	1.01334
876.445	0.954834
879.82	0.597824
883.195	1.98513
886.57	0.992432
889.945	1.94356
893.319	1.47113
896.694	1.47247
900.069	1.96937
903.444	1.32932
906.819	2.1656
910.193	1.76886
913.568	3.11617
916.943	2.93224
920.318	3.0573
923.693	2.67545
927.068	3.01248
930.442	2.86306
933.817	4.26606
937.192	3.90189
940.567	4.04958
943.942	3.88699
947.317	2.89413
950.691	3.81133
954.066	4.50986
957.441	4.04141
960.816	5.79943
964.191	4.10642
967.565	3.7335
970.94	3.64553
974.315	3.76875
977.69	3.70563
981.065	2.65632
984.439	2.03963
987.814	0.426033
991.189	0.987488
994.564	0.566399
997.939	0.049629
1001.31	0.123177
1004.69	0.328972
1008.06	0.462349
1011.44	0.04435
1014.81	0.365547
1018.19	0.515297
1021.56	1.06253
1024.94	0.483406
1028.31	0.888832
1031.69	0.862114
1035.06	0.697906
1038.44	1.01896
1041.81	0.148575
1045.19	0.928955
1048.56	1.12182
1051.94	1.2129
1055.31	1.30508
1058.68	1.86713
1062.06	1.82714
1065.43	2.50412
1068.81	1.91261
1072.18	1.62974
1075.56	3.4987
1078.93	2.35268
1082.31	2.37442
1085.68	2.87455
1089.06	3.00794
1092.43	3.50592
1095.81	3.33636
1099.18	2.56364
1102.56	1.96983
1105.93	3.37672
1109.31	1.77602
1112.68	2.46197
1116.06	1.64996
1119.43	1.35458
1122.81	0.340393
1126.18	0.322525
1129.56	0.808578
1132.93	0.405746
1136.31	0.986328
1139.68	0.311386
1143.06	1.06557
1146.43	1.35008
1149.81	0.061958
1153.18	0.256706
1156.56	0.173317
1159.93	1.35288
1163.31	0.921715
1166.68	1.26474
1170.05	0.608177
1173.43	1.66847
1176.8	1.30608
1180.18	0.98555
1183.55	1.40778
1186.93	1.35925
1190.3	1.82786
1193.68	1.21559
1197.05	1.8606
1200.43	0.861877
1203.8	1.27898
1207.18	0.14502
1210.55	0.120102
1213.93	1.08744
1217.3	2.44135
1220.68	0.524406
1224.05	2.76092
1227.43	2.08012
1230.8	1.64394
1234.18	1.1739
1237.55	1.27985
1240.92	1.1958
1244.3	1.4758
1247.67	0.662498
1251.05	0.571861
1254.42	0.991882
1257.8	1.36906
1261.17	1.60799
1264.55	1.7785
1267.92	0.917885
1271.3	1.09448
1274.67	0.009842
1278.05	1.02445
1281.42	1.02457
1284.8	0
