Measurement: Raman, 532 nm, unoriented, Raman Data Processed
Mineral: Oxyphlogopite
Rruff sample: R141078
Ideal chemistry: K(Mg,Ti^4+^,Fe^3+^,Fe^2+^)_3_[(Si,Al)_4_O_10_](O,F)_2_
Locality: Graulay, Hillesheim, Eifel, Rhineland-Palatinate, Germany
Source: Ch. and H. Sch√§fer
Description: Dark brown to almost black platy crystals, associated with schorlomite, pyroxene, leucite and nepheline
Raman shift (cm-1)	intensity
89.7832	0
93.158	9.71562
96.5328	9.23176
99.9077	6.9833
103.282	8.11871
106.657	1.02835
110.032	8.97273
113.407	0.755089
116.782	3.81429
120.157	8.11583
123.531	5.00626
126.906	9.6843
130.281	6.54528
133.656	8.70744
137.031	4.924
140.405	6.35306
143.78	5.73957
147.155	3.27126
150.53	4.65256
153.905	3.38307
157.28	5.77942
160.654	2.2603
164.029	2.4553
167.404	2.55091
170.779	3.08963
174.154	3.56104
177.528	4.50282
180.903	8.28239
184.278	13.196
187.653	23.7209
191.028	38.3507
194.403	56.6061
197.777	76.2665
201.152	77.4036
204.527	57.0282
207.902	35.9998
211.277	23.3811
214.651	16.2138
218.026	11.8548
221.401	8.18886
224.776	4.72357
228.151	3.58502
231.525	1.87138
234.9	0.981705
238.275	0.465614
241.65	0.469963
245.025	0.525696
248.4	0.189438
251.774	0.266342
255.149	2.35091
258.524	3.76599
261.899	5.06469
265.274	8.15045
268.649	9.30705
272.023	11.3799
275.398	12.6238
278.773	12.7236
282.148	11.727
285.523	10.6056
288.897	9.59718
292.272	9.07928
295.647	8.99444
299.022	8.4223
302.397	9.78767
305.772	11.3722
309.146	10.981
312.521	11.7197
315.896	10.6022
319.271	8.06254
322.646	7.6485
326.02	5.35377
329.395	3.47963
332.77	2.56677
336.145	0.77121
339.52	0.203934
342.894	0.203186
346.269	0.16713
349.644	0.267715
353.019	0.289383
356.394	0.449333
359.769	0.148811
363.143	0.434662
366.518	0.558586
369.893	1.15288
373.268	1.561
376.643	2.79916
380.017	2.04388
383.392	2.20369
386.767	2.97478
390.142	2.87556
393.517	3.44513
396.892	3.50755
400.266	3.65898
403.641	3.41544
407.016	2.15839
410.391	3.05762
413.766	2.89137
417.14	2.81292
420.515	3.82336
423.89	3.79291
427.265	4.88546
430.64	4.16321
434.014	3.92625
437.389	3.96309
440.764	3.95999
444.139	3.81336
447.514	4.51919
450.889	3.43336
454.263	4.30351
457.638	3.23774
461.013	3.05698
464.388	3.18887
467.763	1.0807
471.137	0.378159
474.512	0.681412
477.887	0.829315
481.262	1.53151
484.637	0.204475
488.012	1.30923
491.386	2.1078
494.761	2.6547
498.136	3.25741
501.511	4.29291
504.886	5.74416
508.26	6.25285
511.635	7.97943
515.01	9.16457
518.385	11.0778
521.76	12.9157
525.135	16.1468
528.509	18.4047
531.884	20.8805
535.259	23.5014
538.634	25.214
542.009	27.0642
545.384	29.4964
548.758	31.3609
552.133	32.4405
555.508	33.52
558.883	33.5897
562.258	34.5622
565.632	34.1908
569.007	33.129
572.382	34.0381
575.757	35.2154
579.132	37.0144
582.506	37.0719
585.881	37.3804
589.256	37.2508
592.631	35.3545
596.006	32.0793
599.381	28.1711
602.755	21.7928
606.13	16.3008
609.505	11.9729
612.88	7.46083
616.255	4.9693
619.63	3.30933
623.004	1.94089
626.379	0.459496
629.754	0.330894
633.129	0.68943
636.504	0.891991
639.878	0.451599
643.253	0.219635
646.628	1.52998
650.003	0.542458
653.378	1.68279
656.752	2.30149
660.127	5.29298
663.502	9.66513
666.877	15.3624
670.252	23.1227
673.626	33.6301
677.001	44.2955
680.376	49.1423
683.751	44.4023
687.126	34.7207
690.501	22.0917
693.875	14.6885
697.25	6.63504
700.625	2.46079
704	0.705574
707.375	0.34111
710.75	0.635277
714.124	0.207199
717.499	0.951935
720.874	2.37191
724.249	2.2877
727.624	4.69803
730.998	7.19397
734.373	8.9129
737.748	12.2736
741.123	16.3542
744.498	21.2908
747.872	24.7483
751.247	29.8015
754.622	30.4425
757.997	32.2076
761.372	31.0278
764.747	30.1002
768.121	28.7721
771.496	28.2474
774.871	27.3376
778.246	28.7597
781.621	30.6676
784.995	34.219
788.37	35.4539
791.745	37.4564
795.12	37.0827
798.495	33.7102
801.87	27.9956
805.244	22.5566
808.619	17.3058
811.994	10.9426
815.369	7.37524
818.744	3.9902
822.119	1.85391
825.493	1.00166
828.868	0.095062
832.243	0.023972
835.618	0.207932
838.993	0.585274
842.367	0.249138
845.742	0.184753
849.117	0.354507
852.492	0.683907
855.867	0.72448
859.241	1.25665
862.616	1.59525
865.991	1.48562
869.366	2.2516
872.741	2.28529
876.115	3.24715
879.49	3.07866
882.865	4.19479
886.24	3.8786
889.615	4.24147
892.99	3.98537
896.364	3.23946
899.739	4.21953
903.114	4.27402
906.489	4.86578
909.864	3.76385
913.239	4.27689
916.613	4.8703
919.988	6.45831
923.363	6.84138
926.738	6.84419
930.113	6.72877
933.487	6.81215
936.862	7.58044
940.237	6.70608
943.612	8.15074
946.987	6.94861
950.361	7.89513
953.736	7.1559
957.111	8.41202
960.486	8.57951
963.861	8.67539
967.236	9.44005
970.61	9.39526
973.985	8.38043
977.36	6.37849
980.735	6.60287
984.11	3.74007
987.485	3.17843
990.859	1.74593
994.234	1.17577
997.609	1.04765
1000.98	0.795113
1004.36	0.631989
1007.73	0.095078
1011.11	0.681747
1014.48	0.365646
1017.86	0.236084
1021.23	0.370888
1024.61	0.246971
1027.98	0.238945
1031.36	0.468582
1034.73	0.732208
1038.11	1.06683
1041.48	1.539
1044.86	1.80622
1048.23	1.99147
1051.61	2.17172
1054.98	2.96094
1058.36	2.7368
1061.73	2.88045
1065.11	3.60175
1068.48	4.0219
1071.86	4.4481
1075.23	5.05484
1078.6	5.34413
1081.98	5.74297
1085.35	5.58403
1088.73	5.46542
1092.1	5.89383
1095.48	6.41198
1098.85	4.80039
1102.23	5.27209
1105.6	4.72611
1108.98	4.72668
1112.35	5.53831
1115.73	4.11934
1119.1	3.07809
1122.48	1.44365
1125.85	0.444237
1129.23	0.488007
1132.6	0.436829
1135.98	0.622849
1139.35	0.534859
1142.73	0.187721
1146.1	0.320961
1149.48	0.871826
1152.85	0.456276
1156.22	1.58329
1159.6	1.31584
1162.97	0.858162
1166.35	0.831635
1169.72	0.328629
1173.1	0.698402
1176.47	0.466293
1179.85	0.804924
1183.22	0.690666
1186.6	1.52287
1189.97	2.0489
1193.35	0.893303
1196.72	0.826477
1200.1	1.12134
1203.47	0.458557
1206.85	0.905479
1210.22	0.44603
1213.6	0.983643
1216.97	0.309654
1220.35	0.643066
1223.72	1.73401
1227.1	0.362564
1230.47	3.8e-05
1233.85	0.453835
1237.22	0.420654
1240.6	1.43049
1243.97	0.712883
1247.35	0.80262
1250.72	1.16613
1254.1	1.62711
1257.47	0.979965
1260.85	1.2089
1264.22	0.328293
1267.59	0.984093
1270.97	0.111359
1274.34	0.099388
1277.72	0.460075
1281.09	0.579399
1284.47	1.13545
1287.84	0.947685
1291.22	0.968552
1294.59	1.00075
1297.97	0.578598
1301.34	0.688286
