Measurement: Raman, 532 nm, unoriented, Raman Data Processed
Mineral: Oxy-schorl
Rruff sample: R140339
Ideal chemistry: Na(Fe^2+^_2_Al)Al_6_Si_6_O_18_(BO_3_)_3_(OH)_3_O
Locality: PÅ™ibyslavice, Bohemia, Czech Republic
Source: Bob Jenkins
Description: Black grains embedded in quartz and orthoclase
Raman shift (cm-1)	intensity
108.104	0
111.478	1.61285
114.853	22.6513
118.228	47.3319
121.603	52.3802
124.978	60.9984
128.352	62.6046
131.727	73.872
135.102	84.5054
138.477	100.441
141.852	124.877
145.227	122.689
148.601	120.712
151.976	113.731
155.351	106.854
158.726	102.25
162.101	94.0434
165.476	94.3546
168.85	85.6989
172.225	83.7526
175.6	82.7872
178.975	77.1883
182.35	72.8294
185.724	65.6546
189.099	59.1794
192.474	52.2778
195.849	51.8476
199.224	57.4766
202.599	66.6812
205.973	77.263
209.348	86.934
212.723	101.65
216.098	103.492
219.473	96.7195
222.847	82.4881
226.222	66.7247
229.597	49.476
232.972	33.5697
236.347	23.7903
239.721	15.7345
243.096	6.44461
246.471	1.79739
249.846	8.51526
253.221	7.07141
256.596	1.0625
259.97	6.09689
263.345	11.9458
266.72	15.9454
270.095	18.1624
273.47	16.3463
276.844	11.6792
280.219	9.57873
283.594	2.77066
286.969	3.93405
290.344	2.40329
293.719	0.674072
297.093	1.27319
300.468	0.947083
303.843	1.14004
307.218	2.80045
310.593	6.50336
313.967	8.51645
317.342	15.1103
320.717	18.6136
324.092	27.399
327.467	35.6433
330.842	45.4093
334.216	60.2934
337.591	66.3212
340.966	75.8351
344.341	79.5303
347.716	79.7475
351.091	74.0031
354.465	68.965
357.84	64.4028
361.215	65.1951
364.59	73.7237
367.964	89.3405
371.339	102.761
374.714	101.992
378.089	93.1402
381.464	82.8202
384.839	72.4527
388.213	63.3399
391.588	52.4296
394.963	43.943
398.338	39.2758
401.713	34.2754
405.087	30.6286
408.462	26.1798
411.837	23.9806
415.212	20.7239
418.587	18.5187
421.962	15.8857
425.336	9.51028
428.711	6.01282
432.086	1.59286
435.461	1.46475
438.836	1.3349
442.211	2.82178
445.585	1.20019
448.96	0.246124
452.335	0.443298
455.71	0.656311
459.085	3.03671
462.459	2.18997
465.834	3.13117
469.209	4.8418
472.584	4.27512
475.959	6.59814
479.334	9.38534
482.708	10.8198
486.083	12.6304
489.458	14.5173
492.833	13.5281
496.208	12.401
499.582	9.59638
502.957	6.68494
506.332	5.99161
509.707	3.69455
513.082	2.11844
516.457	0.999878
519.831	0.179718
523.206	0.691559
526.581	1.68243
529.956	1.88437
533.331	5.83209
536.705	9.60464
540.08	13.4254
543.455	22.0158
546.83	22.6189
550.205	21.8106
553.58	21.8731
556.954	22.6372
560.329	21.7879
563.704	21.8713
567.079	18.8267
570.454	17.4144
573.828	15.6966
577.203	15.6721
580.578	15.0005
583.953	15.655
587.328	15.9546
590.702	15.9734
594.077	15.7809
597.452	16.2072
600.827	13.7164
604.202	11.5653
607.577	11.8658
610.951	10.9566
614.326	10.6014
617.701	8.90726
621.076	10.0051
624.451	10.6509
627.825	7.69568
631.2	5.98801
634.575	3.47076
637.95	2.54407
641.325	0.940979
644.699	2.62128
648.074	1.48758
651.449	0.580261
654.824	2.64261
658.199	5.06845
661.574	10.4619
664.948	17.2597
668.323	19.5098
671.698	17.4625
675.073	12.579
678.448	7.5911
681.822	3.6694
685.197	0.248962
688.572	1.58789
691.947	0.924347
695.322	0.302856
698.697	0.103882
702.071	0.315552
705.446	2.45486
708.821	6.7106
712.196	12.9069
715.571	22.4123
718.946	25.7719
722.32	27.4864
725.695	25.5034
729.07	27.5588
732.445	34.6711
735.82	50.1193
739.194	70.799
742.569	89.1878
745.944	110.265
749.319	130.62
752.694	146.181
756.068	158.576
759.443	174.748
762.818	196.588
766.193	223.251
769.568	262.37
772.943	312.792
776.317	351.488
779.692	347.608
783.067	313.814
786.442	257.478
789.817	196.639
793.192	142.257
796.566	99.1651
799.941	80.2558
803.316	85.7631
806.691	100.921
810.066	104.536
813.44	91.9689
816.815	74.2877
820.19	59.3403
823.565	38.6612
826.94	21.261
830.314	10.2247
833.689	5.20535
837.064	1.76749
840.439	3.25874
843.814	0.054214
847.188	0.583954
850.563	1.85007
853.938	3.16156
857.313	2.51044
860.688	0.776535
864.063	0.787384
867.437	0.38887
870.812	1.13471
874.187	1.95073
877.562	2.68623
880.937	3.05965
884.312	4.69247
887.686	4.80882
891.061	7.91592
894.436	10.4274
897.811	12.8514
901.186	14.4228
904.56	18.0705
907.935	18.5381
911.31	18.1869
914.685	16.1975
918.06	15.6877
921.434	15.2339
924.809	13.4276
928.184	10.2098
931.559	10.5982
934.934	6.44472
938.309	4.77013
941.683	5.16212
945.058	4.24826
948.433	3.93665
951.808	5.46274
955.183	7.59821
958.558	8.66803
961.932	5.89084
965.307	5.63843
968.682	4.70383
972.057	4.43243
975.432	4.70306
978.806	4.40933
982.181	1.70416
985.556	3.97995
988.931	1.16833
992.306	0.500671
995.681	3.19168
999.055	0.114349
1002.43	1.10611
1005.8	1.392
1009.18	2.38156
1012.55	1.98862
1015.93	2.79407
1019.3	5.41925
1022.68	4.87793
1026.05	4.78574
1029.43	6.52377
1032.8	8.13101
1036.18	12.6178
1039.55	14.3712
1042.93	18.0089
1046.3	21.3701
1049.68	24.7365
1053.05	25.5504
1056.43	23.6142
1059.8	18.1834
1063.18	16.5611
1066.55	11.0278
1069.93	6.642
1073.3	3.47839
1076.68	0.997314
1080.05	1.12054
1083.43	0.271667
1086.8	1.15576
1090.17	0.491119
1093.55	1.16614
1096.92	2.59305
1100.3	4.67242
1103.67	5.68646
1107.05	7.23772
1110.42	9.38396
1113.8	8.72882
1117.17	8.51352
1120.55	7.94443
1123.92	5.89088
1127.3	4.25238
1130.67	2.01378
1134.05	1.37875
1137.42	0.279816
1140.8	0.73645
1144.17	0.702209
1147.55	1.25064
1150.92	0.800552
1154.3	1.67631
1157.67	1.94197
1161.05	2.53363
1164.42	2.33087
1167.8	2.2883
1171.17	2.28152
1174.55	2.98712
1177.92	1.41447
1181.3	2.80658
1184.67	2.82243
1188.05	2.48926
1191.42	2.08975
1194.8	0.731979
1198.17	1.27814
1201.54	0.19165
1204.92	0.914719
1208.29	0.167191
1211.67	1.62297
1215.04	0.511856
1218.42	0.505371
1221.79	1.9727
1225.17	0.776306
1228.54	0.631287
1231.92	1.90628
1235.29	6.21342
1238.67	1.76277
1242.04	1.4682
1245.42	2.81715
1248.79	4.43707
1252.17	4.07575
1255.54	3.91432
1258.92	4.54646
1262.29	3.79094
1265.67	2.64986
1269.04	3.47736
1272.42	3.69817
1275.79	1.22671
1279.16	0.777969
1282.54	0.218842
1285.91	0.96936
1289.29	2.3013
1292.66	1.37112
1296.04	1.03538
1299.41	0.964615
