Measurement: Raman, 532 nm, unoriented, Raman Data Processed
Mineral: Phillipsite-K
Rruff sample: R140774
Ideal chemistry: K_6_(Si_10_Al_6_)O_32_12H_2_O
Locality: Mt Vesuvius, Somma-Vesuvius Complex, Naples Province, Campania, Italy
Source: Ch. and H. Sch√§fer
Description: Radial aggregates of colorless prismatic crystals, associated with calcite
Raman shift (cm-1)	intensity
104.247	0
107.621	5.53281
110.996	27.057
114.371	30.5768
117.746	52.2357
121.121	56.3068
124.496	63.2935
127.87	65.8206
131.245	68.6571
134.62	63.3002
137.995	57.6166
141.37	59.8718
144.744	49.5519
148.119	42.444
151.494	35.1613
154.869	30.9533
158.244	22.2
161.619	9.98279
164.993	7.04791
168.368	1.01434
171.743	0.418152
175.118	2.22647
178.493	2.25278
181.868	3.13388
185.242	0.295593
188.617	5.06415
191.992	7.7059
195.367	11.6993
198.742	14.6237
202.116	16.0839
205.491	19.314
208.866	13.5941
212.241	13.7822
215.616	10.2865
218.99	9.19058
222.365	5.98203
225.74	4.04492
229.115	2.50034
232.49	0.999054
235.865	2.64539
239.239	3.03238
242.614	2.87894
245.989	1.46481
249.364	2.40543
252.739	4.91507
256.113	1.54086
259.488	1.97199
262.863	1.35861
266.238	2.1951
269.613	1.69891
272.988	4.86072
276.362	4.90619
279.737	6.15106
283.112	4.58176
286.487	6.11468
289.862	6.40936
293.236	7.15738
296.611	5.50644
299.986	6.28641
303.361	7.518
306.736	6.89447
310.111	10.2897
313.485	11.3002
316.86	10.5943
320.235	11.4665
323.61	11.7843
326.985	10.6872
330.359	9.11063
333.734	6.32715
337.109	6.42255
340.484	3.27429
343.859	4.99615
347.233	2.74832
350.608	1.38031
353.983	0.497162
357.358	0.647736
360.733	2.30743
364.108	0.457001
367.482	0.742615
370.857	3.09302
374.232	3.70511
377.607	0.927338
380.982	2.50394
384.356	4.51096
387.731	4.56226
391.106	5.36316
394.481	9.03955
397.856	11.4257
401.231	13.4742
404.605	21.9474
407.98	24.8761
411.355	32.4308
414.73	41.2835
418.105	49.0875
421.479	50.5063
424.854	51.0226
428.229	40.5037
431.604	32.6854
434.979	27.9884
438.354	27.3135
441.728	38.7919
445.103	48.5388
448.478	67.8972
451.853	89.3283
455.228	119.87
458.603	151.215
461.977	186.619
465.352	217.883
468.727	240.785
472.102	258.312
475.477	261.459
478.851	255.486
482.226	248.232
485.601	226.849
488.976	179.021
492.351	135.417
495.726	95.5756
499.1	63.5951
502.475	43.2901
505.85	29.3925
509.225	18.9068
512.6	14.5035
515.974	9.8169
519.349	5.80701
522.724	10.0176
526.099	8.17688
529.474	4.22479
532.848	5.52045
536.223	1.75891
539.598	0.586609
542.973	1.91718
546.348	1.12756
549.722	0.548828
553.097	2.81134
556.472	1.78223
559.847	0.318115
563.222	0.572876
566.597	0.050171
569.971	0.71405
573.346	1.19922
576.721	2.80182
580.096	3.95795
583.471	2.76538
586.846	5.55701
590.22	4.59595
593.595	3.86108
596.97	4.82623
600.345	4.71729
603.72	5.26099
607.094	7.81665
610.469	8.224
613.844	6.12317
617.219	5.82587
620.594	6.19659
623.968	3.68689
627.343	5.4632
630.718	5.48102
634.093	7.9823
637.468	9.95612
640.843	9.01831
644.217	7.1225
647.592	6.28717
650.967	7.89685
654.342	5.97064
657.717	6.22644
661.091	3.41272
664.466	6.46075
667.841	6.73914
671.216	4.66492
674.591	2.89838
677.966	0.310608
681.34	2.61572
684.715	2.74042
688.09	0.65741
691.465	1.32519
694.84	0.956909
698.215	0.525696
701.589	1.77881
704.964	0.965881
708.339	2.37146
711.714	3.02502
715.089	2.87317
718.463	4.34345
721.838	6.16339
725.213	7.41699
728.588	9.86432
731.963	9.63788
735.337	11.9795
738.712	9.97852
742.087	12.6565
745.462	11.336
748.837	15.3991
752.212	16.4402
755.586	13.4869
758.961	13.0155
762.336	14.9113
765.711	11.6586
769.086	9.06934
772.46	8.02801
775.835	6.64069
779.21	2.5777
782.585	4.83905
785.96	4.16186
789.335	0.625916
792.709	0.097534
796.084	3.81787
799.459	0.445618
802.834	2.79181
806.209	3.24878
809.583	7.08533
812.958	5.98932
816.333	5.41876
819.708	6.66455
823.083	7.51208
826.457	7.77521
829.832	3.87561
833.207	4.75519
836.582	5.61401
839.957	9.18762
843.332	9.22833
846.706	7.82636
850.081	5.75964
853.456	3.77862
856.831	5.12317
860.206	6.40399
863.581	4.09515
866.955	4.72778
870.33	3.8775
873.705	2.91772
877.08	2.89356
880.455	1.00244
883.829	0.812134
887.204	0.70343
890.579	2.90094
893.954	3.37714
897.329	0.240601
900.703	1.26532
904.078	3.44379
907.453	0.537476
910.828	0.680054
914.203	1.89624
917.578	1.54443
920.952	3.771
924.327	0.716553
927.702	1.4151
931.077	0.780762
934.452	1.63007
937.827	2.79791
941.201	0.159424
944.576	1.53534
947.951	0.580994
951.326	0.906982
954.701	2.40643
958.075	0.021667
961.45	0.757751
964.825	0.903809
968.2	1.48547
971.575	3.55335
974.949	3.37244
978.324	3.41644
981.699	2.96735
985.074	3.24475
988.449	4.08282
991.823	3.43897
995.198	2.03302
998.573	2.20783
1001.95	2.89301
1005.32	2.50519
1008.7	3.0777
1012.07	2.96558
1015.45	4.13373
1018.82	3.46674
1022.2	2.73199
1025.57	2.88379
1028.95	4.63178
1032.32	1.18231
1035.7	5.63354
1039.07	7.357
1042.45	7.75183
1045.82	6.40472
1049.19	4.29736
1052.57	2.76031
1055.94	5.62183
1059.32	1.27875
1062.69	3.11536
1066.07	6.04614
1069.44	6.60022
1072.82	9.9751
1076.19	5.72656
1079.57	8.10571
1082.94	11.7144
1086.32	13.3716
1089.69	14.5435
1093.07	13.3656
1096.44	11.1175
1099.82	12.3458
1103.19	14.9753
1106.57	13.6975
1109.94	14.8731
1113.32	21.8888
1116.69	20.4054
1120.07	15.7466
1123.44	13.8041
1126.82	12.2369
1130.19	10.7026
1133.57	8.76239
1136.94	8.52338
1140.32	5.32288
1143.69	7.16327
1147.07	0.911865
1150.44	2.87384
1153.82	7.57794
1157.19	4.56403
1160.56	2.52978
1163.94	1.80963
1167.31	2.80957
1170.69	1.13715
1174.06	0.128113
1177.44	2.71631
1180.81	3.06128
1184.19	4.00037
1187.56	3.74853
1190.94	8.53375
1194.31	2.7522
1197.69	3.0976
1201.06	1.9751
1204.44	0.609131
1207.81	5.42395
1211.19	5.50915
1214.56	1.09839
1217.94	5.62659
1221.31	6.56201
1224.69	7.65942
1228.06	6.0979
1231.44	6.51025
1234.81	5.11108
1238.18	5.47131
1241.56	8.60327
1244.93	7.88196
1248.31	9.1919
1251.68	12.6051
1255.06	9.86963
1258.43	8.37598
1261.81	8.05896
1265.18	5.67163
1268.56	4.74439
1271.93	0.773438
1275.31	3.76538
1278.68	0.447144
1282.06	1.69275
1285.43	2.77039
1288.81	2.23853
1292.18	3.52917
1295.56	3.80823
1298.93	0.895874
