Measurement: Raman, 532 nm, unoriented, Raman Data Processed
Mineral: Philipsbornite
Rruff sample: R150127
Ideal chemistry: Pb^2+^Al_3_(As^5+^O_4_)(As^5+^O_3_OH)(OH)_6_
Locality: Tsumeb mine, Tsumeb, Namibia
Source: Shields Flynn
Description: Aggregates of colorless cubic crystals with brown coating, associated with cuprian adamite
Measured chemistry: Pb_1.00_(Al_2.81_Fe_0.26_)_Î£=3.07_(As_0.96_O_4_)(AsO_3_OH)(OH)_6_
Raman shift (cm-1)	intensity
89.7832	0
93.158	57.9388
96.5328	40.3206
99.9077	8.90509
103.282	0.187988
106.657	8.96967
110.032	56.3455
113.407	51.5853
116.782	53.4435
120.157	46.4192
123.531	35.8588
126.906	47.3458
130.281	80.8732
133.656	125.441
137.031	142.152
140.405	192.344
143.78	220.909
147.155	263.827
150.53	316.853
153.905	357.088
157.28	299.421
160.654	147.639
164.029	31.0369
167.404	17.6495
170.779	36.5928
174.154	21.6016
177.528	18.0377
180.903	98.325
184.278	228.423
187.653	404.172
191.028	613.289
194.403	888.398
197.777	1208.34
201.152	1375.35
204.527	1214.95
207.902	839.683
211.277	501.766
214.651	299.228
218.026	203.794
221.401	187.791
224.776	207.179
228.151	217.309
231.525	188.336
234.9	149.38
238.275	124.626
241.65	145.942
245.025	203.873
248.4	290.003
251.774	398.525
255.149	529.814
258.524	639.415
261.899	639.454
265.274	518.909
268.649	336.134
272.023	191.002
275.398	98.245
278.773	45.3933
282.148	15.5352
285.523	15.3525
288.897	45.603
292.272	101.818
295.647	179.207
299.022	289.405
302.397	438.831
305.772	627.453
309.146	854.673
312.521	1083.37
315.896	1258.96
319.271	1290.02
322.646	1150.17
326.02	902.428
329.395	640.009
332.77	435.072
336.145	284.744
339.52	188.197
342.894	116.885
346.269	57.7333
349.644	18.7942
353.019	8.70764
356.394	18.1281
359.769	19.825
363.143	11.6984
366.518	4.69861
369.893	1.57227
373.268	12.806
376.643	23.2906
380.017	33.8562
383.392	43.0331
386.767	55.7833
390.142	59.7244
393.517	66.9083
396.892	90.0956
400.266	129.865
403.641	184.285
407.016	239.612
410.391	289.645
413.766	323.032
417.14	336.636
420.515	333.82
423.89	305.591
427.265	273.693
430.64	236.871
434.014	192.907
437.389	139.782
440.764	92.6874
444.139	53.8302
447.514	16.3704
450.889	1.99976
454.263	4.42664
457.638	4.24902
461.013	2.87976
464.388	18.1716
467.763	38.2299
471.137	70.9961
474.512	101.23
477.887	144.75
481.262	209.695
484.637	300.481
488.012	413.339
491.386	564.157
494.761	741.796
498.136	956.92
501.511	1222.91
504.886	1506.43
508.26	1795.08
511.635	2051.49
515.01	2215.15
518.385	2172.89
521.76	1906.18
525.135	1499.49
528.509	1080.97
531.884	725.4
535.259	466.082
538.634	291.75
542.009	174.535
545.384	101.464
548.758	62.7311
552.133	33.7402
555.508	5.84375
558.883	0.865601
562.258	4.63415
565.632	3.55603
569.007	5.26978
572.382	0.703003
575.757	7.93274
579.132	15.1403
582.506	28.4716
585.881	35.1836
589.256	44.7999
592.631	46.0953
596.006	53.2035
599.381	49.6145
602.755	47.6656
606.13	40.9154
609.505	42.9064
612.88	34.9318
616.255	27.1092
619.63	25.9737
623.004	20.375
626.379	21.1222
629.754	18.9321
633.129	11.3825
636.504	7.14148
639.878	3.9281
643.253	2.65332
646.628	0.044189
650.003	0.408325
653.378	0.909302
656.752	1.05127
660.127	5.9386
663.502	1.08215
666.877	9.81763
670.252	13.9813
673.626	17.3199
677.001	23.7711
680.376	33.0004
683.751	38.8567
687.126	55.194
690.501	60.7775
693.875	65.975
697.25	61.7651
700.625	63.4393
704	56.5681
707.375	50.1975
710.75	39.5236
714.124	26.7342
717.499	14.3742
720.874	13.9255
724.249	19.0955
727.624	44.031
730.998	70.8818
734.373	109.89
737.748	138.848
741.123	163.813
744.498	162.711
747.872	153.528
751.247	138.984
754.622	125.934
757.997	117.494
761.372	105.139
764.747	97.1433
768.121	66.2356
771.496	44.0066
774.871	16.3047
778.246	6.25037
781.621	26.4056
784.995	35.1243
788.37	33.5435
791.745	29.3694
795.12	14.9215
798.495	11.3141
801.87	49.2602
805.244	112.917
808.619	180.875
811.994	265.275
815.369	365.392
818.744	478.817
822.119	608.444
825.493	731.537
828.868	873.976
832.243	1020.92
835.618	1186.23
838.993	1388.61
842.367	1633.87
845.742	1928.2
849.117	2303.83
852.492	2789.75
855.867	3350.78
859.241	3937.24
862.616	4444.84
865.991	4796.08
869.366	5019.41
872.741	5124.12
876.115	5046.59
879.49	4818.09
882.865	4406.7
886.24	3884.16
889.615	3320.17
892.99	2793.54
896.364	2309.53
899.739	1861.83
903.114	1484.16
906.489	1164.95
909.864	907.64
913.239	695.696
916.613	537.135
919.988	416.522
923.363	315.464
926.738	220.736
930.113	145.394
933.487	93.6058
936.862	40.6169
940.237	1.07983
943.612	10.3528
946.987	17.4064
950.361	26.0122
953.736	25.827
957.111	24.5094
960.486	19.4713
963.861	1.51184
967.236	8.09998
970.61	14.0883
973.985	21.1038
977.36	30.2642
980.735	42.3606
984.11	46.8285
987.485	59.7455
990.859	63.1764
994.234	75.349
997.609	76.6238
1000.98	90.4296
1004.36	96.5081
1007.73	89.2859
1011.11	89.7965
1014.48	79.4742
1017.86	66.8254
1021.23	58.6058
1024.61	58.1565
1027.98	66.9872
1031.36	64.6215
1034.73	69.0311
1038.11	66.1201
1041.48	52.5623
1044.86	46.6495
1048.23	42.068
1051.61	38.6144
1054.98	31.0985
1058.36	29.8547
1061.73	20.6809
1065.11	19.8137
1068.48	20.2979
1071.86	20.0309
1075.23	16.7189
1078.6	13.4554
1081.98	14.2357
1085.35	18.8431
1088.73	17.1682
1092.1	12.6415
1095.48	10.9442
1098.85	14.721
1102.23	9.5791
1105.6	13.4662
1108.98	9.3241
1112.35	7.1366
1115.73	3.06018
1119.1	0.881592
1122.48	5.14307
1125.85	1.98804
1129.23	1.59753
1132.6	4.11084
1135.98	4.05957
1139.35	0.308716
1142.73	0.250977
1146.1	0.907104
1149.48	1.32324
1152.85	12.071
1156.22	10.9686
1159.6	6.18176
1162.97	6.29944
1166.35	3.73193
1169.72	4.48755
1173.1	6.4762
1176.47	8.68933
1179.85	10.3298
1183.22	7.73035
1186.6	11.6221
1189.97	14.3518
1193.35	19.5514
1196.72	5.84924
1200.1	4.18152
1203.47	2.98633
1206.85	5.01587
1210.22	7.31152
1213.6	3.77356
1216.97	4.20496
1220.35	1.72559
1223.72	3.52917
1227.1	4.95373
1230.47	0.481445
1233.85	1.57458
1237.22	5.05859
1240.6	10.0761
1243.97	10.8223
1247.35	10.1824
1250.72	10.945
1254.1	11.418
1257.47	12.1737
1260.85	4.48364
1264.22	5.30676
1267.59	12.2756
1270.97	5.7063
1274.34	7.07361
1277.72	1.51648
1281.09	3.22717
1284.47	0.081665
1287.84	8.78638
1291.22	5.68579
1294.59	23.0505
1297.97	2.52136
1301.34	0.062866
