Measurement: Raman, 780 nm, unoriented, Raman Data Processed
Mineral: Philipsbornite
Rruff sample: R150127
Ideal chemistry: Pb^2+^Al_3_(As^5+^O_4_)(As^5+^O_3_OH)(OH)_6_
Locality: Tsumeb mine, Tsumeb, Namibia
Source: Shields Flynn
Description: Aggregates of colorless cubic crystals with brown coating, associated with cuprian adamite
Measured chemistry: Pb_1.00_(Al_2.81_Fe_0.26_)_Î£=3.07_(As_0.96_O_4_)(AsO_3_OH)(OH)_6_
Raman shift (cm-1)	intensity
93.9705	0
97.3453	30.6057
100.72	22.7529
104.095	73.1309
107.47	123.998
110.845	142.824
114.219	47.519
117.594	11.0007
120.969	10.9778
124.344	8.23828
127.719	35.1934
131.094	44.3884
134.468	100.825
137.843	130.72
141.218	163.338
144.593	190.02
147.968	225.927
151.342	255.318
154.717	290.785
158.092	238.831
161.467	119.389
164.842	44.678
168.216	1.84863
171.591	17.366
174.966	9.25415
178.341	7.28076
181.716	32.865
185.09	77.1116
188.465	134.025
191.84	216.769
195.215	319.412
198.59	410.041
201.965	466.94
205.339	405.066
208.714	277.982
212.089	174.832
215.464	123.557
218.839	100.444
222.214	110.133
225.588	126.313
228.963	133.117
232.338	120.667
235.713	105.908
239.088	104.074
242.462	120.428
245.837	147.7
249.212	194.185
252.587	244.957
255.962	287.417
259.336	341.845
262.711	333.221
266.086	268.346
269.461	181.816
272.836	112.659
276.211	61.9949
279.585	37.8784
282.96	12.4834
286.335	20.4487
289.71	36.7117
293.085	39.606
296.459	85.1404
299.834	133.329
303.209	179.762
306.584	245.929
309.959	312.841
313.334	388.065
316.708	438.098
320.083	442.2
323.458	394.211
326.833	315.157
330.207	214.416
333.582	145.132
336.957	106.161
340.332	63.8911
343.707	33.897
347.082	16.5349
350.456	5.41113
353.831	7.59082
357.206	8.86841
360.581	4.43652
363.956	4.85278
367.33	4.75122
370.705	8.51733
374.08	8.60571
377.455	7.43848
380.83	16.8748
384.205	20.396
387.579	28.7598
390.954	34.4929
394.329	52.2478
397.704	57.8364
401.079	81.1499
404.453	107.006
407.828	127.584
411.203	148.562
414.578	165.237
417.953	164.356
421.327	171.357
424.702	161.996
428.077	145.935
431.452	135.974
434.827	110.244
438.202	68.3892
441.576	47.1638
444.951	21.1555
448.326	10.3423
451.701	2.41357
455.076	2.41382
458.45	1.79199
461.825	1.05713
465.2	1.05176
468.575	12.2275
471.95	11.8062
475.325	25.7646
478.699	29.7971
482.074	55.2742
485.449	81.4089
488.824	109.472
492.199	147.781
495.573	192.06
498.948	252.141
502.323	318.308
505.698	380.993
509.073	474.181
512.447	537.738
515.822	569.773
519.197	558.414
522.572	484.916
525.947	378.27
529.322	278.009
532.696	177.337
536.071	110.528
539.446	65.532
542.821	34.9739
546.196	18.7217
549.57	1.76147
552.945	2.46509
556.32	2.93994
559.695	1.86865
563.07	0.621582
566.444	6.13696
569.819	0.527344
573.194	0.164063
576.569	10.6057
579.944	14.782
583.319	10.6077
586.693	17.1736
590.068	8.00415
593.443	24.0757
596.818	24.9338
600.193	27.165
603.567	29.1394
606.942	24.1941
610.317	27.179
613.692	28.4924
617.067	30.7788
620.442	19.7817
623.816	15.8652
627.191	14.3262
630.566	5.44067
633.941	16.5427
637.316	8.40771
640.69	9.09009
644.065	3.53369
647.44	0.362549
650.815	4.51538
654.19	0.468018
657.564	3.3562
660.939	1.14819
664.314	1.36841
667.689	2.41821
671.064	0.61499
674.439	6.95972
677.813	3.28223
681.188	6.59106
684.563	14.1897
687.938	14.988
691.313	22.3586
694.688	17.8335
698.062	14.2131
701.437	12.529
704.812	15.1472
708.187	6.50513
711.562	10.7529
714.936	7.72656
718.311	8.72119
721.686	3.927
725.061	5.76587
728.436	11.2476
731.81	20.8193
735.185	36.8015
738.56	47.6428
741.935	42.4402
745.31	48.5107
748.684	38.9481
752.059	35.3492
755.434	41.6636
758.809	34.545
762.184	25.7617
765.559	20.0571
768.933	16.4095
772.308	10.8302
775.683	1.80249
779.058	5.24231
782.433	9.01929
785.808	17.1809
789.182	6.69275
792.557	6.16016
795.932	0.474609
799.307	6.37231
802.682	9.57129
806.056	33.1294
809.431	53.1665
812.806	62.064
816.181	95.5193
819.556	123.171
822.93	158.489
826.305	187.796
829.68	215.239
833.055	252.578
836.43	294.615
839.804	335.238
843.179	382.624
846.554	447.778
849.929	529.214
853.304	623.199
856.679	729.734
860.053	845.787
863.428	945.262
866.803	1034.63
870.178	1048.89
873.553	1068.01
876.927	1041.44
880.302	993.985
883.677	910.593
887.052	802.968
890.427	680.223
893.802	576.545
897.176	469.047
900.551	389.792
903.926	306.508
907.301	234.236
910.676	191.305
914.05	147.399
917.425	110.43
920.8	82.7047
924.175	57.7874
927.55	46.0494
930.924	27.3339
934.299	14.4541
937.674	9.18726
941.049	3.0354
944.424	6.08362
947.799	10.544
951.173	8.84216
954.548	3.40369
957.923	4.6029
961.298	0.11377
964.673	1.30493
968.047	0.70813
971.422	2.65308
974.797	1.72119
978.172	0.842529
981.547	11.0088
984.922	12.338
988.296	21.3528
991.671	16.3466
995.046	26.1151
998.421	25.2239
1001.8	23.6332
1005.17	26.9888
1008.54	24.0391
1011.92	26.1542
1015.29	24.1837
1018.67	26.104
1022.04	28.4805
1025.42	24.5663
1028.79	23.1117
1032.17	20.3727
1035.54	21.4166
1038.92	27.1612
1042.29	26.7533
1045.67	15.5402
1049.04	13.8871
1052.42	10.1294
1055.79	11.1691
1059.17	17.2197
1062.54	14.1737
1065.92	20.3076
1069.29	21.2422
1072.67	16.7365
1076.04	13.9569
1079.42	16.0511
1082.79	15.1669
1086.17	16.6583
1089.54	10.6643
1092.92	11.8332
1096.29	5.77112
1099.66	3.98547
1103.04	6.26648
1106.41	8.44238
1109.79	11.4093
1113.16	5.52869
1116.54	0.808228
1119.91	2.44861
1123.29	1.99475
1126.66	2.82446
1130.04	1.48474
1133.41	3.04248
1136.79	3.41394
1140.16	14.4413
1143.54	3.99817
1146.91	10.4131
1150.29	11.7638
1153.66	6.16577
1157.04	6.66724
1160.41	1.55139
1163.79	9.32178
1167.16	10.7035
1170.54	11.7644
1173.91	11.6182
1177.29	12.1989
1180.66	12.4009
1184.04	11.6329
1187.41	10.381
1190.79	7.41492
1194.16	8.17212
1197.54	14.3926
1200.91	10.3531
1204.28	11.2949
1207.66	6.56409
1211.03	3.39502
1214.41	3.61072
1217.78	0.47229
1221.16	0.237305
1224.53	6.66138
1227.91	3.13574
1231.28	4.24292
1234.66	9.8457
1238.03	3.25952
1241.41	0.53064
1244.78	3.35327
1248.16	1.81421
1251.53	2.95459
1254.91	0.98584
1258.28	4.86072
1261.66	5.09448
1265.03	4.68689
1268.41	11.7614
1271.78	3.39209
1275.16	3.02771
1278.53	4.26331
1281.9	8.23523
