Measurement: Raman, 532 nm, unoriented, Raman Data Processed
Mineral: Plumbonacrite
Rruff sample: R160063
Ideal chemistry: Pb^2+^_5_(CO_3_)_3_O(OH)_2_
Locality: Mammoth mine, Tiger, Pinal County, Arizona, USA
Source: University of Arizona Mineral Museum
Description: White massive crystals, associated with deep blue boleite, blue diaboleite, and pale bluish leadhillite
Raman shift (cm-1)	intensity
90.2653	0
93.6401	158.022
97.0149	642.035
100.39	1528.78
103.765	2605.61
107.139	2185.14
110.514	784.394
113.889	188.606
117.264	264.141
120.639	385.731
124.013	186.743
127.388	11.5498
130.763	80.8843
134.138	167.383
137.513	150.2
140.888	185.656
144.262	368.535
147.637	588.325
151.012	728.059
154.387	665.925
157.762	377.199
161.137	77.0544
164.511	58.6132
167.886	44.8344
171.261	60.7784
174.636	196.545
178.011	279.512
181.385	242.655
184.76	125.955
188.135	23.1007
191.51	19.9614
194.885	6.10779
198.26	68.22
201.634	166.594
205.009	294.99
208.384	442.686
211.759	603.644
215.133	739.981
218.508	800.462
221.883	778
225.258	728.066
228.633	692.156
232.008	604.169
235.382	496.051
238.757	416.854
242.132	363.102
245.507	314.633
248.882	241.584
252.256	164.203
255.631	98.3453
259.006	58.5954
262.381	29.5661
265.756	14.9108
269.131	4.02725
272.505	1.96042
275.88	0.888672
279.255	1.39331
282.63	0.393738
286.005	4.36325
289.38	6.85468
292.754	7.37122
296.129	9.94766
299.504	9.69513
302.879	10.5887
306.254	13.1171
309.628	15.5873
313.003	18.0583
316.378	16.1632
319.753	16.4597
323.128	15.3597
326.502	13.7653
329.877	12.0973
333.252	10.5404
336.627	10.5086
340.002	9.48991
343.377	7.70583
346.751	6.13161
350.126	6.06673
353.501	7.17821
356.876	5.50211
360.251	4.70547
363.625	4.14418
367	4.90996
370.375	3.81306
373.75	2.80838
377.125	1.49513
380.5	1.04289
383.874	1.65921
387.249	0.258163
390.624	1.30539
393.999	2.09049
397.374	0.509598
400.748	0.634277
404.123	1.57812
407.498	0.644974
410.873	1.5693
414.248	0.085312
417.623	1.56375
420.997	2.09683
424.372	0.313141
427.747	3.72215
431.122	1.24059
434.497	3.94308
437.872	4.30508
441.246	3.27634
444.621	2.94897
447.996	2.87743
451.371	2.97463
454.745	2.88449
458.12	3.0253
461.495	1.17339
464.87	3.16361
468.245	4.07555
471.62	4.82907
474.994	4.81661
478.369	5.65341
481.744	7.12822
485.119	8.11594
488.494	11.1527
491.868	9.75001
495.243	10.0178
498.618	8.95013
501.993	9.65402
505.368	6.79733
508.743	6.66681
512.117	6.6861
515.492	3.62579
518.867	3.12239
522.242	1.12315
525.617	0.793594
528.991	2.65919
532.366	1.00685
535.741	2.17549
539.116	0.643188
542.491	0.203629
545.866	0.359192
549.24	1.33185
552.615	0.661102
555.99	1.41522
559.365	0.41452
562.74	1.94498
566.115	2.31251
569.489	2.70639
572.864	3.29825
576.239	3.45534
579.614	2.50511
582.989	5.6909
586.363	5.23001
589.738	5.03481
593.113	3.50418
596.488	2.19156
599.863	1.77975
603.237	1.19765
606.612	0.504822
609.987	0.936188
613.362	2.8223
616.737	7.20453
620.112	7.78824
623.486	10.88
626.861	14.6363
630.236	13.9442
633.611	15.4119
636.986	15.0534
640.361	9.41356
643.735	4.76888
647.11	2.13754
650.485	1.83322
653.86	0.645187
657.235	5.82169
660.609	17.7432
663.984	42.9907
667.359	92.5819
670.734	207.465
674.109	274.96
677.484	338.538
680.858	272.072
684.233	516.765
687.608	159.039
690.983	47.1695
694.357	68.363
697.732	107.651
701.107	16.6899
704.482	1.92751
707.857	1.48517
711.232	0.727829
714.606	0.975357
717.981	5.93248
721.356	12.0743
724.731	19.1219
728.106	22.155
731.481	21.2673
734.855	17.8869
738.23	14.1078
741.605	10.9229
744.98	8.45143
748.355	8.42743
751.729	5.22661
755.104	2.52937
758.479	2.55908
761.854	4.6371
765.229	3.39529
768.604	2.33702
771.978	4.88979
775.353	3.42851
778.728	6.12772
782.103	5.79825
785.478	4.46866
788.852	2.65094
792.227	2.6766
795.602	0.49762
798.977	0.746674
802.352	1.94879
805.726	0.027863
809.101	0.13623
812.476	1.77872
815.851	1.64871
819.226	2.66934
822.601	9.66953
825.975	29.5239
829.35	52.1936
832.725	86.5767
836.1	198.122
839.475	434.407
842.85	242.787
846.224	65.5885
849.599	22.8552
852.974	14.4358
856.349	9.01385
859.724	7.67697
863.098	6.63452
866.473	4.35895
869.848	8.14456
873.223	6.43356
876.598	4.18951
879.972	1.79611
883.347	1.52734
886.722	0.168518
890.097	0.918976
893.472	1.53586
896.847	0.23761
900.221	2.93137
903.596	0.745453
906.971	0.811798
910.346	1.25613
913.721	0.798553
917.096	2.09878
920.47	2.01001
923.845	6.05069
927.22	6.24954
930.595	5.22424
933.97	6.15268
937.344	6.72299
940.719	5.66278
944.094	3.1095
947.469	5.1149
950.844	3.90469
954.218	1.60843
957.593	0.499664
960.968	0.576752
964.343	1.01013
967.718	2.13724
971.092	0.248718
974.467	0.868927
977.842	0.459778
981.217	0.285095
984.592	2.69534
987.967	5.24539
991.341	4.89859
994.716	6.42337
998.091	17.7686
1001.47	7.14099
1004.84	10.2392
1008.22	7.07697
1011.59	6.70737
1014.97	5.0271
1018.34	6.55157
1021.72	10.9541
1025.09	18.715
1028.46	28.1627
1031.84	63.5036
1035.21	73.5317
1038.59	64.8719
1041.96	136.332
1045.34	734.261
1048.71	1860.55
1052.09	3752.46
1055.46	13063.6
1058.84	7073.25
1062.21	935.909
1065.59	167.487
1068.96	75.8329
1072.34	37.6226
1075.71	21.2611
1079.09	11.2899
1082.46	4.09677
1085.84	2.78033
1089.21	3.91351
1092.59	4.78766
1095.96	7.85324
1099.34	10.7091
1102.71	10.8607
1106.09	12.6443
1109.46	11.4945
1112.84	9.72037
1116.21	5.76862
1119.58	0.663818
1122.96	1.56516
1126.33	2.4599
1129.71	1.37402
1133.08	1.07382
1136.46	1.50082
1139.83	0.435425
1143.21	1.46793
1146.58	0.637726
1149.96	2.02896
1153.33	2.96976
1156.71	1.86511
1160.08	4.56702
1163.46	3.54373
1166.83	4.77008
1170.21	3.57864
1173.58	4.71646
1176.96	5.84561
1180.33	4.68445
1183.71	6.68887
1187.08	5.02936
1190.46	6.09332
1193.83	5.36688
1197.2	9.41644
1200.58	9.32034
1203.95	11.5821
1207.33	11.1232
1210.7	11.4372
1214.08	10.5648
1217.45	10.561
1220.83	9.21063
1224.2	8.03577
1227.58	5.71017
1230.95	5.27402
1234.33	3.7309
1237.7	0.752777
1241.08	1.03235
1244.45	0.381073
1247.83	0.351593
1251.2	1.51703
1254.58	5.6105
1257.95	3.93979
1261.33	6.08157
1264.7	5.61353
1268.08	8.15207
1271.45	7.91779
1274.83	9.56638
1278.2	7.18411
1281.58	3.92651
1284.95	3.94794
1288.33	3.49777
1291.7	1.2702
1295.08	3.9115
1298.45	0.210876
1301.83	0
