Measurement: Raman, 780 nm, unoriented, Raman Data Processed
Mineral: Plumbonacrite
Rruff sample: R160063
Ideal chemistry: Pb^2+^_5_(CO_3_)_3_O(OH)_2_
Locality: Mammoth mine, Tiger, Pinal County, Arizona, USA
Source: University of Arizona Mineral Museum
Description: White massive crystals, associated with deep blue boleite, blue diaboleite, and pale bluish leadhillite
Raman shift (cm-1)	intensity
91.5599	0
94.9347	151.933
98.3096	403.137
101.684	864.999
105.059	1100.77
108.434	600.506
111.809	202.095
115.184	99.452
118.558	131.1
121.933	92.6857
125.308	3.05579
128.683	27.8102
132.058	1.32483
135.433	8.51819
138.807	3.48468
142.182	56.3284
145.557	159.878
148.932	247.313
152.307	286.644
155.681	226.711
159.056	106.872
162.431	25.8445
165.806	1.84821
169.181	25.4166
172.555	82.9751
175.93	129.929
179.305	143.969
182.68	113.124
186.055	49.7513
189.43	8.49268
192.804	11.7844
196.179	5.99725
199.554	10.1265
202.929	39.8738
206.304	73.3963
209.678	114.264
213.053	157.094
216.428	189.368
219.803	201.833
223.178	200.894
226.553	200.345
229.927	191.423
233.302	167.021
236.677	143.244
240.052	126.695
243.427	116.371
246.801	104.092
250.176	81.5615
253.551	54.3537
256.926	31.7633
260.301	20.8875
263.675	13.3274
267.05	7.19977
270.425	4.73079
273.8	2.00137
277.175	2.0251
280.55	0.921951
283.924	4.73949
287.299	1.94636
290.674	4.02341
294.049	4.19551
297.424	5.1022
300.798	5.39366
304.173	3.89803
307.548	4.16175
310.923	5.5303
314.298	3.93886
317.673	4.76731
321.047	4.95813
324.422	3.23769
327.797	3.72147
331.172	1.82478
334.547	2.79459
337.921	1.50309
341.296	1.63924
344.671	1.4061
348.046	0.885185
351.421	0.006386
354.796	0.057541
358.17	0.642403
361.545	0.683395
364.92	1.27055
368.295	0.326675
371.67	0.061508
375.044	0.191803
378.419	0.011505
381.794	0.304749
385.169	0.390465
388.544	1.28573
391.918	0.020744
395.293	0.31636
398.668	0.488892
402.043	0.596054
405.418	1.73869
408.793	0.11171
412.167	0.216484
415.542	1.01936
418.917	0.506966
422.292	3.24223
425.667	2.81041
429.041	3.10519
432.416	4.29485
435.791	3.31997
439.166	2.93645
442.541	3.24576
445.915	2.03173
449.29	2.77428
452.665	1.66528
456.04	1.88882
459.415	1.99043
462.789	2.4276
466.164	1.10579
469.539	2.13377
472.914	2.90464
476.289	1.8919
479.664	2.646
483.038	2.57644
486.413	1.96428
489.788	2.68208
493.163	3.38565
496.538	2.43909
499.913	2.92557
503.287	3.14592
506.662	1.49085
510.037	3.02777
513.412	1.99056
516.787	1.57437
520.161	1.16534
523.536	2.1335
526.911	0.61343
530.286	2.23191
533.661	0.982288
537.035	1.293
540.41	1.02172
543.785	0.978786
547.16	1.83131
550.535	1.69783
553.909	1.68451
557.284	0.829636
560.659	0.891556
564.034	0.17617
567.409	1.40004
570.784	0.60323
574.158	0.855152
577.533	1.59269
580.908	1.25957
584.283	0.150394
587.658	0.583801
591.033	0.238091
594.407	0.083324
597.782	1.18248
601.157	0.536503
604.532	0.525391
607.907	0.979065
611.281	0.583397
614.656	0.265022
618.031	1.23121
621.406	1.03211
624.781	1.98191
628.155	2.54066
631.53	1.23613
634.905	1.48328
638.28	2.02479
641.655	0.731709
645.029	0.188969
648.404	0.94875
651.779	0.24818
655.154	1.06339
658.529	2.1652
661.904	3.87143
665.278	8.79472
668.653	26.4486
672.028	59.1435
675.403	79.4763
678.778	53.6737
682.153	71.432
685.527	84.6269
688.902	17.9316
692.277	9.63197
695.652	25.5504
699.027	18.3052
702.401	3.25733
705.776	0.116821
709.151	0.715744
712.526	0.768471
715.901	1.33258
719.275	0.101135
722.65	1.17326
726.025	2.01002
729.4	2.42986
732.775	3.15272
736.149	2.2226
739.524	2.59893
742.899	1.98806
746.274	1.03287
749.649	0.923725
753.024	0.24374
756.398	1.17122
759.773	0.924206
763.148	1.23645
766.523	2.12444
769.898	1.80801
773.273	0.864639
776.647	0.957249
780.022	0.573391
783.397	0.674278
786.772	1.07146
790.146	1.01497
793.521	0.587795
796.896	0.878277
800.271	0.468998
803.646	0.892307
807.021	1.1043
810.395	0.486835
813.77	0.490013
817.145	0.193336
820.52	1.1442
823.895	2.35163
827.269	3.81081
830.644	5.23262
834.019	11.6134
837.394	31.7945
840.769	54.3222
844.144	18.7452
847.518	6.67592
850.893	1.99811
854.268	2.12258
857.643	0.247025
861.018	1.47139
864.393	0.625851
867.767	2.55614
871.142	2.3405
874.517	1.04488
877.892	1.14571
881.266	0.796547
884.641	0.021519
888.016	1.19635
891.391	0.352779
894.766	0.222847
898.141	0.104591
901.515	0.088749
904.89	0.477787
908.265	1.60382
911.64	0.251148
915.015	1.32696
918.389	1.942
921.764	0.955421
925.139	1.63722
928.514	0.455547
931.889	1.69095
935.264	1.01776
938.638	2.9698
942.013	0.633614
945.388	0.549179
948.763	1.16294
952.138	1.53534
955.512	0.261612
958.887	0.059799
962.262	1.43215
965.637	0.435547
969.012	1.2896
972.386	0.168884
975.761	0.081673
979.136	0.750999
982.511	0.106842
985.886	0.214485
989.261	1.67711
992.635	0.458298
996.01	1.76834
999.385	1.55884
1002.76	1.32502
1006.13	0.336388
1009.51	1.00913
1012.88	1.19367
1016.26	0.972397
1019.63	0.686485
1023.01	0.564331
1026.38	0.129219
1029.76	4.48103
1033.13	11.3106
1036.51	6.62566
1039.88	7.96386
1043.26	21.8856
1046.63	56.6811
1050.01	179.252
1053.38	653.771
1056.76	1999.8
1060.13	422.225
1063.51	41.2237
1066.88	12.4255
1070.26	6.60023
1073.63	2.97112
1077.01	0.494957
1080.38	1.15146
1083.76	0.339485
1087.13	0.310493
1090.51	1.24778
1093.88	1.73024
1097.26	0.494644
1100.63	0.74398
1104	0.382149
1107.38	0.938599
1110.75	1.82447
1114.13	1.55986
1117.5	1.00066
1120.88	0.509621
1124.25	1.20538
1127.63	0.095337
1131	0.062172
1134.38	1.32848
1137.75	1.48183
1141.13	0.650017
1144.5	0.982224
1147.88	1.61499
1151.25	0.200882
1154.63	1.12336
1158	1.0884
1161.38	1.77687
1164.75	0.408188
1168.13	1.71002
1171.5	2.16075
1174.88	2.54627
1178.25	3.6421
1181.62	2.22195
1185	2.71423
1188.38	2.72373
1191.75	2.65347
1195.12	2.61652
1198.5	1.98355
1201.87	2.67378
1205.25	2.73377
1208.62	0.91214
1212	1.87753
1215.37	2.56903
1218.75	1.50626
1222.12	0.623428
1225.5	2.58155
1228.87	0.419724
1232.25	1.13006
1235.62	0.653625
1239	0.770439
1242.37	0.187134
1245.75	0.196594
1249.12	1.06795
1252.5	2.08119
1255.87	2.05923
1259.25	2.35229
1262.62	1.42076
1265.99	1.94929
1269.37	0.946129
1272.74	0.951462
1276.12	1.49046
1279.49	0.362793
1282.87	0.83326
