Measurement: Raman, 780 nm, unoriented, Raman Data Processed
Mineral: Pyroxferroite
Rruff sample: R141080
Ideal chemistry: Fe^2+^SiO_3_
Locality: Caspar quarry, Bellerberg volcano, Ettringen, Mayen, Eifel, Rhineland-Palatinate, Germany
Source: Ch. and H. Sch√§fer
Description: Red-brown isolated crystals, associated with colorless tridymite, sanidine, and clinoferrosilite (R141085). Crystal is twinned by 180 deg rotation around (111).
Raman shift (cm-1)	intensity
98.6707	0
102.046	3.36279
105.42	23.3818
108.795	1.6792
112.17	20.6121
115.545	57.3118
118.92	78.8117
122.294	62.9292
125.669	59.5915
129.044	46.0911
132.419	40.8622
135.794	34.3051
139.168	25.681
142.543	10.0433
145.918	6.05542
149.293	5.97278
152.668	0.376465
156.043	2.88696
159.417	7.099
162.792	14.0533
166.167	19.7283
169.542	21.4745
172.917	22.9434
176.292	27.9858
179.666	32.9949
183.041	29.6404
186.416	20.4487
189.791	19.3911
193.166	18.7465
196.54	20.8403
199.915	23.0873
203.29	34.432
206.665	32.6593
210.04	42.1505
213.415	56.1758
216.789	101.388
220.164	220.77
223.539	284.909
226.914	110.57
230.289	44.4519
233.663	25.8196
237.038	17.7734
240.413	21.9962
243.788	15.6155
247.163	2.64062
250.537	8.68042
253.912	7.04761
257.287	1.70154
260.662	4.35437
264.037	13.079
267.412	23.2743
270.786	26.2071
274.161	39.2571
277.536	62.8552
280.911	116.211
284.286	203.601
287.661	297.511
291.035	263.395
294.41	194.426
297.785	134.707
301.16	80.5964
304.535	49.1334
307.909	25.5204
311.284	19.6298
314.659	6.24939
318.034	7.56653
321.409	5.49988
324.784	15.9924
328.158	25.5516
331.533	40.5544
334.908	48.776
338.283	51.2137
341.658	64.5892
345.032	73.1595
348.407	76.0317
351.782	75.3578
355.157	75.585
358.532	79.3729
361.906	75.5752
365.281	75.0392
368.656	70.1239
372.031	60.366
375.406	52.9103
378.781	49.1138
382.155	52.338
385.53	53.7795
388.905	52.5507
392.28	62.2593
395.655	70.8948
399.029	90.6382
402.404	111.678
405.779	117.252
409.154	100.885
412.529	71.1908
415.904	44.0985
419.278	24.4788
422.653	13.2967
426.028	4.61694
429.403	6.32208
432.778	3.1319
436.152	5.37671
439.527	1.24561
442.902	2.74701
446.277	2.08429
449.652	1.24872
453.027	0.468079
456.401	4.13647
459.776	5.82764
463.151	0.724609
466.526	2.26679
469.901	8.57745
473.276	10.7825
476.65	12.1816
480.025	16.6808
483.4	15.8757
486.775	49.2268
490.15	38.9755
493.524	31.9158
496.899	37.513
500.274	42.7988
503.649	41.7318
507.024	50.8335
510.399	59.6901
513.773	59.8353
517.148	56.7581
520.523	48.4301
523.898	51.3973
527.273	46.9484
530.647	49.1451
534.022	62.6919
537.397	75.8886
540.772	86.9897
544.147	96.6643
547.521	99.6674
550.896	103.999
554.271	93.6672
557.646	89.5924
561.021	73.3602
564.396	60.5869
567.77	44.6008
571.145	34.2386
574.52	24.3446
577.895	19.3763
581.27	8.63135
584.644	0.000488
588.019	3.38348
591.394	3.62225
594.769	4.60053
598.144	4.07922
601.519	3.53107
604.893	10.845
608.268	12.5324
611.643	7.55212
615.018	4.22809
618.393	0.865356
621.768	3.84729
625.142	10.8919
628.517	24.9761
631.892	45.0911
635.267	63.8533
638.642	93.0346
642.016	132.447
645.391	183.741
648.766	260.789
652.141	340.376
655.516	431.703
658.89	522.904
662.265	616.469
665.64	681.986
669.015	678.413
672.39	605.268
675.765	483.942
679.139	362.191
682.514	259.565
685.889	196.056
689.264	152.4
692.639	124.906
696.014	109.574
699.388	98.9337
702.763	86.7212
706.138	75.9563
709.513	57.361
712.888	48.1177
716.262	33.3796
719.637	32.3094
723.012	28.1771
726.387	20.6049
729.762	18.258
733.136	11.2705
736.511	9.0603
739.886	7.56238
743.261	5.15961
746.636	1.67706
750.011	3.29352
753.385	5.9209
756.76	0.173767
760.135	4.59027
763.51	3.86292
766.885	1.63336
770.26	1.68951
773.634	1.81793
777.009	1.91492
780.384	1.97479
783.759	4.42072
787.134	6.46814
790.508	4.53271
793.883	5.26141
797.258	5.08502
800.633	10.6562
804.008	11.4645
807.383	7.85053
810.757	3.69891
814.132	20.1406
817.507	5.67896
820.882	3.89331
824.257	3.5896
827.631	4.02728
831.006	0.870789
834.381	2.05273
837.756	2.43579
841.131	7.87671
844.505	8.32831
847.88	7.40186
851.255	8.83807
854.63	8.04071
858.005	7.03955
861.38	7.25043
864.754	5.31104
868.129	4.05981
871.504	4.71191
874.879	3.77985
878.254	2.32062
881.629	2.13922
885.003	1.08704
888.378	2.57361
891.753	0.470947
895.128	4.33954
898.503	2.11035
901.877	1.24469
905.252	1.49676
908.627	0.692566
912.002	3.76544
915.377	6.4798
918.751	8.14783
922.126	13.8576
925.501	14.0619
928.876	25.891
932.251	32.2878
935.625	40.1645
939	46.988
942.375	54.4703
945.75	61.7127
949.125	74.0226
952.5	88.2684
955.875	109.918
959.249	140.859
962.624	178.582
965.999	232.287
969.374	267.511
972.749	303.077
976.123	318.913
979.498	332.95
982.873	340.926
986.248	338.255
989.623	327.024
992.997	318.776
996.372	291.334
999.747	258.776
1003.12	218.848
1006.5	185.212
1009.87	153.66
1013.25	128.276
1016.62	103.868
1020	74.8176
1023.37	58.4092
1026.75	37.9912
1030.12	30.1397
1033.49	21.208
1036.87	13.8162
1040.24	16.0899
1043.62	10.0891
1046.99	11.8608
1050.37	0.896667
1053.74	0.752625
1057.12	0.773865
1060.49	1.6394
1063.87	2.54327
1067.24	2.60864
1070.62	1.10468
1073.99	1.69348
1077.37	1.51294
1080.74	3.46417
1084.12	3.32312
1087.49	0.93512
1090.87	6.06744
1094.24	4.9458
1097.62	6.72571
1100.99	7.65198
1104.37	8.70679
1107.74	10.0446
1111.12	8.88275
1114.49	8.16254
1117.87	8.75659
1121.24	8.05225
1124.62	2.42365
1127.99	3.58722
1131.37	1.59686
1134.74	4.04443
1138.12	3.93738
1141.49	3.41284
1144.86	3.55347
1148.24	3.94696
1151.61	8.47199
1154.99	7.18433
1158.36	4.52911
1161.74	3.97943
1165.11	8.03363
1168.49	1.7514
1171.86	6.23383
1175.24	11.3263
1178.61	9.75348
1181.99	7.83533
1185.36	8.69482
1188.74	9.62286
1192.11	7.56403
1195.49	7.54834
1198.86	7.1416
1202.24	1.58484
1205.61	6.25354
1208.99	5.67157
1212.36	3.96863
1215.73	6.94788
1219.11	5.25647
1222.48	5.11646
1225.86	4.08972
1229.23	0.777466
1232.61	2.48804
1235.98	3.21612
1239.36	4.40442
1242.73	4.26532
1246.11	5.58521
1249.48	2.13678
1252.86	5.3443
1256.23	1.44977
1259.61	4.77795
1262.98	6.42718
1266.36	3.50238
1269.73	3.828
1273.11	3.89905
1276.48	4.0188
1279.86	2.37518
