Measurement: Raman, 532 nm, unoriented, Raman Data Processed
Mineral: Pyroxferroite
Rruff sample: R141080
Ideal chemistry: Fe^2+^SiO_3_
Locality: Caspar quarry, Bellerberg volcano, Ettringen, Mayen, Eifel, Rhineland-Palatinate, Germany
Source: Ch. and H. Sch√§fer
Description: Red-brown isolated crystals, associated with colorless tridymite, sanidine, and clinoferrosilite (R141085). Crystal is twinned by 180 deg rotation around (111).
Raman shift (cm-1)	intensity
98.7433	0
102.118	1.00455
105.493	14.2328
108.868	40.9223
112.243	77.309
115.617	139.505
118.992	176.609
122.367	178.367
125.742	158.162
129.117	165.097
132.492	168.026
135.866	168.349
139.241	168.761
142.616	137.793
145.991	120.527
149.365	107.763
152.74	101.09
156.115	93.9265
159.49	83.1906
162.865	77.1661
166.24	76.0826
169.614	69.5178
172.989	63.5385
176.364	61.2688
179.739	50.9221
183.114	40.5727
186.488	35.7101
189.863	26.1865
193.238	26.0853
196.613	27.0651
199.988	30.7466
203.363	28.658
206.737	30.0023
210.112	34.2851
213.487	30.7476
216.862	36.5874
220.237	42.6704
223.612	89.8419
226.986	52.6797
230.361	15.8731
233.736	5.4118
237.111	1.68823
240.486	1.26385
243.86	3.98923
247.235	0.158295
250.61	7.66449
253.985	7.60947
257.36	7.71845
260.735	0.586121
264.109	1.75745
267.484	3.46582
270.859	4.92947
274.234	7.97705
277.609	4.53601
280.983	9.04904
284.358	15.5989
287.733	41.9317
291.108	51.5226
294.483	42.8051
297.858	44.6137
301.232	39.1277
304.607	38.9817
307.982	31.1299
311.357	29.5218
314.732	28.4372
318.106	31.5439
321.481	36.1106
324.856	47.755
328.231	64.2012
331.606	80.5858
334.981	102.276
338.355	119.109
341.73	128.45
345.105	132.029
348.48	132.733
351.855	129.985
355.229	124.848
358.604	117.458
361.979	106.531
365.354	94.6154
368.729	84.8926
372.103	76.2688
375.478	69.7972
378.853	64.7067
382.228	67.8395
385.603	59.9696
388.978	56.0264
392.352	50.8538
395.727	43.6359
399.102	36.421
402.477	31.5559
405.852	28.23
409.226	20.7754
412.601	14.6275
415.976	9.16269
419.351	2.29504
422.726	0.166321
426.101	0.639313
429.475	3.12634
432.85	4.63272
436.225	5.02887
439.6	13.8802
442.975	3.33209
446.349	3.31757
449.724	5.74374
453.099	3.32172
456.474	0.071289
459.849	0.841125
463.224	1.75507
466.598	3.2265
469.973	7.55432
473.348	6.23889
476.723	7.70969
480.098	8.22266
483.473	9.76141
486.847	15.0321
490.222	20.3078
493.597	23.6559
496.972	29.1478
500.347	33.3423
503.721	35.1488
507.096	44.7408
510.471	53.7375
513.846	69.1933
517.221	80.5116
520.596	88.2618
523.97	94.5973
527.345	100.261
530.72	109.599
534.095	121.562
537.47	147.71
540.844	174.072
544.219	194.678
547.594	205.08
550.969	209.844
554.344	204.2
557.718	188.682
561.093	171.15
564.468	146.256
567.843	123.125
571.218	101.341
574.592	80.1042
577.967	66.2314
581.342	48.3484
584.717	36.922
588.092	22.4506
591.467	13.0303
594.841	4.33246
598.216	1.93549
601.591	5.07843
604.966	5.51959
608.341	3.85425
611.716	4.55426
615.09	3.92288
618.465	2.64963
621.84	8.69989
625.215	17.9865
628.59	29.1123
631.964	45.1737
635.339	67.8692
638.714	99.318
642.089	139.8
645.464	198.501
648.838	280.765
652.213	392.318
655.588	511.895
658.963	628.884
662.338	740.363
665.713	834.009
669.087	873.627
672.462	792.767
675.837	622.212
679.212	446.436
682.587	312.632
685.962	224.752
689.336	170.242
692.711	140.781
696.086	129.972
699.461	121.379
702.836	111.601
706.21	97.5185
709.585	82.7958
712.96	72.3832
716.335	61.6765
719.71	51.604
723.085	39.7435
726.459	27.1974
729.834	14.8341
733.209	9.58881
736.584	6.19202
739.959	3.11346
743.333	2.78732
746.708	0.610901
750.083	0.951752
753.458	3.15794
756.833	3.17598
760.207	1.99875
763.582	6.9285
766.957	9.53119
770.332	8.91312
773.707	9.52655
777.082	8.9834
780.456	8.28589
783.831	8.28661
787.206	3.39996
790.581	2.25214
793.956	0.207581
797.33	1.02313
800.705	0.63913
804.08	1.05623
807.455	0.207657
810.83	2.2166
814.205	0.834503
817.579	0.595139
820.954	1.05704
824.329	1.03198
827.704	1.08315
831.079	1.53442
834.453	2.61643
837.828	9.90154
841.203	11.8161
844.578	17.2404
847.953	20.1533
851.328	20.722
854.702	23.08
858.077	23.3501
861.452	25.4146
864.827	19.4325
868.202	20.0497
871.577	19.2268
874.951	12.1408
878.326	11.1132
881.701	8.04236
885.076	7.96844
888.451	3.96735
891.825	1.35916
895.2	6.76953
898.575	5.39142
901.95	2.61923
905.325	1.71472
908.699	4.71664
912.074	11.663
915.449	21.3924
918.824	28.4797
922.199	40.6236
925.573	50.0236
928.948	64.8542
932.323	74.6361
935.698	87.9362
939.073	98.2753
942.448	108.039
945.822	116.274
949.197	127.954
952.572	145.043
955.947	174.348
959.322	215.971
962.697	278.562
966.071	349.975
969.446	430.074
972.821	515.284
976.196	563.273
979.571	575.359
982.945	591.73
986.32	616.675
989.695	637.874
993.07	633.484
996.445	600.827
999.819	538.244
1003.19	459.054
1006.57	376.44
1009.94	308.375
1013.32	247.23
1016.69	192.145
1020.07	146.216
1023.44	106.129
1026.82	82.1381
1030.19	62.8738
1033.57	51.292
1036.94	38.9735
1040.32	31.43
1043.69	24.6297
1047.07	15.621
1050.44	10.7013
1053.82	7.25256
1057.19	3.1156
1060.57	1.79126
1063.94	4.18021
1067.32	4.88583
1070.69	6.96768
1074.07	5.50366
1077.44	2.75857
1080.82	0.368561
1084.19	0.434021
1087.57	6.24939
1090.94	3.46158
1094.31	10.4103
1097.69	15.0401
1101.06	19.2558
1104.44	22.4688
1107.81	23.8876
1111.19	23.885
1114.56	25.1147
1117.94	29.4004
1121.31	20.193
1124.69	18.1428
1128.06	14.2054
1131.44	10.5162
1134.81	7.95815
1138.19	8.00849
1141.56	6.16702
1144.94	3.52605
1148.31	4.02441
1151.69	5.20575
1155.06	2.74191
1158.44	4.00522
1161.81	3.17819
1165.19	4.89812
1168.56	5.32613
1171.93	5.45343
1175.31	6.57407
1178.68	6.0537
1182.06	7.13512
1185.43	6.13551
1188.81	6.98718
1192.18	6.36636
1195.56	8.31819
1198.93	7.99081
1202.31	6.30541
1205.68	4.96256
1209.06	4.74881
1212.43	2.66802
1215.81	4.62628
1219.18	5.65951
1222.56	4.66509
1225.93	4.17303
1229.31	4.09117
1232.68	3.15482
1236.06	1.95567
1239.43	0.78241
1242.81	0.470978
1246.18	1.86214
1249.56	0.965332
1252.93	0.387848
1256.31	1.48796
1259.68	2.26622
1263.06	0.812241
1266.43	0.685593
1269.81	0.466782
1273.18	3.28288
1276.56	0.74126
1279.93	0.240799
1283.3	1.72771
1286.68	0.871048
1290.05	0.100174
1293.43	1.89279
1296.8	0.270996
1300.18	0.345078
