Measurement: Raman, 780 nm, unoriented, Raman Data Processed
Mineral: Quartz
Rruff sample: R150091
Ideal chemistry: SiO_2_
Locality: unknown
Source: Michael Scott
Description: Polished and fragments
Raman shift (cm-1)	intensity
90.5957	0
93.9705	25.0126
97.3453	19.5474
100.72	8.12791
104.095	1.12085
107.47	6.92683
110.845	30.3931
114.219	48.9924
117.594	91.1653
120.969	167.129
124.344	330.43
127.719	711.237
131.094	650.513
134.468	161.956
137.843	52.8696
141.218	29.0349
144.593	17.7826
147.968	6.526
151.342	6.09415
154.717	1.32991
158.092	3.78253
161.467	3.00308
164.842	0.621643
168.216	10.2251
171.591	19.4432
174.966	32.9218
178.341	53.2056
181.716	80.8379
185.09	118.711
188.465	169.045
191.84	234.126
195.215	313.175
198.59	401.584
201.965	491.141
205.339	544.317
208.714	527.554
212.089	456.359
215.464	354.345
218.839	259.246
222.214	187.763
225.588	138.9
228.963	106.324
232.338	73.4558
235.713	59.0168
239.088	48.6471
242.462	37.2931
245.837	35.5954
249.212	32.6105
252.587	31.7377
255.962	33.8658
259.336	41.0178
262.711	61.885
266.086	76.7766
269.461	26.5823
272.836	10.0032
276.211	2.48428
279.585	0.191673
282.96	0.429359
286.335	0.105629
289.71	0.582222
293.085	0.236
296.459	0.694817
299.834	1.22882
303.209	0.08255
306.584	1.42001
309.959	1.09066
313.334	0.553535
316.708	0.59959
320.083	2.82987
323.458	2.86829
326.833	3.20137
330.207	3.50397
333.582	3.88154
336.957	7.86712
340.332	11.2737
343.707	14.9934
347.082	19.3589
350.456	35.9674
353.831	73.5455
357.206	112.036
360.581	27.0678
363.956	5.3122
367.33	0.947971
370.705	1.08154
374.08	1.58282
377.455	5.91723
380.83	16.7632
384.205	16.1935
387.579	20.7958
390.954	48.0363
394.329	104.695
397.704	75.8051
401.079	39.6368
404.453	7.49702
407.828	1.01633
411.203	2.80093
414.578	2.19626
417.953	2.34533
421.327	2.45925
424.702	0.493439
428.077	3.75475
431.452	7.16955
434.827	14.6016
438.202	23.9562
441.576	42.4122
444.951	79.5362
448.326	163.686
451.701	288.421
455.076	421.881
458.45	713.887
461.825	1269.08
465.2	1930.51
468.575	1435.24
471.95	664.312
475.325	343.605
478.699	206.858
482.074	140.068
485.449	98.0796
488.824	73.9877
492.199	53.3629
495.573	42.6053
498.948	31.1386
502.323	27.0931
505.698	18.6731
509.073	16.9851
512.447	16.5681
515.822	12.7638
519.197	7.78937
522.572	8.18271
525.947	5.39503
529.322	4.0827
532.696	3.34007
536.071	4.11095
539.446	2.84089
542.821	2.79878
546.196	2.34847
549.57	1.03789
552.945	1.48467
556.32	0.512234
559.695	1.42122
563.07	1.72014
566.444	1.4726
569.819	0.460384
573.194	0.840878
576.569	0.061192
579.944	1.47181
583.319	2.83199
586.693	3.53775
590.068	1.88002
593.443	3.03381
596.818	2.02591
600.193	1.82275
603.567	2.88221
606.942	2.76229
610.317	2.47079
613.692	2.93255
617.067	2.84095
620.442	2.22991
623.816	1.4018
627.191	3.67541
630.566	1.14568
633.941	2.55598
637.316	1.4591
640.69	1.5042
644.065	3.25714
647.44	2.20342
650.815	0.706642
654.19	1.18714
657.564	0.606655
660.939	1.47564
664.314	0.2911
667.689	1.68211
671.064	2.24227
674.439	1.34379
677.813	2.3893
681.188	5.15551
684.563	7.21265
687.938	10.853
691.313	16.597
694.688	27.2559
698.062	29.0074
701.437	16.9771
704.812	7.44632
708.187	5.09994
711.562	2.94948
714.936	2.13092
718.311	2.67001
721.686	0.157841
725.061	0.05983
728.436	1.33628
731.81	0.699001
735.185	0.091942
738.56	0.700539
741.935	1.09607
745.31	0.078869
748.684	0.238041
752.059	0.26627
755.434	2.60095
758.809	0.202847
762.184	0.637909
765.559	0.340523
768.933	0.935852
772.308	2.13406
775.683	1.32579
779.058	1.17694
782.433	3.88634
785.808	8.12124
789.182	9.56304
792.557	13.6861
795.932	19.4978
799.307	20.7044
802.682	19.3968
806.056	12.4857
809.431	11.4104
812.806	7.00203
816.181	4.46099
819.556	3.19011
822.93	2.36146
826.305	1.70938
829.68	2.95298
833.055	1.64387
836.43	3.96058
839.804	2.68362
843.179	4.12246
846.554	1.55073
849.929	3.83303
853.304	3.17368
856.679	0.696815
860.053	2.50319
863.428	2.6238
866.803	2.2346
870.178	1.71565
873.553	1.13868
876.927	2.4921
880.302	0.123028
883.677	1.09024
887.052	1.57575
890.427	2.46361
893.802	1.93921
897.176	1.03611
900.551	0.064072
903.926	0.933788
907.301	0.883404
910.676	0.91272
914.05	0.418228
917.425	0.793755
920.8	1.14569
924.175	1.46504
927.55	1.61807
930.924	0.341461
934.299	0.475224
937.674	0.016819
941.049	1.50177
944.424	1.89062
947.799	0.827633
951.173	0.126423
954.548	0.840124
957.923	1.75714
961.298	2.03193
964.673	0.67432
968.047	1.00419
971.422	0.307417
974.797	0.235376
978.172	0.194508
981.547	2.17064
984.922	1.04287
988.296	1.16585
991.671	0.4839
995.046	0.426273
998.421	1.75985
1001.8	1.10419
1005.17	1.6488
1008.54	0.541098
1011.92	2.216
1015.29	0.727297
1018.67	1.30493
1022.04	0.601023
1025.42	2.96957
1028.79	2.22469
1032.17	1.42651
1035.54	1.9041
1038.92	0.845905
1042.29	1.55372
1045.67	0.940151
1049.04	3.61259
1052.42	3.89937
1055.79	4.22657
1059.17	5.30885
1062.54	9.47535
1065.92	15.8398
1069.29	14.6619
1072.67	7.45357
1076.04	4.96891
1079.42	6.35659
1082.79	7.53159
1086.17	4.90746
1089.54	1.49791
1092.92	1.67775
1096.29	1.17369
1099.66	2.45507
1103.04	1.17847
1106.41	2.09767
1109.79	0.643835
1113.16	0.019264
1116.54	0.39115
1119.91	0.069229
1123.29	0.752188
1126.66	1.15063
1130.04	0.954672
1133.41	1.83318
1136.79	0.592876
1140.16	3.35397
1143.54	3.65554
1146.91	7.18168
1150.29	11.2633
1153.66	20.2223
1157.04	30.6564
1160.41	54.7555
1163.79	53.6724
1167.16	25.9187
1170.54	11.2251
1173.91	5.77509
1177.29	3.77378
1180.66	1.77309
1184.04	2.60376
1187.41	1.74215
1190.79	1.26776
1194.16	2.03545
1197.54	1.42121
1200.91	0.703087
1204.28	0.975103
1207.66	0.20281
1211.03	0.009481
1214.41	0.654867
1217.78	0.727879
1221.16	1.35222
1224.53	2.82751
1227.91	1.29894
1231.28	2.06368
1234.66	3.71595
1238.03	4.11855
1241.41	2.34751
1244.78	2.51219
1248.16	1.99367
1251.53	1.31598
1254.91	0.140402
1258.28	1.11222
1261.66	0.061487
1265.03	0.485458
1268.41	2.29468
1271.78	0.161837
1275.16	0.895609
1278.53	1.58677
1281.9	1.76205
