Measurement: Raman, 532 nm, unoriented, Raman Data Processed
Mineral: Quartz
Rruff sample: R150091
Ideal chemistry: SiO_2_
Locality: unknown
Source: Michael Scott
Description: Polished and fragments
Raman shift (cm-1)	intensity
89.7832	0
93.158	18.2299
96.5328	26.9438
99.9077	21.8893
103.282	0.679047
106.657	0.862579
110.032	28.2504
113.407	80.1026
116.782	133.65
120.157	218.303
123.531	413.326
126.906	998.02
130.281	1829.36
133.656	649.923
137.031	190.203
140.405	101.686
143.78	75.1251
147.155	57.0194
150.53	42.1344
153.905	23.4794
157.28	8.37439
160.654	1.82929
164.029	4.20331
167.404	9.40949
170.779	33.5779
174.154	58.3746
177.528	89.7626
180.903	141.042
184.278	217.662
187.653	319.399
191.028	461.899
194.403	657.821
197.777	907.952
201.152	1156.72
204.527	1376.49
207.902	1444.97
211.277	1314.1
214.651	1083.83
218.026	822.293
221.401	580.773
224.776	425.308
228.151	307.231
231.525	223.459
234.9	165.103
238.275	122.729
241.65	97.2445
245.025	81.3993
248.4	72.3761
251.774	66.3405
255.149	66.3631
258.524	77.2437
261.899	108.529
265.274	186.28
268.649	98.1026
272.023	24.9179
275.398	8.27356
278.773	2.70911
282.148	1.43378
285.523	2.63763
288.897	2.02972
292.272	5.4997
295.647	2.78857
299.022	4.17865
302.397	4.00397
305.772	3.5553
309.146	7.6181
312.521	5.35443
315.896	10.41
319.271	8.4101
322.646	10.6057
326.02	16.9763
329.395	12.872
332.77	19.8504
336.145	24.4175
339.52	32.7513
342.894	43.5369
346.269	53.9654
349.644	73.4607
353.019	146.058
356.394	309.298
359.769	128.297
363.143	24.702
366.518	8.61041
369.893	1.13318
373.268	1.08905
376.643	6.41071
380.017	26.1648
383.392	37.1341
386.767	35.5253
390.142	79.8063
393.517	197.268
396.892	290.622
400.266	153.93
403.641	34.9062
407.016	1.86694
410.391	3.58685
413.766	4.01746
417.14	6.23132
420.515	1.9505
423.89	2.95587
427.265	10.0738
430.64	8.48657
434.014	28.6434
437.389	53.3049
440.764	101.381
444.139	185.503
447.514	362.277
450.889	741.203
454.263	1151.37
457.638	1859.65
461.013	3456.69
464.388	6129.41
467.763	6566.98
471.137	3209.55
474.512	1533.19
477.887	870.09
481.262	569.53
484.637	413.987
488.012	297.152
491.386	228.773
494.761	174.949
498.136	125.767
501.511	100.387
504.886	79.2647
508.26	62.9806
511.635	58.6943
515.01	42.009
518.385	38.6097
521.76	33.4087
525.135	21.5582
528.509	17.5272
531.884	14.1209
535.259	13.9018
538.634	14.9333
542.009	7.93591
545.384	8.42627
548.758	5.68408
552.133	4.15582
555.508	0.849243
558.883	0.502258
562.258	1.31531
565.632	0.549805
569.007	2.58484
572.382	0.02301
575.757	3.06409
579.132	3.07257
582.506	4.38593
585.881	8.71021
589.256	6.39447
592.631	11.5392
596.006	6.17645
599.381	8.27338
602.755	6.88397
606.13	9.83862
609.505	19.4506
612.88	8.03918
616.255	11.0382
619.63	14.6209
623.004	5.57104
626.379	9.90466
629.754	9.34802
633.129	2.02399
636.504	13.1224
639.878	7.04504
643.253	11.5996
646.628	10.6313
650.003	8.32282
653.378	11.4149
656.752	2.52783
660.127	1.99902
663.502	2.03986
666.877	10.4738
670.252	6.60565
673.626	5.03235
677.001	7.57806
680.376	12.2198
683.751	23.9962
687.126	30.8005
690.501	57.1377
693.875	90.1534
697.25	128.855
700.625	85.4703
704	40.7102
707.375	29.369
710.75	12.369
714.124	11.3165
717.499	6.23822
720.874	5.10998
724.249	9.46735
727.624	20.2164
730.998	5.60333
734.373	3.61981
737.748	3.25104
741.123	7.52844
744.498	5.68964
747.872	1.21057
751.247	7.77948
754.622	1.28839
757.997	1.12347
761.372	2.64484
764.747	4.836
768.121	1.54492
771.496	3.81671
774.871	9.70471
778.246	6.26984
781.621	7.28778
784.995	19.3534
788.37	30.7662
791.745	44.5709
795.12	65.4518
798.495	83.4561
801.87	76.7766
805.244	53.146
808.619	31.5187
811.994	28.666
815.369	18.441
818.744	15.194
822.119	8.14856
825.493	3.96625
828.868	3.54095
832.243	8.19006
835.618	14.4025
838.993	3.99322
842.367	8.64392
845.742	2.57489
849.117	13.8352
852.492	7.4743
855.867	9.90204
859.241	11.3268
862.616	8.98541
865.991	8.72797
869.366	5.93543
872.741	6.40491
876.115	1.18237
879.49	0.674438
882.865	5.13739
886.24	5.07404
889.615	8.53876
892.99	10.0515
896.364	6.67102
899.739	9.27502
903.114	5.82849
906.489	7.60138
909.864	3.61414
913.239	10.7254
916.613	2.93622
919.988	10.9665
923.363	10.9918
926.738	13.9982
930.113	4.63928
933.487	5.86462
936.862	3.53656
940.237	3.45081
943.612	3.48706
946.987	6.91315
950.361	5.11755
953.736	2.81403
957.111	5.70227
960.486	4.10437
963.861	9.34955
967.236	9.40515
970.61	9.28723
973.985	8.51892
977.36	7.01349
980.735	6.26251
984.11	5.29962
987.485	5.04694
990.859	3.76898
994.234	11.4317
997.609	8.35425
1000.98	10.2865
1004.36	4.78619
1007.73	10.5996
1011.11	2.53497
1014.48	6.8645
1017.86	6.36694
1021.23	4.20013
1024.61	9.62372
1027.98	1.85852
1031.36	2.46832
1034.73	10.2996
1038.11	10.5801
1041.48	5.01099
1044.86	9.16663
1048.23	11.8494
1051.61	10.4669
1054.98	14.6907
1058.36	19.9268
1061.73	30.1768
1065.11	49.0768
1068.48	61.4597
1071.86	36.2524
1075.23	16.4874
1078.6	24.5638
1081.98	24.7159
1085.35	16.5987
1088.73	13.1139
1092.1	3.48737
1095.48	10.6744
1098.85	1.4599
1102.23	4.22021
1105.6	2.14417
1108.98	5.64319
1112.35	8.5437
1115.73	0.977783
1119.1	2.40057
1122.48	3.62311
1125.85	2.30322
1129.23	2.26691
1132.6	3.71985
1135.98	0.765015
1139.35	9.33594
1142.73	20.3566
1146.1	17.9717
1149.48	34.4239
1152.85	56.0114
1156.22	99.9974
1159.6	183.562
1162.97	266.843
1166.35	174.213
1169.72	71.0281
1173.1	40.5494
1176.47	19.2156
1179.85	16.1489
1183.22	9.41821
1186.6	5.29675
1189.97	3.18933
1193.35	0.602295
1196.72	7.07129
1200.1	5.85181
1203.47	0.369263
1206.85	2.38489
1210.22	6.02197
1213.6	1.85571
1216.97	3.34241
1220.35	12.9192
1223.72	0.006226
1227.1	0.361206
1230.47	12.6117
1233.85	13.3264
1237.22	15.9268
1240.6	14.464
1243.97	5.31714
1247.35	8.34106
1250.72	12.8274
1254.1	6.07959
1257.47	7.11133
1260.85	5.58936
1264.22	11.6555
1267.59	7.93152
1270.97	7.27185
1274.34	2.49768
1277.72	1.14294
1281.09	11.1372
1284.47	6.03259
1287.84	5.40149
1291.22	8.65808
1294.59	5.66272
1297.97	6.86621
1301.34	1.38904
