Measurement: Raman, 780 nm, unoriented, Raman Data Processed
Mineral: Scheelite
Rruff sample: R150130
Ideal chemistry: CaW^6+^O_4_
Locality: Tsumeb mine, Tsumeb, Otjikoto Region, Namibia
Source: Mark N. Feinglos
Description: Golden brown pseudo-octahedral crystals, associated with yellow disc-like siderite.
Raman shift (cm-1)	intensity
90.5957	0
93.9705	410.542
97.3453	289.401
100.72	114.143
104.095	124.469
107.47	462.444
110.845	1068.69
114.219	1710.94
117.594	1496.49
120.969	1254.98
124.344	1458.68
127.719	1627.38
131.094	1597.25
134.468	1169.21
137.843	403.065
141.218	45.3347
144.593	60.333
147.968	93.113
151.342	51.8003
154.717	10.1167
158.092	82.8415
161.467	179.76
164.842	299.719
168.216	438.353
171.591	622.087
174.966	829.593
178.341	1073.77
181.716	1345.08
185.09	1641.42
188.465	1974.16
191.84	2368.95
195.215	2739.73
198.59	2859.39
201.965	3002.77
205.339	3368.41
208.714	3863.85
212.089	3778.92
215.464	3082.95
218.839	2670.15
222.214	2514.84
225.588	2423.51
228.963	2385.84
232.338	2335.2
235.713	2276.95
239.088	2186.68
242.462	2055.97
245.837	1932.26
249.212	1793.49
252.587	1599.59
255.962	1380.89
259.336	1156.38
262.711	940.809
266.086	757.756
269.461	628.072
272.836	478.52
276.211	291.487
279.585	115.568
282.96	5.51685
286.335	61.4106
289.71	70.2371
293.085	79.2966
296.459	30.9419
299.834	60.7082
303.209	214.163
306.584	465.865
309.959	885.79
313.334	1577.91
316.708	2535.86
320.083	3803.84
323.458	5824.06
326.833	8988.21
330.207	12334.9
333.582	11316.9
336.957	6565.89
340.332	3293.23
343.707	1749.74
347.082	1004.08
350.456	632.755
353.831	474.07
357.206	459.029
360.581	494.945
363.956	563.119
367.33	619.011
370.705	661.775
374.08	661.425
377.455	661.595
380.83	710.8
384.205	781.669
387.579	902.916
390.954	1097.13
394.329	1441.61
397.704	1848.73
401.079	1842.44
404.453	1452.84
407.828	1001.44
411.203	549.645
414.578	271.897
417.953	113.24
421.327	30.9492
424.702	16.166
428.077	37.4697
431.452	38.0046
434.827	45.5823
438.202	37.9641
441.576	29.2297
444.951	2.63013
448.326	32.2676
451.701	76.5801
455.076	130.828
458.45	183.131
461.825	247.506
465.2	303.309
468.575	376.578
471.95	458.803
475.325	527.29
478.699	592.735
482.074	667.99
485.449	711.452
488.824	771.333
492.199	791.939
495.573	832.25
498.948	867.014
502.323	912.226
505.698	954.616
509.073	999.265
512.447	1013.33
515.822	1031.53
519.197	1002.71
522.572	997.283
525.947	959.199
529.322	931.742
532.696	888.178
536.071	860.391
539.446	821.914
542.821	796.551
546.196	764.981
549.57	725.156
552.945	714.643
556.32	683.905
559.695	671.17
563.07	627.862
566.444	576.205
569.819	513.904
573.194	437.097
576.569	366.042
579.944	291.342
583.319	225.168
586.693	172.385
590.068	128.027
593.443	87.8049
596.818	64.2068
600.193	30.1141
603.567	12.9037
606.942	0.514282
610.317	10.6199
613.692	23.0748
617.067	19.3818
620.442	18.5804
623.816	13.5548
627.191	10.2466
630.566	3.12085
633.941	1.99622
637.316	7.83301
640.69	19.9579
644.065	23.1584
647.44	28.3253
650.815	34.9194
654.19	42.2844
657.564	50.8321
660.939	58.7216
664.314	61.3159
667.689	65.6595
671.064	66.7966
674.439	62.6796
677.813	55.2288
681.188	54.3555
684.563	47.7817
687.938	38.8729
691.313	35.9196
694.688	28.4189
698.062	22.4612
701.437	22.6115
704.812	18.7057
708.187	19.8352
711.562	13.2012
714.936	8.4935
718.311	9.49722
721.686	4.59891
725.061	3.64441
728.436	0.699219
731.81	2.33017
735.185	0.459442
738.56	2.71677
741.935	4.9581
745.31	4.79788
748.684	9.66934
752.059	5.62118
755.434	10.8567
758.809	15.5288
762.184	38.4051
765.559	66.827
768.933	98.0161
772.308	149.542
775.683	193.448
779.058	246.662
782.433	346.074
785.808	524.839
789.182	827.396
792.557	1469.26
795.932	2438.64
799.307	2097.06
802.682	855.39
806.056	314.133
809.431	109.926
812.806	17.351
816.181	24.0426
819.556	30.6526
822.93	12.6173
826.305	18.4251
829.68	73.872
833.055	155.997
836.43	297.437
839.804	474.745
843.179	411.64
846.554	182.811
849.929	65.8775
853.304	44.1647
856.679	63.0168
860.053	114.315
863.428	220.49
866.803	424.8
870.178	827.875
873.553	1476.31
876.927	2667.22
880.302	5076.92
883.677	6954.01
887.052	4338.11
890.427	1938.2
893.802	1134.37
897.176	1019.36
900.551	1446.39
903.926	2429.45
907.301	4556.33
910.676	9050.96
914.05	13400
917.425	8812.97
920.8	4067.58
924.175	1765.61
927.55	885.442
930.924	518.572
934.299	324.631
937.674	216.018
941.049	147.906
944.424	86.5258
947.799	42.9887
951.173	15.992
954.548	1.1041
957.923	9.64905
961.298	13.6902
964.673	7.04947
968.047	8.19281
971.422	3.72525
974.797	2.30276
978.172	0.0979
981.547	5.58035
984.922	10.0269
988.296	14.0948
991.671	16.2788
995.046	19.9564
998.421	22.3853
1001.8	28.7854
1005.17	29.0527
1008.54	31.4785
1011.92	31.5342
1015.29	31.2404
1018.67	29.7247
1022.04	22.8607
1025.42	21.3277
1028.79	18.7994
1032.17	13.7068
1035.54	16.4304
1038.92	13.2063
1042.29	13.121
1045.67	12.0686
1049.04	10.3588
1052.42	9.66292
1055.79	12.6331
1059.17	9.90221
1062.54	9.71283
1065.92	9.23912
1069.29	6.15002
1072.67	4.53165
1076.04	5.13994
1079.42	5.38289
1082.79	5.79776
1086.17	6.75171
1089.54	7.32187
1092.92	7.38448
1096.29	2.64078
1099.66	3.61098
1103.04	1.95696
1106.41	3.7679
1109.79	3.63843
1113.16	0.237076
1116.54	1.81558
1119.91	0.805817
1123.29	0.199341
1126.66	1.64002
1130.04	0.616943
1133.41	0.30481
1136.79	1.66681
1140.16	2.38144
1143.54	1.3977
1146.91	5.06647
1150.29	4.8674
1153.66	5.79062
1157.04	5.78265
1160.41	7.14282
1163.79	6.14002
1167.16	10.6646
1170.54	7.99243
1173.91	12.1543
1177.29	9.09924
1180.66	5.83572
1184.04	8.2977
1187.41	3.19125
1190.79	3.5246
1194.16	9.85577
1197.54	7.82797
1200.91	9.58762
1204.28	12.1661
1207.66	13.0178
1211.03	12.4573
1214.41	11.4618
1217.78	8.46078
1221.16	3.46619
1224.53	1.27179
1227.91	5.8952
1231.28	2.11023
1234.66	5.78809
1238.03	8.78565
1241.41	3.40967
1244.78	3.79376
1248.16	4.52918
1251.53	2.3562
1254.91	3.83905
1258.28	2.83777
1261.66	3.1582
1265.03	12.9878
1268.41	17.292
1271.78	14.1513
1275.16	11.8242
1278.53	5.28918
1281.9	8.32507
