Measurement: Raman, 532 nm, unoriented, Raman Data Processed
Mineral: Scheelite
Rruff sample: R150130
Ideal chemistry: CaW^6+^O_4_
Locality: Tsumeb mine, Tsumeb, Otjikoto Region, Namibia
Source: Mark N. Feinglos
Description: Golden brown pseudo-octahedral crystals, associated with yellow disc-like siderite.
Raman shift (cm-1)	intensity
89.7832	0
93.158	3.12424
96.5328	2.99754
99.9077	0.065735
103.282	4.7113
106.657	29.2165
110.032	84.4372
113.407	149.01
116.782	146.22
120.157	103.947
123.531	115.451
126.906	135.712
130.281	134.453
133.656	96.3308
137.031	34.9263
140.405	14.8932
143.78	12.4638
147.155	3.94026
150.53	1.20582
153.905	1.01847
157.28	0.937675
160.654	1.30614
164.029	2.92785
167.404	5.32909
170.779	9.45626
174.154	14.0655
177.528	22.164
180.903	29.6898
184.278	40.3361
187.653	56.2692
191.028	82.6433
194.403	108.583
197.777	121.155
201.152	134.66
204.527	176.776
207.902	230.022
211.277	203.25
214.651	110.936
218.026	58.7181
221.401	35.962
224.776	22.2999
228.151	14.9357
231.525	9.57027
234.9	6.10784
238.275	3.77576
241.65	1.60603
245.025	1.97153
248.4	0.834206
251.774	2.0416
255.149	2.40671
258.524	5.48901
261.899	9.45162
265.274	13.0286
268.649	16.5377
272.023	13.9037
275.398	6.88982
278.773	0.415337
282.148	4.1846
285.523	4.10969
288.897	4.81209
292.272	0.197273
295.647	5.88966
299.022	16.7007
302.397	34.6912
305.772	62.8194
309.146	111.052
312.521	193.65
315.896	314.539
319.271	465.413
322.646	648.375
326.02	912.262
329.395	1169.32
332.77	1110.38
336.145	720.393
339.52	394.156
342.894	217.595
346.269	125.462
349.644	76.4083
353.019	50.461
356.394	39.778
359.769	41.3046
363.143	54.2083
366.518	70.5591
369.893	97.6885
373.268	122.464
376.643	145.926
380.017	159.053
383.392	168.229
386.767	182.574
390.142	217.455
393.517	277.395
396.892	324.199
400.266	264.585
403.641	153.712
407.016	77.2502
410.391	24.3714
413.766	0.305649
417.14	6.60712
420.515	1.40204
423.89	9.63936
427.265	20.221
430.64	34.6641
434.014	56.9423
437.389	85.2417
440.764	103.019
444.139	89.7964
447.514	67.8788
450.889	58.0354
454.263	64.0131
457.638	63.6615
461.013	53.4002
464.388	37.8234
467.763	21.0446
471.137	7.65126
474.512	0.988708
477.887	5.458
481.262	1.60333
484.637	4.01424
488.012	6.40693
491.386	6.14436
494.761	5.8353
498.136	4.33366
501.511	2.8476
504.886	2.72923
508.26	3.25851
511.635	3.00045
515.01	3.20194
518.385	3.26849
521.76	3.36874
525.135	4.30341
528.509	4.36819
531.884	4.00775
535.259	1.9809
538.634	1.97243
542.009	2.24793
545.384	2.71751
548.758	3.68512
552.133	4.69399
555.508	4.69208
558.883	4.5762
562.258	3.48998
565.632	1.9489
569.007	1.26195
572.382	0.630905
575.757	0.671349
579.132	0.696297
582.506	0.332428
585.881	0.21701
589.256	0.826523
592.631	1.55108
596.006	2.14069
599.381	1.20216
602.755	0.469604
606.13	0.175186
609.505	0.681854
612.88	8.27441
616.255	13.875
619.63	21.9769
623.004	28.9848
626.379	38.4624
629.754	47.0527
633.129	57.0457
636.504	62.9712
639.878	64.2604
643.253	68.389
646.628	70.1406
650.003	75.8601
653.378	82.8515
656.752	90.9957
660.127	96.9252
663.502	103.098
666.877	104.433
670.252	104.587
673.626	105.102
677.001	104.755
680.376	109.236
683.751	115.78
687.126	121.336
690.501	132.557
693.875	144.545
697.25	153.806
700.625	154.599
704	140.803
707.375	121.012
710.75	94.1981
714.124	73.0302
717.499	53.352
720.874	37.0703
724.249	25.3363
727.624	16.5157
730.998	11.1286
734.373	6.29929
737.748	4.04407
741.123	1.65074
744.498	2.61093
747.872	1.51363
751.247	2.52858
754.622	2.39626
757.997	2.14914
761.372	3.12936
764.747	14.0032
768.121	23.1555
771.496	37.3347
774.871	51.6127
778.246	67.8148
781.621	95.2732
784.995	150.785
788.37	224.281
791.745	335.701
795.12	441.5
798.495	356.701
801.87	149.153
805.244	57.4489
808.619	21.0535
811.994	3.31471
815.369	5.59727
818.744	6.5558
822.119	0.143616
825.493	11.7652
828.868	32.6482
832.243	61.655
835.618	102.203
838.993	130.812
842.367	99.4509
845.742	41.3385
849.117	16.4759
852.492	10.5573
855.867	16.1313
859.241	28.8542
862.616	51.7105
865.991	98.6522
869.366	200.428
872.741	374.974
876.115	620.159
879.49	998.959
882.865	1195.06
886.24	751.774
889.615	355.495
892.99	221.006
896.364	224.503
899.739	360.072
903.114	663.231
906.489	1160.76
909.864	1947.31
913.239	2421.73
916.613	1517.07
919.988	704.88
923.363	313.735
926.738	159.538
930.113	94.7869
933.487	58.3357
936.862	38.3021
940.237	25.4154
943.612	15.4866
946.987	7.07804
950.361	0.290771
953.736	1.66267
957.111	1.09557
960.486	2.03213
963.861	1.68754
967.236	1.31209
970.61	0.970085
973.985	0.032448
977.36	0.064209
980.735	1.43999
984.11	2.22852
987.485	3.29814
990.859	4.44473
994.234	4.59794
997.609	5.64954
1000.98	6.50755
1004.36	8.30339
1007.73	8.33897
1011.11	9.40099
1014.48	9.55379
1017.86	8.76875
1021.23	7.28386
1024.61	7.31337
1027.98	6.60412
1031.36	5.43698
1034.73	4.62084
1038.11	5.5035
1041.48	5.52618
1044.86	5.69075
1048.23	4.94442
1051.61	5.05089
1054.98	6.08382
1058.36	3.68264
1061.73	3.85076
1065.11	3.2348
1068.48	2.90902
1071.86	1.59064
1075.23	1.3862
1078.6	1.21296
1081.98	1.7212
1085.35	1.33328
1088.73	0.277599
1092.1	1.40159
1095.48	0.617435
1098.85	1.50486
1102.23	1.49415
1105.6	0.630123
1108.98	0.569096
1112.35	0.139362
1115.73	0.839184
1119.1	0.181461
1122.48	0.810036
1125.85	0.832977
1129.23	0.325531
1132.6	0.245335
1135.98	0.771904
1139.35	0.630341
1142.73	0.438869
1146.1	0.062305
1149.48	0.626942
1152.85	0.621731
1156.22	0.510319
1159.6	0.529133
1162.97	0.209221
1166.35	0.443394
1169.72	0.56514
1173.1	0.266479
1176.47	0.907558
1179.85	0.359943
1183.22	0.881134
1186.6	0.707687
1189.97	1.07181
1193.35	0.24015
1196.72	0.67667
1200.1	1.28429
1203.47	1.58682
1206.85	0.843071
1210.22	1.22337
1213.6	0.202305
1216.97	0.944679
1220.35	0.667446
1223.72	1.94119
1227.1	0.680573
1230.47	0.109989
1233.85	1.69703
1237.22	0.165188
1240.6	1.15239
1243.97	0.201984
1247.35	0.631786
1250.72	0.808006
1254.1	0.603786
1257.47	1.21038
1260.85	0.341949
1264.22	0.458057
1267.59	0.128159
1270.97	0.281761
1274.34	0.293499
1277.72	0.318531
1281.09	0.141418
1284.47	1.18422
1287.84	1.74602
1291.22	0.972183
1294.59	0.516129
1297.97	2.30717
1301.34	0.099873
