Measurement: Raman, 532 nm, unoriented, Raman Data Processed
Mineral: Schorlomite
Rruff sample: R140772
Ideal chemistry: Ca_3_Ti^4+^_2_(Fe^3+^_2_Si)O_12_
Locality: Graulay, Hillesheim, Eifel, Rhineland-Palatinate, Germany
Source: Ch. and H. Sch√§fer
Description: Associated with noonkanbahnite, pyroxene and oxyphlogopite.
Raman shift (cm-1)	intensity
89.7832	0
93.158	14.0386
96.5328	12.3443
99.9077	2.91928
103.282	1.39984
106.657	0.681229
110.032	27.1322
113.407	21.79
116.782	33.4739
120.157	46.0131
123.531	46.3897
126.906	54.4046
130.281	49.5029
133.656	53.8563
137.031	45.334
140.405	45.6199
143.78	45.752
147.155	39.6476
150.53	39.923
153.905	38.9854
157.28	42.2522
160.654	36.7165
164.029	31.2929
167.404	26.2205
170.779	20.9969
174.154	16.7437
177.528	11.708
180.903	7.65829
184.278	5.4989
187.653	5.82687
191.028	5.0163
194.403	4.42703
197.777	2.9682
201.152	3.41067
204.527	1.49316
207.902	0.201508
211.277	3.22012
214.651	5.28742
218.026	6.431
221.401	3.92984
224.776	5.14108
228.151	0.57074
231.525	5.17023
234.9	15.8722
238.275	26.6422
241.65	43.2552
245.025	54.1012
248.4	63.2172
251.774	70.202
255.149	76.7025
258.524	78.4532
261.899	80.5726
265.274	85.2909
268.649	92.6089
272.023	103.372
275.398	115.17
278.773	123.822
282.148	136.425
285.523	141.905
288.897	145.982
292.272	146.846
295.647	142.51
299.022	138.701
302.397	137.081
305.772	140.04
309.146	147.825
312.521	163.955
315.896	183.962
319.271	210.44
322.646	241.61
326.02	269.651
329.395	286.943
332.77	292.3
336.145	283.37
339.52	268.314
342.894	250.631
346.269	228.673
349.644	201.482
353.019	173.461
356.394	145.07
359.769	118.015
363.143	96.3888
366.518	69.3958
369.893	47.5742
373.268	29.5051
376.643	16.5271
380.017	7.18521
383.392	1.7746
386.767	1.49106
390.142	5.72754
393.517	6.72827
396.892	5.0018
400.266	3.94962
403.641	1.78644
407.016	2.94449
410.391	6.40213
413.766	12.1744
417.14	20.7052
420.515	27.2524
423.89	33.4647
427.265	38.2024
430.64	42.9648
434.014	44.4545
437.389	43.8512
440.764	41.7627
444.139	36.8406
447.514	29.8504
450.889	21.8028
454.263	15.9152
457.638	11.099
461.013	6.01898
464.388	1.39462
467.763	0.137024
471.137	1.50278
474.512	1.37927
477.887	3.41843
481.262	9.92929
484.637	20.2938
488.012	35.5621
491.386	61.4782
494.761	98.402
498.136	150.055
501.511	213.296
504.886	283.449
508.26	329.428
511.635	325.121
515.01	273.741
518.385	210.758
521.76	159.48
525.135	122.69
528.509	93.8507
531.884	75.2505
535.259	63.5858
538.634	52.9578
542.009	48.5119
545.384	44.4961
548.758	39.7882
552.133	34.1629
555.508	23.9348
558.883	18.7402
562.258	15.7693
565.632	15.8075
569.007	16.2314
572.382	17.7003
575.757	19.3162
579.132	15.8749
582.506	15.2638
585.881	12.8118
589.256	8.88168
592.631	5.34558
596.006	3.79675
599.381	0.146332
602.755	2.05875
606.13	2.68195
609.505	2.04147
612.88	0.985107
616.255	2.05386
619.63	6.34015
623.004	9.46051
626.379	16.2696
629.754	21.1123
633.129	25.1939
636.504	29.3191
639.878	31.2031
643.253	31.6911
646.628	32.5066
650.003	31.8192
653.378	29.8231
656.752	24.0635
660.127	18.7302
663.502	12.0183
666.877	9.7442
670.252	6.26547
673.626	6.93442
677.001	6.28159
680.376	5.73517
683.751	6.41098
687.126	7.11624
690.501	6.06473
693.875	1.54849
697.25	0.199463
700.625	0.511688
704	2.7724
707.375	3.85471
710.75	8.3577
714.124	24.0104
717.499	36.827
720.874	56.4763
724.249	77.0242
727.624	97.7503
730.998	110.179
734.373	120.207
737.748	127.687
741.123	130.82
744.498	128.381
747.872	121.666
751.247	114.994
754.622	106.491
757.997	88.8868
761.372	77.8474
764.747	67.8282
768.121	56.4822
771.496	48.8129
774.871	41.1861
778.246	34.6618
781.621	27.3546
784.995	24.6504
788.37	20.8257
791.745	17.9471
795.12	15.9016
798.495	16.5382
801.87	16.5397
805.244	12.2025
808.619	11.1319
811.994	6.49847
815.369	5.96152
818.744	2.93796
822.119	0.240356
825.493	2.05521
828.868	2.90573
832.243	1.38614
835.618	1.47858
838.993	1.27313
842.367	4.40167
845.742	4.56641
849.117	7.24716
852.492	8.29999
855.867	10.2532
859.241	10.3976
862.616	9.32602
865.991	8.5452
869.366	11.2409
872.741	10.8754
876.115	9.51865
879.49	6.93924
882.865	5.39508
886.24	3.34158
889.615	2.54477
892.99	2.29111
896.364	3.13031
899.739	3.91284
903.114	4.8508
906.489	6.82562
909.864	9.20139
913.239	9.23035
916.613	14.4795
919.988	16.6647
923.363	20.0397
926.738	21.3685
930.113	26.6474
933.487	32.0324
936.862	38.091
940.237	43.1326
943.612	50.092
946.987	58.389
950.361	62.1663
953.736	66.7821
957.111	67.0259
960.486	68.6767
963.861	69.5069
967.236	66.8662
970.61	60.6775
973.985	54.6613
977.36	48.1921
980.735	38.812
984.11	28.3272
987.485	21.7181
990.859	17.5234
994.234	16.149
997.609	13.8611
1000.98	13.7935
1004.36	11.7213
1007.73	6.88321
1011.11	2.60486
1014.48	0.65332
1017.86	2.46332
1021.23	3.23994
1024.61	0.565994
1027.98	0.146912
1031.36	0.640488
1034.73	3.66206
1038.11	6.03651
1041.48	6.21776
1044.86	6.92007
1048.23	6.62778
1051.61	9.08557
1054.98	11.565
1058.36	11.0601
1061.73	10.4702
1065.11	12.4471
1068.48	12.8148
1071.86	11.6838
1075.23	11.3743
1078.6	10.2714
1081.98	8.72476
1085.35	7.92564
1088.73	9.49664
1092.1	7.22443
1095.48	6.4892
1098.85	4.90237
1102.23	6.06966
1105.6	5.63449
1108.98	3.71916
1112.35	4.38399
1115.73	2.93297
1119.1	3.97632
1122.48	3.19253
1125.85	1.06772
1129.23	1.27588
1132.6	0.532593
1135.98	1.2617
1139.35	2.15099
1142.73	1.04707
1146.1	0.246445
1149.48	0.490616
1152.85	0.652008
1156.22	2.32519
1159.6	0.497253
1162.97	1.45825
1166.35	0.166
1169.72	1.15919
1173.1	0.819275
1176.47	1.14152
1179.85	1.51756
1183.22	1.0304
1186.6	1.04396
1189.97	1.30835
1193.35	2.60649
1196.72	1.87601
1200.1	1.91165
1203.47	1.09932
1206.85	1.65968
1210.22	1.45506
1213.6	1.10382
1216.97	1.07105
1220.35	1.73935
1223.72	0.085754
1227.1	0.851791
1230.47	0.17334
1233.85	1.69988
1237.22	0.66272
1240.6	0.724869
1243.97	1.04759
1247.35	0.399734
1250.72	1.06471
1254.1	0.731094
1257.47	0.623367
1260.85	1.75388
1264.22	0.579407
1267.59	2.43771
1270.97	1.54074
1274.34	0.660065
1277.72	1.46881
1281.09	2.20593
1284.47	3.17592
1287.84	0.243652
1291.22	0.378952
1294.59	0.488693
1297.97	1.20857
1301.34	0.523102
