Measurement: Raman, 780 nm, unoriented, Raman Data Processed
Mineral: Schorlomite
Rruff sample: R140772
Ideal chemistry: Ca_3_Ti^4+^_2_(Fe^3+^_2_Si)O_12_
Locality: Graulay, Hillesheim, Eifel, Rhineland-Palatinate, Germany
Source: Ch. and H. Sch√§fer
Description: Associated with noonkanbahnite, pyroxene and oxyphlogopite.
Raman shift (cm-1)	intensity
93.0063	0
96.3811	8.75891
99.7559	1.75418
103.131	3.9343
106.505	2.39172
109.88	3.66138
113.255	4.19489
116.63	18.2698
120.005	26.4144
123.38	33.1715
126.754	39.7107
130.129	43.2297
133.504	43.6456
136.879	44.8855
140.254	51.7411
143.629	49.2281
147.003	47.2665
150.378	41.698
153.753	51.2764
157.128	58.2949
160.503	51.5579
163.877	40.7673
167.252	28.8849
170.627	18.6446
174.002	12.8969
177.377	8.24991
180.751	2.68237
184.126	2.9444
187.501	1.37631
190.876	0.099426
194.251	1.52268
197.625	0.471802
201	0.18335
204.375	0.481598
207.75	0.365875
211.125	5.89276
214.5	7.50473
217.874	10.7436
221.249	7.64224
224.624	3.12799
227.999	6.24182
231.374	18.9498
234.749	29.9244
238.123	50.568
241.498	69.5012
244.873	90.5128
248.248	110.247
251.623	119.411
254.997	122.969
258.372	126.685
261.747	129.871
265.122	139.554
268.497	151.834
271.872	165.066
275.246	184.186
278.621	202.175
281.996	221.564
285.371	231.171
288.745	240.793
292.12	243.264
295.495	240.917
298.87	242.582
302.245	245.201
305.62	258.449
308.994	279.378
312.369	312.309
315.744	362.405
319.119	417.933
322.494	475.542
325.868	524.991
329.243	553.434
332.618	549.881
335.993	525.592
339.368	477.018
342.743	433.36
346.117	386.988
349.492	336.511
352.867	291.538
356.242	243.57
359.617	199.66
362.991	161.978
366.366	124.34
369.741	94.7889
373.116	62.9257
376.491	39.0808
379.865	21.1647
383.24	5.10782
386.615	1.15808
389.99	6.36514
393.365	9.28079
396.74	9.49411
400.114	9.00659
403.489	6.58582
406.864	0.788025
410.239	7.56094
413.614	16.5385
416.988	24.7805
420.363	37.3482
423.738	46.204
427.113	57.6863
430.488	67.5009
433.863	72.3044
437.237	69.2429
440.612	66.1639
443.987	60.2895
447.362	54.7325
450.737	42.0458
454.111	34.8135
457.486	21.8169
460.861	11.8879
464.236	4.39279
467.611	0.503876
470.986	0.499481
474.36	2.64407
477.735	6.784
481.11	13.7518
484.485	23.7425
487.86	42.4831
491.234	66.9059
494.609	107.913
497.984	162.074
501.359	229.48
504.734	309.879
508.108	370.289
511.483	365.753
514.858	310.919
518.233	239.363
521.608	183.092
524.982	136.179
528.357	106.216
531.732	83.3433
535.107	68.6883
538.482	55.7418
541.857	49.9342
545.231	44.5599
548.606	36.6145
551.981	29.0758
555.356	21.1574
558.731	12.9523
562.106	8.7262
565.48	8.7012
568.855	10.0092
572.23	11.4134
575.605	12.3005
578.98	12.5384
582.354	11.7853
585.729	8.81522
589.104	5.8064
592.479	3.27685
595.854	2.46039
599.229	0.42804
602.603	0.451569
605.978	3.17026
609.353	2.12631
612.728	0.168365
616.102	3.90747
619.477	7.61566
622.852	12.6294
626.227	20.2903
629.602	26.1836
632.977	33.2346
636.351	36.7311
639.726	40.0051
643.101	41.6966
646.476	42.2919
649.851	44.3582
653.226	41.2129
656.6	40.7593
659.975	37.0356
663.35	32.3087
666.725	29.3636
670.1	27.2208
673.474	25.4
676.849	22.8898
680.224	23.4394
683.599	21.199
686.974	18.7844
690.348	17.0021
693.723	14.4126
697.098	9.02663
700.473	3.24246
703.848	0.09465
707.222	2.52624
710.597	3.5202
713.972	2.53542
717.347	1.57524
720.722	5.83101
724.097	11.1803
727.471	19.0301
730.846	28.4165
734.221	32.6649
737.596	38.8515
740.971	41.9688
744.346	44.5515
747.72	47.2286
751.095	50.7952
754.47	50.9818
757.845	52.2763
761.22	52.2517
764.594	51.3003
767.969	47.9931
771.344	49.1472
774.719	48.0998
778.094	46.3654
781.468	45.9383
784.843	43.2678
788.218	41.8215
791.593	41.3803
794.968	39.3851
798.342	37.6721
801.717	33.9366
805.092	32.984
808.467	28.9384
811.842	22.8156
815.217	19.6264
818.591	14.5638
821.966	11.038
825.341	6.59195
828.716	5.14276
832.091	3.42621
835.466	4.0607
838.84	4.2908
842.215	5.80746
845.59	7.30887
848.965	9.11401
852.34	8.65869
855.714	9.45078
859.089	10.9308
862.464	8.37718
865.839	8.24519
869.214	7.04896
872.588	6.27123
875.963	4.14748
879.338	4.50525
882.713	3.52602
886.088	2.59543
889.462	3.66783
892.837	1.99051
896.212	0.037079
899.587	0.363235
902.962	2.08466
906.337	0.267212
909.711	1.02992
913.086	2.3934
916.461	1.03096
919.836	1.11627
923.211	2.74361
926.585	2.33969
929.96	4.08415
933.335	6.38657
936.71	9.6144
940.085	11.8153
943.46	14.1332
946.834	17.4556
950.209	19.5497
953.584	22.107
956.959	23.7568
960.334	24.7919
963.708	24.0244
967.083	24.7247
970.458	21.6242
973.833	18.4472
977.208	15.2826
980.582	12.7897
983.957	9.95612
987.332	7.58453
990.707	6.53303
994.082	7.06652
997.457	9.03844
1000.83	9.18166
1004.21	7.96496
1007.58	4.90506
1010.96	2.26394
1014.33	0.558594
1017.71	1.45425
1021.08	1.44949
1024.45	0.219795
1027.83	0.073708
1031.2	1.04588
1034.58	1.27035
1037.95	2.74407
1041.33	4.1553
1044.7	4.73025
1048.08	5.8618
1051.45	6.39646
1054.83	7.24844
1058.2	8.4991
1061.58	9.25274
1064.95	9.54802
1068.33	9.67806
1071.7	9.42209
1075.08	8.94113
1078.45	7.35243
1081.83	6.31919
1085.2	5.50571
1088.58	5.64621
1091.95	5.39626
1095.33	3.86972
1098.7	5.44266
1102.08	4.57944
1105.45	4.29207
1108.83	5.13729
1112.2	4.70486
1115.58	3.88544
1118.95	3.70827
1122.33	4.36373
1125.7	4.19357
1129.07	4.20345
1132.45	4.87444
1135.82	4.71972
1139.2	5.0898
1142.57	5.13641
1145.95	5.87856
1149.32	5.79364
1152.7	6.59171
1156.07	7.85776
1159.45	7.07067
1162.82	8.21494
1166.2	8.48774
1169.57	8.86516
1172.95	11.0922
1176.32	13.0298
1179.7	12.5487
1183.07	13.9507
1186.45	13.4483
1189.82	14.7704
1193.2	14.2597
1196.57	14.6925
1199.94	14.4183
1203.32	13.0006
1206.69	12.5202
1210.07	10.7277
1213.44	10.2919
1216.82	7.19449
1220.19	4.15642
1223.57	1.95851
1226.94	1.75637
1230.32	2.18777
1233.69	0.12178
1237.07	0.41658
1240.44	1.66833
1243.82	3.72124
1247.19	6.03931
1250.57	9.63472
1253.94	14.1944
1257.32	16.4568
1260.69	15.1971
1264.07	14.7714
1267.44	13.5758
1270.82	12.0475
1274.19	7.57446
1277.57	5.44971
1280.94	3.62149
1284.32	0.302917
