Measurement: Raman, 780 nm, unoriented, Raman Data Processed
Mineral: Sincosite
Rruff sample: R141154
Ideal chemistry: Ca(V^4+^O)_2_(P^5+^O_4_)_2_4H_2_O
Locality: South Rasmussen Ridge mine, Caribou County, Idaho, USA
Source: Tom Loomis
Description: Both dark brassy green and bright green platy crystals. Crystals twinned by a 2-fold around [1 -1 0].
Raman shift (cm-1)	intensity
93.9705	0
97.3453	6.26663
100.72	1.17062
104.095	1.86758
107.47	7.58652
110.845	3.6598
114.219	1.6374
117.594	7.51135
120.969	4.69765
124.344	13.8885
127.719	11.136
131.094	10.2865
134.468	6.67677
137.843	5.49103
141.218	5.8981
144.593	0.812653
147.968	0.983307
151.342	4.43419
154.717	1.0359
158.092	5.41393
161.467	6.88741
164.842	10.6453
168.216	12.0784
171.591	14.9131
174.966	15.9593
178.341	18.3744
181.716	18.808
185.09	16.7138
188.465	12.9398
191.84	11.7867
195.215	10.3803
198.59	12.1669
201.965	13.148
205.339	13.3946
208.714	13.032
212.089	11.8685
215.464	13.3751
218.839	18.8454
222.214	21.0621
225.588	25.4202
228.963	34.1651
232.338	50.474
235.713	66.9906
239.088	58.584
242.462	39.3127
245.837	30.5397
249.212	31.7849
252.587	35.1812
255.962	39.3261
259.336	41.3302
262.711	37.4987
266.086	28.1877
269.461	22.1154
272.836	17.061
276.211	14.157
279.585	11.385
282.96	8.09235
286.335	5.95106
289.71	3.43541
293.085	1.53684
296.459	1.21932
299.834	0.033363
303.209	0.567375
306.584	0.002716
309.959	0.29039
313.334	0.938843
316.708	0.551781
320.083	0.305328
323.458	0.417503
326.833	0.325581
330.207	0.39481
333.582	0.712608
336.957	0.086468
340.332	0.172783
343.707	0.492989
347.082	0.306511
350.456	0.005318
353.831	0.487007
357.206	1.11955
360.581	0.580784
363.956	1.09427
367.33	0.628853
370.705	1.2689
374.08	2.00716
377.455	2.77406
380.83	3.56447
384.205	4.37489
387.579	5.95217
390.954	8.01352
394.329	9.32774
397.704	9.26527
401.079	10.6454
404.453	9.52332
407.828	7.76006
411.203	6.32244
414.578	5.21568
417.953	3.97258
421.327	3.87668
424.702	3.91579
428.077	4.51524
431.452	2.47235
434.827	2.03729
438.202	1.02798
441.576	0.893238
444.951	1.24732
448.326	2.32896
451.701	0.779213
455.076	1.17734
458.45	0.907574
461.825	1.48801
465.2	0.651657
468.575	1.10196
471.95	0.813183
475.325	1.39263
478.699	0.447033
482.074	0.254818
485.449	0.071396
488.824	0.217049
492.199	0.200993
495.573	0.661606
498.948	0.569
502.323	0.925728
505.698	0.953651
509.073	0.934917
512.447	0.789318
515.822	0.164894
519.197	0.273571
522.572	0.982697
525.947	0.648415
529.322	1.71491
532.696	1.85975
536.071	2.43615
539.446	4.02814
542.821	3.95081
546.196	5.48239
549.57	4.49451
552.945	5.83589
556.32	5.05046
559.695	4.6288
563.07	3.83815
566.444	3.47113
569.819	3.31238
573.194	2.64944
576.569	2.07737
579.944	2.02328
583.319	0.960781
586.693	0.852806
590.068	0.35944
593.443	0.556076
596.818	0.973885
600.193	0.736935
603.567	0.514019
606.942	0.041409
610.317	0.216835
613.692	0.05135
617.067	0.059029
620.442	0.184517
623.816	0.029903
627.191	0.584267
630.566	0.472263
633.941	0.006542
637.316	0.113926
640.69	0.5881
644.065	0.278915
647.44	1.30086
650.815	0.852779
654.19	1.33661
657.564	1.37988
660.939	1.28169
664.314	1.41089
667.689	1.83802
671.064	1.73509
674.439	2.02922
677.813	2.20474
681.188	2.21555
684.563	2.14303
687.938	2.03208
691.313	2.20004
694.688	1.6484
698.062	0.906616
701.437	1.72659
704.812	2.0325
708.187	0.554413
711.562	1.03842
714.936	1.16986
718.311	1.02277
721.686	0.845604
725.061	0.873718
728.436	0.109821
731.81	0.49522
735.185	0.004295
738.56	0.344021
741.935	0.051079
745.31	0.001385
748.684	0.328999
752.059	0.130966
755.434	0.085762
758.809	0.649986
762.184	0.31192
765.559	0.176159
768.933	0.257191
772.308	0.682732
775.683	0.091305
779.058	0.407772
782.433	0.336418
785.808	0.7724
789.182	0.576672
792.557	0.714115
795.932	0.771099
799.307	0.762215
802.682	0.764584
806.056	1.32975
809.431	1.47256
812.806	1.46134
816.181	1.41872
819.556	1.94721
822.93	2.42928
826.305	2.0732
829.68	2.84504
833.055	3.28476
836.43	3.89663
839.804	3.86843
843.179	3.81123
846.554	4.11159
849.929	4.38474
853.304	4.82362
856.679	4.41331
860.053	5.38221
863.428	5.73771
866.803	6.20406
870.178	6.68605
873.553	6.49521
876.927	5.56919
880.302	5.06121
883.677	4.97409
887.052	4.44398
890.427	4.65058
893.802	2.86415
897.176	2.18446
900.551	1.132
903.926	1.46271
907.301	0.356155
910.676	1.14466
914.05	0.363926
917.425	0.264542
920.8	0.321712
924.175	0.34166
927.55	0.571712
930.924	0.122189
934.299	0.421448
937.674	0.194153
941.049	0.238739
944.424	0.172623
947.799	1.0392
951.173	1.22994
954.548	2.336
957.923	3.96642
961.298	5.47618
964.673	7.07301
968.047	10.1761
971.422	15.949
974.797	26.1121
978.172	39.1151
981.547	58.4164
984.922	78.1916
988.296	80.5606
991.671	67.1593
995.046	51.6281
998.421	37.0903
1001.8	26.1517
1005.17	18.8207
1008.54	16.4284
1011.92	15.6811
1015.29	15.9076
1018.67	17.2076
1022.04	16.6714
1025.42	19.3809
1028.79	23.9582
1032.17	32.6049
1035.54	41.6517
1038.92	45.7353
1042.29	40.3156
1045.67	29.958
1049.04	18.6342
1052.42	11.7143
1055.79	6.85206
1059.17	3.98852
1062.54	3.1329
1065.92	1.7497
1069.29	0.688992
1072.67	0.968681
1076.04	0.824453
1079.42	0.847412
1082.79	0.088533
1086.17	0.165884
1089.54	0.28223
1092.92	0.166954
1096.29	0.250929
1099.66	0.45887
1103.04	0.343628
1106.41	0.141695
1109.79	0.14905
1113.16	0.110909
1116.54	0.494474
1119.91	0.333858
1123.29	0.456484
1126.66	0.576035
1130.04	0.514391
1133.41	0.812969
1136.79	0.915819
1140.16	0.436718
1143.54	1.1961
1146.91	0.713636
1150.29	1.19531
1153.66	0.821743
1157.04	0.403767
1160.41	1.0349
1163.79	0.505875
1167.16	0.470907
1170.54	0.972839
1173.91	0.832226
1177.29	0.815325
1180.66	0.461283
1184.04	0.37608
1187.41	0.493332
1190.79	0.514738
1194.16	0.61627
1197.54	0.981276
1200.91	0.743788
1204.28	0.643864
1207.66	1.01801
1211.03	0.445669
1214.41	0.065163
1217.78	0.404074
1221.16	0.283764
1224.53	0.18013
1227.91	0.70322
1231.28	0.47336
1234.66	0.10442
1238.03	0.567301
1241.41	0.096504
1244.78	0.273207
1248.16	0.316059
1251.53	0.863428
1254.91	0.360929
1258.28	0.726467
1261.66	0.596449
1265.03	0.527811
1268.41	0.510847
1271.78	0.666931
1275.16	0.270729
1278.53	0.948717
1281.9	0.102631
