Measurement: Raman, 532 nm, unoriented, Raman Data Processed
Mineral: Sincosite
Rruff sample: R141155
Ideal chemistry: Ca(V^4+^O)_2_(P^5+^O_4_)_2_4H_2_O
Locality: Ross Hannibal mine, Lawrence County, South Dakota, USA
Source: Tom Loomis
Description: Green platy crystals. Crystal exhibits a 2-fold rotation twin around [1 -1 0].
Raman shift (cm-1)	intensity
89.7832	0
93.158	13.802
96.5328	9.29259
99.9077	0.514114
103.282	1.37071
106.657	2.8192
110.032	26.8231
113.407	25.6328
116.782	44.4687
120.157	48.9449
123.531	47.2667
126.906	69.4327
130.281	55.9383
133.656	30.1893
137.031	18.0999
140.405	19.296
143.78	14.8821
147.155	8.09869
150.53	8.57587
153.905	6.18272
157.28	1.68939
160.654	6.15645
164.029	5.24741
167.404	0.145264
170.779	5.74811
174.154	11.7878
177.528	13.3898
180.903	15.9654
184.278	12.5183
187.653	5.69038
191.028	0.310776
194.403	1.77086
197.777	6.27846
201.152	14.9386
204.527	27.6949
207.902	38.5478
211.277	48.0163
214.651	58.3146
218.026	61.8654
221.401	70.8065
224.776	85.3563
228.151	100.225
231.525	111.082
234.9	126.473
238.275	151.262
241.65	179.983
245.025	220.697
248.4	277.939
251.774	358.246
255.149	441.612
258.524	498.158
261.899	473.953
265.274	371.75
268.649	281.819
272.023	235.52
275.398	211.544
278.773	193.692
282.148	175.3
285.523	148.916
288.897	112.61
292.272	81.2793
295.647	59.5637
299.022	45.8904
302.397	38.9963
305.772	34.0812
309.146	29.8226
312.521	24.6937
315.896	17.7594
319.271	13.3837
322.646	4.2425
326.02	0.183067
329.395	3.57544
332.77	4.51314
336.145	3.38925
339.52	2.09795
342.894	1.17956
346.269	0.295166
349.644	3.66859
353.019	3.27927
356.394	5.00585
359.769	6.44824
363.143	7.32674
366.518	8.66593
369.893	9.47104
373.268	14.0474
376.643	22.2075
380.017	35.2595
383.392	51.9987
386.767	72.7486
390.142	98.3048
393.517	127.641
396.892	153.823
400.266	170.32
403.641	167.871
407.016	148.98
410.391	129.365
413.766	110.114
417.14	93.0217
420.515	74.3506
423.89	62.0348
427.265	51.6455
430.64	40.8977
434.014	27.2789
437.389	19.173
440.764	17.0995
444.139	14.5993
447.514	13.9819
450.889	14.2028
454.263	13.7486
457.638	13.3092
461.013	12.3638
464.388	11.2296
467.763	10.5755
471.137	9.52774
474.512	7.65645
477.887	6.11146
481.262	3.93613
484.637	3.54804
488.012	0.573601
491.386	1.07793
494.761	1.85226
498.136	2.33755
501.511	0.315331
504.886	2.79172
508.26	5.30022
511.635	5.29031
515.01	5.57641
518.385	3.67574
521.76	3.50044
525.135	5.73657
528.509	8.33732
531.884	14.0068
535.259	21.8062
538.634	32.233
542.009	47.7133
545.384	59.9596
548.758	68.2012
552.133	69.4921
555.508	67.7236
558.883	62.624
562.258	58.1359
565.632	52.5828
569.007	47.0973
572.382	42.7881
575.757	33.9584
579.132	25.0425
582.506	19.1281
585.881	15.6896
589.256	12.5079
592.631	9.91006
596.006	7.82006
599.381	7.33408
602.755	4.11932
606.13	3.52275
609.505	2.26404
612.88	1.96757
616.255	0.879967
619.63	1.35315
623.004	1.09747
626.379	1.41261
629.754	0.475327
633.129	0.038605
636.504	0.263092
639.878	0.743805
643.253	1.25092
646.628	0.127853
650.003	0.573799
653.378	1.31875
656.752	2.20747
660.127	3.6784
663.502	4.66343
666.877	5.36533
670.252	11.0091
673.626	9.38894
677.001	9.96819
680.376	13.1234
683.751	13.5838
687.126	15.5394
690.501	17.5626
693.875	18.7674
697.25	17.8685
700.625	18.9523
704	20.4384
707.375	20.9999
710.75	20.4826
714.124	19.2063
717.499	19.5483
720.874	16.4764
724.249	15.3858
727.624	13.3638
730.998	11.0633
734.373	9.43824
737.748	7.71745
741.123	5.04701
744.498	5.80114
747.872	5.2453
751.247	3.93547
754.622	3.07762
757.997	2.8062
761.372	2.89301
764.747	0.822716
768.121	0.842346
771.496	1.61814
774.871	1.42104
778.246	1.16049
781.621	0.912834
784.995	1.20412
788.37	0.626945
791.745	0.216843
795.12	0.692886
798.495	0.000839
801.87	0.820709
805.244	0.165901
808.619	0.265663
811.994	0.338905
815.369	0.462563
818.744	0.563309
822.119	0.699966
825.493	0.179993
828.868	0.613708
832.243	2.03715
835.618	3.51796
838.993	5.15443
842.367	5.71753
845.742	7.8079
849.117	9.96957
852.492	12.0083
855.867	14.377
859.241	17.5524
862.616	19.8379
865.991	22.9532
869.366	25.0857
872.741	28.9433
876.115	32.2181
879.49	32.4786
882.865	30.6777
886.24	29.2933
889.615	25.8144
892.99	22.1813
896.364	20.6364
899.739	16.734
903.114	12.3426
906.489	9.981
909.864	7.99998
913.239	5.18686
916.613	5.17918
919.988	2.59782
923.363	0.900192
926.738	1.31155
930.113	2.72406
933.487	2.90868
936.862	3.74558
940.237	2.11092
943.612	0.492355
946.987	1.82526
950.361	7.35272
953.736	12.5146
957.111	22.5176
960.486	37.7379
963.861	59.3244
967.236	95.6087
970.61	159.136
973.985	269.568
977.36	450.132
980.735	719.63
984.11	1067.33
987.485	1253.69
990.859	1121.09
994.234	903.659
997.609	751.367
1000.98	592.173
1004.36	420.835
1007.73	314.381
1011.11	254.32
1014.48	217.989
1017.86	207.229
1021.23	205.026
1024.61	207.231
1027.98	225.475
1031.36	275.69
1034.73	368.971
1038.11	471.105
1041.48	506.721
1044.86	432.241
1048.23	296.537
1051.61	181.626
1054.98	107.595
1058.36	63.1486
1061.73	35.3103
1065.11	19.3216
1068.48	10.1781
1071.86	3.28245
1075.23	0.759277
1078.6	1.41969
1081.98	2.83345
1085.35	2.62376
1088.73	1.86539
1092.1	1.08266
1095.48	0.434479
1098.85	0.916405
1102.23	1.23511
1105.6	1.23042
1108.98	1.37551
1112.35	2.1682
1115.73	2.04015
1119.1	3.02921
1122.48	3.65563
1125.85	4.08957
1129.23	4.82137
1132.6	3.99925
1135.98	4.55955
1139.35	3.43523
1142.73	2.53188
1146.1	2.48018
1149.48	2.1078
1152.85	1.23663
1156.22	1.79828
1159.6	1.4894
1162.97	2.32966
1166.35	1.78851
1169.72	2.27014
1173.1	3.02631
1176.47	2.24165
1179.85	2.20836
1183.22	2.65762
1186.6	2.03679
1189.97	1.53257
1193.35	1.56857
1196.72	2.40031
1200.1	1.99782
1203.47	1.17422
1206.85	2.24343
1210.22	2.17407
1213.6	1.64405
1216.97	1.7835
1220.35	1.50956
1223.72	0.741714
1227.1	1.60426
1230.47	0.765812
1233.85	0.363247
1237.22	0.642601
1240.6	1.38386
1243.97	0.750332
1247.35	0.671158
1250.72	0.111702
1254.1	0.513508
1257.47	0.057652
1260.85	0.264919
1264.22	0.815372
1267.59	0.502037
1270.97	0.365105
1274.34	0.093922
1277.72	0.656761
1281.09	0.43047
1284.47	0.248524
1287.84	0.402676
1291.22	0.77705
1294.59	0.072083
1297.97	0.17432
1301.34	0.013126
