Measurement: Raman, 532 nm, unoriented, Raman Data Processed
Mineral: Sincosite
Rruff sample: R141154
Ideal chemistry: Ca(V^4+^O)_2_(P^5+^O_4_)_2_4H_2_O
Locality: South Rasmussen Ridge mine, Caribou County, Idaho, USA
Source: Tom Loomis
Description: Both dark brassy green and bright green platy crystals. Crystals twinned by a 2-fold around [1 -1 0].
Raman shift (cm-1)	intensity
89.7832	0
93.158	18.2331
96.5328	14.4115
99.9077	1.22934
103.282	0.402466
106.657	4.18192
110.032	36.1212
113.407	35.0598
116.782	52.6874
120.157	59.8654
123.531	52.9645
126.906	60.2282
130.281	45.5804
133.656	38.2642
137.031	30.273
140.405	31.7793
143.78	27.7576
147.155	22.3979
150.53	20.7684
153.905	19.9554
157.28	19.6666
160.654	12.6937
164.029	15.7933
167.404	20.9482
170.779	26.2576
174.154	31.5045
177.528	33.2981
180.903	35.548
184.278	32.311
187.653	19.0055
191.028	4.80627
194.403	0.399872
197.777	3.40308
201.152	1.56113
204.527	1.63455
207.902	5.13232
211.277	4.4332
214.651	3.27042
218.026	3.47623
221.401	3.46201
224.776	10.8187
228.151	17.9709
231.525	18.6583
234.9	22.7278
238.275	30.5747
241.65	42.4388
245.025	53.7283
248.4	71.9613
251.774	99.278
255.149	123.638
258.524	144.508
261.899	136.455
265.274	101.528
268.649	72.7097
272.023	58.8505
275.398	52.5723
278.773	49.4552
282.148	43.4312
285.523	35.4893
288.897	24.4357
292.272	18.0956
295.647	14.1189
299.022	12.3329
302.397	9.06271
305.772	13.461
309.146	9.24307
312.521	9.36725
315.896	9.01636
319.271	4.54568
322.646	2.2858
326.02	1.42526
329.395	0.804352
332.77	1.78183
336.145	2.20056
339.52	1.27573
342.894	1.66983
346.269	0.27951
349.644	2.34512
353.019	2.95419
356.394	3.49301
359.769	3.25613
363.143	4.64957
366.518	5.31982
369.893	4.96997
373.268	3.95383
376.643	9.66016
380.017	12.3148
383.392	17.7359
386.767	27.9231
390.142	34.9145
393.517	39.6637
396.892	50.5633
400.266	61.1325
403.641	59.1172
407.016	53.8643
410.391	44.1183
413.766	39.5503
417.14	36.9325
420.515	31.3042
423.89	26.2588
427.265	25.3201
430.64	18.8165
434.014	10.8882
437.389	7.091
440.764	6.12891
444.139	5.33746
447.514	4.1803
450.889	3.08081
454.263	1.9306
457.638	4.87061
461.013	5.38
464.388	5.56421
467.763	4.8952
471.137	2.10754
474.512	3.836
477.887	1.6485
481.262	1.01892
484.637	0.528442
488.012	0.503479
491.386	0.683167
494.761	1.24341
498.136	0.074524
501.511	0.040771
504.886	2.37128
508.26	7.97961
511.635	7.84436
515.01	11.1444
518.385	10.5045
521.76	6.90686
525.135	7.02045
528.509	6.28442
531.884	11.4477
535.259	15.919
538.634	22.3121
542.009	30.6657
545.384	37.7994
548.758	48.2275
552.133	45.4674
555.508	46.4671
558.883	44.7162
562.258	43.7543
565.632	35.95
569.007	31.0126
572.382	29.084
575.757	22.8914
579.132	14.6494
582.506	11.9902
585.881	9.95306
589.256	6.46967
592.631	4.00623
596.006	5.52484
599.381	3.93164
602.755	0.896118
606.13	1.14764
609.505	2.97455
612.88	2.7077
616.255	5.32318
619.63	1.23889
623.004	0.153015
626.379	0.537048
629.754	0.06189
633.129	0.440308
636.504	1.74603
639.878	0.690979
643.253	4.28638
646.628	3.03668
650.003	6.33685
653.378	3.67328
656.752	4.78613
660.127	5.32849
663.502	7.51819
666.877	10.951
670.252	12.3544
673.626	12.8393
677.001	12.0785
680.376	11.8485
683.751	14.5923
687.126	16.4681
690.501	20.5239
693.875	21.9441
697.25	17.628
700.625	20.7073
704	19.4908
707.375	19.1981
710.75	20.8668
714.124	19.5878
717.499	16.0953
720.874	14.7034
724.249	16.5862
727.624	14.9243
730.998	12.083
734.373	10.281
737.748	7.97485
741.123	6.94226
744.498	8.35577
747.872	6.99878
751.247	10.6689
754.622	5.3335
757.997	3.13702
761.372	0.34198
764.747	1.4588
768.121	0.65625
771.496	2.31952
774.871	0.346375
778.246	0.172546
781.621	0.297424
784.995	0.135864
788.37	0.071472
791.745	0.423828
795.12	0.493225
798.495	0.632141
801.87	0.698975
805.244	3.45593
808.619	3.52966
811.994	2.86426
815.369	5.39258
818.744	5.13013
822.119	8.88745
825.493	9.21735
828.868	9.20874
832.243	11.078
835.618	15.079
838.993	19.5038
842.367	27.8806
845.742	33.2846
849.117	38.2449
852.492	48.5536
855.867	58.0089
859.241	75.1066
862.616	86.7566
865.991	107.112
869.366	121.314
872.741	135.683
876.115	136.163
879.49	132.977
882.865	118.265
886.24	100.789
889.615	85.3515
892.99	69.2222
896.364	54.4108
899.739	43.5797
903.114	31.9963
906.489	23.8741
909.864	17.826
913.239	12.482
916.613	8.8996
919.988	7.55676
923.363	3.58942
926.738	0.061462
930.113	0.393799
933.487	2.97131
936.862	5.31525
940.237	2.21051
943.612	1.37006
946.987	0.768738
950.361	4.57904
953.736	8.37347
957.111	13.0456
960.486	23.6973
963.861	38.772
967.236	64.9381
970.61	107.499
973.985	186.316
977.36	316.399
980.735	511.59
984.11	791.966
987.485	982.095
990.859	887.809
994.234	675.732
997.609	529.387
1000.98	383.109
1004.36	238.968
1007.73	171.77
1011.11	145.214
1014.48	135.792
1017.86	134.14
1021.23	135.478
1024.61	134.136
1027.98	149.443
1031.36	191.903
1034.73	274.883
1038.11	367.344
1041.48	408.716
1044.86	342.56
1048.23	234.567
1051.61	140.597
1054.98	83.3786
1058.36	46.5339
1061.73	27.374
1065.11	12.9742
1068.48	3.49298
1071.86	2.0415
1075.23	0.590454
1078.6	1.87799
1081.98	1.24084
1085.35	1.35474
1088.73	0.3927
1092.1	0.069397
1095.48	1.24066
1098.85	0.708679
1102.23	0.722046
1105.6	1.99402
1108.98	0.095337
1112.35	0.159485
1115.73	1.51733
1119.1	3.00641
1122.48	3.41705
1125.85	1.94415
1129.23	1.61365
1132.6	0.99707
1135.98	3.88928
1139.35	2.60779
1142.73	3.51721
1146.1	4.4762
1149.48	2.47742
1152.85	5.26813
1156.22	6.40295
1159.6	0.473206
1162.97	5.93597
1166.35	1.38257
1169.72	2.67468
1173.1	2.28565
1176.47	4.14807
1179.85	3.57373
1183.22	2.75903
1186.6	4.35687
1189.97	1.35046
1193.35	5.62189
1196.72	4.17108
1200.1	2.36194
1203.47	4.73291
1206.85	3.76294
1210.22	3.67444
1213.6	6.08289
1216.97	3.73163
1220.35	4.04974
1223.72	5.4765
1227.1	0.540161
1230.47	0.926636
1233.85	1.18207
1237.22	3.32501
1240.6	5.68994
1243.97	4.25348
1247.35	5.07965
1250.72	6.13434
1254.1	6.73535
1257.47	5.29474
1260.85	0.860168
1264.22	1.89508
1267.59	1.58185
1270.97	0.035706
1274.34	4.21033
1277.72	4.14807
1281.09	2.33344
1284.47	3.73792
1287.84	1.27051
1291.22	1.46759
1294.59	2.42609
1297.97	2.38318
1301.34	1.24805
