Measurement: Raman, 780 nm, unoriented, Raman Data Processed
Mineral: Sincosite
Rruff sample: R141155
Ideal chemistry: Ca(V^4+^O)_2_(P^5+^O_4_)_2_4H_2_O
Locality: Ross Hannibal mine, Lawrence County, South Dakota, USA
Source: Tom Loomis
Description: Green platy crystals. Crystal exhibits a 2-fold rotation twin around [1 -1 0].
Raman shift (cm-1)	intensity
93.4884	0
96.8632	5.51248
100.238	1.8977
103.613	2.5835
106.988	3.2012
110.362	6.1452
113.737	1.40723
117.112	8.45944
120.487	9.78055
123.862	11.0533
127.237	6.87131
130.611	7.03845
133.986	4.63589
137.361	4.08591
140.736	5.73682
144.111	3.39889
147.485	0.041199
150.86	3.63005
154.235	0.338913
157.61	1.38525
160.985	0.728912
164.359	1.26958
167.734	0.633896
171.109	1.66284
174.484	1.67195
177.859	2.12854
181.234	2.43167
184.608	1.03027
187.983	1.83818
191.358	0.971527
194.733	0.800568
198.108	3.78069
201.482	4.36992
204.857	6.55818
208.232	6.63917
211.607	7.22792
214.982	6.38106
218.357	6.95752
221.731	6.64081
225.106	5.23366
228.481	5.10422
231.856	5.94711
235.231	6.11153
238.605	8.4975
241.98	9.81642
245.355	13.2775
248.73	19.4883
252.105	24.4068
255.48	30.2432
258.854	32.7038
262.229	30.9058
265.604	22.4813
268.979	14.7477
272.354	11.331
275.728	10.3542
279.103	10.5826
282.478	10.3587
285.853	8.9063
289.228	6.96738
292.602	5.09718
295.977	3.82864
299.352	4.83993
302.727	5.69777
306.102	4.04265
309.476	4.95303
312.851	7.35915
316.226	10.8344
319.601	12.2097
322.976	12.1553
326.351	11.9816
329.725	11.9138
333.1	13.1114
336.475	16.8055
339.85	17.7338
343.225	19.4108
346.599	16.9482
349.974	12.2142
353.349	7.80609
356.724	4.67517
360.099	2.12625
363.474	0.338211
366.848	1.53171
370.223	0.022873
373.598	0.814178
376.973	1.0824
380.348	1.71269
383.722	2.45005
387.097	4.06308
390.472	7.52866
393.847	9.46165
397.222	12.0103
400.596	13.0119
403.971	13.3428
407.346	12.2201
410.721	11.6612
414.096	10.3033
417.471	9.87008
420.845	8.85531
424.22	7.36584
427.595	6.06138
430.97	5.23331
434.345	4.09753
437.719	3.81854
441.094	4.16833
444.469	4.39687
447.844	6.36344
451.219	7.61015
454.594	7.87746
457.968	6.52576
461.343	5.87588
464.718	4.36021
468.093	3.5906
471.468	3.2024
474.842	2.89408
478.217	3.30174
481.592	2.61724
484.967	3.49779
488.342	1.51357
491.716	2.83157
495.091	1.97004
498.466	1.95444
501.841	0.984566
505.216	0.947395
508.591	0.411682
511.965	0.099541
515.34	0.157654
518.715	0.4002
522.09	0.112885
525.465	0.551651
528.84	0.47258
532.214	0.770897
535.589	1.64902
538.964	2.8083
542.339	4.31909
545.713	4.85848
549.088	4.76341
552.463	5.08071
555.838	4.29122
559.213	4.77857
562.588	3.90399
565.962	3.60503
569.337	3.53018
572.712	3.48848
576.087	2.42047
579.462	1.66916
582.837	1.07076
586.211	0.606239
589.586	0.471123
592.961	1.25522
596.336	0.280762
599.711	1.32288
603.085	0.75061
606.46	2.36366
609.835	3.11931
613.21	3.83241
616.585	2.85307
619.96	2.53658
623.334	3.27337
626.709	2.33733
630.084	1.67128
633.459	1.34163
636.833	0.847977
640.208	1.32284
643.583	0.286919
646.958	0.144615
650.333	0.687889
653.708	0.248627
657.082	1.08106
660.457	0.823013
663.832	0.553123
667.207	1.11726
670.582	1.18377
673.957	0.524376
677.331	0.413628
680.706	0.828346
684.081	1.1864
687.456	0.96669
690.831	0.171127
694.205	0.179367
697.58	0.591049
700.955	0.275772
704.33	0.786606
707.705	0.042656
711.079	0.797073
714.454	0.849487
717.829	1.70911
721.204	1.07402
724.579	0.681145
727.953	0.38961
731.328	0.699028
734.703	1.20046
738.078	1.31344
741.453	0.861649
744.828	1.75053
748.202	0.708488
751.577	0.117371
754.952	0.544197
758.327	0.584145
761.702	0.239365
765.077	0.233719
768.451	0.13089
771.826	0.119827
775.201	0.492928
778.576	0.017822
781.951	0.410301
785.325	0.12014
788.7	0.516953
792.075	0.163483
795.45	0.024239
798.825	0.149658
802.199	0.741982
805.574	0.486549
808.949	0.945999
812.324	0.377609
815.699	0.875504
819.073	1.58149
822.448	1.35574
825.823	2.30368
829.198	3.45311
832.573	2.34666
835.948	3.41915
839.322	4.33419
842.697	6.23322
846.072	8.18904
849.447	9.56308
852.822	13.4063
856.197	15.2202
859.571	19.1766
862.946	24.1348
866.321	29.5953
869.696	35.442
873.071	42.1487
876.445	49.7265
879.82	56.9778
883.195	64.0802
886.57	70.5164
889.945	74.661
893.319	78.3446
896.694	76.3448
900.069	69.2369
903.444	60.1895
906.819	49.5069
910.193	39.5735
913.568	31.2322
916.943	24.3113
920.318	18.5488
923.693	13.6281
927.068	7.83044
930.442	7.10498
933.817	3.92763
937.192	2.22158
940.567	0.510452
943.942	0.085411
947.317	0.746933
950.691	0.81115
954.066	0.798141
957.441	0.256607
960.816	1.07967
964.191	1.57286
967.565	3.71853
970.94	6.80611
974.315	11.8144
977.69	18.6716
981.065	29.4903
984.439	40.6352
987.814	42.4354
991.189	38.2859
994.564	32.2754
997.939	27.9693
1001.31	23.4302
1004.69	17.1229
1008.06	13.0695
1011.44	10.1961
1014.81	9.84347
1018.19	8.50469
1021.56	7.23791
1024.94	7.52316
1028.31	7.38621
1031.69	7.81323
1035.06	10.0519
1038.44	10.4341
1041.81	8.99521
1045.19	5.97318
1048.56	4.11601
1051.94	2.11761
1055.31	1.26826
1058.68	0.886635
1062.06	0.238041
1065.43	0.733936
1068.81	0.009106
1072.18	0.576111
1075.56	0.603447
1078.93	0.526829
1082.31	0.057362
1085.68	0.424812
1089.06	0.889755
1092.43	0.071152
1095.81	0.040188
1099.18	0.276791
1102.56	0.920597
1105.93	0.201454
1109.31	1.4549
1112.68	1.69762
1116.06	1.74874
1119.43	1.03187
1122.81	2.64547
1126.18	1.98389
1129.56	1.22015
1132.93	1.41587
1136.31	1.80463
1139.68	1.12756
1143.06	1.262
1146.43	0.793453
1149.81	0.674778
1153.18	1.28402
1156.56	1.50881
1159.93	1.08036
1163.31	0.485405
1166.68	1.4928
1170.05	0.938663
1173.43	0.515034
1176.8	0.945232
1180.18	0.069225
1183.55	0.680218
1186.93	1.24945
1190.3	0.09203
1193.68	0.735126
1197.05	1.21829
1200.43	0.996868
1203.8	1.06812
1207.18	0.714943
1210.55	0.675232
1213.93	0.945858
1217.3	0.82465
1220.68	0.529095
1224.05	0.535526
1227.43	0.399624
1230.8	1.0282
1234.18	0.390186
1237.55	0.696537
1240.92	0.160919
1244.3	0.9562
1247.67	0.037685
1251.05	0.182709
1254.42	0.87394
1257.8	0.594952
1261.17	0.368565
1264.55	1.36594
1267.92	0.682041
1271.3	0.482155
1274.67	0.348854
1278.05	0.590343
1281.42	0.305626
1284.8	0
