Measurement: Raman, 780 nm, unoriented, Raman Data Processed
Mineral: Stellerite
Rruff sample: R060483
Ideal chemistry: Ca_4_(Si_28_Al_8_)O_72_28H_2_O
Locality: Sokolovskoye mine, Kustani Region, Kazakhstan
Source: Michael Scott
Description: Mixture of orange chabazite and stellarite
Measured chemistry: (Ca_3.93_Na_0.07_)_Σ=4_(Si_28.07_Al_7.93_)O_72_·21H_2_O
Raman shift (cm-1)	intensity
93.4884	0
96.8632	2.61108
100.238	1.29997
103.613	3.74835
106.988	3.20535
110.362	0.480545
113.737	0.118439
117.112	3.70418
120.487	5.53873
123.862	9.59009
127.237	11.0029
130.611	14.4141
133.986	12.6743
137.361	13.846
140.736	15.9465
144.111	14.4395
147.485	18.4746
150.86	20.9324
154.235	23.7434
157.61	23.5226
160.985	21.0354
164.359	17.296
167.734	12.3696
171.109	10.9342
174.484	6.9734
177.859	5.71978
181.234	3.23432
184.608	2.18205
187.983	0.518616
191.358	0.204353
194.733	0.956802
198.108	0.636032
201.482	0.299789
204.857	1.17935
208.232	0.621056
211.607	0.43251
214.982	1.99409
218.357	2.10053
221.731	3.5731
225.106	4.54066
228.481	5.80924
231.856	6.83632
235.231	7.0698
238.605	8.08468
241.98	8.43603
245.355	8.88607
248.73	9.83537
252.105	8.41832
255.48	8.15721
258.854	7.62991
262.229	6.57703
265.604	7.02119
268.979	7.00683
272.354	7.99207
275.728	8.58598
279.103	11.0624
282.478	10.7776
285.853	10.6974
289.228	10.7715
292.602	11.4674
295.977	11.2303
299.352	10.3068
302.727	9.79367
306.102	8.20179
309.476	8.26199
312.851	7.65832
316.226	7.5324
319.601	6.33431
322.976	5.12763
326.351	4.6779
329.725	3.62995
333.1	1.52804
336.475	1.48583
339.85	0.218452
343.225	0.807289
346.599	1.48386
349.974	2.04089
353.349	1.13572
356.724	0.03904
360.099	0.477318
363.474	2.44067
366.848	4.09175
370.223	8.50405
373.598	11.1052
376.973	17.0793
380.348	21.8391
383.722	30.4958
387.097	39.5403
390.472	49.5276
393.847	63.6307
397.222	78.2829
400.596	95.5746
403.971	111.483
407.346	123.315
410.721	123.662
414.096	112.41
417.471	92.1143
420.845	73.5678
424.22	57.852
427.595	45.5243
430.97	35.4996
434.345	29.0507
437.719	24.6721
441.094	22.2238
444.469	21.9299
447.844	24.2886
451.219	24.9058
454.594	27.8251
457.968	28.2279
461.343	24.6174
464.718	18.8429
468.093	12.7814
471.468	7.73462
474.842	7.05121
478.217	9.51372
481.592	14.7985
484.967	23.0052
488.342	35.3145
491.716	48.686
495.091	61.8538
498.466	62.1723
501.841	48.12
505.216	28.6912
508.591	14.4224
511.965	7.36776
515.34	3.07814
518.715	0.37011
522.09	0.550156
525.465	0.58675
528.84	0.893198
532.214	0.970318
535.589	1.08229
538.964	0.511997
542.339	0.503424
545.713	0.234566
549.088	0.717836
552.463	1.41169
555.838	2.21561
559.213	2.63395
562.588	2.95016
565.962	3.3796
569.337	3.83867
572.712	4.46149
576.087	5.63897
579.462	5.38273
582.837	6.76806
586.211	6.60358
589.586	7.11709
592.961	7.29115
596.336	7.75827
599.711	8.92344
603.085	8.76755
606.46	9.6631
609.835	9.76576
613.21	10.4172
616.585	10.0035
619.96	10.0603
623.334	8.92801
626.709	7.88739
630.084	7.06413
633.459	6.74821
636.833	5.16677
640.208	5.45472
643.583	4.64497
646.958	3.44653
650.333	2.74321
653.708	2.45113
657.082	1.96857
660.457	2.12272
663.832	1.54578
667.207	1.02486
670.582	0.714039
673.957	0.425539
677.331	0.285027
680.706	0.37451
684.081	0.038956
687.456	0.546629
690.831	0.00963
694.205	0.070692
697.58	0.128973
700.955	0.059324
704.33	0.337706
707.705	0.0333
711.079	0.049957
714.454	0.473495
717.829	0.604959
721.204	0.667477
724.579	0.648918
727.953	0.894297
731.328	0.384748
734.703	0.530222
738.078	0.574545
741.453	0.803009
744.828	0.816221
748.202	0.571762
751.577	0.65773
754.952	0.826805
758.327	1.4551
761.702	2.19415
765.077	2.13483
768.451	2.71916
771.826	3.7528
775.201	4.42306
778.576	4.84151
781.951	5.52345
785.325	5.56657
788.7	5.45076
792.075	5.3155
795.45	4.64196
798.825	3.57793
802.199	3.43599
805.574	2.54676
808.949	1.32608
812.324	1.58002
815.699	0.906696
819.073	0.352814
822.448	0.055233
825.823	0.149511
829.198	0.069292
832.573	0.117182
835.948	0.78854
839.322	0.315165
842.697	0.299623
846.072	1.06453
849.447	0.528898
852.822	0.198759
856.197	0.323433
859.571	0.621513
862.946	0.574015
866.321	0.482788
869.696	0.352406
873.071	1.03186
876.445	1.00538
879.82	0.800564
883.195	1.20329
886.57	0.535212
889.945	0.456092
893.319	0.570649
896.694	0.849747
900.069	0.679858
903.444	0.257548
906.819	0.276278
910.193	0.601411
913.568	0.307281
916.943	0.40814
920.318	0.775803
923.693	0.314142
927.068	0.178591
930.442	0.845109
933.817	0.169346
937.192	0.256572
940.567	0.355138
943.942	0.517798
947.317	0.079443
950.691	0.167066
954.066	0.092006
957.441	0.211617
960.816	0.179813
964.191	0.178711
967.565	0.194886
970.94	0.394594
974.315	0.591904
977.69	0.735073
981.065	0.831325
984.439	0.871819
987.814	1.00326
991.189	1.71181
994.564	1.67986
997.939	1.33238
1001.31	1.82971
1004.69	1.41023
1008.06	1.92509
1011.44	1.80655
1014.81	1.48288
1018.19	1.4717
1021.56	1.19616
1024.94	1.13022
1028.31	1.16494
1031.69	0.822293
1035.06	0.573309
1038.44	0.141171
1041.81	0.000837
1045.19	0.605116
1048.56	0.040651
1051.94	0.049755
1055.31	0.116421
1058.68	0.190638
1062.06	0.076681
1065.43	0.46941
1068.81	0.532576
1072.18	0.796934
1075.56	1.56387
1078.93	2.54077
1082.31	3.08187
1085.68	3.86846
1089.06	4.47195
1092.43	5.1095
1095.81	5.95356
1099.18	5.71831
1102.56	6.04972
1105.93	6.29716
1109.31	6.799
1112.68	6.68628
1116.06	6.86595
1119.43	6.65761
1122.81	6.55161
1126.18	6.48982
1129.56	5.78992
1132.93	6.19585
1136.31	6.48235
1139.68	6.41036
1143.06	6.10832
1146.43	6.3382
1149.81	6.11575
1153.18	5.56455
1156.56	5.16923
1159.93	4.62116
1163.31	3.40472
1166.68	2.95193
1170.05	2.09472
1173.43	1.47376
1176.8	1.07177
1180.18	0.993479
1183.55	0.682445
1186.93	0.462383
1190.3	0.203501
1193.68	0.480033
1197.05	0.317458
1200.43	0.013336
1203.8	0.076968
1207.18	0.049826
1210.55	0.381344
1213.93	0.086204
1217.3	0.0411
1220.68	0.158103
1224.05	0.122216
1227.43	0.378504
1230.8	0.08094
1234.18	1.15901
1237.55	0.681281
1240.92	0.773233
1244.3	1.16366
1247.67	1.19451
1251.05	0.020442
1254.42	0.495213
1257.8	1.04125
1261.17	1.01683
1264.55	0.984027
1267.92	0.667852
1271.3	0.461356
1274.67	0.680573
1278.05	0.050866
1281.42	0.193927
1284.8	0
