Measurement: Raman, 780 nm, unoriented, Raman Data Processed
Mineral: Trevorite
Rruff sample: R150038
Ideal chemistry: Ni^2+^Fe^3+^_2_O_4_
Locality: Agios Konstantinos, Lavrion District slag localities, Attikí Prefecture, Greece
Source: Gunnar Farber
Description: Black octahedral crystals, associated with R150037 euhedral vitreous green liebenbergite.
Measured chemistry: (Ni_0.95_Mg_0.03_Zn_0.02_)_Σ=1.00_(Fe^3+^_1.08_Al_0.74_Mg_0.09_Si_0.04_V^3+^_0.03_Ti_0.02_)_Σ=2.00_O_4_
Raman shift (cm-1)	intensity
146.882	0
149.775	0.542877
152.668	3.31665
155.56	4.45328
158.453	2.71195
161.346	5.4769
164.239	4.549
167.131	3.94467
170.024	4.71303
172.917	1.32384
175.809	0.096603
178.702	0.189774
181.595	0.615311
184.488	0.91391
187.38	0.605331
190.273	1.91202
193.166	3.9379
196.058	2.85246
198.951	2.50461
201.844	4.14723
204.736	5.34407
207.629	7.40128
210.522	9.8335
213.415	12.5714
216.307	14.3846
219.2	15.5029
222.093	14.7599
224.985	15.9109
227.878	14.9316
230.771	14.6911
233.663	14.8478
236.556	13.9336
239.449	13.4362
242.341	12.3757
245.234	12.6012
248.127	9.24237
251.02	8.27654
253.912	6.78296
256.805	6.50398
259.698	5.71219
262.591	6.00011
265.483	4.62183
268.376	3.66124
271.269	0.269653
274.161	0.304642
277.054	0.323547
279.947	0.736588
282.839	0.763367
285.732	0.236191
288.625	2.00018
291.517	1.82878
294.41	0.713776
297.303	0.175644
300.196	0.136047
303.088	0.328918
305.981	1.10112
308.874	0.539703
311.766	0.885834
314.659	1.4286
317.552	2.82491
320.445	5.8761
323.337	8.38145
326.23	11.5496
329.123	15.8283
332.015	19.4149
334.908	21.933
337.801	28.1588
340.693	32.1324
343.586	35.078
346.479	38.1206
349.372	38.3143
352.264	35.5327
355.157	33.5608
358.05	29.5697
360.942	27.8542
363.835	23.5723
366.728	21.9215
369.62	21.0381
372.513	19.2952
375.406	17.1553
378.298	14.6874
381.191	14.5154
384.084	15.3264
386.977	11.9391
389.869	10.0685
392.762	10.4806
395.655	9.0715
398.547	7.28986
401.44	6.69579
404.333	5.11922
407.226	4.22359
410.118	3.97487
413.011	2.39308
415.904	1.56663
418.796	0.323105
421.689	0.527161
424.582	0.997772
427.474	0.793869
430.367	0.432343
433.26	1.68131
436.152	1.03903
439.045	0.072647
441.938	0.437561
444.831	1.66299
447.723	2.56383
450.616	5.46387
453.509	7.93011
456.401	10.4637
459.294	14.7853
462.187	20.0759
465.079	24.6309
467.972	30.3764
470.865	38.3145
473.758	45.9044
476.65	52.8781
479.543	60.8503
482.436	66.4862
485.328	72.0601
488.221	76.235
491.114	78.951
494.007	81.384
496.899	80.0541
499.792	79.7585
502.685	75.1911
505.577	70.9728
508.47	67.7934
511.363	62.2957
514.255	57.2724
517.148	52.6334
520.041	48.6042
522.933	45.2536
525.826	42.0566
528.719	38.0796
531.612	33.9925
534.504	29.6099
537.397	27.4915
540.29	23.0772
543.182	17.7728
546.075	16.1261
548.968	13.0581
551.861	9.67662
554.753	7.08803
557.646	5.2829
560.539	3.27689
563.431	1.60474
566.324	0.353302
569.217	0.663223
572.109	0.25061
575.002	3.32606
577.895	6.34839
580.788	9.88771
583.68	11.971
586.573	14.9411
589.466	17.024
592.358	17.8622
595.251	19.5089
598.144	18.9846
601.037	18.2762
603.929	18.4107
606.822	17.3387
609.715	15.3464
612.607	14.4527
615.5	11.8769
618.393	9.07243
621.285	7.40683
624.178	3.40709
627.071	1.24612
629.963	1.74579
632.856	3.49484
635.749	4.75511
638.642	4.25587
641.534	4.87343
644.427	2.8
647.32	1.90872
650.212	1.11804
653.105	4.81171
655.998	10.7623
658.89	17.8642
661.783	25.798
664.676	35.6631
667.569	45.3542
670.461	55.2881
673.354	63.4368
676.247	75.1722
679.139	82.6024
682.032	90.6203
684.925	97.4299
687.817	101.827
690.71	106.592
693.603	110.406
696.496	117.975
699.388	124.362
702.281	130.803
705.174	140.758
708.066	151.138
710.959	163.05
713.852	174.304
716.745	186.854
719.637	199.225
722.53	210.165
725.423	213.852
728.315	218.91
731.208	214.713
734.101	205.195
736.993	192.803
739.886	173.814
742.779	155.914
745.672	138.798
748.564	123.856
751.457	108.967
754.35	98.6344
757.242	93.8412
760.135	91.8247
763.028	89.807
765.92	84.0465
768.813	77.9259
771.706	68.337
774.598	61.9487
777.491	53.2356
780.384	43.2309
783.277	36.3067
786.169	31.5812
789.062	25.6526
791.955	19.5214
794.847	17.0684
797.74	13.9991
800.633	9.49052
803.526	7.84926
806.418	4.78693
809.311	2.85518
812.204	0.031921
815.096	0.923477
817.989	1.61052
820.882	2.62567
823.774	3.67329
826.667	3.78101
829.56	3.46724
832.453	3.46893
835.345	1.87155
838.238	0.872513
841.131	1.27937
844.023	2.15013
846.916	3.80934
849.809	5.21177
852.702	6.50329
855.594	8.00003
858.487	8.67625
861.38	10.384
864.272	10.7588
867.165	11.7295
870.058	11.8226
872.95	12.5891
875.843	12.6075
878.736	12.6931
881.629	12.3907
884.521	11.9252
887.414	10.3089
890.307	9.06163
893.199	6.98602
896.092	5.29716
898.985	5.70048
901.877	4.35815
904.77	3.21257
907.663	3.40243
910.556	2.57864
913.448	3.41227
916.341	4.04472
919.234	3.32134
922.126	4.57665
925.019	3.54998
927.912	2.68047
930.804	3.45225
933.697	2.71538
936.59	2.68675
939.482	2.79832
942.375	2.93545
945.268	3.22096
948.161	2.39946
951.053	1.49736
953.946	1.53746
956.839	2.21661
959.731	2.11043
962.624	1.9446
965.517	2.01919
968.409	0.680687
971.302	1.8189
974.195	0.464905
977.088	1.04389
979.98	1.45926
982.873	1.27164
985.766	0.71769
988.658	0.440781
991.551	0.604431
994.444	0.297546
997.337	0.220139
1000.23	0.649124
1003.12	0.350838
1006.01	0.950058
1008.91	1.16804
1011.8	0.79718
1014.69	0.272125
1017.59	0.862709
1020.48	0.628899
1023.37	0.197845
1026.26	0.646126
1029.16	1.2752
1032.05	1.08979
1034.94	0.744148
1037.83	1.29892
1040.73	1.63448
1043.62	2.32906
1046.51	1.11817
1049.4	1.2304
1052.3	1.20132
1055.19	1.53297
1058.08	2.62315
1060.98	1.71897
1063.87	1.17036
1066.76	1.70756
1069.65	0.574074
1072.55	1.87066
1075.44	1.36414
1078.33	2.6526
1081.22	0.661194
1084.12	1.34216
1087.01	0.614197
1089.9	0.736092
1092.8	1.11479
1095.69	0.97776
1098.58	0.688705
1101.47	0.084373
1104.37	0.479698
1107.26	1.34695
1110.15	0.187065
1113.05	0.43914
1115.94	0.103531
1118.83	1.03954
1121.72	0.201035
1124.62	0.169464
1127.51	0.81694
1130.4	0.185169
1133.29	0.13673
1136.19	0.249878
1139.08	0.721325
1141.97	0.622868
1144.86	0.632145
1147.76	0.508888
1150.65	1.03568
1153.54	1.45117
1156.43	0.636398
1159.33	1.30764
1162.22	1.22048
1165.11	1.68452
1168.01	1.10014
1170.9	1.23828
1173.79	1.76419
1176.68	1.48716
1179.58	1.02286
1182.47	1.22958
1185.36	2.57981
1188.26	2.17868
1191.15	1.77549
1194.04	0.47504
1196.93	1.63158
1199.83	1.48471
1202.72	0.808853
1205.61	1.20318
1208.5	2.44474
1211.4	0.767696
1214.29	1.39355
1217.18	1.69656
1220.07	1.10981
1222.97	1.21763
1225.86	0.533886
1228.75	1.11858
1231.64	0.956051
1234.54	0.149883
1237.43	0.930611
1240.32	0.2645
1243.22	0.806835
1246.11	0.612907
1249	0.861202
1251.89	0.069077
1254.79	0.281918
1257.68	1.06233
1260.57	0.605656
1263.46	0.698433
1266.36	2.22891
1269.25	0.850861
1272.14	0.288944
1275.04	1.82933
1277.93	0.255569
1280.82	0.215557
