Measurement: Raman, 532 nm, unoriented, Raman Data Processed
Mineral: Trevorite
Rruff sample: R150038
Ideal chemistry: Ni^2+^Fe^3+^_2_O_4_
Locality: Agios Konstantinos, Lavrion District slag localities, Attikí Prefecture, Greece
Source: Gunnar Farber
Description: Black octahedral crystals, associated with R150037 euhedral vitreous green liebenbergite.
Measured chemistry: (Ni_0.95_Mg_0.03_Zn_0.02_)_Σ=1.00_(Fe^3+^_1.08_Al_0.74_Mg_0.09_Si_0.04_V^3+^_0.03_Ti_0.02_)_Σ=2.00_O_4_
Raman shift (cm-1)	intensity
177.81	0
180.703	0.941284
183.596	0.983635
186.488	3.57879
189.381	3.4848
192.274	2.99482
195.167	3.87726
198.059	4.01051
200.952	3.63544
203.845	4.6304
206.738	3.81571
209.63	4.48463
212.523	5.18044
215.416	4.92016
218.308	4.59581
221.201	5.71255
224.094	3.99233
226.986	3.75877
229.879	2.78836
232.772	2.99986
235.665	0.995674
238.557	1.90368
241.45	0.852737
244.343	1.19803
247.235	1.01368
250.128	0.515602
253.021	0.764709
255.913	0.422241
258.806	0.473351
261.699	0.058563
264.591	0.500725
267.484	0.12426
270.377	0.973541
273.27	0.077736
276.162	1.48174
279.055	0.178246
281.948	0.245155
284.84	0.09481
287.733	0.693008
290.626	1.30244
293.519	0.3871
296.411	0.903427
299.304	0.309959
302.197	1.32634
305.089	0.330444
307.982	0.030273
310.875	0.116501
313.767	1.09157
316.66	0.66185
319.553	1.83423
322.445	3.57397
325.338	4.25118
328.231	7.16429
331.124	9.08189
334.016	11.5162
336.909	14.6418
339.802	16.7643
342.694	19.813
345.587	20.8646
348.48	21.2804
351.373	21.3936
354.265	19.8698
357.158	16.9023
360.051	16.6561
362.943	14.5859
365.836	13.8632
368.729	11.6792
371.621	11.8646
374.514	10.8215
377.407	9.45181
380.3	8.74939
383.192	8.47892
386.085	9.02171
388.978	8.33815
391.87	8.32452
394.763	6.97321
397.656	6.17934
400.548	5.78297
403.441	4.86754
406.334	4.0676
409.226	4.33575
412.119	3.88123
415.012	3.54929
417.905	1.85505
420.797	0.290627
423.69	0.290977
426.583	0.236
429.475	0.066505
432.368	0.080231
435.261	0.727707
438.154	1.33831
441.046	0.580643
443.939	0.554886
446.832	0.467323
449.724	0.503654
452.617	1.19095
455.51	2.4985
458.402	3.0191
461.295	6.61214
464.188	7.78711
467.08	11.3933
469.973	14.6523
472.866	18.1531
475.759	22.4549
478.651	25.6005
481.544	31.2138
484.437	35.2428
487.329	36.2617
490.222	37.518
493.115	39.802
496.007	40.8075
498.9	39.9551
501.793	39.2952
504.686	36.784
507.578	36.3957
510.471	33.9108
513.364	31.2726
516.256	28.5832
519.149	26.7621
522.042	25.9613
524.934	24.5095
527.827	23.7783
530.72	22.2334
533.613	20.8148
536.505	18.9083
539.398	17.9347
542.291	15.3988
545.183	12.2167
548.076	10.0087
550.969	8.20145
553.861	6.00411
556.754	4.21536
559.647	2.84714
562.54	3.11978
565.432	0.844391
568.325	1.51829
571.218	1.79066
574.11	3.40053
577.003	6.08226
579.896	6.91545
582.789	10.1751
585.681	12.8762
588.574	13.5062
591.467	14.7582
594.359	14.5524
597.252	14.974
600.145	13.781
603.038	12.718
605.93	13.0053
608.823	12.0024
611.716	9.91901
614.608	8.92157
617.501	7.64662
620.394	5.13382
623.286	2.84492
626.179	0.561462
629.072	1.15265
631.965	2.4252
634.857	3.04744
637.75	2.84775
640.643	3.77773
643.535	2.75684
646.428	2.0959
649.321	0.733185
652.213	2.55077
655.106	7.59131
657.999	11.716
660.891	17.3785
663.784	23.5113
666.677	31.0789
669.57	39.2018
672.462	44.3688
675.355	52.9332
678.248	57.0943
681.14	61.1688
684.033	66.7203
686.926	71.0006
689.818	72.9786
692.711	75.0048
695.604	78.9364
698.497	83.133
701.389	86.6885
704.282	92.5841
707.175	101.076
710.067	109.484
712.96	117.106
715.853	126.493
718.745	132.212
721.638	140.35
724.531	144.015
727.424	145.321
730.316	141.756
733.209	136.485
736.102	129.729
738.994	117.259
741.887	103.833
744.78	92.6953
747.673	83.6367
750.565	80.1561
753.458	78.178
756.351	80.3256
759.243	83.6838
762.136	89.6799
765.029	93.0312
767.921	94.0243
770.814	89.2969
773.707	83.0353
776.6	74.3581
779.492	64.0727
782.385	54.3109
785.278	46.3977
788.17	38.6266
791.063	30.6136
793.956	24.2877
796.848	19.4356
799.741	16.6109
802.634	11.6418
805.527	6.25368
808.419	4.01112
811.312	1.6803
814.205	1.31749
817.097	0.544052
819.99	1.92445
822.883	3.04771
825.775	2.15834
828.668	3.1331
831.561	2.9084
834.453	1.68668
837.346	0.784531
840.239	1.27532
843.132	1.60947
846.024	1.54726
848.917	3.26109
851.81	5.15169
854.702	5.9533
857.595	6.67312
860.488	7.28542
863.38	9.18739
866.273	10.3375
869.166	10.3911
872.059	10.8361
874.951	10.9553
877.844	10.3667
880.737	11.3573
883.629	10.318
886.522	9.72227
889.415	8.14176
892.308	7.34327
895.2	6.25056
898.093	5.00285
900.986	5.03695
903.878	2.96144
906.771	2.87495
909.664	2.47105
912.557	2.6298
915.449	2.36266
918.342	2.41684
921.235	1.80724
924.127	3.42651
927.02	1.99379
929.913	2.90479
932.805	2.81393
935.698	2.6801
938.591	1.77805
941.484	1.61751
944.376	2.47075
947.269	2.76443
950.162	1.54939
953.054	1.96395
955.947	2.21992
958.84	0.680626
961.732	2.14688
964.625	1.59336
967.518	1.57186
970.41	1.40308
973.303	0.606895
976.196	1.19728
979.089	0.948357
981.981	1.58737
984.874	0.727005
987.767	1.10648
990.659	0.983032
993.552	0.090279
996.445	1.73103
999.337	0.634201
1002.23	1.01212
1005.12	0.988998
1008.02	0.218437
1010.91	0.224442
1013.8	0.229713
1016.69	0.366135
1019.59	0.227173
1022.48	0.313271
1025.37	0.705933
1028.26	0.561554
1031.16	1.7728
1034.05	1.12968
1036.94	2.49204
1039.84	2.31885
1042.73	2.41629
1045.62	1.23673
1048.51	1.3583
1051.41	2.10553
1054.3	2.03816
1057.19	2.32825
1060.08	3.18886
1062.98	1.56922
1065.87	0.919907
1068.76	1.43642
1071.65	1.27432
1074.55	2.01533
1077.44	1.30949
1080.33	1.23485
1083.23	1.70684
1086.12	0.24662
1089.01	1.59908
1091.9	1.34859
1094.8	0.039902
1097.69	0.714783
1100.58	1.86682
1103.47	1.0363
1106.37	1.18395
1109.26	0.584419
1112.15	0.2864
1115.05	1.60774
1117.94	0.26339
1120.83	0.985703
1123.72	0.074112
1126.62	0.129852
1129.51	0.071228
1132.4	0.244987
1135.29	0.049118
1138.19	0.152473
1141.08	0.803612
1143.97	1.50531
1146.87	0.299644
1149.76	0.088387
1152.65	1.68724
1155.54	0.359344
1158.44	0.098984
1161.33	0.389252
1164.22	1.22052
1167.11	0.183487
1170.01	1.43774
1172.9	1.18695
1175.79	1.41666
1178.68	1.98987
1181.58	1.61871
1184.47	1.70283
1187.36	1.01451
1190.26	1.43248
1193.15	0.751297
1196.04	2.26486
1198.93	0.927055
1201.83	2.04985
1204.72	1.279
1207.61	0.43486
1210.51	0.803299
1213.4	1.61757
1216.29	2.04747
1219.18	1.24565
1222.08	0.485023
1224.97	1.89716
1227.86	1.14731
1230.75	0.690002
1233.65	0.407768
1236.54	0.986092
1239.43	1.26085
1242.32	1.28569
1245.22	1.74246
1248.11	1.51826
1251	1.88876
1253.89	2.90354
1256.79	0.994759
1259.68	1.35477
1262.57	1.41473
1265.47	1.37804
1268.36	0.828484
1271.25	0.828972
1274.14	0.231483
1277.04	0.139847
1279.93	0.923851
1282.82	0.895744
1285.71	1.96439
1288.61	0.0355
1291.5	0.275795
1294.39	0.769073
1297.29	1.34929
1300.18	0.262863
