Measurement: Raman, 780 nm, unoriented, Raman Data Processed
Mineral: Tweddillite
Rruff sample: R120125
Ideal chemistry: CaSrMn^3+^_2_Al(Si_2_O_7_)(SiO_4_)O(OH)
Locality: Wessels mine, Kalahari manganese field, Cape Province, South Africa
Source: William W. Pinch
Description: Sprays of dark red elongated crystals
Raman shift (cm-1)	intensity
91.5599	0
94.9347	52.4914
98.3096	80.8123
101.684	86.8889
105.059	65.7948
108.434	24.9716
111.809	5.16396
115.184	1.55971
118.558	2.73845
121.933	0.728836
125.308	2.29302
128.683	3.18797
132.058	2.76599
135.433	0.113983
138.807	2.06242
142.182	0.495102
145.557	0.737167
148.932	2.29202
152.307	5.6476
155.681	10.4342
159.056	23.6686
162.431	39.6902
165.806	55.5644
169.181	52.9768
172.555	34.8261
175.93	18.7274
179.305	10.8655
182.68	8.0472
186.055	8.04528
189.43	7.14964
192.804	2.98264
196.179	0.91494
199.554	0.164215
202.929	1.23159
206.304	0.900299
209.678	1.64734
213.053	7.40384
216.428	14.4222
219.803	21.4534
223.178	28.3291
226.553	35.4151
229.927	39.8896
233.302	36.2523
236.677	25.0377
240.052	16.6404
243.427	12.4484
246.801	12.6087
250.176	13.3245
253.551	16.5579
256.926	17.1314
260.301	18.6534
263.675	20.4597
267.05	20.7957
270.425	13.9237
273.8	6.1319
277.175	0.484978
280.55	0.134705
283.924	0.350121
287.299	3.50184
290.674	5.00775
294.049	3.57041
297.424	1.95046
300.798	2.36562
304.173	7.18502
307.548	13.2897
310.923	15.8317
314.298	15.8135
317.673	17.8272
321.047	20.1624
324.422	22.5498
327.797	22.2449
331.172	18.2745
334.547	16.9581
337.921	20.8752
341.296	31.7902
344.671	45.0322
348.046	53.7976
351.421	52.3751
354.796	40.2494
358.17	26.4312
361.545	14.1474
364.92	6.27156
368.295	2.11735
371.67	0.25296
375.044	2.10823
378.419	5.76207
381.794	8.58416
385.169	8.05125
388.544	3.98506
391.918	0.520332
395.293	2.20068
398.668	1.96921
402.043	0.713547
405.418	3.97056
408.793	7.58122
412.167	12.8462
415.542	18.1591
418.917	25.7008
422.292	41.0485
425.667	61.0096
429.041	78.6214
432.416	77.6386
435.791	62.4597
439.166	55.0185
442.541	54.5829
445.915	57.1673
449.29	55.9286
452.665	50.454
456.04	37.3941
459.415	23.3765
462.789	14.8246
466.164	8.01476
469.539	5.17624
472.914	2.56435
476.289	1.7267
479.664	1.77075
483.038	2.42834
486.413	5.63522
489.788	10.3841
493.163	17.0621
496.538	25.2728
499.913	31.6246
503.287	35.3371
506.662	28.8861
510.037	17.986
513.412	10.0765
516.787	5.06679
520.161	2.16887
523.536	0.058613
526.911	0.590107
530.286	0.835003
533.661	0.425953
537.035	0.314995
540.41	0.922401
543.785	2.85044
547.16	6.54378
550.535	12.2115
553.909	20.4855
557.284	34.6328
560.659	42.0674
564.034	30.9358
567.409	20.2835
570.784	17.1646
574.158	20.1898
577.533	23.0415
580.908	26.8557
584.283	28.8863
587.658	32.8871
591.033	35.7165
594.407	33.4862
597.782	30.2481
601.157	28.1175
604.532	29.5255
607.907	30.5273
611.281	29.8947
614.656	26.6533
618.031	21.1466
621.406	15.6009
624.781	12.7374
628.155	10.2045
631.53	9.29965
634.905	7.50923
638.28	7.40823
641.655	7.1639
645.029	7.16535
648.404	5.21414
651.779	3.72762
655.154	2.40453
658.529	0.87701
661.904	0.389057
665.278	0.706409
668.653	0.304752
672.028	0.247536
675.403	0.969322
678.778	0.92263
682.153	2.39591
685.527	1.59994
688.902	1.6964
692.277	1.21617
695.652	0.916067
699.027	0.213314
702.401	0.272652
705.776	0.129374
709.151	0.073536
712.526	0.270107
715.901	0.243382
719.275	0.269499
722.65	1.01911
726.025	0.619259
729.4	1.16766
732.775	0.621487
736.149	1.06669
739.524	1.22346
742.899	1.45121
746.274	1.44701
749.649	1.19873
753.024	1.27221
756.398	1.85759
759.773	0.972706
763.148	1.3378
766.523	1.19767
769.898	1.0096
773.273	0.261042
776.647	0.190163
780.022	0.16263
783.397	0.250643
786.772	0.464409
790.146	0.091118
793.521	0.025303
796.896	0.721163
800.271	0.028946
803.646	0.030373
807.021	1.2393
810.395	0.163622
813.77	1.36188
817.145	2.74921
820.52	3.85026
823.895	5.10705
827.269	6.68919
830.644	8.40255
834.019	9.87753
837.394	12.0232
840.769	14.9847
844.144	18.7631
847.518	22.0211
850.893	24.2795
854.268	23.777
857.643	21.9745
861.018	19.6414
864.393	21.7344
867.767	27.5594
871.142	36.8631
874.517	44.3325
877.892	51.3412
881.266	56.1969
884.641	59.8709
888.016	61.654
891.391	62.2818
894.766	60.4941
898.141	58.4462
901.515	60.0354
904.89	59.9977
908.265	60.4425
911.64	61.6964
915.015	57.9606
918.389	48.5135
921.764	34.6563
925.139	21.8512
928.514	13.3144
931.889	7.58232
935.264	4.25488
938.638	1.89767
942.013	0.135204
945.388	1.02145
948.763	0.883801
952.138	0.698254
955.512	0.15424
958.887	0.113552
962.262	2.72117
965.637	4.80864
969.012	7.06213
972.386	6.90051
975.761	5.33385
979.136	3.01744
982.511	1.90763
985.886	1.48288
989.261	2.63745
992.635	3.00078
996.01	3.69986
999.385	4.9957
1002.76	4.87406
1006.13	4.16435
1009.51	2.88919
1012.88	1.71662
1016.26	1.78306
1019.63	1.33535
1023.01	1.54719
1026.38	0.409168
1029.76	0.675556
1033.13	0.184362
1036.51	0.237286
1039.88	0.396412
1043.26	0.388723
1046.63	0.20719
1050.01	0.693954
1053.38	0.951227
1056.76	1.88046
1060.13	3.17455
1063.51	4.385
1066.88	5.02284
1070.26	5.37605
1073.63	5.38577
1077.01	4.53865
1080.38	4.2621
1083.76	3.85188
1087.13	3.83896
1090.51	2.94775
1093.88	2.25246
1097.26	2.35085
1100.63	0.959818
1104	0.413218
1107.38	0.331514
1110.75	0.04216
1114.13	0.040243
1117.5	0.232965
1120.88	0.177547
1124.25	0.255613
1127.63	0.180729
1131	0.410015
1134.38	1.03651
1137.75	0.013548
1141.13	0.135448
1144.5	0.662952
1147.88	0.918163
1151.25	0.012907
1154.63	0.473545
1158	0.083231
1161.38	0.169016
1164.75	0.185162
1168.13	0.205755
1171.5	0.590834
1174.88	0.047733
1178.25	0.008512
1181.62	0.474113
1185	0.747648
1188.38	0.583899
1191.75	0.759134
1195.12	0.351604
1198.5	0.780994
1201.87	0.771492
1205.25	0.776443
1208.62	0.669147
1212	0.708912
1215.37	0.492256
1218.75	0.690571
1222.12	0.257441
1225.5	0.821714
1228.87	0.15007
1232.25	0.074703
1235.62	0.678202
1239	0.285595
1242.37	1.07955
1245.75	0.859354
1249.12	0.83041
1252.5	0.311308
1255.87	0.319443
1259.25	0.720755
1262.62	0.092319
1265.99	0.312206
1269.37	0.313335
1272.74	0.644165
1276.12	0.45396
1279.49	0.242163
1282.87	0.005066
