Measurement: Raman, 532 nm, unoriented, Raman Data Processed
Mineral: Tweddillite
Rruff sample: R120125
Ideal chemistry: CaSrMn^3+^_2_Al(Si_2_O_7_)(SiO_4_)O(OH)
Locality: Wessels mine, Kalahari manganese field, Cape Province, South Africa
Source: William W. Pinch
Description: Sprays of dark red elongated crystals
Raman shift (cm-1)	intensity
90.7474	0
94.1222	17.6539
97.4971	44.7488
100.872	70.1451
104.247	69.3773
107.621	39.0972
110.996	11.0268
114.371	1.0863
117.746	2.24211
121.121	2.91959
124.496	10.6919
127.87	12.9991
131.245	12.3608
134.62	8.54373
137.995	5.99472
141.37	2.93217
144.744	0.224106
148.119	0.151276
151.494	3.43787
154.869	12.5459
158.244	22.3828
161.619	37.5206
164.993	60.7176
168.368	73.9668
171.743	56.6394
175.118	26.8673
178.493	11.2594
181.868	6.87155
185.242	11.1362
188.617	12.455
191.992	3.60779
195.367	4.22093
198.742	1.42522
202.116	6.16917
205.491	10.6669
208.866	16.3606
212.241	31.2501
215.616	49.0913
218.99	63.1706
222.365	66.7576
225.74	62.1107
229.115	55.9498
232.49	43.5879
235.865	29.8631
239.239	17.0042
242.614	12.5428
245.989	14.7924
249.364	20.3939
252.739	26.3727
256.113	28.5167
259.488	25.643
262.863	24.6336
266.238	22.9328
269.613	15.3371
272.988	7.99924
276.362	1.4984
279.737	4.05283
283.112	9.9762
286.487	24.4341
289.862	37.0515
293.236	27.7652
296.611	6.45639
299.986	4.34023
303.361	2.24469
306.736	6.82458
310.111	18.5577
313.485	23.7993
316.86	29.9479
320.235	39.9647
323.61	51.5085
326.985	56.0386
330.359	52.4221
333.734	49.7151
337.109	58.4546
340.484	84.5879
343.859	119.717
347.233	156.653
350.608	173.041
353.983	153.417
357.358	111.567
360.733	72.2083
364.108	42.6968
367.482	23.718
370.857	13.1919
374.232	10.9254
377.607	15.2441
380.982	19.8061
384.356	20.035
387.731	10.4471
391.106	0.119629
394.481	4.45293
397.856	5.12053
401.231	0.813156
404.605	5.7437
407.98	15.563
411.355	27.5445
414.73	42.839
418.105	65.0412
421.479	97.2586
424.854	145.43
428.229	198.483
431.604	222.223
434.979	188.075
438.354	154.008
441.728	145.472
445.103	146.297
448.478	142.207
451.853	130.082
455.228	109.277
458.603	81.5716
461.977	58.3994
465.352	46.7668
468.727	39.6031
472.102	37.0906
475.477	33.5006
478.851	33.772
482.226	35.7457
485.601	43.8429
488.976	55.2574
492.351	66.2186
495.726	77.51
499.1	82.1118
502.475	78.329
505.85	63.1084
509.225	39.2536
512.6	20.5505
515.974	9.68766
519.349	4.44987
522.724	0.454918
526.099	3.58612
529.474	4.1388
532.848	2.55593
536.223	1.00162
539.598	1.25786
542.973	7.75814
546.348	20.1938
549.722	38.0085
553.097	60.5962
556.472	91.2146
559.847	126.641
563.222	115.719
566.597	73.8697
569.971	54.0136
573.346	56.1879
576.721	63.1318
580.096	74.9032
583.471	82.7239
586.846	95.0119
590.22	106.321
593.595	104.581
596.97	95.1335
600.345	90.0317
603.72	91.6485
607.094	97.0576
610.469	98.4682
613.844	92.7531
617.219	81.3325
620.594	70.9939
623.968	61.764
627.343	51.8325
630.718	45.1775
634.093	39.7466
637.468	35.3908
640.843	31.7086
644.217	28.9078
647.592	24.2296
650.967	17.1897
654.342	10.752
657.717	4.89918
661.091	1.49316
664.466	1.13176
667.841	1.47031
671.216	0.835312
674.591	0.218178
677.966	0.911217
681.34	2.10695
684.715	2.84127
688.09	2.77248
691.465	0.903999
694.84	0.316391
698.215	0.066719
701.589	0.060005
704.964	0.824173
708.339	0.613495
711.714	1.01225
715.089	0.009743
718.463	1.05283
721.838	1.56841
725.213	1.56202
728.588	2.35584
731.963	2.07567
735.337	2.98954
738.712	4.47292
742.087	4.55315
745.462	4.3983
748.837	4.30406
752.212	5.03431
755.586	4.35508
758.961	3.58268
762.336	3.27904
765.711	2.4706
769.086	1.85158
772.46	2.03912
775.835	1.04129
779.21	1.04411
782.585	0.024323
785.96	0.285355
789.335	1.55809
792.709	1.82435
796.084	1.69655
799.459	0.873978
802.834	0.691879
806.209	0.070107
809.583	1.06115
812.958	3.39024
816.333	6.33845
819.708	10.0506
823.083	14.1939
826.457	18.9584
829.832	25.5733
833.207	35.2349
836.582	46.2702
839.957	61.3757
843.332	78.7225
846.706	96.0641
850.081	110.301
853.456	113.666
856.831	107.615
860.206	96.7047
863.581	97.9766
866.955	115.527
870.33	152.834
873.705	191.537
877.08	229.162
880.455	253.392
883.829	275.441
887.204	283.791
890.579	277.672
893.954	254.58
897.329	221.371
900.703	193.238
904.078	168.886
907.453	152.17
910.828	134.978
914.203	122.401
917.578	106.601
920.952	84.2408
924.327	61.8122
927.702	42.0284
931.077	28.0647
934.452	18.8241
937.827	11.5653
941.201	7.11485
944.576	3.1754
947.951	0.388817
951.326	1.09994
954.701	3.06731
958.075	3.31158
961.45	3.0526
964.825	0.175423
968.2	1.53759
971.575	2.88975
974.949	3.79214
978.324	3.96732
981.699	3.92872
985.074	6.06831
988.449	10.5344
991.823	16.042
995.198	22.7864
998.573	29.4599
1001.95	32.5407
1005.32	32.6676
1008.7	26.7125
1012.07	23.1059
1015.45	16.9661
1018.82	13.3129
1022.2	9.55745
1025.57	7.65552
1028.95	7.93522
1032.32	8.53696
1035.7	7.59813
1039.07	4.62737
1042.45	3.83822
1045.82	1.03055
1049.19	0.556442
1052.57	2.47176
1055.94	4.61327
1059.32	9.21386
1062.69	11.976
1066.07	12.1675
1069.44	12.349
1072.82	10.4523
1076.19	8.62127
1079.57	7.03336
1082.94	4.2579
1086.32	3.70573
1089.69	2.35776
1093.07	2.39906
1096.44	1.77561
1099.82	0.621445
1103.19	0.336823
1106.57	0.106514
1109.94	1.09766
1113.32	0.127037
1116.69	0.389656
1120.07	0.509941
1123.44	0.283333
1126.82	0.18399
1130.19	0.0914
1133.57	0.006065
1136.94	0.00428
1140.32	1.07822
1143.69	0.785408
1147.07	0.898224
1150.44	0.537674
1153.82	0.848633
1157.19	1.31708
1160.56	2.91457
1163.94	1.40965
1167.31	1.40354
1170.69	1.61467
1174.06	2.28822
1177.44	1.32803
1180.81	1.8709
1184.19	1.77274
1187.56	2.13998
1190.94	2.06015
1194.31	1.63995
1197.69	1.43274
1201.06	1.57181
1204.44	0.835381
1207.81	1.76085
1211.19	0.911896
1214.56	0.871109
1217.94	0.911507
1221.31	1.20379
1224.69	1.18284
1228.06	0.731819
1231.44	0.785797
1234.81	0.382698
1238.18	1.08294
1241.56	0.883774
1244.93	0.990471
1248.31	0.327034
1251.68	0.614868
1255.06	0.232414
1258.43	1.57739
1261.81	1.08965
1265.18	0.16301
1268.56	0.122902
1271.93	0.23381
1275.31	1.22031
1278.68	0.55558
1282.06	1.32401
1285.43	0.693146
1288.81	1.38222
1292.18	1.3092
1295.56	1.17203
1298.93	0.579086
