Measurement: Raman, 532 nm, unoriented, Raman Data Processed
Mineral: Veszelyite
Rruff sample: R150143
Ideal chemistry: Cu^2+^_3_PO_4_(OH)_3_2H_2_O
Locality: Katanga, Democratic Republic of the Congo
Source: University of Arizona Mineral Museum
Description: Blue single crystals scattered in matrix
Raman shift (cm-1)	intensity
88.1367	0
91.5115	74.7931
94.8863	80.9181
98.2612	109.981
101.636	2.28613
105.011	2.30316
108.386	103.103
111.76	240.352
115.135	487.128
118.51	390.799
121.885	379.217
125.26	633.226
128.635	718.287
132.009	421.642
135.384	275.796
138.759	331.862
142.134	389.065
145.509	430.751
148.883	350.041
152.258	237.5
155.633	187.062
159.008	174.381
162.383	186.494
165.757	114.492
169.132	94.5737
172.507	117.407
175.882	101.783
179.257	78.842
182.632	75.5911
186.006	107.489
189.381	140.238
192.756	158.04
196.131	158.794
199.506	125.324
202.881	91.0105
206.255	63.7246
209.63	48.6575
213.005	52.5509
216.38	61.0187
219.755	38.6935
223.129	16.0776
226.504	14.8494
229.879	13.0605
233.254	35.2056
236.629	109.508
240.004	209.635
243.378	281.191
246.753	274.179
250.128	165.717
253.503	73.3344
256.878	66.9762
260.252	112.887
263.627	119.413
267.002	110.685
270.377	97.2566
273.752	91.3607
277.127	90.9679
280.501	83.381
283.876	68.4351
287.251	51.0111
290.626	37.5074
294.001	16.7389
297.375	1.69641
300.75	7.83374
304.125	8.08972
307.5	6.90869
310.875	0.063843
314.25	2.3064
317.624	7.19458
320.999	19.848
324.374	19.1874
327.749	33.3133
331.124	37.2982
334.498	58.4574
337.873	74.4072
341.248	91.6427
344.623	100.256
347.998	126.74
351.373	178.028
354.747	257.103
358.122	364.675
361.497	480.882
364.872	560.446
368.247	585.465
371.621	568.826
374.996	533.89
378.371	494.515
381.746	448.682
385.121	360.13
388.495	267.955
391.87	174.999
395.245	129.839
398.62	93.9937
401.995	68.3821
405.37	46.3751
408.744	20.8984
412.119	1.34241
415.494	12.7753
418.869	14.4008
422.244	0.326294
425.618	34.8904
428.993	58.8154
432.368	65.0702
435.743	56.4642
439.118	37.1716
442.493	22.4355
445.867	20.4615
449.242	18.1829
452.617	28.9987
455.992	59.7052
459.367	130.147
462.741	258.043
466.116	415.953
469.491	552.623
472.866	590.501
476.241	558.816
479.615	543.766
482.99	580.52
486.365	621.133
489.74	594.843
493.115	508.697
496.49	407.025
499.864	332.639
503.239	266.485
506.614	207.37
509.989	164.947
513.364	140.679
516.739	136.784
520.113	152.901
523.488	190.207
526.863	203.745
530.238	189.445
533.613	151.158
536.987	112.623
540.362	66.9316
543.737	38.1877
547.112	22.3402
550.487	49.9552
553.861	106.401
557.236	125.876
560.611	57.3909
563.986	11.1766
567.361	3.71118
570.736	0.276367
574.11	2.69775
577.485	8.68738
580.86	5.9259
584.235	1.06042
587.61	2.95276
590.985	7.02551
594.359	5.31213
597.734	4.32983
601.109	4.4375
604.484	7.54785
607.859	24.239
611.233	46.2821
614.608	75.9742
617.983	96.3652
621.358	96.2666
624.733	88.2703
628.107	72.5666
631.482	50.5623
634.857	36.0638
638.232	46.8318
641.607	26.8075
644.982	2.59717
648.356	4.87268
651.731	3.94861
655.106	5.77576
658.481	4.48035
661.856	7.80981
665.231	10.2887
668.605	16.9723
671.98	15.3789
675.355	12.2634
678.73	11.561
682.105	6.91919
685.479	9.42041
688.854	11.2926
692.229	6.15613
695.604	12.0757
698.979	7.29846
702.354	7.17896
705.728	5.43604
709.103	8.39697
712.478	3.70898
715.853	1.75781
719.227	1.46814
722.602	5.17651
725.977	13.2131
729.352	10.7969
732.727	20.7406
736.102	24.3199
739.476	17.1906
742.851	16.1703
746.226	14.3715
749.601	18.2924
752.976	18.0461
756.351	20.3115
759.725	16.9657
763.1	17.5853
766.475	15.8776
769.85	11.11
773.225	5.67151
776.599	4.84692
779.974	2.47986
783.349	0.165039
786.724	1.86353
790.099	1.86121
793.473	2.79541
796.848	9.38672
800.223	42.7399
803.598	11.5297
806.973	19.7258
810.348	22.2981
813.722	18.3204
817.097	21.1303
820.472	26.0909
823.847	31.9154
827.222	38.1238
830.597	38.845
833.971	49.3373
837.346	47.4238
840.721	40.2349
844.096	39.6415
847.471	29.6304
850.846	22.443
854.22	21.6144
857.595	25.4668
860.97	23.4779
864.345	27.2485
867.72	32.0759
871.094	25.693
874.469	13.6107
877.844	5.0144
881.219	1.19507
884.594	1.90405
887.968	2.47595
891.343	5.32825
894.718	5.73218
898.093	7.26245
901.468	12.5007
904.842	27.209
908.217	43.6446
911.592	64.6488
914.967	85.3313
918.342	102.686
921.717	107.376
925.091	114.566
928.466	114.537
931.841	118.135
935.216	109.419
938.591	105.725
941.966	106.952
945.34	108.647
948.715	125.269
952.09	175.861
955.465	283.702
958.84	532.938
962.214	1021.77
965.589	1410.41
968.964	910.655
972.339	400.732
975.714	176.083
979.088	82.7218
982.463	40.1237
985.838	14.471
989.213	8.93604
992.588	2.31226
995.963	1.09094
999.337	1.15759
1002.71	3.06848
1006.09	5.09607
1009.46	7.12891
1012.84	13.1233
1016.21	15.9857
1019.59	34.712
1022.96	52.5286
1026.34	75.7295
1029.71	101.248
1033.09	135.085
1036.46	192.487
1039.84	278.163
1043.21	406.904
1046.59	457.577
1049.96	307.869
1053.33	165.114
1056.71	83.1646
1060.08	38.5432
1063.46	13.7181
1066.83	4.44604
1070.21	5.16211
1073.58	3.23657
1076.96	1.02063
1080.33	1.27978
1083.71	10.6398
1087.08	16.5524
1090.46	16.9731
1093.83	11.4367
1097.21	15.7695
1100.58	19.2786
1103.96	23.8194
1107.33	18.6752
1110.71	30.8431
1114.08	30.3519
1117.46	23.7703
1120.83	13.1849
1124.21	6.77423
1127.58	0.092957
1130.95	2.27765
1134.33	4.73755
1137.7	2.30023
1141.08	0.400024
1144.45	2.16919
1147.83	0.724548
1151.2	4.43988
1154.58	5.76794
1157.95	11.6852
1161.33	10.4186
1164.7	4.04828
1168.08	1.38733
1171.45	5.46191
1174.83	8.95599
1178.2	15.4424
1181.58	20.1317
1184.95	24.3221
1188.33	31.3011
1191.7	24.5481
1195.08	11.605
1198.45	8.7774
1201.83	5.76874
1205.2	3.98621
1208.58	2.71936
1211.95	6.47992
1215.33	17.7087
1218.7	25.096
1222.08	19.4426
1225.45	35.494
1228.83	47.7784
1232.2	23.7303
1235.58	18.7284
1238.95	23.6243
1242.32	21.7588
1245.7	27.0259
1249.07	28.6755
1252.45	23.3281
1255.82	23.2156
1259.2	24.3086
1262.57	21.5157
1265.95	10.3438
1269.32	6.21515
1272.7	2.95111
1276.07	3.05774
1279.45	0.038208
1282.82	3.14777
1286.2	2.91717
1289.57	0.728271
1292.95	2.83783
1296.32	7.21344
1299.7	2.6557
