Measurement: Raman, 532 nm, unoriented, Raman Data Processed
Mineral: Veszelyite
Rruff sample: R160003
Ideal chemistry: Cu^2+^_3_PO_4_(OH)_3_2H_2_O
Locality: Laochang ore field, Gejiu Co., Honghe Autonomous Prefecture, Yunnan Province, China
Source: Renato and Adriana Pagano
Description: Blue prismatic crystals
Raman shift (cm-1)	intensity
88.1367	0
91.5115	66.0148
94.8863	283.05
98.2612	222.828
101.636	18.0622
105.011	23.4838
108.386	201.046
111.76	379.848
115.135	696.002
118.51	748.55
121.885	641.377
125.26	619.516
128.635	344.185
132.009	196.548
135.384	112.556
138.759	148.595
142.134	250.23
145.509	341.628
148.883	270.399
152.258	112.807
155.633	69.2941
159.008	89.4044
162.383	101.342
165.757	0.347961
169.132	24.2773
172.507	4.00012
175.882	23.3812
179.257	45.1752
182.632	53.6267
186.006	68.8986
189.381	103.969
192.756	149.129
196.131	196.262
199.506	221.491
202.881	253.757
206.255	260.514
209.63	229.68
213.005	172.837
216.38	133.064
219.755	103.854
223.129	68.9723
226.504	62.1707
229.879	75.9656
233.254	120.488
236.629	169.74
240.004	165.891
243.378	126.178
246.753	83.5587
250.128	64.2881
253.503	79.7481
256.878	140.198
260.252	208.191
263.627	234.636
267.002	209.42
270.377	183.583
273.752	161.842
277.127	150.443
280.501	151.31
283.876	145.498
287.251	150.083
290.626	133.624
294.001	88.2457
297.375	48.704
300.75	14.6314
304.125	2.61774
307.5	17.3456
310.875	16.0501
314.25	10.3967
317.624	5.57916
320.999	9.01807
324.374	30.4246
327.749	56.8401
331.124	94.1064
334.498	131.394
337.873	172.155
341.248	209.459
344.623	243.37
347.998	293.913
351.373	362.859
354.747	455.935
358.122	544.524
361.497	608.53
364.872	607.712
368.247	545.309
371.621	496.254
374.996	465.067
378.371	404.107
381.746	315.092
385.121	213.546
388.495	154.82
391.87	120.648
395.245	105.709
398.62	108.725
401.995	125.749
405.37	122.532
408.744	110.136
412.119	98.9386
415.494	91.2622
418.869	89.3698
422.244	99.022
425.618	96.2361
428.993	94.338
432.368	73.7371
435.743	28.819
439.118	4.92889
442.493	22.0399
445.867	19.455
449.242	1.10644
452.617	34.8099
455.992	96.9692
459.367	188.968
462.741	304.722
466.116	404.769
469.491	469.31
472.866	462.517
476.241	440.561
479.615	463.238
482.99	523.235
486.365	585.326
489.74	542.16
493.115	415.869
496.49	299.429
499.864	239.956
503.239	207.744
506.614	190.982
509.989	196.736
513.364	202.322
516.739	207.944
520.113	217.107
523.488	208.651
526.863	164.255
530.238	102.341
533.613	51.2791
536.987	26.2176
540.362	18.9658
543.737	48.5892
547.112	101.14
550.487	188.7
553.861	283.521
557.236	327.561
560.611	229.816
563.986	129.565
567.361	77.1412
570.736	49.4739
574.11	38.7203
577.485	14.5717
580.86	12.0783
584.235	1.7503
587.61	1.32812
590.985	7.33295
594.359	9.15039
597.734	1.70038
601.109	3.76666
604.484	1.90454
607.859	13.5925
611.233	26.1744
614.608	34.209
617.983	38.2984
621.358	40.8721
624.733	39.0478
628.107	35.7448
631.482	36.1738
634.857	34.8677
638.232	35.318
641.607	31.9957
644.982	24.0465
648.356	28.283
651.731	20.8514
655.106	14.1059
658.481	17.7267
661.856	14.5322
665.231	15.8514
668.605	16.1248
671.98	19.8859
675.355	14.3751
678.73	11.9905
682.105	15.999
685.479	17.5135
688.854	9.72315
692.229	4.5827
695.604	6.22211
698.979	2.10583
702.354	1.20007
705.728	4.60486
709.103	3.7406
712.478	8.19171
715.853	5.61597
719.227	13.0018
722.602	8.81696
725.977	14.8498
729.352	15.1566
732.727	19.6701
736.102	19.5577
739.476	14.8734
742.851	15.4811
746.226	14.7418
749.601	11.407
752.976	9.6062
756.351	9.9577
759.725	7.79022
763.1	8.6806
766.475	2.59638
769.85	0.557922
773.225	0.21051
776.599	7.64386
779.974	2.28113
783.349	7.00806
786.724	12.29
790.099	12.8498
793.473	8.89551
796.848	13.6056
800.223	12.333
803.598	5.87293
806.973	3.51288
810.348	0.166199
813.722	0.187866
817.097	1.61792
820.472	6.71698
823.847	14.2615
827.222	21.7437
830.597	34.1166
833.971	30.2949
837.346	26.3788
840.721	19.7564
844.096	22.6538
847.471	24.9048
850.846	30.7827
854.22	32.6554
857.595	47.3945
860.97	46.1434
864.345	55.9019
867.72	63.9962
871.094	64.267
874.469	52.7622
877.844	49.9707
881.219	36.0992
884.594	33.1747
887.968	28.9889
891.343	19.6171
894.718	12.7385
898.093	9.12311
901.468	1.32794
904.842	3.53565
908.217	7.42072
911.592	2.25342
914.967	7.10541
918.342	18.365
921.717	23.627
925.091	39.1187
928.466	53.8052
931.841	69.4925
935.216	78.6544
938.591	99.588
941.966	114.682
945.34	141.855
948.715	205.658
952.09	344.049
955.465	579.869
958.84	941.726
962.214	1362.3
965.589	1336.04
968.964	700.274
972.339	289.767
975.714	129.403
979.088	54.2162
982.463	20.1518
985.838	1.92285
989.213	1.75885
992.588	3.28394
995.963	3.79303
999.337	0.245544
1002.71	1.03095
1006.09	5.5863
1009.46	14.0822
1012.84	7.90253
1016.21	29.0331
1019.59	50.6929
1022.96	84.1405
1026.34	137.414
1029.71	184.272
1033.09	262.162
1036.46	357.557
1039.84	466.615
1043.21	553.739
1046.59	443.972
1049.96	241.29
1053.33	119.358
1056.71	61.0776
1060.08	32.1883
1063.46	15.9173
1066.83	5.90448
1070.21	5.46686
1073.58	1.66284
1076.96	2.22894
1080.33	1.28638
1083.71	1.46521
1087.08	2.44177
1090.46	1.02142
1093.83	2.24884
1097.21	5.00342
1100.58	7.35516
1103.96	9.86975
1107.33	7.20593
1110.71	2.96973
1114.08	1.26025
1117.46	9.3324
1120.83	9.07947
1124.21	8.61359
1127.58	6.60083
1130.95	2.95752
1134.33	1.13446
1137.7	4.34906
1141.08	4.85376
1144.45	3.17902
1147.83	5.60791
1151.2	6.06763
1154.58	5.68433
1157.95	4.09174
1161.33	6.3938
1164.7	7.70013
1168.08	3.38031
1171.45	2.14002
1174.83	3.617
1178.2	8.34027
1181.58	3.53644
1184.95	4.43793
1188.33	5.41998
1191.7	3.93121
1195.08	2.48193
1198.45	6.39459
1201.83	6.64789
1205.2	0.387329
1208.58	5.28345
1211.95	3.67505
1215.33	2.50244
1218.7	0.83429
1222.08	5.74548
1225.45	2.52283
1228.83	3.12006
1232.2	2.9353
1235.58	5.09338
1238.95	4.643
1242.32	6.86981
1245.7	7.14868
1249.07	10.4011
1252.45	8.81189
1255.82	5.84467
1259.2	12.6005
1262.57	9.25409
1265.95	0.002991
1269.32	5.13178
1272.7	2.74261
1276.07	2.26013
1279.45	2.88348
1282.82	1.25244
1286.2	2.4978
1289.57	0.831665
1292.95	3.76709
1296.32	4.85742
1299.7	3.58069
