Measurement: Raman, 514 nm, unoriented, Raman Data Processed
Mineral: Veszelyite
Rruff sample: R150143
Ideal chemistry: Cu^2+^_3_PO_4_(OH)_3_2H_2_O
Locality: Katanga, Democratic Republic of the Congo
Source: University of Arizona Mineral Museum
Description: Blue single crystals scattered in matrix
Raman shift (cm-1)	intensity
135.337	0
140.379	1394.36
145.419	2649.61
150.454	2695.69
155.486	4785.18
160.515	3452.57
165.54	950.922
170.561	716.5
175.578	1646.61
180.592	4771.25
185.602	7908.68
190.609	8787.16
195.612	7452.34
200.612	5619
205.607	4236.4
210.6	3770.11
215.588	3468.3
220.573	3324.67
225.555	3708.74
230.533	5323.16
235.507	7101.36
240.477	7757.14
245.444	6189.14
250.408	3804.15
255.368	2612.32
260.324	2646.94
265.277	2487.81
270.226	2067.1
275.171	1712.4
280.113	1479.78
285.052	1054.18
289.987	379.586
294.918	94.7773
299.846	373.361
304.77	482.932
309.69	391.648
314.607	142.893
319.521	295.648
324.431	782.104
329.337	1511.16
334.24	2187.63
339.139	2579.39
344.035	2866.99
348.927	3657.63
353.815	5060.47
358.7	6832.8
363.582	8067.33
368.46	8333.85
373.334	8450.23
378.205	8055.17
383.073	6783.38
387.937	5041
392.797	3812.32
397.654	3089.82
402.507	2426.53
407.357	1442.07
412.203	669.508
417.046	301.318
421.885	676.684
426.721	1273.98
431.553	1320.58
436.382	1088.43
441.207	825.221
446.029	863.158
450.847	1460.74
455.662	2810.14
460.473	5685.18
465.281	9301.02
470.085	12795.3
474.886	15142.2
479.683	17366
484.477	19339.8
489.267	18511.1
494.054	15257
498.837	12435.7
503.617	9829.32
508.393	7773.5
513.166	6726.99
517.936	6421.1
522.702	6424.35
527.464	6131.19
532.223	4888.54
536.979	3656.8
541.731	2359.65
546.48	1696.17
551.225	2433.07
555.967	3302.49
560.705	2157.48
565.44	764.102
570.171	54.2676
574.899	204.984
579.624	202.586
584.345	220.902
589.062	144.01
593.777	49.0703
598.487	513.15
603.195	1074.96
607.899	2282.18
612.599	3988.44
617.296	4911.7
621.99	4726.74
626.68	3486.34
631.367	2198.9
636.05	1284.29
640.73	780.26
645.407	481.471
650.08	332.231
654.75	186.797
659.416	228.549
664.079	168.662
668.739	118.086
673.395	55.6074
678.048	85.4316
682.697	32.9609
687.343	3.86133
691.986	96.7754
696.625	23.7539
701.261	185.277
705.893	174.201
710.522	163.166
715.148	166.227
719.77	171.385
724.389	100.344
729.004	324.44
733.616	229.043
738.225	249.725
742.831	305.027
747.433	204.01
752.031	211.643
756.627	159.621
761.219	231.279
765.807	151.576
770.392	95.4688
774.974	34.5547
779.553	44.1816
784.128	12.8008
788.7	59.7539
793.268	72.6602
797.834	93.5234
802.395	135.231
806.954	105.607
811.509	7.71875
816.061	14.4668
820.609	232.168
825.154	286.852
829.696	742.527
834.235	848.426
838.77	615.361
843.302	573.982
847.83	568.525
852.355	577.508
856.877	648.693
861.396	646.555
865.911	694.604
870.423	759.971
874.932	582.678
879.437	479.519
883.939	336.611
888.438	275.926
892.933	278.471
897.425	274.502
901.914	464.045
906.4	703.769
910.882	837.119
915.361	1003.14
919.836	1404.46
924.309	1698.78
928.778	2176.41
933.244	2324.22
937.706	2798.48
942.166	3401.45
946.621	4255.65
951.074	6285.54
955.524	10798.4
959.97	21539.2
964.413	33513.7
968.852	22625.9
973.289	9163.22
977.722	3791.64
982.152	1957.32
986.578	1447.17
991.002	1162.46
995.422	1277.02
999.838	1680.67
1004.25	2291.83
1008.66	2780.85
1017.61	3273.79
1022.1	3753.77
1026.59	4346.9
1031.08	4624.04
1035.56	4608.06
1040.04	4870.52
1044.52	5384.45
1049	4593
1053.47	2671.66
1057.94	1104.17
1062.4	295.06
1066.87	40.9551
1071.33	53.7344
1075.78	176.752
1080.23	118.75
1084.68	16.8457
1089.13	193.816
1093.58	356.711
1098.02	358.549
1102.45	471.76
1106.89	583.066
1111.32	660.393
1115.75	449.164
1120.17	376.748
1124.59	176.32
1129.01	23.5273
1133.43	137.775
1137.84	93.3691
1142.25	26.4141
1146.65	120.871
1151.06	146.232
1155.45	42.5352
1159.85	138.891
1164.25	196.199
1168.64	118.26
1173.02	61.4707
1177.41	9.55273
1181.79	158.027
1186.17	182.301
1190.54	111.203
1194.91	180.998
1199.28	184.6
1203.65	192.062
1208.01	199.978
1212.37	317.006
1216.72	240.111
1221.08	199.252
1225.43	213.891
1229.77	208.254
1234.12	311.166
1238.46	330.707
1242.8	258.676
1247.13	189.482
1251.46	141.717
1255.79	142.762
1260.12	177.453
1264.44	140.365
1268.76	107.66
1273.07	168.562
1277.39	181.434
1281.7	185.522
1286	62.0332
1290.31	75.7383
1294.61	117.498
1298.9	74.6035
1303.2	57.0938
1307.49	94.8496
1311.78	66.0703
1316.07	33.6562
1320.35	3.66016
1324.63	31.3477
1328.9	29.6504
1333.18	36.9375
1337.45	90.9062
1341.71	7.75781
1345.98	105.094
1350.24	29.6055
1354.5	36.0547
1358.75	219.435
1363	151.174
1367.25	19.0879
1371.5	199.897
1375.74	184.332
1379.98	97.9336
1384.22	107.525
1388.45	147.098
1392.68	200.154
1396.91	116.014
1401.13	58.7285
1405.36	196.182
1409.57	125.166
1413.79	26.1328
1418	27.1836
1422.21	79.1074
1426.42	23.873
1430.62	93.7578
1434.82	78.8379
1439.02	162.004
1443.21	117.522
1447.4	178.147
1451.59	36.4238
1455.78	6.84961
1459.96	177.307
1464.14	200.238
1468.32	120.258
1472.49	120.332
1476.66	167.133
1480.83	25.9883
1484.99	73.7617
1489.15	10.6543
1493.31	61.8457
1497.47	43.9082
1501.62	15.9395
1505.77	90.4004
1509.92	10.8535
1514.06	116.16
1518.2	93.5606
1522.34	65.6035
1526.47	214.871
1530.61	63.3672
1534.73	121.439
1538.86	133.627
1542.98	185.424
1547.1	143.412
1551.22	261.606
1555.33	211.641
1559.44	246.16
1563.55	183.74
1567.66	386.535
1571.76	393.725
1575.86	364.238
1579.95	332.68
1584.05	365.065
1588.14	371.67
1592.23	425.201
1596.31	408.242
1600.39	482.801
1604.47	524.293
1608.55	410.072
1612.62	408.957
1616.69	338.297
1620.76	204.596
1624.82	376.994
1628.88	161.457
1632.94	321.869
1636.99	128.81
1641.05	338.217
1645.1	143.154
1649.14	93.4199
1653.18	49.0938
1657.23	176.057
1661.26	41.625
1665.3	103.055
