Measurement: Raman, 780 nm, unoriented, Raman Data Processed
Mineral: Whiteite-(CaMnMg)
Rruff sample: R140770
Ideal chemistry: CaMn^2+^Mg_2_Al_2_(PO_4_)_4_(OH)_2_8H_2_O
Locality: Tip Top mine, Fourmile, Custer District, Custer County, South Dakota, USA
Source: Thomas A. Loomis
Description: Light tan with triangular striated faces, associated with deep red roscherite and colorless acicular sprays of tiptopite. Crystals are twinned by a 2-fold rotation around a*.
Raman shift (cm-1)	intensity
93.4884	0
96.8632	4.16632
100.238	3.07968
103.613	0.036804
106.988	5.28632
110.362	7.521
113.737	4.04938
117.112	4.93185
120.487	0.397736
123.862	1.77521
127.237	0.595032
130.611	1.49188
133.986	4.32385
137.361	8.01135
140.736	14.406
144.111	18.7357
147.485	19.1436
150.86	18.0677
154.235	22.3284
157.61	21.0964
160.985	19.8601
164.359	21.2758
167.734	17.8299
171.109	13.5347
174.484	10.2204
177.859	7.43874
181.234	5.32913
184.608	4.54462
187.983	1.47896
191.358	0.143951
194.733	0.635834
198.108	0.17984
201.482	1.95451
204.857	6.01694
208.232	9.21536
211.607	13.2049
214.982	18.7115
218.357	20.5396
221.731	22.4242
225.106	25.2741
228.481	25.5826
231.856	27.3981
235.231	26.2083
238.605	28.7375
241.98	26.0045
245.355	22.3376
248.73	21.0983
252.105	15.6983
255.48	11.2469
258.854	7.61168
262.229	8.54569
265.604	9.61845
268.979	10.8248
272.354	12.6805
275.728	16.1972
279.103	20.0925
282.478	23.1354
285.853	22.6868
289.228	22.4237
292.602	22.1444
295.977	18.719
299.352	20.6504
302.727	18.0886
306.102	11.8303
309.476	8.27039
312.851	3.5376
316.226	1.85507
319.601	0.054596
322.976	0.945786
326.351	1.33464
329.725	0.035141
333.1	3.09883
336.475	6.42425
339.85	9.14803
343.225	13.4668
346.599	17.7119
349.974	20.1803
353.349	22.7212
356.724	24.416
360.099	23.4798
363.474	21.6759
366.848	18.1753
370.223	14.6484
373.598	10.3626
376.973	7.22946
380.348	4.02304
383.722	1.36905
387.097	0.224884
390.472	0.041702
393.847	1.11922
397.222	1.25269
400.596	0.2565
403.971	2.14703
407.346	2.82457
410.721	5.98891
414.096	9.08266
417.471	13.8212
420.845	20.0401
424.22	24.0969
427.595	30.9369
430.97	34.2723
434.345	32.3562
437.719	31.221
441.094	27.4203
444.469	24.0403
447.844	20.1657
451.219	18.0525
454.594	16.8738
457.968	16.0721
461.343	17.5833
464.718	17.6352
468.093	21.9591
471.468	24.4578
474.842	27.5706
478.217	27.3764
481.592	28.1686
484.967	26.9276
488.342	24.2443
491.716	22.0411
495.091	19.5301
498.466	17.936
501.841	12.6098
505.216	8.79736
508.591	7.26216
511.965	4.4413
515.34	1.32486
518.715	0.337585
522.09	0.645828
525.465	0.51857
528.84	1.77418
532.214	1.40927
535.589	3.85963
538.964	7.08543
542.339	10.611
545.713	14.2413
549.088	16.2723
552.463	18.5361
555.838	20.8979
559.213	24.5084
562.588	27.5374
565.962	32.074
569.337	38.2122
572.712	42.3778
576.087	44.1204
579.462	47.9221
582.837	48.4115
586.211	47.4877
589.586	44.1684
592.961	37.6949
596.336	27.0529
599.711	17.0451
603.085	10.4066
606.46	7.20302
609.835	3.97028
613.21	3.46585
616.585	3.49966
619.96	4.27149
623.334	5.62284
626.709	5.9952
630.084	6.15596
633.459	5.35233
636.833	4.69373
640.208	5.17308
643.583	2.54789
646.958	1.15324
650.333	0.99025
653.708	0.503036
657.082	0.13446
660.457	0.534576
663.832	0.544968
667.207	0.37986
670.582	0.012772
673.957	0.58828
677.331	0.916252
680.706	1.04285
684.081	0.610031
687.456	0.910194
690.831	0.501068
694.205	1.29531
697.58	1.53861
700.955	1.89597
704.33	1.8412
707.705	1.83616
711.079	1.81728
714.454	2.0904
717.829	2.04914
721.204	0.822739
724.579	0.656853
727.953	0.760757
731.328	1.31687
734.703	0.91526
738.078	0.407799
741.453	0.866348
744.828	0.679718
748.202	0.320839
751.577	0.134071
754.952	2.02477
758.327	0.025085
761.702	0.813393
765.077	0.660599
768.451	0.370834
771.826	0.939232
775.201	1.18546
778.576	0.319
781.951	0.19043
785.325	0.236504
788.7	0.647446
792.075	0.035904
795.45	1.38757
798.825	1.58048
802.199	1.27587
805.574	0.792542
808.949	1.58183
812.324	1.69613
815.699	1.07622
819.073	1.36184
822.448	1.48172
825.823	1.30239
829.198	0.737854
832.573	0.648773
835.948	2.75127
839.322	2.32136
842.697	1.56221
846.072	2.17423
849.447	2.43262
852.822	1.87518
856.197	1.447
859.571	2.34352
862.946	2.77286
866.321	1.94044
869.696	1.42473
873.071	1.76983
876.445	0.896667
879.82	0.146378
883.195	0.832039
886.57	0.123024
889.945	0.627411
893.319	0.423233
896.694	0.505905
900.069	0.156181
903.444	1.09313
906.819	0.155128
910.193	0.29113
913.568	0.077446
916.943	1.8653
920.318	1.55205
923.693	2.15153
927.068	3.52206
930.442	5.14334
933.817	8.72002
937.192	11.1643
940.567	14.742
943.942	20.0558
947.317	27.8881
950.691	40.7118
954.066	60.4096
957.441	90.4351
960.816	134.043
964.191	186.461
967.565	244.114
970.94	297.798
974.315	322.743
977.69	274.124
981.065	188.131
984.439	119.76
987.814	81.1444
991.189	57.0644
994.564	43.8636
997.939	34.0353
1001.31	26.9347
1004.69	19.6142
1008.06	15.935
1011.44	11.148
1014.81	8.64583
1018.19	6.3058
1021.56	4.51411
1024.94	3.70357
1028.31	1.04912
1031.69	0.0979
1035.06	0.353157
1038.44	0.498543
1041.81	0.219391
1045.19	1.10699
1048.56	0.190384
1051.94	1.34135
1055.31	2.94087
1058.68	5.48444
1062.06	7.48821
1065.43	12.2086
1068.81	15.1464
1072.18	18.2016
1075.56	19.6269
1078.93	18.4618
1082.31	16.5548
1085.68	13.717
1089.06	12.2134
1092.43	10.6182
1095.81	6.64495
1099.18	5.96493
1102.56	5.05283
1105.93	3.15945
1109.31	2.93017
1112.68	1.79604
1116.06	0.281403
1119.43	0.447845
1122.81	0.008263
1126.18	1.10286
1129.56	1.12139
1132.93	1.77031
1136.31	2.31865
1139.68	1.12263
1143.06	2.37134
1146.43	2.95521
1149.81	1.95166
1153.18	1.28944
1156.56	2.94675
1159.93	4.04613
1163.31	5.95923
1166.68	9.53993
1170.05	12.5837
1173.43	16.0684
1176.8	18.3449
1180.18	19.3099
1183.55	15.6411
1186.93	11.7792
1190.3	7.55398
1193.68	4.78545
1197.05	3.48713
1200.43	2.54148
1203.8	0.629204
1207.18	0.089256
1210.55	0.401787
1213.93	1.01723
1217.3	0.329109
1220.68	0.724632
1224.05	0.342361
1227.43	0.125557
1230.8	1.62465
1234.18	0.316643
1237.55	0.960037
1240.92	1.12486
1244.3	1.54465
1247.67	1.49604
1251.05	2.14576
1254.42	0.911987
1257.8	1.08622
1261.17	0.919144
1264.55	0.232529
1267.92	0.730499
1271.3	0.728821
1274.67	0.153046
1278.05	0.644981
1281.42	0.665726
1284.8	0
