Measurement: Raman, 532 nm, unoriented, Raman Data Processed
Mineral: Whiteite-(CaMnMg)
Rruff sample: R140770
Ideal chemistry: CaMn^2+^Mg_2_Al_2_(PO_4_)_4_(OH)_2_8H_2_O
Locality: Tip Top mine, Fourmile, Custer District, Custer County, South Dakota, USA
Source: Thomas A. Loomis
Description: Light tan with triangular striated faces, associated with deep red roscherite and colorless acicular sprays of tiptopite. Crystals are twinned by a 2-fold rotation around a*.
Raman shift (cm-1)	intensity
89.7832	0
93.158	20.1957
96.5328	20.5874
99.9077	13.2523
103.282	2.80127
106.657	0.722168
110.032	9.85486
113.407	8.69458
116.782	14.1254
120.157	20.2567
123.531	20.4748
126.906	26.1953
130.281	26.0278
133.656	29.33
137.031	31.646
140.405	41.5928
143.78	49.7884
147.155	53.5876
150.53	53.3715
153.905	54.5353
157.28	57.2753
160.654	49.9711
164.029	46.9785
167.404	40.6746
170.779	32.4792
174.154	26.212
177.528	18.8461
180.903	13.6675
184.278	10.0812
187.653	4.24701
191.028	1.70493
194.403	2.65237
197.777	2.48083
201.152	0.40036
204.527	2.82187
207.902	6.32849
211.277	13.4848
214.651	19.8463
218.026	28.8497
221.401	27.9539
224.776	31.8318
228.151	32.12
231.525	34.9852
234.9	39.1914
238.275	37.3878
241.65	39.2884
245.025	34.142
248.4	28.6778
251.774	25.1229
255.149	18.3806
258.524	14.1675
261.899	11.4335
265.274	13.2999
268.649	17.2344
272.023	26.3244
275.398	35.2593
278.773	44.8067
282.148	51.2184
285.523	52.5613
288.897	54.9036
292.272	52.0354
295.647	51.4979
299.022	47.8571
302.397	42.0596
305.772	41.5204
309.146	25.5103
312.521	13.6719
315.896	8.81973
319.271	0.32193
322.646	0.105072
326.02	2.81497
329.395	1.31555
332.77	4.25223
336.145	11.1428
339.52	20.7645
342.894	30.6669
346.269	41.6418
349.644	50.5842
353.019	59.2445
356.394	65.8581
359.769	67.7096
363.143	66.9333
366.518	59.3408
369.893	47.4816
373.268	35.458
376.643	27.2253
380.017	16.8305
383.392	12.399
386.767	5.7868
390.142	0.703247
393.517	2.13879
396.892	2.10889
400.266	1.38269
403.641	1.91003
407.016	4.57977
410.391	9.76291
413.766	15.6754
417.14	23.839
420.515	37.0849
423.89	46.6018
427.265	58.1742
430.64	63.0645
434.014	65.4573
437.389	59.9056
440.764	54.4253
444.139	53.6017
447.514	40.4706
450.889	35.3715
454.263	30.5856
457.638	30.2185
461.013	32.3749
464.388	36.5391
467.763	45.2925
471.137	54.0673
474.512	59.7888
477.887	63.6293
481.262	63.4323
484.637	63.3158
488.012	55.0722
491.386	49.5784
494.761	41.9443
498.136	37.34
501.511	30.332
504.886	25.033
508.26	15.4842
511.635	11.025
515.01	7.36786
518.385	0.002991
521.76	1.93158
525.135	2.02728
528.509	1.47009
531.884	0.982605
535.259	8.54761
538.634	14.901
542.009	18.6258
545.384	28.2886
548.758	38.2029
552.133	41.2391
555.508	46.4363
558.883	50.371
562.258	61.6041
565.632	73.9356
569.007	84.0385
572.382	92.9667
575.757	94.8666
579.132	97.289
582.506	91.7194
585.881	89.2868
589.256	82.8217
592.631	66.4735
596.006	45.7247
599.381	28.6743
602.755	17.1436
606.13	9.25079
609.505	9.88415
612.88	8.17639
616.255	7.11841
619.63	5.92096
623.004	7.60266
626.379	9.78632
629.754	12.4523
633.129	13.9698
636.504	11.7193
639.878	8.94647
643.253	4.95075
646.628	6.48865
650.003	5.87323
653.378	0.819519
656.752	1.74188
660.127	1.21173
663.502	2.396
666.877	1.69147
670.252	1.76917
673.626	2.19739
677.001	0.619019
680.376	1.49371
683.751	1.40051
687.126	2.51813
690.501	1.52502
693.875	1.61151
697.25	3.77417
700.625	3.82965
704	3.76886
707.375	4.04938
710.75	6.44385
714.124	3.62085
717.499	1.36346
720.874	1.84766
724.249	5.49945
727.624	3.87573
730.998	3.57605
734.373	3.50433
737.748	5.11969
741.123	5.74005
744.498	4.43976
747.872	2.9917
751.247	3.16736
754.622	3.51318
757.997	1.03973
761.372	1.44708
764.747	0.560303
768.121	2.78314
771.496	0.003723
774.871	0.361206
778.246	2.51495
781.621	0.638916
784.995	2.03375
788.37	0.778015
791.745	1.38629
795.12	1.53522
798.495	1.20697
801.87	0.844116
805.244	2.36749
808.619	3.17914
811.994	2.88043
815.369	5.0545
818.744	2.8916
822.119	4.02747
825.493	1.9621
828.868	0.782471
832.243	1.04175
835.618	2.57471
838.993	2.9068
842.367	5.09088
845.742	6.96796
849.117	4.99213
852.492	5.05237
855.867	6.35956
859.241	9.64948
862.616	6.54724
865.991	5.38696
869.366	4.71851
872.741	4.7027
876.115	3.34418
879.49	0.320862
882.865	1.04883
886.24	1.5163
889.615	0.550171
892.99	2.41858
896.364	1.31653
899.739	0.071472
903.114	0.24353
906.489	1.04443
909.864	0.732178
913.239	0.845398
916.613	1.13757
919.988	2.98492
923.363	8.8186
926.738	8.93933
930.113	16.8206
933.487	22.6912
936.862	25.142
940.237	38.126
943.612	54.531
946.987	77.4969
950.361	113.19
953.736	170.389
957.111	254.041
960.486	385.113
963.861	570.567
967.236	772.364
970.61	965.039
973.985	1100.1
977.36	992.59
980.735	681.625
984.11	433.678
987.485	282.96
990.859	197.908
994.234	151.484
997.609	115.649
1000.98	95.0238
1004.36	72.8593
1007.73	52.0686
1011.11	43.7544
1014.48	33.2214
1017.86	20.8138
1021.23	17.2356
1024.61	8.03687
1027.98	5.32349
1031.36	1.14612
1034.73	4.08838
1038.11	2.12744
1041.48	3.88806
1044.86	0.974121
1048.23	1.80298
1051.61	2.73083
1054.98	7.53662
1058.36	12.8995
1061.73	20.1741
1065.11	35.2247
1068.48	46.1425
1071.86	59.6941
1075.23	60.7305
1078.6	61.8566
1081.98	55.3612
1085.35	48.5972
1088.73	40.9928
1092.1	32.2689
1095.48	23.8969
1098.85	19.7179
1102.23	12.696
1105.6	11.6029
1108.98	8.21033
1112.35	3.38928
1115.73	0.694336
1119.1	4.49121
1122.48	4.87476
1125.85	1.8739
1129.23	0.485718
1132.6	2.41699
1135.98	2.42505
1139.35	6.11267
1142.73	6.98633
1146.1	4.64807
1149.48	5.03748
1152.85	11.5931
1156.22	17.5349
1159.6	18.3397
1162.97	29.8245
1166.35	33.4477
1169.72	46.2544
1173.1	62.2919
1176.47	78.1709
1179.85	76.6606
1183.22	71.0835
1186.6	57.7733
1189.97	40.9899
1193.35	29.6924
1196.72	14.3348
1200.1	11.3846
1203.47	5.46448
1206.85	10.8602
1210.22	4.05066
1213.6	3.41382
1216.97	2.30969
1220.35	5.41943
1223.72	2.33935
1227.1	0.761963
1230.47	0.964233
1233.85	0.842163
1237.22	3.078
1240.6	3.1062
1243.97	3.96045
1247.35	9.62378
1250.72	8.68628
1254.1	11.2769
1257.47	11.2247
1260.85	13.5927
1264.22	10.6639
1267.59	3.05518
1270.97	10.303
1274.34	7.94641
1277.72	7.62707
1281.09	5.2395
1284.47	12.7136
1287.84	8.14087
1291.22	9.50903
1294.59	4.84302
1297.97	4.46216
1301.34	0.165283
