Measurement: Raman, 514 nm, ccw, Raman Data Processed
Mineral: Quartz
Rruff sample: R050125
Ideal chemistry: SiO_2_
Locality: Linopolis, Minas Gerais, Brazil
Source: Carlos and Paulo Vasconcelos
Description: Pale pink group of single crystals, variety rose quartz
Measured chemistry: Si_1.00_O_2_
Pin_id: L00165
Orientation: Laser parallel to -c* (0 0 -1). Fiducial mark perpendicular to laser is parallel to -b [0 -1 0]
Raman shift (cm-1)	intensity
47.49	0
51.717	76.189
55.942	160.63
60.165	267.573
64.386	340.28
68.604	274.41
72.82	201.774
77.034	92.763
81.246	24.777
85.455	2.399
89.663	20.358
93.868	26.22
98.07	58.227
102.271	72.436
106.469	123.693
110.665	212.142
114.859	463.437
119.05	1137.34
123.24	3986.29
127.427	6878.93
131.612	2655.51
135.794	1118.52
139.975	855.731
144.153	790.895
148.329	743.819
152.503	631.227
156.674	511.118
160.843	588.799
165.011	690.406
169.175	836.509
173.338	1098.35
177.499	1408.21
181.657	1991.58
185.813	2733.72
189.967	3819.63
194.119	5652.33
198.268	7906.49
202.415	9449.55
206.561	9720.56
210.703	8459.23
214.844	6446.65
218.983	4364.57
223.119	3144.88
227.253	2414.94
231.385	1839.77
235.515	1365.05
239.643	1110.31
243.768	985.503
247.891	809.037
252.012	695.669
256.131	626.287
260.248	647.195
264.363	567.19
268.475	312.444
272.585	225.668
276.693	131.486
280.799	102.294
284.903	69.053
289.005	43.754
293.104	28.398
297.201	26.021
301.296	23.53
305.389	5.148
309.48	6.867
313.569	11.675
317.655	20.556
321.74	15.48
325.822	8.556
329.902	2.329
333.98	34.152
338.056	67.908
342.129	93.557
346.201	311.101
350.27	1161.59
354.337	3062.99
358.402	1034.35
362.465	169.689
366.526	16.013
370.585	6.693
374.642	10.523
378.696	3.606
382.748	81.56
386.799	243.411
390.847	1278.18
394.893	1582.87
398.936	509.517
402.978	265.125
407.018	160.709
411.055	99.291
415.091	163.92
419.124	205.625
423.155	228.365
427.184	305.113
431.211	397.857
435.236	530.584
439.259	794.292
443.28	1216.97
447.298	2004.14
451.315	3693.15
455.329	7894.98
459.341	21190.3
463.352	43187.1
467.36	31112.7
471.366	13559
475.37	6780.5
479.372	4102.72
483.371	2897.99
487.369	2262.15
491.365	1691.43
495.358	1379.65
499.35	1168.08
503.339	1054.54
507.326	852.689
511.311	716.852
515.295	618.306
519.276	597.959
523.255	498.352
527.232	465.37
531.207	393.475
535.179	346.696
539.15	331.091
543.119	287.86
547.086	286.55
551.05	211.903
555.013	168.256
558.973	141.608
562.932	131.96
566.888	95.327
570.842	107.556
574.795	98.739
578.745	105.09
582.693	94.486
586.639	71.46
590.583	90.802
594.525	106.27
598.465	90.572
602.403	32.274
606.339	29.481
610.273	46.166
614.205	43.504
618.135	21.865
622.063	44.321
625.989	49.804
629.912	32.291
633.834	17.805
637.754	23.339
641.671	10.91
645.587	12.521
649.501	24.155
653.412	11.209
657.322	22.628
661.23	28.116
665.135	2.306
669.039	19.324
672.94	0.997
676.84	21.3
680.738	42.606
684.633	79.926
688.527	167.267
692.418	427.664
696.308	504.097
700.195	237.531
704.081	87.961
707.964	78.384
711.846	24.805
715.726	37.229
719.603	20.646
723.479	15.056
727.352	9.791
731.224	29.759
735.094	19.073
738.961	6.618
742.827	20.666
746.691	10.941
750.552	9.206
754.412	0.557
758.27	5.346
762.125	15.167
765.979	21.965
769.831	33.087
773.681	26.2
777.529	9.301
781.375	42.39
785.219	42.468
789.06	122.533
792.901	238.533
796.739	234.529
800.575	134.525
804.409	107.521
808.241	123.199
812.071	88.052
815.899	68.886
819.726	67.148
823.55	48.608
827.372	46.902
831.193	73.428
835.011	59.411
838.828	80.03
842.642	78.393
846.455	64.885
850.266	84.827
854.075	96.776
857.881	86.66
861.686	70.827
865.489	30.297
869.29	53.197
873.089	51.02
876.886	64.826
880.682	65.971
884.475	69.714
888.266	93.707
892.056	85.834
895.843	76.583
899.629	108.306
903.413	62.907
907.194	56.405
910.974	93.469
914.752	92.685
918.528	108.25
922.302	111.953
926.074	74.65
929.844	73.244
933.613	49.93
937.379	70.609
941.144	49.284
944.906	49.954
948.667	30.619
952.426	59.28
956.183	41.936
959.938	49.598
963.691	19.292
967.442	5.562
971.191	23.313
974.939	16.055
978.684	18.797
982.428	0.29
986.169	8.585
989.909	12.083
993.647	8.259
997.383	3.363
1001.12	0.977
1004.85	4.59
1008.58	13.2
1012.31	0.194
1016.03	0.601
1019.76	36.976
1023.48	3.553
1027.2	19.144
1030.92	20.779
1034.64	13.432
1038.36	30.085
1042.07	25.747
1045.78	57.412
1049.49	65.093
1053.2	42.783
1056.9	96.495
1060.61	207.225
1064.31	281.967
1068.01	211.72
1071.71	142.473
1075.41	127.223
1079.1	222.974
1082.79	172.725
1086.48	103.474
1090.17	89.221
1093.86	45.965
1097.55	34.706
1101.23	73.446
1104.91	55.199
1108.59	28.933
1112.27	24.664
1115.95	31.081
1119.62	112.47
1123.3	72.784
1126.97	65.241
1130.63	31.096
1134.3	50.241
1137.97	81.862
1141.63	114.627
1145.29	167.003
1148.95	313.331
1152.61	591.02
1156.27	1274.88
1159.92	1458.35
1163.57	687.429
1167.22	300.125
1170.87	151.078
1174.52	104.663
1178.16	100.934
1181.81	96.827
1185.45	85.278
1189.09	54.864
1192.73	33.906
1196.36	28.24
1200	57.787
1203.63	42.141
1207.26	36.712
1210.89	88.286
1214.52	53.03
1218.14	83.529
1221.77	73.172
1225.39	104.888
1229.01	114.432
1232.62	125.971
1236.24	78.412
1239.86	78.868
1243.47	69.286
1247.08	75.892
1250.69	30.269
1254.3	24.712
1257.9	46.172
1261.5	47.982
1265.11	49.309
1268.71	66.639
1272.3	50.961
1275.9	35.065
1279.49	12.359
1283.09	7.613
1286.68	21.79
1290.27	5.065
1293.86	35.033
1297.44	39.108
1301.03	31.155
1304.61	44.175
1308.19	23.179
1311.77	15.157
1315.34	1.099
1318.92	34.992
1322.49	11.838
1326.06	35.648
1329.63	29.424
1333.2	43.168
1336.77	35.887
1340.33	43.565
1343.89	14.521
1347.46	12.113
1351.02	10.71
1354.57	8.415
1358.13	18.89
1361.68	34.488
1365.23	19.014
1368.79	12.547
1372.33	13.163
1375.88	52.969
1379.43	36.133
1382.97	23.259
1386.51	1.383
1390.05	58.499
1393.59	26.605
1397.13	54.701
1400.66	71.597
1404.19	27.744
1407.72	53.355
1411.25	36.955
1414.78	30.905
1418.31	11.914
1421.83	13.538
1425.36	27.414
1428.88	25.99
1432.39	20.199
1435.91	69.885
1439.43	58.703
1442.94	68.094
1446.45	57.816
1449.96	29.546
1453.47	58.788
1456.98	40.911
1460.48	42.272
1463.99	24.535
1467.49	17.76
1470.99	33.189
1474.49	40.961
1477.99	75.782
1481.48	40.645
1484.97	35.578
1488.46	46.681
1491.95	11.031
1495.44	11.648
1498.93	10.087
1502.41	37.5
1505.9	3.63
1509.38	17.075
1512.86	0
