Measurement: Raman, 785 nm, unoriented, Raman Data Processed
Mineral: Abelsonite
Rruff sample: R070007
Ideal chemistry: Ni^2+^C_31_H_32_N_4_
Locality: Green River Formation, Utah, USA
Source: Geophysical Laboratory, Carnegie Institution of Washington
Description: Purple platy crystals embedded in drill core
Measured chemistry: (Ni_0.92_Fe^2+^_0.05_Cr_0.02_)C_31_H_32_N_4_ ; C, H and N not measured but estimated by stoichiometry
Raman shift (cm-1)	intensity
232.197	0
235.089	195.656
237.982	258.383
240.875	170.617
243.767	142.719
246.66	117.023
249.553	54.7227
252.446	20.9258
255.338	4.57422
258.231	38.0117
261.124	235.344
264.016	231.363
266.909	167.438
269.802	172.246
272.694	143.34
275.587	134.41
278.48	45.3594
281.373	296.059
284.265	332.688
287.158	302.066
290.051	497.582
292.943	346.012
295.836	321.059
298.729	284.375
301.621	505.758
304.514	539.481
307.407	584.34
310.3	669.574
313.192	721.293
316.085	748.219
318.978	662.336
321.87	663.59
324.763	987.809
327.656	1158.05
330.548	1125.18
333.441	1477.74
336.334	1580.45
339.226	1704.36
342.119	2183.61
345.012	2221.45
347.905	2314.73
350.797	2019.79
353.69	1753.04
356.583	1351.93
359.475	1086.12
362.368	867.07
365.261	517.758
368.154	484.086
371.046	282.5
373.939	404.941
376.832	253.41
379.724	355.781
382.617	164.574
385.51	158.734
388.402	42.8945
391.295	114.613
394.188	160.188
397.08	145.199
399.973	150.555
402.866	363.555
405.759	249.746
408.651	105.172
411.544	40.2148
414.437	33.0898
417.329	74.9961
420.222	149.231
423.115	92.3867
426.007	37.082
428.9	178.203
431.793	4.62891
434.686	59.2656
437.578	22.0586
440.471	241.312
443.364	84.8867
446.256	7.62109
449.149	106.141
452.042	91.0156
454.935	64.9141
457.827	42.7812
460.72	34.3867
463.613	214.047
466.505	202.734
469.398	252.691
472.291	115.461
475.183	161.297
478.076	81.3867
480.969	176.91
483.861	200.75
486.754	71.5664
489.647	294.414
492.54	381.195
495.432	445.164
498.325	137.547
501.218	126.008
504.111	262.82
507.003	249.125
509.896	300.223
512.789	307.059
515.681	293.223
518.574	345.824
521.467	133.106
524.359	17.2383
527.252	143.617
530.145	79.4023
533.038	186.328
535.93	158.941
538.823	110.734
541.716	255.527
544.608	74.6484
547.501	46.7891
550.394	251.188
553.286	114.586
556.179	122.93
559.072	303.32
561.965	201.602
564.857	209.059
567.75	119.055
570.643	166.363
573.535	189.535
576.428	183.227
579.321	255.59
582.213	249.574
585.106	316.57
587.999	278.664
590.891	202.746
593.784	124.371
596.677	12.1562
599.57	191.871
602.462	135.633
605.355	95.0312
608.248	163.805
611.14	167.277
614.033	75.6914
616.926	216.371
619.818	314.047
622.711	282.609
625.604	94.5703
628.497	116.273
631.389	140.562
634.282	15.4219
637.175	93.2695
640.067	31.7617
642.96	234.379
645.853	342.891
648.745	188.316
651.638	445.945
654.531	206.508
657.424	176.449
660.316	93.8477
663.209	115.598
666.102	97.7656
668.994	79.5312
671.887	1.04688
674.78	112.172
677.673	284.344
680.565	98.5898
683.458	192.309
686.351	186.547
689.243	104.731
692.136	31.2539
695.029	195.176
697.921	346.961
700.814	539.949
703.707	675.172
706.6	789.324
709.492	772.656
712.385	783.039
715.278	559.43
718.17	672.336
721.063	673.762
723.956	461.644
726.848	431.852
729.741	176.949
732.634	50.9805
735.527	20.0234
738.419	11.4531
741.312	66.2734
744.205	38.6914
747.097	216.961
749.99	76.7812
752.883	286.652
755.775	350.672
758.668	494.356
761.561	380.383
764.454	369.176
767.346	132.031
770.239	15.3125
773.132	0.296875
776.024	177.918
778.917	251.887
781.81	433.769
784.702	248.543
787.595	231.848
790.488	249.035
793.381	368.844
796.273	606.812
799.166	808.633
802.059	698.106
804.951	769.133
807.844	537.059
810.737	531.473
813.63	582.254
816.522	481.535
819.415	561.738
822.308	704.973
825.2	773.102
828.093	830.688
830.986	703.731
833.878	609.949
836.771	375.062
839.664	312.445
842.557	160.367
845.449	157.59
848.342	50.5508
851.235	176.656
854.127	8.40625
857.02	161.742
859.913	2.02344
862.805	26.3789
865.698	43.7188
868.591	103.898
871.484	140.367
874.376	5.42969
877.269	191.988
880.162	131.719
883.054	107.871
885.947	16.875
888.84	245.57
891.732	203.106
894.625	265.492
897.518	499.035
900.41	484.926
903.303	471.367
906.196	512.801
909.089	497.309
911.981	347.246
914.874	248.125
917.767	391.996
920.659	245.945
923.552	6.8125
926.445	226.789
929.337	140.883
932.23	293.141
935.123	294.711
938.016	310.574
940.908	335.938
943.801	304.754
946.694	586.738
949.586	778.859
952.479	728.504
955.372	646.32
958.264	635.356
961.157	420.773
964.05	459.871
966.943	446.805
969.835	450.477
972.728	330.144
975.621	334.019
978.513	525.617
981.406	514.734
984.299	499.242
987.192	453.609
990.084	371.668
992.977	373.227
995.87	423.086
998.762	327.707
1001.65	285.66
1004.55	282.113
1007.44	115.832
1010.33	118.918
1013.23	67.4531
1016.12	6.84375
1019.01	59.4336
1021.9	72.3281
1024.8	59.1328
1027.69	254.711
1030.58	38.3203
1033.47	31.5
1036.37	11.9609
1039.26	1.58203
1042.15	104.269
1045.05	125.035
1047.94	140.211
1050.83	154.516
1053.72	318.043
1056.62	334.57
1059.51	185.695
1062.4	288.973
1065.29	134.281
1068.19	145.629
1071.08	143.043
1073.97	75.0352
1076.87	73.582
1079.76	155.035
1082.65	104.512
1085.54	214.363
1088.44	196.898
1091.33	352.93
1094.22	453.863
1097.11	439.211
1100.01	506.492
1102.9	681.41
1105.79	788.008
1108.68	989.859
1111.58	1103.44
1114.47	1193.52
1117.36	1195.87
1120.26	1236.57
1123.15	1475.38
1126.04	1467.82
1128.93	1432.17
1131.83	1224.41
1134.72	941.125
1137.61	845.359
1140.51	875.277
1143.4	861.664
1146.29	749.199
1149.18	620.68
1152.08	579.68
1154.97	632.32
1157.86	425.809
1160.75	352.144
1163.65	264.898
1166.54	277.926
1169.43	424.707
1172.32	641.59
1175.22	666.695
1178.11	661.496
1181	336.902
1183.89	227.977
1186.79	126.527
1189.68	144.051
1192.57	6.97656
1195.47	61.9844
1198.36	15.2305
1201.25	77.3633
1204.14	41.1367
1207.04	33.7148
1209.93	52.7422
1212.82	151.801
1215.71	8.47266
1218.61	143.609
1221.5	367.031
1224.39	636.414
1227.29	741.773
1230.18	619.973
1233.07	848.402
1235.96	834.297
1238.86	743.723
1241.75	211.562
