Measurement: Raman, 785 nm, unoriented, Raman Data Processed
Mineral: Actinolite
Rruff sample: R040064
Ideal chemistry: Ca_2_(Mg_4.5-2.5_Fe^2+^_0.5-2.5_)Si_8_O_22_(OH)_2_
Locality: Ehime Perfecture, Uma Gun, Japan
Source: University of Arizona Mineral Museum
Description: Aggregate of green acicular crystals associated with chlorite
Measured chemistry: (Ca_0.95_Na_0.04_Mn_0.01_)_2_(Mg_0.88_Fe_0.12_)_5_(Si_0.98_Al_0.02_)_8_O_22_(OH)_2_
Raman shift (cm-1)	intensity
211.684	0
214.577	311.473
217.469	1510.73
220.362	2939.35
223.255	3740.25
226.147	3524.62
229.04	4396.76
231.933	3967.57
234.826	2146.77
237.718	1029.57
240.611	897.809
243.504	1259.76
246.396	1297.16
249.289	1442.59
252.182	895.387
255.074	657.734
257.967	436.566
260.86	465.656
263.752	317.715
266.645	66.2578
269.538	171.148
272.431	127.43
275.323	190.836
278.216	157.969
281.109	426.422
284.001	397.629
286.894	387.168
289.787	165.117
292.68	3.33203
295.572	142.555
298.465	381.519
301.358	890.918
304.25	870.809
307.143	963.812
310.036	673.031
312.928	229.824
315.821	123.164
318.714	2.70312
321.606	118.863
324.499	369.387
327.392	702.496
330.285	605.633
333.177	371.539
336.07	79.3125
338.963	76.168
341.855	138.602
344.748	467.359
347.641	842.207
350.534	977.531
353.426	862.144
356.319	639.406
359.212	447.394
362.104	583.402
364.997	1277.37
367.89	1832.64
370.782	1905.4
373.675	1426.6
376.568	1073.56
379.461	829.047
382.353	599.285
385.246	996.121
388.139	1663.84
391.031	2540.19
393.924	2835.02
396.817	1857.93
399.709	1082.83
402.602	793.652
405.495	627.477
408.387	938.676
411.28	1481.37
414.173	1998.08
417.066	1825.27
419.958	1385.4
422.851	908.961
425.744	699.231
428.636	440.172
431.529	639.957
434.422	760.344
437.315	741.031
440.207	458.992
443.1	345.594
445.993	286.301
448.885	5.78125
451.778	42.7617
454.671	92.6172
457.563	57.0547
460.456	71.3828
463.349	18.2227
466.241	277.074
469.134	232.078
472.027	94.1953
474.92	34.9023
477.812	173.598
480.705	36.8867
483.598	104.809
486.49	312.754
489.383	623.434
492.276	527.801
495.168	310.988
498.061	179.762
500.954	23.6445
503.847	100.602
506.739	439.219
509.632	627.508
512.525	1179.52
515.417	1132.93
518.31	1151.19
521.203	1100.76
524.096	1054.94
526.988	1147.46
529.881	928.887
532.774	780.938
535.666	575.481
538.559	531.039
541.452	372.769
544.344	291.269
547.237	60.0195
550.13	87.8555
553.023	134.828
555.915	237.773
558.808	320.414
561.701	474.117
564.593	359.082
567.486	236.941
570.379	39.6836
573.271	62.6992
576.164	31.2852
579.057	192.391
581.949	180.918
584.842	276.16
587.735	277.785
590.628	244.453
593.52	141
596.413	91.5039
599.306	302.848
602.198	438.227
605.091	593.094
607.984	690.051
610.876	857.82
613.769	673.281
616.662	1055.75
619.555	1037.3
622.447	1108.29
625.34	1200.24
628.233	1149.99
631.125	1300.27
634.018	1209.21
636.911	1109
639.803	934.785
642.696	780.535
645.589	636.062
648.482	711.516
651.374	921.195
654.267	1068.3
657.16	1483.39
660.052	2167.48
662.945	2864.26
665.838	4646.12
668.731	7251.52
671.623	9798.87
674.516	8427.08
677.409	5014.38
680.301	2596.73
683.194	1457.98
686.087	982.59
688.979	725.555
691.872	598.965
694.765	485.82
697.658	471.027
700.55	260.309
703.443	36.4609
706.336	119.379
709.228	178.477
712.121	47.3633
715.014	13.4844
717.906	10.7656
720.799	188.457
723.692	191.539
726.585	25.457
729.477	160.883
732.37	166.051
735.263	345.922
738.155	396.918
741.048	584.484
743.941	433.656
746.833	772.391
749.726	680.461
752.619	473.812
755.511	196.324
758.404	95.668
761.297	342.777
764.19	584.074
767.082	712.223
769.975	633.387
772.868	752.32
775.76	747.219
778.653	820.234
781.546	1023.02
784.438	1114.91
787.331	1331.89
790.224	1282.87
793.117	1321.7
796.009	1298.58
798.902	1392.82
801.795	1527.73
804.687	1457.32
807.58	1515.83
810.473	1511.14
813.365	1688.46
816.258	1384.31
819.151	1132.88
822.044	991.496
824.936	1017.3
827.829	715.332
830.722	772.109
833.614	597.805
836.507	538.879
839.4	379.266
842.293	341.277
845.185	301.598
848.078	356.508
850.971	272.172
853.863	239.098
856.756	88.7852
859.649	103.297
862.541	50.5352
865.434	95.2188
868.327	71.3086
871.22	80.5234
874.112	78.957
877.005	24.3203
879.898	64.9336
882.79	167.75
885.683	63.6758
888.576	196.34
891.468	45.3359
894.361	149.691
897.254	27.2852
900.146	123.008
903.039	45.1836
905.932	250.117
908.825	386.426
911.717	384.023
914.61	379.035
917.503	286.617
920.395	323.75
923.288	617.129
926.181	941.102
929.073	1192.47
931.966	1198.3
934.859	873.426
937.751	496.191
940.644	302.156
943.537	433.316
946.43	410.34
949.322	500.894
952.215	382.383
955.108	262.156
958	65
960.893	266.008
963.786	342.277
966.678	148.602
969.571	126.316
972.464	183.492
975.357	19.4766
978.249	234.441
981.142	273.762
984.035	120.34
986.927	1.41406
989.82	51.4844
992.713	82.457
995.606	85.8125
998.498	262.031
1001.39	532.199
1004.28	339.055
1007.18	467.398
1010.07	250.938
1012.96	379.223
1015.85	540.738
1018.75	809.215
1021.64	1214.98
1024.53	1791.23
1027.42	2142.02
1030.32	2122.34
1033.21	1264.79
1036.1	752.789
1039	532.394
1041.89	735.445
1044.78	611.41
1047.67	708.426
1050.57	724.742
1053.46	1142.21
1056.35	1310.45
1059.24	1438.54
1062.14	1172.93
1065.03	797.93
1067.92	782.875
1070.82	569.875
1073.71	499.957
1076.6	467.59
1079.49	276.504
1082.39	236.426
1085.28	2.45703
1088.17	249.078
1091.07	180.227
1093.96	307.805
1096.85	193.41
1099.74	177.781
1102.63	205.461
1105.53	1.41797
1108.42	20.4531
1111.31	206.18
1114.21	290.539
1117.1	172.781
1119.99	225.012
1122.88	299.144
1125.78	174.227
1128.67	376.391
1131.56	147.676
1134.45	104.008
1137.35	134.926
1140.24	179.133
1143.13	159.434
1146.03	171.461
1148.92	68.0508
1151.81	20.3242
1154.7	153.324
1157.6	286.586
1160.49	235.637
1163.38	190.879
1166.28	94.6055
1169.17	187.195
1172.06	79.7422
1174.95	232.09
1177.85	144.84
1180.74	43.9648
1183.63	85.082
1186.52	42.0234
1189.42	58.3906
1192.31	274.981
1195.2	121.981
1198.09	246.234
1200.99	239.172
1203.88	158.477
1206.77	199.594
1209.66	97.1602
1212.56	104.473
1215.45	449.195
1218.34	354.699
1221.24	278.578
1224.13	442.312
1227.02	292.359
1229.91	215.031
1232.81	310.379
1235.7	188.844
1238.59	291.316
1241.48	162.32
1244.38	255.375
1247.27	210.496
1250.16	20.6016
1253.06	177.676
1255.95	14.2305
1258.84	79.2383
1261.73	173.949
1264.63	128.625
1267.52	175.637
