Measurement: Raman, 785 nm, unoriented, Raman Data Processed
Mineral: Aenigmatite
Rruff sample: R061088
Ideal chemistry: Na_4_(Fe^2+^_10_Ti^4+^_2_)O_4_[Si_12_O_36_]
Locality: Naujakasik, Greenland
Source: Michael Scott
Description: Black prismatic crystals
Measured chemistry: (Na_1.72_Ca_0.28_)_Σ=2_(Fe^2+^_4.90_Mn_0.08_Mg_0.02_)_Σ=5_(Ti_0.85_Al_0.14_Fe^3+^_0.01_)_Σ=1_(Si_5.87_Al_0.13_)_Σ=6_O_20_
Raman shift (cm-1)	intensity
153.449	0
156.342	38.9705
159.234	26.083
162.127	58.4111
165.02	230.203
167.913	134.039
170.805	212.939
173.698	144.541
176.591	216.083
179.483	160.964
182.376	134.563
185.269	183.437
188.161	213.894
191.054	147.391
193.947	160.214
196.84	165.565
199.732	174.809
202.625	175.785
205.518	166.803
208.41	85.1858
211.303	37.429
214.196	3.38159
217.089	9.10059
219.981	9.59033
222.874	48.7611
225.767	115.803
228.659	118.173
231.552	148.237
234.445	130.585
237.337	137.349
240.23	119.575
243.123	159.613
246.016	163.282
248.908	152.583
251.801	103.098
254.694	160.282
257.586	153.855
260.479	177.432
263.372	204.383
266.264	203.973
269.157	199.925
272.05	216.282
274.942	184.102
277.835	165.31
280.728	173.3
283.621	200.385
286.513	114.554
289.406	159.726
292.299	182.179
295.191	180.675
298.084	198.712
300.977	250.45
303.87	241.875
306.762	221.638
309.655	184.349
312.548	120.843
315.44	114.262
318.333	73.7363
321.226	83.9163
324.118	78.1035
327.011	74.2955
329.904	50.6965
332.796	2.44324
335.689	0.425659
338.582	13.8484
341.474	11.837
344.367	0.849487
347.26	24.4264
350.153	5.60327
353.045	8.58264
355.938	50.8628
358.831	82.4277
361.723	102.336
364.616	75.3768
367.509	113.083
370.402	102.724
373.294	114.34
376.187	49.3536
379.08	67.6154
381.972	6.0387
384.865	14.8001
387.758	14.1891
390.651	4.32434
393.543	7.08911
396.436	6.12842
399.329	5.99878
402.221	19.8824
405.114	1.52319
408.007	49.3567
410.899	32.4869
413.792	33.485
416.685	11.3612
419.577	15.5984
422.47	92.9006
425.363	103.851
428.256	154.322
431.148	200.613
434.041	278.128
436.934	294.615
439.826	304.563
442.719	277.951
445.612	251.326
448.505	228.391
451.397	205.007
454.29	172.543
457.183	153.847
460.075	99.989
462.968	91.8919
465.861	98.3984
468.753	85.4359
471.646	29.9498
474.539	66.0102
477.432	100.317
480.324	100.456
483.217	118.95
486.11	151.804
489.002	102.838
491.895	104.481
494.788	62.0941
497.68	37.0322
500.573	6.25977
503.466	18.4393
506.358	0.383301
509.251	47.5356
512.144	43.3676
515.037	95.895
517.929	127.448
520.822	139.875
523.715	124.428
526.607	180.484
529.5	227.04
532.393	231.523
535.285	252.191
538.178	252.826
541.071	269.499
543.964	258.182
546.856	271.399
549.749	273.325
552.642	224.927
555.534	206.585
558.427	210.224
561.32	158.625
564.212	128.848
567.105	102.718
569.998	70.5659
572.891	60.5006
575.783	17.1702
578.676	10.5727
581.569	20.9231
584.461	17.0073
587.354	37.335
590.247	16.7758
593.139	14.3639
596.032	18.2848
598.925	37.3516
601.817	44.3864
604.71	52.0295
607.603	25.6995
610.496	55.3628
613.388	22.234
616.281	51.042
619.174	70.1956
622.066	111.257
624.959	202.001
627.852	288.032
630.745	432.841
633.637	675.8
636.53	970.138
639.423	1368.68
642.315	1731.98
645.208	1842.12
648.101	1738.57
650.993	1412.73
653.886	1120.16
656.779	827.074
659.672	629.196
662.564	416.612
665.457	375.056
668.35	280.939
671.242	245.711
674.135	193.25
677.028	205.652
679.92	171.545
682.813	137.689
685.706	166.182
688.598	150.074
691.491	132.014
694.384	94.433
697.277	47.5273
700.169	50.5309
703.062	14.1638
705.955	10.5546
708.847	6.13464
711.74	23.0282
714.633	0.502563
717.525	3.10425
720.418	20.3755
723.311	8.63086
726.204	14.8916
729.096	13.5743
731.989	4.74219
734.882	27.9365
737.774	13.1454
740.667	27.4711
743.56	19.2631
746.452	14.9148
749.345	19.9309
752.238	26.8608
755.131	17.7041
758.023	23.2972
760.916	63.1361
763.809	31.7374
766.701	7.11658
769.594	9.20422
772.487	33.2899
775.38	2.67248
778.272	12.9428
781.165	12.2427
784.058	27.7239
786.95	16.395
789.843	2.41528
792.736	47.5649
795.628	13.682
798.521	27.3816
801.414	6.36047
804.307	19.6141
807.199	65.4635
810.092	44.7766
812.985	24.2704
815.877	56.1124
818.77	15.2329
821.663	83.5842
824.555	54.3857
827.448	72.5947
830.341	85.2202
833.234	112.683
836.126	66.5831
839.019	56.3359
841.912	60.0791
844.804	55.6036
847.697	22.08
850.59	52.105
853.482	30.1835
856.375	18.3981
859.268	35.4913
862.16	39.968
865.053	39.8138
867.946	25.3469
870.839	36.3816
873.731	39.078
876.624	42.9519
879.517	68.239
882.409	114.504
885.302	142.017
888.195	172.358
891.087	194.697
893.98	180.978
896.873	130.309
899.766	89.276
902.658	71.8452
905.551	45.2087
908.444	35.6521
911.336	8.93982
914.229	5.21277
917.122	13.1091
920.014	20.8462
922.907	5.99744
925.8	7.58594
928.693	28.0553
931.585	16.3809
934.478	29.323
937.371	37.8945
940.263	26.0237
943.156	50.3175
946.049	28.8229
948.942	32.8402
951.834	14.7333
954.727	20.7412
957.62	35.2059
960.512	13.9087
963.405	74.3491
966.298	56.8577
969.19	34.3101
972.083	65.1055
974.976	65.8561
977.869	42.4825
980.761	52.4423
983.654	43.9203
986.547	30.3191
989.439	52.9609
992.332	17.3027
995.225	34.0074
998.117	41.2196
1001.01	46.8601
1003.9	57.3264
1006.79	22.8682
1009.69	6.82373
1012.58	10.3729
1015.47	25.8816
1018.37	55.7814
1021.26	29.0922
1024.15	50.9532
1027.04	90.1269
1029.94	154.778
1032.83	179.455
1035.72	246.344
1038.62	314.998
1041.51	268.33
1044.4	252.726
1047.29	227.51
1050.19	158.317
1053.08	137.119
1055.97	113.578
1058.86	97.6202
1061.76	84.5817
1064.65	78.2739
1067.54	48.1149
1070.43	54.2366
1073.33	45.02
1076.22	9.04273
1079.11	30.6563
1082.01	39.0709
1084.9	31.0529
1087.79	23.2809
1090.68	11.1508
1093.58	7.23212
1096.47	27.5532
1099.36	4.06122
1102.26	28.8835
1105.15	14.8922
1108.04	37.3962
1110.93	22.1388
1113.83	29.1993
1116.72	4.08478
1119.61	20.1893
1122.5	18.9097
1125.4	33.7071
1128.29	38.1266
1131.18	33.4766
1134.07	40.3677
1136.97	20.0437
1139.86	35.6363
1142.75	39.3257
1145.64	42.6636
1148.54	20.9268
1151.43	30.1077
1154.32	52.3204
1157.22	32.8463
1160.11	5.52362
1163	36.0862
1165.89	62.7679
1168.79	37.1701
1171.68	34.8253
1174.57	49.5829
1177.46	52.1792
1180.36	37.9192
1183.25	60.2721
1186.14	23.577
1189.04	33.3788
1191.93	33.1874
1194.82	32.1859
1197.71	35.9979
1200.61	9.24286
1203.5	27.9419
1206.39	50.6793
1209.28	21.8104
1212.18	21.3781
1215.07	21.9399
1217.96	7.27533
1220.86	21.222
1223.75	10.8594
1226.64	15.1702
1229.53	27.2387
1232.43	11.64
1235.32	26
1238.21	44.3839
1241.1	47.8115
1244	31.0659
1246.89	21.0413
1249.78	19.9416
1252.67	7.2923
1255.57	9.94727
1258.46	26.49
1261.35	0.185852
