Measurement: Raman, 785 nm, unoriented, Raman Data Processed
Mineral: Agardite-(Y)
Rruff sample: R070357
Ideal chemistry: Cu^2+^_6_Y^3+^(As^5+^O_4_)_3_(OH)_6_3H_2_O
Locality: Hayashi, Setoda, Ikuchi Island, Hiroshima Prefecture, Chugoku Region, Honshu Island, Japan
Source: Michael Scott
Description: Green acicular to fibrous in spherical aggregates
Measured chemistry: (Cu_5.59_Ca_0.28_Zn_0.03_Fe_0.01_)_Σ=5.91_(Y_0.35_La_0.08_Nd_0.06_Gd_0.03_Ce_0.02_Sm_0.01_Pr_0.01_Al_0.50_)_Σ=1.05_[(AsO_4_)_0.80_(SiO_4_)_0.14_(PO_4_)_0.02_]_3_(OH)_6_·3.51H_2_O
Raman shift (cm-1)	intensity
192.855	0
195.748	21.5488
198.64	76.8027
201.533	34.71
204.426	73.2715
207.318	36.5664
210.211	37.498
213.104	2.13232
215.996	5.25732
218.889	26.5557
221.782	118.849
224.674	95.9419
227.567	148.908
230.46	140.298
233.353	148.413
236.245	39.9736
239.138	104.558
242.031	131.882
244.923	125.068
247.816	62.8999
250.709	71.2852
253.601	13.877
256.494	22.5996
259.387	59.1914
262.28	80.1148
265.172	57.2754
268.065	86.8218
270.958	32.5283
273.85	104.698
276.743	69.9917
279.636	39.6987
282.529	107.08
285.421	93.3359
288.314	71.7339
291.207	122.326
294.099	119.973
296.992	122.098
299.885	88.6528
302.777	154.757
305.67	125.511
308.563	133.909
311.455	180.055
314.348	156.007
317.241	159.097
320.134	177.083
323.026	127.226
325.919	155.747
328.812	84.8413
331.704	92.4619
334.597	28.9917
337.49	7.00977
340.382	6.52734
343.275	17.5381
346.168	18.3066
349.061	30.4336
351.953	49.7207
354.846	18.2378
357.739	42.1582
360.631	3.36816
363.524	7.9707
366.417	38.4277
369.31	31.1387
372.202	45.6787
375.095	59.9414
377.988	51.0845
380.88	104.476
383.773	72.6909
386.666	147.468
389.558	153.252
392.451	200.79
395.344	139.637
398.236	156.863
401.129	187.049
404.022	148.129
406.915	122.547
409.807	71.9048
412.7	116.192
415.593	58.6938
418.485	123.717
421.378	127.282
424.271	116.264
427.163	165.855
430.056	72.6279
432.949	145.068
435.842	102.497
438.734	110.122
441.627	16.689
444.52	73.3535
447.412	27.3394
450.305	90.2461
453.198	112.071
456.091	86.6519
458.983	85.8159
461.876	185.623
464.769	170.551
467.661	270.253
470.554	282.842
473.447	338.847
476.339	348.613
479.232	381.58
482.125	340.524
485.017	311.61
487.91	239.279
490.803	178.919
493.696	148.519
496.588	84.1821
499.481	118.927
502.374	38.4761
505.266	7.8291
508.159	21.0371
511.052	3.42578
513.944	15.0127
516.837	17.7759
519.73	47.8047
522.623	39.7295
525.515	40.5918
528.408	55.5449
531.301	52.8882
534.193	148.839
537.086	48.3433
539.979	12.8823
542.871	36.5474
545.764	37.6103
548.657	81.9111
551.55	20.6343
554.442	69.2188
557.335	23.916
560.228	10.8145
563.12	9.79785
566.013	31.041
568.906	33.3818
571.798	32.335
574.691	66.5
577.584	50.1338
580.477	41.9741
583.369	34.4556
586.262	63.3037
589.155	40.228
592.047	8.10547
594.94	71.0019
597.833	5.12256
600.726	27.4653
603.618	42.3223
606.511	45.6318
609.404	48.8335
612.296	63.6445
615.189	70.6856
618.082	68.6338
620.974	11.6284
623.867	52.8555
626.76	62.2446
629.653	101.231
632.545	61.1753
635.438	67.5332
638.331	96.3135
641.223	100.341
644.116	147.671
647.009	115.071
649.901	72.459
652.794	96.6196
655.687	92.7456
658.58	142.695
661.472	156.449
664.365	120.894
667.258	121.209
670.15	63.1006
673.043	101.199
675.936	97.9712
678.828	90.8809
681.721	72.1021
684.614	108.742
687.506	98.6875
690.399	68.9761
693.292	94.2266
696.185	40.166
699.077	80.7524
701.97	71.5361
704.863	87.0879
707.755	31.771
710.648	7.35986
713.541	71.3687
716.433	75.4419
719.326	29.8999
722.219	89.606
725.112	79.5601
728.004	5.26025
730.897	35.4858
733.79	61.5889
736.682	25.5791
739.575	60.9595
742.468	18.9277
745.361	21.2764
748.253	66.2749
751.146	69.0488
754.039	71.9531
756.931	8.76416
759.824	56.6489
762.717	40.6084
765.609	6.81934
768.502	57.728
771.395	1.44531
774.288	9.20068
777.18	3.89697
780.073	21.2559
782.966	33.602
785.858	66.9253
788.751	101.985
791.644	74.6948
794.536	82.3423
797.429	74.1919
800.322	91.7109
803.215	77.2715
806.107	148.734
809	137.163
811.893	107.926
814.785	206.585
817.678	320.124
820.571	294.853
823.463	352.47
826.356	358.73
829.249	387.645
832.141	441.221
835.034	418.411
837.927	451.977
840.82	405.758
843.712	506.475
846.605	419.076
849.498	471.95
852.39	510.752
855.283	597.95
858.176	671.12
861.068	669.749
863.961	864.201
866.854	746.05
869.747	750.411
872.639	576.999
875.532	499.292
878.425	338.679
881.317	317.601
884.21	183.893
887.103	192.326
889.995	113.592
892.888	128.82
895.781	49.0147
898.674	101.992
901.566	43.9531
904.459	15.2949
907.352	12.8501
910.244	7.44824
913.137	61.8037
916.03	47.3892
918.923	13.875
921.815	15.147
924.708	51.4399
927.601	47.4551
930.493	19.373
933.386	1.44043
936.279	69.7519
939.171	38.0767
942.064	1.2417
944.957	12.0044
947.85	5.45264
950.742	1.80518
953.635	24.77
956.528	42.2837
959.42	15.3428
962.313	30.1523
965.206	66.479
968.098	48.9614
970.991	49.8648
973.884	65.1162
976.777	56.3208
979.669	101.345
982.562	41.5483
985.455	39.771
988.347	35.8023
991.24	51.1548
994.133	13.0557
997.025	59.8931
999.918	59.0166
1002.81	52.8721
1005.7	72.7607
1008.6	32.4902
1011.49	29.9233
1014.38	68.147
1017.27	68.4741
1020.17	64.8911
1023.06	36.5938
1025.95	69.5029
1028.85	62.977
1031.74	51.9805
1034.63	117.946
1037.52	28.5259
1040.42	40.5693
1043.31	55.0708
1046.2	57.8706
1049.09	78.2344
1051.99	50.0532
1054.88	10.4492
1057.77	38.6792
1060.66	81.9863
1063.56	71.3867
1066.45	95.0352
1069.34	53.2505
1072.24	3.70459
1075.13	90.1758
1078.02	63.2778
1080.91	83.1265
1083.81	66.9839
1086.7	12.4956
1089.59	36.4702
1092.48	75.8843
1095.38	63.814
1098.27	35.1484
1101.16	10.2417
1104.06	67.7969
1106.95	75.0523
1109.84	94.4131
1112.73	0.4375
1115.63	83.2363
1118.52	108.825
1121.41	55.6392
1124.3	54.6924
1127.2	82.7319
1130.09	20.4927
1132.98	22.0376
1135.88	39.6196
1138.77	30.7251
1141.66	28.8247
1144.55	95.0933
1147.45	4.77441
1150.34	80.8066
1153.23	52.0454
1156.12	38.7095
1159.02	38.7383
1161.91	5.05664
1164.8	4.6958
1167.69	60.7954
1170.59	0.694336
1173.48	45.1069
1176.37	79.9009
1179.27	61.6851
1182.16	60.98
1185.05	11.9248
1187.94	80.2974
1190.84	74.3662
1193.73	87.4551
1196.62	28.6592
1199.51	42.3643
1202.41	51.3227
1205.3	50.0713
1208.19	104.615
1211.09	84.875
1213.98	52.2676
1216.87	96.8672
1219.76	30.9561
1222.66	25.0586
1225.55	60.0972
1228.44	32.8169
1231.33	15.1548
1234.23	78.9902
1237.12	5.01465
