Measurement: Raman, 532 nm, unoriented, Raman Data Processed
Mineral: Agrellite
Rruff sample: R060914
Ideal chemistry: NaCa_2_Si_4_O_10_F
Locality: Kipawa complex, Quebec, Canada
Source: Royal Ontario Museum
Description: White platy aggregates
Measured chemistry: (Na_0.99_K_0.01_)_Σ=1_(Ca_1.79_Na_0.10_Y_0.04_Ce_0.04_La_0.01_Nd_0.01_Mn_0.01_)_Σ=2_Si_4.00_O_10_F_1.00_
Raman shift (cm-1)	intensity
154.307	0
157.2	18.9609
160.092	290.693
162.985	410.363
165.878	309.236
168.77	298.482
171.663	313.244
174.556	342.588
177.448	333.279
180.341	334.295
183.234	468.453
186.127	488.9
189.019	443.891
191.912	308.162
194.805	358.533
197.697	271.441
200.59	313.752
203.483	314.664
206.375	362.416
209.268	399.783
212.161	299.103
215.054	309.318
217.946	329.477
220.839	408.535
223.732	385.719
226.624	331.627
229.517	374.164
232.41	367.037
235.303	396.432
238.195	361.078
241.088	317.106
243.981	440.555
246.873	432.228
249.766	323.06
252.659	183.496
255.551	9.625
258.444	109.1
261.337	30.6855
264.229	101.16
267.122	100.904
270.015	100.754
272.908	86.8965
275.8	32.7656
278.693	52.5684
281.586	171.236
284.478	379.42
287.371	372.197
290.264	667.234
293.156	904.912
296.049	1171.45
298.942	1623.53
301.834	2505.61
304.727	3364.38
307.62	3807.45
310.513	3961.91
313.405	3457.05
316.298	3062.41
319.191	2801.35
322.083	2814.82
324.976	2647.64
327.869	2595.15
330.762	2579.44
333.654	2150.03
336.547	1746.99
339.44	1095.45
342.332	683.076
345.225	160.176
348.118	274.098
351.01	82.0703
353.903	17.2578
356.796	30.5703
359.688	82.4062
362.581	31.4766
365.474	80.6445
368.366	376.613
371.259	525.371
374.152	962.254
377.045	1313.79
379.937	1614.87
382.83	1780.57
385.723	2043.77
388.615	2158.08
391.508	1969.88
394.401	1834.71
397.293	1788.74
400.186	1892.96
403.079	1844.74
405.972	1379.26
408.864	1200.36
411.757	1131.35
414.65	1103.98
417.542	1097.29
420.435	749.152
423.328	625.141
426.221	134.438
429.113	155.84
432.006	140.441
434.899	65.1094
437.791	117.582
440.684	542.25
443.577	1250.03
446.469	2108.08
449.362	2801.94
452.255	3845.17
455.147	4832.25
458.04	5334.2
460.933	5291.62
463.826	4795.44
466.718	3979.78
469.611	3480.85
472.504	3402.58
475.396	3460.64
478.289	3056.33
481.182	2722.35
484.074	2551.82
486.967	1963.25
489.86	1637.52
492.752	1207.46
495.645	1208.37
498.538	1360.39
501.431	1672.81
504.323	2025.57
507.216	1937.08
510.109	2227.31
513.001	2324.39
515.894	2434.84
518.787	2319.76
521.679	2028.06
524.572	1753.93
527.465	1477.74
530.358	1206.28
533.25	860.184
536.143	559.394
539.036	415.59
541.928	350.852
544.821	398.961
547.714	435.191
550.606	261.711
553.499	180.609
556.392	93.9609
559.284	171.18
562.177	110.551
565.07	267.629
567.963	248.934
570.855	215.703
573.748	155.652
576.641	47.0898
579.533	204.918
582.426	46.0078
585.319	61.5781
588.212	81.332
591.104	193.734
593.997	337.711
596.89	562.164
599.782	929.731
602.675	1936.96
605.568	3496.88
608.46	5277.21
611.353	5000.1
614.246	3479.44
617.139	1618.79
620.031	856.453
622.924	742.227
625.817	631.785
628.709	453.68
631.602	217.457
634.495	147.359
637.387	2.77344
640.28	75.1484
643.173	5.96094
646.066	76.4844
648.958	284.883
651.851	477.781
654.744	385.75
657.636	530.125
660.529	316.137
663.422	489.336
666.314	375.82
669.207	684.07
672.1	512.93
674.992	370.719
677.885	257.391
680.778	418.531
683.67	718.102
686.563	894.414
689.456	1039.06
692.349	1415.71
695.241	1350.95
698.134	1775.77
701.027	1928.47
703.919	2073.06
706.812	2114.5
709.705	2035.85
712.597	2252.44
715.49	1666.62
718.383	1247.75
721.276	810.961
724.168	505.242
727.061	391.719
729.954	177.594
732.846	17.6172
735.739	145.414
738.632	260.039
741.524	133.156
744.417	99.1172
747.31	444.172
750.203	434.328
753.095	150.93
755.988	372.188
758.881	880.359
761.773	604.156
764.666	837.531
767.559	1427.35
770.452	2395.78
773.344	2950.44
776.237	3065.62
779.13	3866.54
782.022	4611.25
784.915	5073.11
787.808	5647.88
790.7	6063.02
793.593	6250.74
796.486	6128.62
799.378	6025.33
802.271	5425.71
805.164	5276.77
808.057	4843.88
810.949	4941.78
813.842	4475.14
816.735	4287.8
819.627	3955.92
822.52	3529.03
825.413	3753.98
828.305	3744.15
831.198	3271.94
834.091	2897.69
836.984	2439.45
839.876	2037.44
842.769	1861.61
845.662	1516.33
848.554	1318.72
851.447	828.609
854.34	374.781
857.232	490.188
860.125	613.305
863.018	600.336
865.91	643.133
868.803	286.781
871.696	95.0156
874.589	68.2109
877.481	23.9062
880.374	302.352
883.267	235.969
886.159	128.242
889.052	489.766
891.945	547.727
894.837	899.133
897.73	963.492
900.623	427.758
903.516	234.93
906.408	114.852
909.301	63.0312
912.194	47.5469
915.086	59.4219
917.979	208.008
920.872	136.141
923.764	496.852
926.657	583.633
929.55	888.203
932.442	390.266
935.335	261.633
938.228	363
941.121	444.609
944.013	139.086
946.906	242.062
949.799	186.531
952.691	313.578
955.584	424.625
958.477	607.938
961.37	883.656
964.262	747.414
967.155	903.945
970.048	807.875
972.94	1071.83
975.833	1433.8
978.726	1418.69
981.618	1538.69
984.511	1864.97
987.404	1850.51
990.296	2164.86
993.189	2648.23
996.082	2864.23
998.975	3236.03
1001.87	3862.93
1004.76	3953.88
1007.65	3986.21
1010.54	3610.73
1013.44	3567.45
1016.33	2998.38
1019.22	2669.52
1022.12	2520.5
1025.01	2691.51
1027.9	2439.99
1030.79	2120.77
1033.69	1521.68
1036.58	1737.34
1039.47	1750.42
1042.37	1303.31
1045.26	834.727
1048.15	565.938
1051.04	709.734
1053.94	959.984
1056.83	1322.62
1059.72	957.797
1062.61	329.609
1065.51	213.055
1068.4	98.0703
1071.29	387.211
1074.18	355.594
1077.08	43.625
1079.97	427.812
1082.86	207.891
1085.76	9.11719
1088.65	80.7891
1091.54	13.4609
1094.43	501.664
1097.33	1070.1
1100.22	1535.21
1103.11	1845.71
1106	2236.05
1108.9	2703.12
1111.79	2094.05
1114.68	1704.19
1117.58	2065.91
1120.47	2134.85
1123.36	2038.25
1126.25	1687.84
1129.15	1491.36
1132.04	1313.31
1134.93	1313.58
1137.82	728.992
1140.72	545.961
1143.61	380.945
1146.5	120.547
1149.39	51.3125
1152.29	364.328
1155.18	792.484
1158.07	1075.77
1160.97	917.008
1163.86	696.141
1166.75	491.961
1169.64	345.133
1172.54	1057.83
1175.43	1476.94
1178.32	1545.72
1181.21	1767.51
1184.11	2145.25
1187	2213
1189.89	1865.9
1192.79	1637.61
1195.68	2066.76
1198.57	1910.62
1201.46	2004.27
1204.36	1862.32
1207.25	2273.56
1210.14	2576.76
1213.03	2275.38
1215.93	2273.3
1218.82	1827.44
1221.71	1977.09
1224.61	1820.52
1227.5	2053.17
1230.39	1771.8
1233.28	1819.13
1236.18	1885.23
1239.07	1701.21
1241.96	1742.09
1244.85	1348.44
1247.75	1667.58
1250.64	1279.59
1253.53	633.75
1256.42	824.133
1259.32	1079.77
1262.21	512.57
1265.1	111.961
1267.99	39.1328
1270.89	940.93
1273.78	1291.14
1276.67	1016.09
1279.57	331.023
1282.46	165.875
1285.35	86.7109
