Measurement: Raman, 780 nm, unoriented, Raman Data Processed
Mineral: Ahlfeldite
Rruff sample: R100210
Ideal chemistry: Ni^2+^Se^4+^O_3_2H_2_O
Locality: El Dragon mine, Potosi, Bolivia
Source: William W Pinch
Description: Pink crystalline massive associated with blue chalcomenite
Raman shift (cm-1)	intensity
189.921	0
192.814	2.29557
195.707	2.09092
198.6	4.37711
201.492	7.16796
204.385	3.90905
207.278	0.002629
210.17	3.56793
213.063	5.00901
215.956	3.83077
218.848	3.26663
221.741	2.07908
224.634	3.54331
227.526	5.77779
230.419	7.94794
233.312	8.36604
236.205	7.65846
239.097	7.35036
241.99	9.6453
244.883	10.9538
247.775	9.15151
250.668	7.31561
253.561	9.68502
256.454	8.9792
259.346	0.611346
262.239	2.21602
265.132	5.26337
268.024	4.96554
270.917	4.80082
273.81	3.12301
276.702	3.43895
279.595	1.56211
282.488	3.55649
285.38	3.2146
288.273	5.39555
291.166	2.29381
294.059	1.57393
296.951	1.65556
299.844	2.83918
302.737	1.54561
305.629	3.43055
308.522	3.35731
311.415	0.170614
314.308	1.01503
317.2	2.97546
320.093	1.95767
322.986	1.1339
325.878	1.65212
328.771	3.69239
331.664	1.15867
334.556	1.38884
337.449	0.912771
340.342	3.52777
343.234	4.03851
346.127	3.88935
349.02	6.84298
351.913	7.44724
354.805	3.42194
357.698	7.95641
360.591	6.32602
363.483	9.70515
366.376	7.75823
369.269	1.43573
372.161	2.4431
375.054	1.2433
377.947	1.72613
380.839	1.48518
383.732	2.20903
386.625	2.28288
389.518	1.5439
392.41	3.17531
395.303	1.73598
398.196	2.68076
401.088	3.21242
403.981	3.59269
406.874	0.931955
409.767	1.52677
412.659	3.7428
415.552	2.25966
418.445	5.49137
421.337	6.15323
424.23	3.68159
427.123	6.6804
430.015	12.1931
432.908	9.13878
435.801	7.84962
438.693	12.5711
441.586	9.87547
444.479	7.8051
447.372	6.20637
450.264	7.47947
453.157	7.73535
456.05	9.41889
458.942	6.86115
461.835	6.82173
464.728	10.4446
467.62	8.02831
470.513	6.80417
473.406	2.71553
476.299	8.61023
479.191	9.49198
482.084	10.8293
484.977	9.92126
487.869	13.32
490.762	9.70714
493.655	11.4598
496.547	11.0758
499.44	6.20205
502.333	2.24435
505.226	4.51819
508.118	5.56658
511.011	5.45966
513.904	1.80605
516.796	4.06524
519.689	1.93993
522.582	2.63296
525.474	6.28381
528.367	5.19512
531.26	1.15352
534.153	0.42353
537.045	0.305123
539.938	2.60078
542.831	3.11385
545.723	1.89547
548.616	0.912861
551.509	0.809427
554.401	0.360404
557.294	3.0162
560.187	0.828578
563.08	1.22762
565.972	0.160618
568.865	4.37307
571.758	4.18318
574.65	3.75961
577.543	5.64496
580.436	3.8633
583.328	6.28298
586.221	1.46346
589.114	7.25014
592.006	0.655627
594.899	1.5419
597.792	5.86556
600.685	5.169
603.577	2.59568
606.47	1.32485
609.363	2.6288
612.255	3.67375
615.148	4.31381
618.041	4.88356
620.933	7.24473
623.826	3.58051
626.719	5.54772
629.611	2.85779
632.504	4.60357
635.397	2.90158
638.29	5.60456
641.182	1.67654
644.075	2.76079
646.968	5.0074
649.86	1.15295
652.753	2.96347
655.646	3.86132
658.538	2.78757
661.431	3.49589
664.324	0.515507
667.217	4.12751
670.109	1.8335
673.002	2.00015
675.895	0.750325
678.787	0.677845
681.68	2.17879
684.573	0.245292
687.466	6.1647
690.358	3.05004
693.251	0.050955
696.144	3.647
699.036	4.15646
701.929	7.13225
704.822	2.97178
707.714	8.4099
710.607	5.50328
713.5	8.85744
716.393	6.40795
719.285	5.68498
722.178	5.36053
725.071	5.76188
727.963	9.03636
730.856	4.90212
733.749	6.43894
736.641	3.42129
739.534	4.33295
742.427	6.40046
745.319	2.42525
748.212	2.94903
751.105	2.25096
753.998	0.887438
756.89	1.72945
759.783	3.4602
762.676	0.848215
765.568	0.114583
768.461	1.14465
771.354	0.004596
774.246	2.95212
777.139	0.435876
780.032	5.57014
782.925	5.91205
785.817	8.20118
788.71	7.79619
791.603	15.9748
794.495	21.6483
797.388	30.9063
800.281	37.2208
803.173	41.9756
806.066	45.3316
808.959	46.3589
811.851	44.8726
814.744	34.0084
817.637	23.6073
820.53	17.9361
823.422	9.84895
826.315	6.49791
829.208	5.62698
832.1	8.39388
834.993	2.15246
837.886	6.3619
840.779	4.47522
843.671	1.21809
846.564	0.266195
849.457	4.48971
852.349	2.15409
855.242	3.54034
858.135	3.54902
861.027	2.25953
863.92	3.00382
866.813	2.61006
869.706	3.08758
872.598	1.86093
875.491	0.431003
878.384	2.28505
881.276	2.63591
884.169	3.15871
887.062	4.23777
889.954	3.11327
892.847	3.42829
895.74	5.31891
898.632	3.82688
901.525	1.33505
904.418	0.41035
907.311	2.66405
910.203	1.94152
913.096	6.51413
915.989	0.640723
918.881	0.470406
921.774	1.63071
924.667	5.87951
927.559	3.44225
930.452	5.91053
933.345	1.01531
936.237	4.55718
939.13	3.78125
942.023	2.02041
944.916	0.324732
947.808	1.26367
950.701	0.700414
953.594	2.8928
956.486	4.18013
959.379	1.59821
962.272	1.21766
965.164	0.838216
968.057	4.07288
970.95	2.23439
973.843	5.19758
976.735	0.435923
979.628	0.450694
982.521	1.97422
985.413	0.293787
988.306	3.20719
991.199	3.44584
994.091	0.051873
996.984	2.48193
999.877	2.22858
1002.77	1.10119
1005.66	0.202598
1008.55	5.96076
1011.45	5.70489
1014.34	1.88608
1017.23	2.50773
1020.13	3.25781
1023.02	3.04456
1025.91	1.20987
1028.8	1.9107
1031.7	3.84252
1034.59	0.475052
1037.48	3.73141
1040.38	0.557001
1043.27	1.14817
1046.16	2.35467
1049.05	4.49778
1051.94	3.54955
1054.84	0.264724
1057.73	1.74826
1060.62	5.07523
1063.52	3.96882
1066.41	2.92178
1069.3	6.58114
1072.19	4.25966
1075.09	2.80375
1077.98	6.89745
1080.87	0.311367
1083.77	3.04381
1086.66	1.26677
1089.55	0.272986
1092.44	4.25058
1095.34	3.72171
1098.23	3.66167
1101.12	4.37086
1104.01	5.05899
1106.91	4.14103
1109.8	0.880881
1112.69	2.01799
1115.59	3.49177
1118.48	1.20223
1121.37	1.99405
1124.26	2.10276
1127.16	0.561844
1130.05	1.35729
1132.94	0.061265
1135.83	1.59875
1138.73	1.60107
1141.62	0.107868
1144.51	2.04906
1147.4	2.57461
1150.3	3.81813
1153.19	1.80378
1156.08	5.23571
1158.97	2.72164
1161.87	5.82025
1164.76	4.37886
1167.65	2.41414
1170.55	0.759381
1173.44	4.93533
1176.33	3.87811
1179.22	2.28682
1182.12	4.95646
1185.01	4.60755
1187.9	2.67287
1190.8	5.76011
1193.69	5.21112
1196.58	5.38291
1199.47	0.470958
1202.37	5.87519
1205.26	4.18196
1208.15	6.08366
1211.04	3.19493
1213.94	0.346195
1216.83	0.758106
1219.72	2.96048
1222.62	4.33995
1225.51	7.79834
1228.4	3.99636
1231.29	3.13291
1234.18	5.47686
1237.08	0.586346
1239.97	3.02271
1242.86	3.55721
1245.76	1.05137
1248.65	1.52719
1251.54	1.24085
1254.43	2.4768
1257.33	2.94648
1260.22	1.5242
1263.11	0.870567
1266.01	4.10672
1268.9	3.70358
1271.79	4.23774
1274.68	0.902041
1277.58	0.280503
1280.47	2.87417
1283.36	1.12948
