Measurement: Raman, 532 nm, unoriented, Raman Data Processed
Mineral: Ahlfeldite
Rruff sample: R100210
Ideal chemistry: Ni^2+^Se^4+^O_3_2H_2_O
Locality: El Dragon mine, Potosi, Bolivia
Source: William W Pinch
Description: Pink crystalline massive associated with blue chalcomenite
Raman shift (cm-1)	intensity
202.404	0
205.297	8.72333
208.19	7.77811
211.082	9.39676
213.975	8.71436
216.868	1.90039
219.761	3.53725
222.653	4.93425
225.546	10.0955
228.439	4.51288
231.331	18.3197
234.224	11.7827
237.117	7.44765
240.009	13.4395
242.902	16.8603
245.795	17.8588
248.688	21.1415
251.58	12.6741
254.473	20.913
257.366	17.9236
260.258	13.7076
263.151	6.42499
266.044	7.49828
268.936	10.9514
271.829	6.10329
274.722	6.35216
277.615	12.6632
280.507	4.2939
283.4	8.5394
286.293	8.37716
289.185	7.36881
292.078	4.82814
294.971	1.50772
297.863	1.92615
300.756	9.03311
303.649	3.00054
306.541	1.72713
309.434	6.0429
312.327	0.142711
315.22	0.7649
318.112	5.23311
321.005	3.46185
323.898	8.32927
326.791	1.15149
329.683	2.10815
332.576	2.98876
335.469	2.56745
338.361	2.05648
341.254	0.610438
344.147	3.16222
347.039	1.83676
349.932	1.96656
352.825	4.04423
355.717	3.06245
358.61	11.7569
361.503	12.0556
364.396	16.9548
367.288	18.2232
370.181	8.93821
373.074	11.5566
375.966	4.01628
378.859	3.66393
381.752	4.57029
384.644	5.1263
387.537	4.25845
390.43	0.377119
393.323	4.92443
396.215	2.60342
399.108	3.94996
402.001	3.81681
404.894	4.39393
407.786	1.44096
410.679	3.58198
413.572	3.90539
416.464	4.20155
419.357	10.9836
422.25	11.9185
425.142	10.7535
428.035	14.7452
430.928	24.4696
433.82	22.1536
436.713	23.0257
439.606	29.4377
442.499	26.2292
445.391	22.3951
448.284	21.0062
451.177	20.1714
454.069	15.6944
456.962	18.9505
459.855	17.2653
462.748	16.2551
465.64	20.1939
468.533	17.7452
471.426	15.7616
474.318	10.4441
477.211	20.3241
480.104	22.0116
482.996	24.8242
485.889	26.1164
488.782	31.7189
491.675	27.7394
494.567	32.3642
497.46	31.3598
500.353	24.07
503.245	14.7257
506.138	16.0056
509.031	15.6246
511.923	13.5823
514.816	7.25244
517.709	10.1176
520.602	5.09728
523.494	5.46627
526.387	7.87957
529.28	9.36919
532.172	0.198896
535.065	0.631668
537.958	5.51193
540.851	1.81153
543.743	1.84642
546.636	3.33261
549.529	1.38034
552.421	1.60519
555.314	0.684278
558.207	4.68427
561.099	2.08148
563.992	0.504974
566.885	2.4011
569.778	5.28354
572.67	7.56168
575.563	10.371
578.456	11.3573
581.348	4.82816
584.241	8.65495
587.134	8.53369
590.027	8.06292
592.919	3.03585
595.812	11.3914
598.705	6.24685
601.597	5.43774
604.49	6.46406
607.383	3.90081
610.275	7.13095
613.168	1.62592
616.061	6.89651
618.953	6.77091
621.846	9.15122
624.739	5.64939
627.632	10.0527
630.524	10.2405
633.417	10.756
636.31	4.10764
639.202	8.08903
642.095	7.51516
644.988	6.11165
647.881	3.01218
650.773	2.69935
653.666	3.89661
656.559	1.28401
659.451	3.55018
662.344	2.47251
665.237	4.18993
668.13	6.03472
671.022	4.9446
673.915	1.04999
676.808	2.44109
679.7	3.54279
682.593	2.74464
685.486	4.90898
688.378	5.65252
691.271	17.0012
694.164	19.6524
697.057	18.8289
699.949	27.2536
702.842	33.1011
705.735	38.7444
708.627	26.392
711.52	29.9754
714.413	21.4522
717.305	20.9819
720.198	14.7935
723.091	12.6849
725.984	11.7015
728.876	10.5221
731.769	14.7406
734.662	13.0639
737.554	15.8802
740.447	12.4292
743.34	18.7079
746.232	21.4107
749.125	14.1649
752.018	14.0411
754.91	12.1207
757.803	7.2256
760.696	1.13375
763.589	6.89297
766.481	2.94371
769.374	2.51604
772.267	2.2078
775.159	2.3835
778.052	2.95085
780.945	7.05871
783.838	5.73344
786.73	11.3102
789.623	11.6515
792.516	20.6302
795.408	31.326
798.301	37.8339
801.194	70.5218
804.087	98.6799
806.979	129.71
809.872	159.322
812.765	166.033
815.657	141.119
818.55	97.7182
821.443	66.3048
824.335	42.1542
827.228	25.3347
830.121	13.4519
833.014	10.7152
835.906	6.64372
838.799	4.30783
841.692	3.93517
844.584	6.00865
847.477	3.03555
850.37	0.565933
853.263	1.58289
856.155	6.51913
859.048	1.95
861.941	5.29938
864.833	3.3633
867.726	1.20463
870.619	4.36357
873.511	5.34956
876.404	4.13772
879.297	2.64956
882.189	0.779217
885.082	3.10163
887.975	4.42108
890.868	6.18144
893.76	4.71575
896.653	5.1989
899.546	2.65989
902.438	5.17809
905.331	6.39722
908.224	1.66172
911.116	0.618702
914.009	4.84994
916.902	2.11738
919.795	6.67611
922.687	1.99824
925.58	4.92153
928.473	5.23458
931.365	4.38969
934.258	6.04138
937.151	8.90906
940.044	4.53682
942.936	4.94792
945.829	1.97321
948.722	7.09703
951.614	3.64703
954.507	2.28901
957.4	3.03877
960.293	4.92923
963.185	5.69797
966.078	2.78031
968.971	4.0339
971.863	3.34871
974.756	1.29449
977.649	5.29672
980.541	2.13876
983.434	5.31072
986.327	1.47994
989.22	1.92918
992.112	1.83092
995.005	0.577801
997.898	3.98865
1000.79	4.89135
1003.68	0.369856
1006.58	3.77136
1009.47	2.13408
1012.36	0.265501
1015.25	2.75424
1018.15	10.6141
1021.04	8.55387
1023.93	4.09251
1026.83	4.25749
1029.72	1.37918
1032.61	3.33819
1035.5	5.25478
1038.4	0.859484
1041.29	6.71687
1044.18	6.18554
1047.07	5.67659
1049.97	3.15595
1052.86	4.36054
1055.75	6.77453
1058.64	4.57358
1061.54	0.367653
1064.43	4.33124
1067.32	1.37992
1070.21	1.69812
1073.11	7.09963
1076	0.75779
1078.89	1.88095
1081.79	5.86624
1084.68	2.34889
1087.57	5.2092
1090.46	10.9451
1093.36	0.103516
1096.25	5.86253
1099.14	4.32471
1102.04	0.010595
1104.93	6.22187
1107.82	4.33808
1110.71	6.29807
1113.61	6.96077
1116.5	6.8223
1119.39	6.62733
1122.28	1.73399
1125.18	6.14847
1128.07	2.58706
1130.96	1.29848
1133.86	1.32563
1136.75	1.01919
1139.64	3.13776
1142.53	1.80342
1145.43	4.43407
1148.32	5.2896
1151.21	4.50171
1154.1	0.61479
1157	0.565601
1159.89	7.50308
1162.78	3.84716
1165.67	2.83164
1168.57	2.96959
1171.46	7.34827
1174.35	0.545467
1177.24	9.24239
1180.14	7.65603
1183.03	7.88838
1185.92	1.59801
1188.82	3.62363
1191.71	3.93949
1194.6	3.62478
1197.49	8.65255
1200.39	5.78473
1203.28	6.24814
1206.17	8.56867
1209.07	8.65097
1211.96	8.05801
1214.85	1.58717
1217.74	8.1362
1220.64	6.471
1223.53	7.39876
1226.42	5.63946
1229.31	1.88879
1232.21	0.433407
1235.1	3.48902
1237.99	5.23566
1240.88	2.88378
1243.78	4.26085
1246.67	6.20262
1249.56	0.565115
1252.45	4.31641
1255.35	5.40043
1258.24	6.89618
1261.13	4.87355
1264.03	4.01268
1266.92	1.46796
1269.81	4.6416
1272.7	2.00634
1275.6	3.4608
1278.49	0.836044
1281.38	1.77437
1284.28	3.57079
1287.17	2.61087
1290.06	1.40572
1292.95	1.93638
1295.85	0.24939
1298.74	4.55105
1301.63	1.85433
