Measurement: Raman, 780 nm, unoriented, Raman Data Processed
Mineral: Ajoite
Rruff sample: R120018
Ideal chemistry: K_3_Cu^2+^_20_Al_3_Si_29_O_76_(OH)_16_8H_2_O
Locality: New Cornelia mine, Ajo, Arizona, USA
Source: Ron Gibbs
Description: Bed of pale greenish-blue bladed crystals associated with green conichalcite R120017
Raman shift (cm-1)	intensity
206.347	0
209.24	3.56967
212.133	9.47727
215.025	12.2169
217.918	9.75897
220.811	12.5056
223.703	9.05269
226.596	4.99364
229.489	0.023874
232.382	0.006971
235.274	3.11722
238.167	1.81715
241.06	1.34868
243.952	0.30376
246.845	3.92588
249.738	11.1159
252.631	9.68558
255.523	11.0284
258.416	8.60851
261.309	10.3249
264.201	7.01306
267.094	8.03571
269.987	7.51704
272.879	3.9568
275.772	4.01706
278.665	5.70214
281.558	3.31031
284.45	2.06737
287.343	4.51319
290.236	5.42908
293.128	3.38168
296.021	1.12434
298.914	5.10625
301.806	7.01797
304.699	12.0651
307.592	15.2445
310.485	21.5037
313.377	31.0139
316.27	33.246
319.163	41.2409
322.055	45.7611
324.948	48.7092
327.841	48.0259
330.733	49.9884
333.626	45.6673
336.519	42.4991
339.411	35.8661
342.304	31.1711
345.197	30.9378
348.09	24.0487
350.982	22.3724
353.875	16.318
356.768	12.6663
359.66	5.71442
362.553	3.16337
365.446	2.97057
368.339	2.39932
371.231	0.903148
374.124	1.25942
377.017	0.216152
379.909	1.86488
382.802	1.18737
385.695	0.82471
388.587	0.708001
391.48	5.85235
394.373	6.1108
397.265	5.53866
400.158	14.5077
403.051	16.1251
405.944	22.8968
408.836	23.2598
411.729	27.4591
414.622	25.895
417.514	26.3294
420.407	27.6306
423.3	25.5861
426.192	24.3773
429.085	27.5584
431.978	23.8838
434.871	21.1124
437.763	20.2293
440.656	19.5313
443.549	16.769
446.441	13.123
449.334	10.0657
452.227	9.73357
455.12	11.4242
458.012	8.1051
460.905	5.70454
463.798	3.26801
466.69	6.29241
469.583	3.70391
472.476	1.53029
475.368	2.76989
478.261	2.53913
481.154	3.53279
484.046	6.34658
486.939	0.438691
489.832	4.61066
492.725	1.36193
495.617	0.655267
498.51	1.08883
501.403	2.80521
504.295	0.340625
507.188	6.00103
510.081	1.05452
512.973	3.24701
515.866	3.64168
518.759	2.77645
521.652	0.161098
524.544	1.55844
527.437	3.34208
530.33	2.93102
533.222	0.100159
536.115	1.04317
539.008	1.01091
541.9	0.998962
544.793	2.12717
547.686	2.21578
550.579	1.41948
553.471	1.72118
556.364	3.57829
559.257	1.77657
562.149	3.99075
565.042	2.01418
567.935	3.70985
570.827	1.54101
573.72	0.947101
576.613	2.65923
579.506	1.61141
582.398	1.4429
585.291	0.039556
588.184	0.841759
591.076	0.425645
593.969	0.165571
596.862	2.19316
599.755	1.96576
602.647	3.28774
605.54	3.09742
608.433	0.217082
611.325	0.996441
614.218	3.2072
617.111	3.22731
620.003	1.76646
622.896	3.71392
625.789	7.20859
628.682	8.57707
631.574	12.0817
634.467	13.9403
637.36	22.5984
640.252	25.1139
643.145	30.8573
646.038	37.1942
648.93	41.7452
651.823	47.9389
654.716	54.5386
657.609	63.1366
660.501	73.3033
663.394	83.3495
666.287	83.5119
669.179	83.1603
672.072	72.3491
674.965	58.5297
677.857	41.2227
680.75	30.752
683.643	21.2268
686.535	20.11
689.428	11.4324
692.321	7.60979
695.214	9.97668
698.106	5.75092
700.999	4.13325
703.892	5.7917
706.784	1.84285
709.677	2.9319
712.57	0.632433
715.462	0.601031
718.355	0.603699
721.248	0.671319
724.141	0.412896
727.033	0.097543
729.926	0.139636
732.819	0.330823
735.711	0.459073
738.604	0.65127
741.497	0.768991
744.389	0.186983
747.282	1.39244
750.175	1.93551
753.068	3.08485
755.96	1.30881
758.853	1.56818
761.746	2.32533
764.638	0.44167
767.531	1.05729
770.424	1.64665
773.317	1.97211
776.209	3.40923
779.102	1.5962
781.995	1.46588
784.887	3.69852
787.78	7.63064
790.673	8.39398
793.565	1.14255
796.458	7.23997
799.351	7.86579
802.244	5.12394
805.136	6.65766
808.029	6.42093
810.922	2.48186
813.814	7.63491
816.707	6.18537
819.6	4.84235
822.492	5.44741
825.385	5.11416
828.278	4.32089
831.17	5.69745
834.063	4.34288
836.956	5.97729
839.849	4.48734
842.741	2.84224
845.634	4.11525
848.527	6.25177
851.419	8.1334
854.312	8.10502
857.205	3.6539
860.097	7.35654
862.99	5.16177
865.883	5.02731
868.776	7.77865
871.668	5.40383
874.561	2.49089
877.454	5.64476
880.346	4.62378
883.239	7.13354
886.132	4.72113
889.024	4.30114
891.917	1.08543
894.81	0.841538
897.703	1.5834
900.595	4.1257
903.488	2.35366
906.381	0.691287
909.273	0.769943
912.166	4.26698
915.059	0.078363
917.952	7.27378
920.844	2.70299
923.737	0.745914
926.63	0.678455
929.522	0.12454
932.415	0.7097
935.308	1.75483
938.2	0.332428
941.093	0.872083
943.986	1.25633
946.879	4.04807
949.771	0.069595
952.664	3.61503
955.557	3.64307
958.449	5.44672
961.342	4.30368
964.235	2.18861
967.127	2.85316
970.02	4.66894
972.913	1.12335
975.806	2.87604
978.698	2.73649
981.591	4.24722
984.484	2.59097
987.376	4.83807
990.269	2.78986
993.162	0.376154
996.054	6.41347
998.947	0.21639
1001.84	5.05123
1004.73	0.230886
1007.62	4.72195
1010.52	1.90954
1013.41	5.41809
1016.3	2.66272
1019.2	4.64397
1022.09	6.9949
1024.98	8.75903
1027.87	5.38605
1030.77	9.79882
1033.66	9.08903
1036.55	9.97584
1039.44	9.0024
1042.34	7.92151
1045.23	12.2666
1048.12	6.72888
1051.02	6.80797
1053.91	3.76235
1056.8	6.80139
1059.69	2.12016
1062.59	2.86415
1065.48	0.901485
1068.37	0.08005
1071.27	0.810105
1074.16	2.83813
1077.05	0.627311
1079.94	0.502743
1082.84	2.37373
1085.73	1.88736
1088.62	2.7315
1091.51	0.216477
1094.41	5.18062
1097.3	0.293938
1100.19	2.49925
1103.08	0.258635
1105.98	3.33798
1108.87	0.393054
1111.76	2.10664
1114.65	1.50784
1117.55	4.58613
1120.44	3.42308
1123.33	0.689488
1126.23	4.75897
1129.12	3.73925
1132.01	4.90326
1134.9	0.73767
1137.8	4.38935
1140.69	3.6598
1143.58	2.31788
1146.47	1.47306
1149.37	3.75002
1152.26	2.2319
1155.15	0.518396
1158.05	1.14573
1160.94	0.390493
1163.83	2.68014
1166.72	4.59989
1169.62	4.11372
1172.51	0.49666
1175.4	3.99361
1178.3	3.71118
1181.19	2.78515
1184.08	2.0812
1186.97	7.36436
1189.87	4.72999
1192.76	5.34607
1195.65	2.81047
1198.54	2.04126
1201.44	6.23582
1204.33	1.6432
1207.22	5.21007
1210.11	7.78049
1213.01	2.46071
1215.9	1.62535
1218.79	4.66117
1221.68	5.62139
1224.58	1.67714
1227.47	4.26618
1230.36	5.33038
1233.26	0.192013
1236.15	5.8836
1239.04	4.93499
1241.93	0.675376
1244.83	4.5286
1247.72	3.89701
1250.61	6.90069
1253.51	3.67927
1256.4	6.05398
1259.29	2.44339
1262.18	7.92074
1265.08	4.19298
1267.97	0.788927
1270.86	4.73982
1273.75	5.5063
1276.65	0.031402
1279.54	1.05065
1282.43	3.43923
1285.32	0
