Measurement: Raman, 780 nm, unoriented, Raman Data Processed
Mineral: Akrochordite
Rruff sample: R100028
Ideal chemistry: Mn^2+^_5_(As^5+^O_4_)_2_(OH)_4_4H_2_O
Locality: Langban, Filipstad, Varmland, Sweden
Source: William W. Pinch
Description: Radiating groups of pale pink prismatic crystals associated with pale green co-type (Flink 32/22) eveite, R100048
Raman shift (cm-1)	intensity
91.5332	0
94.908	13.8205
98.2828	5.7743
101.658	8.7801
105.032	10.0853
108.407	9.16924
111.782	9.8729
115.157	5.26519
118.532	8.39797
121.907	12.9274
125.281	10.3147
128.656	6.74784
132.031	6.4681
135.406	0.787163
138.781	6.81963
142.155	2.70938
145.53	2.0381
148.905	5.21641
152.28	7.66032
155.655	7.54843
159.03	1.42509
162.404	4.37082
165.779	8.35885
169.154	5.82262
172.529	3.13299
175.904	6.00243
179.278	7.57024
182.653	9.31245
186.028	6.44641
189.403	16.5699
192.778	15.1911
196.153	8.44162
199.527	10.4976
202.902	5.20011
206.277	11.3857
209.652	1.75515
213.027	4.69575
216.401	6.60158
219.776	2.82213
223.151	0.809535
226.526	0.035892
229.901	0.612204
233.275	1.75352
236.65	2.57504
240.025	4.81564
243.4	1.69758
246.775	2.78076
250.15	6.05877
253.524	6.43748
256.899	5.04796
260.274	10.9116
263.649	11.719
267.024	5.42955
270.399	1.42897
273.773	4.43647
277.148	5.42
280.523	9.79391
283.898	5.57558
287.273	4.68079
290.647	3.3813
294.022	7.23378
297.397	3.89268
300.772	0.750924
304.147	1.41348
307.522	0.20222
310.896	8.07455
314.271	3.80872
317.646	8.51026
321.021	4.50012
324.396	0.536577
327.77	6.70101
331.145	1.93487
334.52	12.075
337.895	4.23345
341.27	10.9647
344.644	10.5251
348.019	13.2925
351.394	14.3572
354.769	7.07389
358.144	9.36459
361.519	10.5381
364.893	3.07007
368.268	6.52444
371.643	2.40667
375.018	7.04206
378.393	1.02747
381.767	3.23982
385.142	0.367785
388.517	6.46489
391.892	1.99651
395.267	0.769335
398.642	7.59469
402.016	8.33255
405.391	10.7116
408.766	9.54614
412.141	12.6564
415.516	11.2687
418.89	21.7444
422.265	13.4015
425.64	19.5989
429.015	15.0572
432.39	15.09
435.765	11.877
439.139	11.1407
442.514	11.9918
445.889	15.1478
449.264	6.86555
452.639	8.04328
456.014	7.51087
459.388	6.98066
462.763	2.74132
466.138	6.75499
469.513	4.93451
472.887	1.80206
476.262	2.76471
479.637	0.109907
483.012	3.58026
486.387	4.5092
489.762	2.12413
493.136	0.995553
496.511	5.37697
499.886	0.898806
503.261	1.08394
506.636	3.65302
510.01	3.97494
513.385	6.10103
516.76	7.87216
520.135	1.04476
523.51	3.24223
526.885	3.10244
530.259	6.24004
533.634	4.40176
537.009	4.8797
540.384	8.19572
543.759	3.77053
547.134	3.70458
550.508	3.58327
553.883	6.74215
557.258	5.97268
560.633	6.37073
564.008	3.08819
567.382	5.56189
570.757	4.82516
574.132	5.63499
577.507	3.53689
580.882	5.99728
584.256	6.24224
587.631	1.23406
591.006	3.89274
594.381	4.21243
597.756	3.87731
601.131	6.37301
604.505	1.29304
607.88	0.223439
611.255	4.61243
614.63	0.131413
618.005	2.57939
621.38	1.40138
624.754	4.57508
628.129	2.73001
631.504	5.30922
634.879	3.03347
638.254	6.27084
641.628	4.48226
645.003	1.47583
648.378	3.96628
651.753	6.289
655.128	9.13709
658.503	2.57039
661.877	4.7008
665.252	6.71113
668.627	0.210465
672.002	6.79445
675.377	9.21289
678.751	7.39839
682.126	3.87481
685.501	4.14862
688.876	4.66201
692.251	11.4644
695.625	1.87407
699	0.975344
702.375	6.87962
705.75	1.94994
709.125	5.29332
712.5	5.07815
715.874	3.33408
719.249	4.53861
722.624	1.91123
725.999	0.239435
729.374	2.42073
732.749	1.09477
736.123	0.561134
739.498	0.188337
742.873	6.91097
746.248	3.6965
749.623	2.0707
752.997	2.50769
756.372	0.604501
759.747	2.60803
763.122	2.79922
766.497	0.926444
769.871	5.33543
773.246	2.25973
776.621	6.07388
779.996	8.77469
783.371	6.55669
786.745	13.6067
790.12	8.52926
793.495	19.1684
796.87	27.3647
800.245	38.3844
803.62	43.1028
806.994	46.9975
810.369	54.611
813.744	68.52
817.119	74.5431
820.494	67.6271
823.869	55.9065
827.243	66.0721
830.618	70.8246
833.993	62.243
837.368	57.5223
840.743	51.9656
844.117	47.9937
847.492	43.3362
850.867	35.1437
854.242	26.443
857.617	21.2115
860.991	16.546
864.366	9.54595
867.741	4.53124
871.116	6.47914
874.491	3.86796
877.866	5.66942
881.24	5.21798
884.615	1.33418
887.99	3.14696
891.365	0.573762
894.74	6.27976
898.115	3.2718
901.489	5.14197
904.864	5.12094
908.239	0.20048
911.614	5.476
914.989	0.464954
918.363	3.14904
921.738	3.3855
925.113	1.27532
928.488	2.75314
931.863	0.784718
935.237	5.987
938.612	4.64799
941.987	3.64947
945.362	3.39277
948.737	7.01267
952.112	0.933969
955.486	5.34999
958.861	6.62781
962.236	6.01187
965.611	4.09904
968.986	4.27899
972.361	7.68386
975.735	5.69323
979.11	4.2199
982.485	5.71657
985.86	4.42986
989.235	5.87638
992.609	3.23766
995.984	5.18721
999.359	10.07
1002.73	0.506421
1006.11	6.05389
1009.48	8.75722
1012.86	5.63485
1016.23	2.55296
1019.61	3.80836
1022.98	6.50727
1026.36	2.22501
1029.73	3.8946
1033.11	5.17296
1036.48	5.36538
1039.86	3.16696
1043.23	1.98562
1046.61	5.37911
1049.98	1.9441
1053.36	3.5247
1056.73	0.497638
1060.11	5.59972
1063.48	7.60454
1066.86	1.93409
1070.23	2.84767
1073.61	3.66785
1076.98	0.844823
1080.36	7.53765
1083.73	3.01725
1087.1	7.90223
1090.48	4.6657
1093.85	0.155449
1097.23	0.38394
1100.6	3.11046
1103.98	7.82829
1107.35	6.87524
1110.73	2.38321
1114.1	2.38878
1117.48	4.62648
1120.85	6.08214
1124.23	3.9948
1127.6	2.75541
1130.98	4.09118
1134.35	7.28919
1137.73	3.12641
1141.1	3.7208
1144.48	1.38337
1147.85	5.60205
1151.23	2.03732
1154.6	4.27485
1157.97	3.10622
1161.35	4.2357
1164.72	3.70163
1168.1	5.6279
1171.47	2.68197
1174.85	4.22811
1178.22	3.63922
1181.6	3.69371
1184.97	6.8012
1188.35	2.6491
1191.72	0.628447
1195.1	6.82548
1198.47	3.89055
1201.85	4.83911
1205.22	3.29907
1208.6	3.67883
1211.97	2.45198
1215.35	8.99813
1218.72	6.69215
1222.1	5.77161
1225.47	3.93965
1228.85	7.56567
1232.22	2.29842
1235.6	1.54051
1238.97	2.19891
1242.35	5.21561
1245.72	4.38671
1249.1	5.57812
1252.47	3.57817
1255.85	7.62673
1259.22	0.987324
1262.6	3.57889
1265.97	2.81113
1269.34	4.33007
1272.72	2.69212
1276.09	7.9674
1279.47	4.62179
1282.84	7.45083
