Measurement: Raman, 780 nm, unoriented, Raman Data Processed
Mineral: Alacranite
Rruff sample: R140323
Ideal chemistry: As_8_S_9_
Locality: Solfatara di Pozzuoli, Napoli, Italy
Source: Renato and Adriana Pagano
Description: Yellow crystals with red realgar. 2-fold twin around [1 1 0].
Raman shift (cm-1)	intensity
159.056	0
161.949	7.9541
164.842	14.3701
167.734	34.377
170.627	36.0713
173.52	48.0693
176.412	46.2764
179.305	34.3813
182.198	52.876
185.09	80.8848
187.983	92.8467
190.876	82.2065
193.769	74.0156
196.661	54.21
199.554	22.1148
202.447	26.6738
205.339	36.2925
208.232	39.1304
211.125	61.124
214.018	78.416
216.91	66.3423
219.803	104.573
222.696	96.0581
225.588	100.885
228.481	79.5215
231.374	85.8379
234.266	74.126
237.159	59.7837
240.052	54.3701
242.945	29.2964
245.837	25.7031
248.73	14.1035
251.623	5.12012
254.515	9.70361
257.408	11.876
260.301	15.3823
263.193	10.4565
266.086	2.71435
268.979	5.83691
271.872	14.5054
274.764	25.9385
277.657	22.4185
280.55	17.6934
283.442	7.85156
286.335	17.9741
289.228	33.5713
292.12	56.0366
295.013	75.938
297.906	106.166
300.798	120.248
303.691	149.387
306.584	182.927
309.476	203.855
312.369	215.224
315.262	247.298
318.155	249.354
321.047	285.334
323.94	285.202
326.833	306.579
329.725	310.977
332.618	330.911
335.511	339.718
338.404	368.809
341.296	362.013
344.189	364.828
347.082	358.306
349.974	343.867
352.867	324.053
355.76	296.025
358.652	294.515
361.545	289.374
364.438	281.261
367.33	235.614
370.223	226.094
373.116	188.64
376.009	175.036
378.901	169.862
381.794	135.629
384.687	131.17
387.579	120.812
390.472	115.185
393.365	79.1821
396.257	69.417
399.15	42.6743
402.043	15.8911
404.935	27.813
407.828	4.97852
410.721	5.40918
413.614	9.51074
416.506	8.91309
419.399	3.4751
422.292	2.93262
425.184	7.74756
428.077	12.7964
430.97	21.4849
433.863	18.8061
436.755	25.7026
439.648	12.4678
442.541	20.2832
445.433	12.688
448.326	15.7856
451.219	29.4111
454.111	45.1738
457.004	43.5693
459.897	61.0464
462.789	59.1777
465.682	56.1377
468.575	79.7241
471.468	63.9263
474.36	74.6709
477.253	46.6914
480.146	51.3628
483.038	44.4492
485.931	60.1934
488.824	68.7119
491.716	71.6025
494.609	49.9155
497.502	41.3706
500.395	31.0054
503.287	28.4863
506.18	27.0972
509.073	46.8037
511.965	22.1328
514.858	36.1401
517.751	17.3232
520.644	14.9815
523.536	14.5225
526.429	19.0869
529.322	18.1421
532.214	0.320801
535.107	11.8257
538	0.164063
540.892	16.9878
543.785	5.38232
546.678	1.45215
549.57	4.24023
552.463	1.34961
555.356	6.94824
558.249	4.15674
561.141	12.0127
564.034	2.59619
566.927	1.4209
569.819	21.4248
572.712	20.5244
575.605	17.4575
578.497	23.4219
581.39	25.2593
584.283	24.2725
587.176	9.79932
590.068	19.6357
592.961	27.1104
595.854	14.4424
598.746	30.5679
601.639	31.1431
604.532	27.7822
607.424	21.2388
610.317	23.9766
613.21	19.96
616.102	20.834
618.995	31.5518
621.888	19.2285
624.781	18.2539
627.673	36.3355
630.566	7.71777
633.459	26.5098
636.351	26.5498
639.244	32.2676
642.137	17.1084
645.029	12.3325
647.922	8.32471
650.815	2.17871
653.708	1.48731
656.6	12.1719
659.493	29.1934
662.386	10.3643
665.278	22.0239
668.171	16.3657
671.064	17.606
673.957	11.0366
676.849	6.41455
679.742	6.48877
682.635	0.34668
685.527	12.7598
688.42	14.8013
691.313	25.395
694.205	14.2173
697.098	14.8184
699.991	17.0464
702.884	25.3208
705.776	38.1714
708.669	36.7105
711.562	39.1836
714.454	59.7334
717.347	38.6309
720.24	43.5024
723.132	22.9331
726.025	15.811
728.918	14.2017
731.81	26.084
734.703	31.4683
737.596	27.2695
740.489	11.7681
743.381	28.6333
746.274	10.3018
749.167	25.4219
752.059	18.3662
754.952	7.83594
757.845	20.2549
760.737	8.94336
763.63	1.30273
766.523	6.60889
769.415	0.878418
772.308	2.21777
775.201	14.1484
778.094	13.9707
780.986	12.3716
783.879	5.44873
786.772	27.1797
789.664	9.76025
792.557	32.4951
795.45	37.728
798.342	35.917
801.235	26.772
804.128	33.1675
807.021	43.4482
809.913	31.1553
812.806	24.1719
815.699	34.3779
818.591	31.8071
821.484	34.6016
824.377	30.2275
827.269	46.48
830.162	39.1743
833.055	38.0791
835.948	22.7441
838.84	32.8506
841.733	21.1006
844.626	28.5278
847.518	46.3652
850.411	36.2026
853.304	29.8335
856.197	33.1465
859.089	27.978
861.982	34.9878
864.875	21.0903
867.767	22.1968
870.66	12.2988
873.553	12.7046
876.445	6.51758
879.338	2.98779
882.231	28.3003
885.123	34.0513
888.016	2.68408
890.909	14.9717
893.802	23.2485
896.694	7.88281
899.587	11.0693
902.48	0.677246
905.372	18.2339
908.265	3.73731
911.158	23.8999
914.05	23.3467
916.943	4.8584
919.836	19.1089
922.729	12.4746
925.621	8.92236
928.514	24.8335
931.407	23.8711
934.299	18.1299
937.192	27.2124
940.085	28.0151
942.977	7.78564
945.87	9.0625
948.763	7.54736
951.655	16.791
954.548	11.4985
957.441	7.83838
960.334	20.312
963.226	26.6831
966.119	22.8599
969.012	12.2407
971.904	22.7803
974.797	4.91846
977.69	6.56689
980.582	2.64893
983.475	4.48877
986.368	1.85644
989.261	16.0293
992.153	0.299805
995.046	20.6846
997.939	13.6065
1000.83	23.0059
1003.72	18.8882
1006.62	27.8491
1009.51	26.6064
1012.4	15.9399
1015.29	20.3091
1018.19	15.2876
1021.08	25.4443
1023.97	24.6245
1026.87	17.896
1029.76	35.1484
1032.65	20.0005
1035.54	42.8179
1038.44	43.4282
1041.33	31.8379
1044.22	24.7114
1047.12	23.5054
1050.01	30.9116
1052.9	18.0859
1055.79	24.7754
1058.68	22.2852
1061.58	38.272
1064.47	36.3569
1067.36	36.728
1070.26	20.6367
1073.15	32.874
1076.04	36.5415
1078.93	13.1094
1081.83	17.2202
1084.72	23.8355
1087.61	27.0293
1090.51	8.34766
1093.4	4.84619
1096.29	0.012207
1099.18	8.21533
1102.08	13.9463
1104.97	6.43848
1107.86	22.8267
1110.75	10.7529
1113.65	1.4375
1116.54	2.20801
1119.43	6.86475
1122.33	6.55469
1125.22	2.33203
1128.11	7.06299
1131	19.4409
1133.9	35.8159
1136.79	26.2842
1139.68	28.6226
1142.57	11.9185
1145.47	33.5156
1148.36	42.5669
1151.25	33.1773
1154.14	26.8291
1157.04	26.2915
1159.93	35.146
1162.82	55.6103
1165.71	56.7549
1168.61	69.4502
1171.5	52.5127
1174.39	81.9731
1177.29	59.6641
1180.18	67.085
1183.07	54.0073
1185.96	45.0855
1188.86	48.8145
1191.75	51.6475
1194.64	57.7886
1197.54	62.5723
1200.43	55.8037
1203.32	65.3159
1206.21	55.4145
1209.11	67.7559
1212	68.2754
1214.89	36.8935
1217.78	42.6904
1220.68	27.3169
1223.57	19.792
1226.46	24.8237
1229.35	40.019
1232.25	35.6636
1235.14	34.3223
1238.03	17.8999
1240.92	1.42334
1243.82	3.66846
1246.71	16.4927
1249.6	12.0244
1252.5	8.93701
1255.39	31.5332
1258.28	24.6543
1261.17	37.0142
1264.07	36.4214
1266.96	41.8657
1269.85	19.2236
1272.74	22.5161
1275.64	11.6685
1278.53	31.9697
1281.42	18.2915
1284.32	8.82031
