Measurement: Raman, 780 nm, unoriented, Raman Data Processed
Mineral: Aldermanite
Rruff sample: R100073
Ideal chemistry: Mg_5_Al_12_(PO_4_)_8_(OH)_22_32H_2_O
Locality: Tom's quarry, Kapunda, South Australia, Australia
Source: Marcus Origlieri
Description: Sprays or white, thin platy crystals, associated with colorless minyulite , R100072, and colorless needles of wavellite.
Raman shift (cm-1)	intensity
139.745	0
142.638	3.49817
145.53	4.21472
148.423	9.20361
151.316	5.55469
154.208	7.98438
157.101	7.03564
159.994	8.12268
162.887	1.78406
165.779	0.609863
168.672	0.621704
171.565	2.33447
174.457	3.92053
177.35	9.53992
180.243	3.13379
183.135	6.19556
186.028	6.07935
188.921	10.0558
191.814	12.804
194.706	13.6924
197.599	9.3468
200.492	8.56885
203.384	10.1084
206.277	7.86243
209.17	1.68555
212.062	4.24744
214.955	0.463135
217.848	0.175781
220.74	6.75537
223.633	4.0592
226.526	8.21887
229.419	5.21301
232.311	4.76709
235.204	5.63953
238.097	8.77222
240.989	14.6288
243.882	11.6183
246.775	11.8164
249.667	14.2356
252.56	13.6223
255.453	10.2482
258.346	13.1785
261.238	14.8132
264.131	16.0724
267.024	12.6201
269.916	13.5383
272.809	9.9917
275.702	8.65259
278.594	8.76843
281.487	8.28137
284.38	5.09082
287.273	3.12524
290.165	5.46729
293.058	5.92029
295.951	0.204102
298.843	5.90369
301.736	4.98193
304.629	11.2533
307.522	5.57031
310.414	6.21619
313.307	1.48212
316.2	5.37268
319.092	1.80212
321.985	3.10577
324.878	6.51825
327.77	2.21362
330.663	3.58551
333.556	7.30359
336.449	5.51221
339.341	5.01556
342.234	8.31323
345.127	4.88086
348.019	0.37915
350.912	0.233887
353.805	0.723633
356.697	0.674988
359.59	3.07752
362.483	0.533386
365.375	1.8147
368.268	4.18976
371.161	7.46796
374.054	8.21649
376.946	8.46808
379.839	10.7454
382.732	14.4476
385.624	17.822
388.517	21.3743
391.41	21.7612
394.303	24.1205
397.195	26.4337
400.088	16.8027
402.981	16.8281
405.873	14.1074
408.766	7.81824
411.659	5.36334
414.551	6.56635
417.444	0.632263
420.337	0.134888
423.229	5.61462
426.122	5.99872
429.015	0.133118
431.908	4.20306
434.8	1.79028
437.693	5.11224
440.586	4.6402
443.478	9.94519
446.371	7.65308
449.264	5.7981
452.156	9.58197
455.049	9.25006
457.942	10.1343
460.835	9.65527
463.727	13.4985
466.62	18.3263
469.513	14.9381
472.405	15.139
475.298	13.0422
478.191	16.9919
481.084	15.5096
483.976	17.9218
486.869	14.0598
489.762	14.7643
492.654	17.8673
495.547	11.9609
498.44	5.0885
501.332	4.01727
504.225	3.27124
507.118	3.80603
510.01	4.18933
512.903	3.75659
515.796	6.45105
518.689	1.89532
521.581	0.484253
524.474	0.085632
527.367	1.37665
530.259	1.09271
533.152	6.02154
536.045	4.81622
538.938	2.88531
541.83	3.78412
544.723	1.29132
547.616	2.82922
550.508	1.93115
553.401	4.33136
556.294	5.62256
559.186	3.33106
562.079	1.96246
564.972	1.61993
567.865	3.57812
570.757	4.05743
573.65	7.3764
576.543	6.48743
579.435	8.65533
582.328	9.61591
585.221	8.49512
588.114	5.66614
591.006	6.78949
593.899	10.4224
596.792	10.2172
599.684	14.9738
602.577	11.1755
605.47	12.8432
608.362	16.3583
611.255	12.0427
614.148	22.2324
617.04	17.0038
619.933	15.6508
622.826	17.7698
625.719	19.0909
628.611	20.8683
631.504	21.9179
634.397	26.4734
637.289	26.0273
640.182	27.9564
643.075	25.1381
645.967	22.0797
648.86	19.2264
651.753	25.2301
654.646	15.3439
657.538	11.863
660.431	11.7144
663.324	6.68463
666.216	6.69336
669.109	8.09015
672.002	2.79156
674.894	4.06738
677.787	7.39893
680.68	2.29443
683.573	3.26611
686.465	3.30817
689.358	2.10266
692.251	1.03021
695.143	1.28772
698.036	0.455566
700.929	0.767212
703.822	0.184509
706.714	1.16461
709.607	2.43677
712.5	0.246704
715.392	1.22583
718.285	4.14575
721.178	0.651123
724.07	1.79071
726.963	2.89441
729.856	2.4707
732.749	1.41345
735.641	1.62567
738.534	0.622803
741.427	5.57782
744.319	2.71899
747.212	2.97717
750.105	7.13886
752.997	4.59656
755.89	6.5957
758.783	1.54688
761.676	1.75458
764.568	3.93829
767.461	0.003357
770.354	2.80457
773.246	2.32288
776.139	2.55005
779.032	3.6236
781.924	2.2843
784.817	0.393005
787.71	2.42248
790.602	3.78339
793.495	2.58801
796.388	5.00958
799.281	2.10474
802.173	5.41248
805.066	2.80255
807.959	8.11816
810.851	4.9895
813.744	2.00488
816.637	6.49457
819.529	7.71429
822.422	3.23944
825.315	4.37689
828.208	7.37524
831.1	6.42181
833.993	0.425049
836.886	7.43018
839.778	5.43622
842.671	5.1532
845.564	7.73083
848.457	6.67511
851.349	4.802
854.242	6.39136
857.135	5.34253
860.027	11.5457
862.92	6.22919
865.813	0.770996
868.705	5.61499
871.598	4.09149
874.491	5.43182
877.384	4.23804
880.276	5.23364
883.169	5.0976
886.062	5.49939
888.954	4.29968
891.847	1.62097
894.74	4.70178
897.632	0.063416
900.525	1.87872
903.418	3.2467
906.311	1.38739
909.203	2.02118
912.096	0.721924
914.989	3.86322
917.881	3.53809
920.774	4.9068
923.667	0.770264
926.559	0.593201
929.452	0.188477
932.345	0.624512
935.237	1.82062
938.13	2.44519
941.023	1.29645
943.916	0.166016
946.808	2.72809
949.701	1.11346
952.594	2.73633
955.486	5.56415
958.379	4.58282
961.272	7.81244
964.164	11.7221
967.057	17.0243
969.95	23.4824
972.843	36.0042
975.735	41.6616
978.628	54.818
981.521	71.8746
984.413	93.7792
987.306	110.717
990.199	114.713
993.091	110.209
995.984	93.9921
998.877	77.6936
1001.77	53.2593
1004.66	34.9275
1007.55	22.3961
1010.45	16.2894
1013.34	16.807
1016.23	12.9739
1019.13	7.00842
1022.02	8.96002
1024.91	8.92236
1027.8	7.75671
1030.7	6.00739
1033.59	0.335327
1036.48	5.68231
1039.38	0.995911
1042.27	5.0943
1045.16	0.274414
1048.05	3.5918
1050.94	2.35852
1053.84	0.482239
1056.73	1.77154
1059.62	0.862793
1062.52	4.19171
1065.41	4.61639
1068.3	8.77454
1071.19	10.6061
1074.09	15.0773
1076.98	15.2537
1079.87	10.4127
1082.77	11.9027
1085.66	12.2831
1088.55	4.1861
1091.44	6.20538
1094.34	7.31592
1097.23	0.50238
1100.12	3.55865
1103.01	1.87085
1105.91	1.30725
1108.8	7.4834
1111.69	1.79211
1114.59	1.3764
1117.48	0.064941
1120.37	0.91394
1123.26	0.879395
1126.16	2.10217
1129.05	6.94916
1131.94	1.69232
1134.83	6.36267
1137.73	6.98755
1140.62	5.81867
1143.51	5.80719
1146.4	9.23694
1149.3	3.97595
1152.19	8.08032
1155.08	8.81592
1157.97	2.89179
1160.87	4.12421
1163.76	8.81995
1166.65	5.66217
1169.55	4.10297
1172.44	6.96399
1175.33	3.16974
1178.22	6.18579
1181.12	5.45117
1184.01	2.80078
1186.9	0.735901
1189.8	8.37293
1192.69	5.06519
1195.58	7.45544
1198.47	2.90155
1201.37	2.80194
1204.26	6.12256
1207.15	4.10883
1210.04	5.20258
1212.94	5.11072
1215.83	2.94263
1218.72	3.10516
1221.62	0.737244
1224.51	3.5946
1227.4	9.6795
1230.29	3.96655
1233.19	1.35352
1236.08	2.75104
1238.97	2.5567
1241.86	1.06848
1244.76	2.1051
1247.65	3.8269
1250.54	2.40185
1253.43	3.54571
1256.33	4.82428
1259.22	7.67218
1262.11	9.35883
1265.01	3.83289
1267.9	2.1582
1270.79	3.93176
1273.68	1.60901
1276.58	0.249878
1279.47	3.20892
1282.36	2.11719
1285.25	0.521912
