Measurement: Raman, 532 nm, unoriented, Raman Data Processed
Mineral: Aldermanite
Rruff sample: R100073
Ideal chemistry: Mg_5_Al_12_(PO_4_)_8_(OH)_22_32H_2_O
Locality: Tom's quarry, Kapunda, South Australia, Australia
Source: Marcus Origlieri
Description: Sprays or white, thin platy crystals, associated with colorless minyulite , R100072, and colorless needles of wavellite.
Raman shift (cm-1)	intensity
190.29	0
193.183	4.76807
196.076	2.47388
198.968	5.11499
201.861	12.1438
204.754	28.1062
207.647	19.844
210.539	3.02124
213.432	2.65869
216.325	13.4219
219.217	12.6934
222.11	9.33813
225.003	9.41016
227.895	12.5923
230.788	39.2378
233.681	46.8203
236.573	23.4468
239.466	26.9768
242.359	27.3318
245.252	27.8237
248.144	35.1084
251.037	35.3088
253.93	44.3479
256.822	41.2913
259.715	30.0503
262.608	27.1821
265.5	24.0894
268.393	31.8069
271.286	13.7202
274.179	16.7168
277.071	10.7798
279.964	1.29053
282.857	3.60571
285.75	8.48023
288.642	21.4692
291.535	26.957
294.428	33.6148
297.32	17.5137
300.213	24.8843
303.106	23.5361
305.998	11.1787
308.891	13.0469
311.784	2.82178
314.676	9.62598
317.569	11.1895
320.462	6.37988
323.355	14.3735
326.247	22.4072
329.14	11.3828
332.033	15.8843
334.925	11.9917
337.818	31.1851
340.711	38.1631
343.603	24.3335
346.496	13.5518
349.389	1.35449
352.281	7.65576
355.174	0.585938
358.067	8.76416
360.96	29.6758
363.852	29.7168
366.745	28.7666
369.638	25.7046
372.53	21.6509
375.423	31.1108
378.316	41.5596
381.209	54.5244
384.101	59.6157
386.994	81.0371
389.887	93.5161
392.779	93.2148
395.672	73.6787
398.565	75.4043
401.457	61.794
404.35	56.8999
407.243	56.1475
410.135	46.6826
413.028	39.2046
415.921	34.6826
418.814	25.7871
421.706	8.78076
424.599	0.39502
427.492	8.38281
430.384	14.8804
433.277	14.7612
436.17	21.0708
439.062	31.1157
441.955	18.3237
444.848	9.03125
447.741	8.74658
450.633	12.8379
453.526	8.17725
456.419	15.4438
459.311	31.1621
462.204	36.1587
465.097	49.2217
467.99	55.1377
470.882	55.4312
473.775	48.9399
476.668	45.5395
479.56	63.3765
482.453	63.4194
485.346	60.8955
488.238	45.9746
491.131	43.3857
494.024	31.4141
496.916	31.2686
499.809	32.3843
502.702	38.124
505.595	28.9019
508.487	16.9072
511.38	21.7602
514.273	8.78955
517.165	10.7627
520.058	9.46777
522.951	7.88184
525.844	19.0928
528.736	12.2832
531.629	6.90479
534.522	10.6279
537.414	4.2168
540.307	11.5503
543.2	0.291504
546.092	3.58789
548.985	2.51318
551.878	5.9082
554.771	8.854
557.663	4.34375
560.556	7.0293
563.449	10.6226
566.341	22.6773
569.234	20.6836
572.127	14.0991
575.019	12.8838
577.912	0.196289
580.805	5.61475
583.697	24.6323
586.59	32.4775
589.483	39.5249
592.376	27.9854
595.268	31.7564
598.161	20.6977
601.054	26.4062
603.946	24.7983
606.839	48.2168
609.732	46.0547
612.625	53.0918
615.517	45.2022
618.41	60.668
621.303	44.811
624.195	44.0239
627.088	59.3364
629.981	51.6948
632.873	66.8384
635.766	73.8965
638.659	61.688
641.552	39.897
644.444	27.6704
647.337	36.0225
650.23	33.3071
653.122	32.8618
656.015	41.7534
658.908	17.6475
661.8	20.6836
664.693	5.74219
667.586	2.93262
670.479	17.3452
673.371	1.91504
676.264	3.93848
679.157	6.94287
682.049	7.65088
684.942	13.5352
687.835	0.81543
690.727	6.48242
693.62	4.21143
696.513	7.43799
699.405	10.25
702.298	2.93603
705.191	2.39844
708.084	11.7783
710.976	32.2837
713.869	35.5024
716.762	19.6572
719.654	8.3623
722.547	0.660156
725.44	19.6309
728.332	25.5737
731.225	21.8398
734.118	27.3779
737.011	19.7651
739.903	9.27588
742.796	16.1562
745.689	10.8267
748.581	28.6924
751.474	21.4639
754.367	20.2739
757.26	13.6465
760.152	19.7461
763.045	21.3867
765.938	21.8852
768.83	22.9985
771.723	19.7969
774.616	33.2261
777.508	23.3892
780.401	25.0044
783.294	23.8174
786.187	31.4165
789.079	21.0967
791.972	36.7227
794.865	42.5449
797.757	17.9497
800.65	15.6001
803.543	19.4297
806.435	11.6587
809.328	17.2617
812.221	3.17578
815.114	13.8975
818.006	12.7437
820.899	22.0977
823.792	27.2436
826.684	2.89307
829.577	9.35107
832.47	14.0083
835.362	25.8755
838.255	5.80859
841.148	0.630859
844.04	7.98242
846.933	11.1016
849.826	16.2983
852.719	10.3804
855.611	6.3833
858.504	10.1025
861.397	14.0635
864.289	20.4038
867.182	6.78223
870.075	4.1543
872.967	14.2334
875.86	18.7051
878.753	16.2632
881.646	18.5767
884.538	12.4136
887.431	9.37842
890.324	23.8306
893.216	12.0674
896.109	29.3916
899.002	30.8667
901.894	33.6533
904.787	20.6958
907.68	20.5576
910.573	18.2808
913.465	24.4053
916.358	28.4688
919.251	42.5894
922.143	27.189
925.036	16.3828
927.929	2.90234
930.822	18.4917
933.714	4.30371
936.607	6.65771
939.5	0.070313
942.392	1.82861
945.285	6.23828
948.178	18.9629
951.07	23.2021
953.963	50.8184
956.856	60.1943
959.749	43.0278
962.641	58.0513
965.534	77.6953
968.427	102.455
971.319	141.528
974.212	215.841
977.105	300.942
979.997	359.84
982.89	443.335
985.783	519.848
988.676	590.34
991.568	590.521
994.461	504.803
997.354	415.7
1000.25	308.306
1003.14	252.766
1006.03	189.393
1008.92	135.633
1011.82	104.691
1014.71	92.2974
1017.6	75.5615
1020.5	68.6943
1023.39	56.6909
1026.28	39.1802
1029.17	50.6514
1032.07	37.3174
1034.96	53.0415
1037.85	39.7827
1040.74	1.53076
1043.64	0.915039
1046.53	16.7007
1049.42	10.831
1052.32	0.123535
1055.21	8.15576
1058.1	15.9751
1060.99	5.0874
1063.89	1.04688
1066.78	5.22412
1069.67	1.63916
1072.56	11.5102
1075.46	40.3345
1078.35	47.1392
1081.24	63.4253
1084.13	34.9165
1087.03	16.8091
1089.92	22.0137
1092.81	20.73
1095.7	30.0996
1098.6	14.0151
1101.49	14.895
1104.38	7.6167
1107.28	11.7705
1110.17	11.835
1113.06	21.083
1115.95	19.4336
1118.85	23.3867
1121.74	23.708
1124.63	23.0493
1127.53	20.3286
1130.42	14.8359
1133.31	33.4233
1136.2	29.9839
1139.1	39.8013
1141.99	34.7466
1144.88	19.3648
1147.77	28.0361
1150.67	39.0674
1153.56	46.2505
1156.45	41.9497
1159.35	36.686
1162.24	19.2275
1165.13	24.1148
1168.02	27.833
1170.92	7.43262
1173.81	23.1177
1176.7	19.1035
1179.59	3.66699
1182.49	10.6685
1185.38	23.3174
1188.27	14.9775
1191.16	5.77881
1194.06	5.42139
1196.95	23.8852
1199.84	13.7422
1202.73	10.3394
1205.63	12.811
1208.52	20.48
1211.41	43.227
1214.31	58.687
1217.2	33.521
1220.09	10.5835
1222.98	2.34375
1225.88	14.2827
1228.77	16.9893
1231.66	25.833
1234.56	19.252
1237.45	23.793
1240.34	12.2085
1243.23	6.56494
1246.13	15.794
1249.02	36.5557
1251.91	47.1455
1254.8	35.644
1257.7	24.5942
1260.59	14.0547
1263.48	20.7686
1266.38	17.9624
1269.27	54.8223
1272.16	33.9492
1275.05	28.1948
1277.95	13.9785
1280.84	3.29394
1283.73	4.6875
1286.62	3.40918
1289.52	0.696289
1292.41	2.48731
1295.3	42.6435
1298.19	42.7734
1301.09	43.044
