Measurement: Raman, 532 nm, unoriented, Raman Data Processed
Mineral: Aleksite
Rruff sample: R070011
Ideal chemistry: Pb^2+^Bi^3+^_2_Te^2-^_2_S^2-^_2_
Locality: Kochkar gold mine, Cheljabinsk district, southern Urals, Russia
Source: Michael Scott
Description: Silver to gray grain embedded in epoxy
Measured chemistry: (Pb_0.97_Bi_0.03_)_Σ=1_Bi_2.00_(Te_1.92_Bi_0.08_)_Σ=2_S_2.00_
Raman shift (cm-1)	intensity
173.324	0
176.216	0.829712
179.109	23.6077
182.002	4.35767
184.895	28.7224
187.787	15.5342
190.68	64.01
193.573	38.0384
196.465	58.0673
199.358	87.287
202.251	84.5131
205.143	68.0134
208.036	95.3699
210.929	72.6195
213.821	80.6943
216.714	83.3768
219.607	86.2479
222.5	36.1475
225.392	40.7439
228.285	82.54
231.178	35.5752
234.07	56.729
236.963	65.8832
239.856	43.0636
242.749	28.9898
245.641	26.7609
248.534	50.7304
251.427	2.32996
254.319	5.56909
257.212	2.85315
260.105	46.2366
262.997	1.10644
265.89	36.523
268.783	15.1565
271.675	8.02283
274.568	0.217651
277.461	42.6334
280.354	10.0866
283.246	13.5335
286.139	4.03821
289.032	37.319
291.924	10.4849
294.817	14.3688
297.71	47.35
300.603	42.0187
303.495	36.26
306.388	60.8677
309.281	83.1201
312.173	130.537
315.066	225.324
317.959	271.409
320.851	336.09
323.744	237.522
326.637	151.586
329.529	124.836
332.422	154.994
335.315	190.755
338.208	203.873
341.1	288.065
343.993	186.411
346.886	103.113
349.778	49.4786
352.671	38.9674
355.564	68.9967
358.456	47.1338
361.349	129.612
364.242	149.874
367.135	257.415
370.027	372.578
372.92	452.973
375.813	414.085
378.705	283.714
381.598	189.749
384.491	157.937
387.383	77.3973
390.276	76.2784
393.169	2.39783
396.062	31.9047
398.954	11.8335
401.847	4.78674
404.74	8.62659
407.632	10.4574
410.525	35.0819
413.418	32.331
416.31	82.1106
419.203	64.7671
422.096	115.502
424.988	112.356
427.881	96.4348
430.774	66.1365
433.667	46.1626
436.559	46.5164
439.452	49.7598
442.345	66.0693
445.237	42.6519
448.13	26.8298
451.023	70.2524
453.915	8.04883
456.808	28.1177
459.701	0.070068
462.594	46.1941
465.486	45.4319
468.379	1.42773
471.272	25.6909
474.164	51.8289
477.057	10.4815
479.95	32.4941
482.842	50.7925
485.735	47.418
488.628	46.304
491.521	61.041
494.413	16.3955
497.306	73.9334
500.199	36.8367
503.091	40.8154
505.984	55.679
508.877	18.553
511.769	36.7231
514.662	31.7593
517.555	49.3015
520.447	28.8506
523.34	14.0706
526.233	29.9934
529.126	17.0078
532.018	54.8176
534.911	5.98804
537.804	9.58252
540.696	40.4827
543.589	65.1172
546.482	31.1157
549.375	37.7398
552.267	19.7134
555.16	29.0842
558.053	11.5088
560.945	36.3435
563.838	8.77954
566.731	37.9082
569.623	26.5356
572.516	44.3933
575.409	31.3877
578.302	14.0076
581.194	8.83105
584.087	2.79419
586.98	43.9431
589.872	22.3735
592.765	9.50317
595.658	15.1414
598.55	24.6726
601.443	40.2302
604.336	1.6023
607.228	26.762
610.121	17.523
613.014	58.2051
615.907	50.4023
618.799	69.7053
621.692	12.8052
624.585	14.4568
627.477	0.183105
630.37	42.8608
633.263	1.11401
636.155	44.095
639.048	49.615
641.941	21.6538
644.833	31.5288
647.726	10.6511
650.619	24.0237
653.512	43.25
656.404	50.0469
659.297	48.6292
662.19	19.4028
665.082	25.2241
667.975	21.7854
670.868	55.0298
673.76	26.075
676.653	39.5142
679.546	84.6575
682.438	10.6619
685.331	52.6167
688.224	0.700195
691.117	38.731
694.009	24.4258
696.902	61.0715
699.795	10.5671
702.687	57.2744
705.58	80.3093
708.473	40.2776
711.365	54.8999
714.258	50.4165
717.151	75.9326
720.044	37.3904
722.936	71.6379
725.829	8.6416
728.722	37.9849
731.614	15.2722
734.507	31.2478
737.4	19.8355
740.293	71.2661
743.185	35.7388
746.078	24.6489
748.971	60.3831
751.863	32.9207
754.756	50.1067
757.649	43.584
760.541	1.38574
763.434	43.0056
766.327	50.3313
769.22	28.5486
772.112	44.6047
775.005	18.1284
777.898	74.2253
780.79	28.3723
783.683	8.14404
786.576	71.094
789.468	18.3213
792.361	40.8369
795.254	66.4326
798.146	52.0178
801.039	36.729
803.932	31.0154
806.824	36.3259
809.717	13.7151
812.61	32.7751
815.503	10.7756
818.395	8.79395
821.288	4.65332
824.181	26.0002
827.073	37.2031
829.966	49.8596
832.859	4.39185
835.751	6.28931
838.644	10.449
841.537	56.0044
844.43	39.1265
847.322	59.437
850.215	19.5845
853.108	24.333
856	63.2158
858.893	48.0938
861.786	42.9314
864.678	54.689
867.571	53.0991
870.464	54.6699
873.357	41.031
876.249	16.3833
879.142	17.917
882.035	61.9038
884.927	46.1765
887.82	50.5667
890.713	17.8413
893.606	51.1833
896.498	48.2085
899.391	4.27979
902.284	0.250977
905.176	35.4385
908.069	55.8833
910.962	2.50903
913.854	74.137
916.747	26.8362
919.64	44.5247
922.533	23.6821
925.425	10.5908
928.318	21.1006
931.211	50.8328
934.103	2.51392
936.996	53.6421
939.889	13.1443
942.781	48.3616
945.674	17.1138
948.567	38.282
951.459	1.68213
954.352	44.9846
957.245	66.4402
960.138	40.4834
963.03	47.0112
965.923	52.5508
968.816	46.9258
971.708	16.2183
974.601	61.3438
977.494	56.7353
980.386	40.0662
983.279	2.40283
986.172	69.6387
989.064	41.6506
991.957	29.6043
994.85	46.8074
997.743	85.3584
1000.63	25.3638
1003.53	70.8467
1006.42	140.144
1009.31	65.2341
1012.21	82.2473
1015.1	153.92
1017.99	146.216
1020.88	116.786
1023.78	63.0649
1026.67	104.424
1029.56	24.333
1032.45	31.5818
1035.35	65.5452
1038.24	45.917
1041.13	67.8748
1044.03	40.6148
1046.92	5.20093
1049.81	70.6553
1052.7	26.7454
1055.6	8.53174
1058.49	37.2022
1061.38	1.59204
1064.28	16.1863
1067.17	16.5557
1070.06	34.9465
1072.95	4.51587
1075.85	30.5188
1078.74	91.5876
1081.63	55.012
1084.52	8.38428
1087.42	73.4797
1090.31	42.9734
1093.2	86.7656
1096.09	80.2285
1098.99	3.30786
1101.88	41.0356
1104.77	48.8303
1107.66	7.24634
1110.56	15.0486
1113.45	39.5486
1116.34	36.0547
1119.24	45.1599
1122.13	11.6313
1125.02	32.8403
1127.91	50.6948
1130.81	40.8308
1133.7	19.8628
1136.59	33.7454
1139.48	6.30151
1142.38	54.6252
1145.27	39.9543
1148.16	45.4849
1151.06	49.929
1153.95	59.4644
1156.84	66.844
1159.73	67.2473
1162.63	52.0642
1165.52	45.2417
1168.41	55.5884
1171.3	61.6006
1174.2	31.3372
1177.09	24.9534
1179.98	71.5896
1182.88	57.8901
1185.77	81.5881
1188.66	65.187
1191.55	73.4094
1194.45	36.7478
1197.34	39.5847
1200.23	51.4688
1203.12	10.8535
1206.02	72.1738
1208.91	1.29883
1211.8	70.4668
1214.69	51.855
1217.59	66.8003
1220.48	83.1785
1223.37	37.863
1226.27	28.0657
1229.16	49.6184
1232.05	53.7192
1234.94	28.9746
1237.84	46.4116
1240.73	10.3682
1243.62	33.1501
1246.52	58.8132
1249.41	52.9067
1252.3	20.8652
1255.19	89.3545
1258.09	22.5737
1260.98	64.7061
1263.87	49.2227
1266.76	84.7412
1269.66	75.8276
1272.55	60.2681
1275.44	70.1587
1278.33	50.4956
1281.23	87.3789
1284.12	28.8442
1287.01	27.1636
1289.9	37.0293
1292.8	30.7139
1295.69	28.2905
1298.58	60.8071
1301.48	38.2905
1304.37	15.9409
1307.26	0.925781
1310.15	76.4131
1313.05	72.1523
