Measurement: Raman, 785 nm, unoriented, Raman Data Processed
Mineral: Aleksite
Rruff sample: R070011
Ideal chemistry: Pb^2+^Bi^3+^_2_Te^2-^_2_S^2-^_2_
Locality: Kochkar gold mine, Cheljabinsk district, southern Urals, Russia
Source: Michael Scott
Description: Silver to gray grain embedded in epoxy
Measured chemistry: (Pb_0.97_Bi_0.03_)_Σ=1_Bi_2.00_(Te_1.92_Bi_0.08_)_Σ=2_S_2.00_
Raman shift (cm-1)	intensity
186.878	0
189.77	0.040161
192.663	10.4805
195.556	16.291
198.449	61.5436
201.341	41.2511
204.234	40.7039
207.127	48.7199
210.019	62.2148
212.912	44.4126
215.805	69.7034
218.697	72.8275
221.59	62.3286
224.483	70.1333
227.376	16.6233
230.268	29.8893
233.161	60.8964
236.054	23.3336
238.946	32.9893
241.839	20.5894
244.732	65.9138
247.625	58.454
250.517	15.8187
253.41	50.0078
256.303	41.6721
259.195	33.0055
262.088	20.5358
264.981	19.2034
267.873	20.7963
270.766	8.19177
273.659	17.0696
276.551	29.9474
279.444	5.72095
282.337	45.6637
285.23	5.53125
288.122	34.6858
291.015	1.66357
293.908	56.8214
296.8	1.30444
299.693	12.0856
302.586	30.2325
305.478	132.065
308.371	135.551
311.264	200.799
314.156	328.438
317.049	478.089
319.942	742.063
322.835	823.006
325.727	438.603
328.62	277.744
331.513	263.851
334.405	273.28
337.298	327.587
340.191	452.806
343.084	414.641
345.976	214.023
348.869	120.806
351.762	63.822
354.654	49.1936
357.547	53.5774
360.44	53.7476
363.332	13.1284
366.225	59.627
369.118	127.452
372.01	166.143
374.903	275.511
377.796	296.552
380.689	363.626
383.581	505.696
386.474	535.91
389.367	283.706
392.259	150.316
395.152	52.2234
398.045	69.0261
400.938	54.2734
403.83	9.76514
406.723	20.1457
409.616	10.0554
412.508	46.96
415.401	30.5317
418.294	33.8367
421.186	60.0481
424.079	19.4873
426.972	31.7664
429.865	28.6291
432.757	16.8125
435.65	42.4898
438.543	20.9561
441.435	35.8711
444.328	43.8433
447.221	74.3232
450.113	22.019
453.006	32.5798
455.899	37.9377
458.791	38.6399
461.684	25.7463
464.577	51.7512
467.47	31.1533
470.362	44.0637
473.255	57.7407
476.148	31.658
479.04	38.5037
481.933	34.7437
484.826	4.98511
487.718	53.7764
490.611	31.4431
493.504	25.8977
496.397	43.7529
499.289	30.9993
502.182	1.94775
505.075	31.1731
507.967	28.8359
510.86	50.5527
513.753	19.2626
516.645	40.1481
519.538	36.673
522.431	56.9338
525.323	5.49182
528.216	36.1448
531.109	25.9521
534.002	48.609
536.894	46.8291
539.787	0.66748
542.68	58.7633
545.572	78.1315
548.465	58.2937
551.358	42.5419
554.25	77.5211
557.143	61.2145
560.036	23.1284
562.929	42.1912
565.821	5.66589
568.714	47.0776
571.607	47.1348
574.499	16.464
577.392	61.0596
580.285	35.9465
583.178	46.3337
586.07	18.7538
588.963	16.1149
591.856	26.6201
594.748	36.0791
597.641	33.5502
600.534	7.37707
603.426	32.2535
606.319	52.5785
609.212	29.4139
612.105	0.545654
614.997	36.5529
617.89	17.5581
620.783	7.05383
623.675	16.7277
626.568	6.20581
629.461	2.24805
632.353	4.26623
635.246	13.6224
638.139	10.8555
641.032	11.3608
643.924	10.4703
646.817	18.196
649.71	39.569
652.602	0.939575
655.495	4.68799
658.388	7.03967
661.28	28.3936
664.173	18.6415
667.066	46.1696
669.958	34.1178
672.851	37.4158
675.744	45.6765
678.636	56.0762
681.529	57.7059
684.422	41.6654
687.315	16.6146
690.207	28.7107
693.1	15.5114
695.993	28.9152
698.885	50.2719
701.778	72.2837
704.671	54.7468
707.563	37.967
710.456	35.8544
713.349	9.81921
716.242	15.059
719.134	42.3889
722.027	53.3273
724.92	85.5149
727.812	66.621
730.705	29.2012
733.598	64.864
736.49	1.12183
739.383	70.6655
742.276	60.906
745.169	2.87353
748.061	69.5389
750.954	48.1198
753.847	53.3492
756.739	6.91992
759.632	58.5925
762.525	30.9491
765.418	42.4824
768.31	39.9691
771.203	50.9476
774.096	42.9498
776.988	43.5764
779.881	1.34973
782.774	51.594
785.666	49.9775
788.559	71.2292
791.452	43.1427
794.345	59.7466
797.237	66.2881
800.13	8.06494
803.023	43.5784
805.915	33.0194
808.808	48.5979
811.701	19.5209
814.593	28.8157
817.486	39.7633
820.379	38.0569
823.271	31.7465
826.164	66.5566
829.057	35.2915
831.95	7.00366
834.842	53.7681
837.735	78.5333
840.628	40.5764
843.52	21.861
846.413	67.3848
849.306	51.7566
852.198	33.3722
855.091	60.7551
857.984	25.9373
860.877	86.3143
863.769	37.1583
866.662	59.6255
869.555	46.0875
872.447	7.98413
875.34	28.2157
878.233	25.681
881.125	64.0748
884.018	31.2136
886.911	35.574
889.803	32.6832
892.696	17.4343
895.589	24.1213
898.482	13.9139
901.374	14.7152
904.267	11.3348
907.16	32.7117
910.052	12.49
912.945	34.3038
915.838	16.4679
918.731	8.62756
921.623	18.7023
924.516	37.0515
927.409	30.9498
930.301	4.98865
933.194	24.88
936.087	41.0546
938.979	30.9404
941.872	9.37781
944.765	8.03906
947.658	13.646
950.55	3.17236
953.443	27.3865
956.336	36.825
959.228	9.82349
962.121	39.6837
965.014	18.1614
967.906	34.5289
970.799	26.9585
973.692	22.582
976.585	3.52258
979.477	1.23682
982.37	50.1788
985.263	13.9678
988.155	6.96216
991.048	35.9124
993.941	15.6426
996.833	23.6124
999.726	51.0693
1002.62	66.4877
1005.51	35.9591
1008.4	21.453
1011.3	66.4788
1014.19	55.5267
1017.08	75.7781
1019.98	65.3224
1022.87	53.7716
1025.76	61.364
1028.65	50.0237
1031.55	69.1194
1034.44	1.39185
1037.33	13.26
1040.22	28.5786
1043.12	19.3977
1046.01	16.9402
1048.9	39.5446
1051.8	53.1875
1054.69	3.95178
1057.58	29.5851
1060.47	41.0262
1063.37	68.5121
1066.26	15.1792
1069.15	68.6128
1072.04	46.7441
1074.94	76.4945
1077.83	49.8378
1080.72	60.8015
1083.61	59.6556
1086.51	39.5758
1089.4	48.1182
1092.29	8.67676
1095.18	69.8838
1098.08	26.3556
1100.97	38.8335
1103.86	2.6665
1106.76	65.2026
1109.65	49.3455
1112.54	27.0397
1115.43	54.1914
1118.33	46.2689
1121.22	67.9441
1124.11	47.0065
1127.01	52.1265
1129.9	38.1593
1132.79	43.7393
1135.68	32.4839
1138.58	87.4164
1141.47	41.5991
1144.36	19.0287
1147.25	34.6323
1150.15	31.9762
1153.04	23.7626
1155.93	44.993
1158.82	54.7756
1161.72	39.5717
1164.61	1.19629
1167.5	21.4152
1170.39	18.7127
1173.29	35.562
1176.18	8.62659
1179.07	14.7512
1181.97	22.1432
1184.86	5.13
1187.75	15.3091
1190.64	28.2036
1193.54	50.2423
1196.43	48.704
1199.32	41.8214
1202.21	18.743
1205.11	40.7532
1208	11.525
1210.89	37.7201
1213.79	0.841309
1216.68	7.55322
1219.57	37.5513
1222.46	12.6184
1225.36	26.4795
1228.25	25.2373
1231.14	15.794
1234.04	12.7707
1236.93	65.4443
