Measurement: Raman, 532 nm, unoriented, Raman Data Processed
Mineral: Allanite-(La)
Rruff sample: R070246
Ideal chemistry: CaLaFe^2+^Al_2_(Si_2_O_7_)(SiO_4_)O(OH)
Locality: Nueva Vizcaya Mine, Burguillos del Cerro, Badajoz, Extremadura, Spain
Source: Michael Scott
Description: Dark green prismatic crystal asociated with lustrous magnetite and pale green epidote
Raman shift (cm-1)	intensity
164.607	0
167.5	5.73071
170.393	22.2836
173.286	5.47876
176.178	7.55481
179.071	34.3824
181.964	21.816
184.856	35.9973
187.749	43.7961
190.642	69.3993
193.535	28.6993
196.427	31.3743
199.32	53.2225
202.213	78.406
205.105	72.2946
207.998	93.3192
210.891	52.3007
213.783	44.111
216.676	49.6975
219.569	81.808
222.462	65.9564
225.354	41.7881
228.247	67.5814
231.14	39.7352
234.032	36.8036
236.925	11.3059
239.818	46.5138
242.71	21.7492
245.603	4.83655
248.496	1.00598
251.388	21.7446
254.281	40.8187
257.174	17.7799
260.067	52.8108
262.959	38.5844
265.852	67.4814
268.745	41.6531
271.637	52.1028
274.53	40.1929
277.423	67.2148
280.315	61.355
283.208	26.1415
286.101	84.6389
288.994	37.2278
291.886	28.3757
294.779	52.8005
297.672	29.5105
300.564	29.9277
303.457	26.8204
306.35	33.4415
309.243	33.8462
312.135	29.778
315.028	37.9226
317.921	63.9957
320.813	48.314
323.706	116.043
326.599	93.8697
329.491	111.735
332.384	87.4028
335.277	93.6047
338.17	119.967
341.062	93.2572
343.955	79.8285
346.848	45.9031
349.74	69.5962
352.633	70.1132
355.526	1.23389
358.418	21.5825
361.311	5.89368
364.204	4.93726
367.097	14.3466
369.989	9.72668
372.882	0.199097
375.775	4.98083
378.667	1.15698
381.56	16.1719
384.453	0.356567
387.346	28.2937
390.238	37.9714
393.131	4.14673
396.024	37.5739
398.916	53.2211
401.809	70.9951
404.702	100.315
407.594	139.112
410.487	199.902
413.38	228
416.272	239.185
419.165	306.09
422.058	324.24
424.951	314.378
427.843	320.932
430.736	308.205
433.629	303.492
436.521	319.708
439.414	302.959
442.307	305.898
445.2	321.521
448.092	371.274
450.985	337.149
453.878	303.714
456.77	309.612
459.663	272.941
462.556	247.642
465.448	247.936
468.341	206.719
471.234	168.464
474.127	140.609
477.019	149.343
479.912	86.3204
482.805	116.478
485.697	90.6969
488.59	74.3124
491.483	47.6132
494.375	71.9636
497.268	61.0646
500.161	62.2754
503.053	29.2106
505.946	30.39
508.839	7.11951
511.732	23.6298
514.624	3.46838
517.517	8.67517
520.41	10.9662
523.302	22.7169
526.195	19.6057
529.088	23.6715
531.981	19.0808
534.873	30.0714
537.766	22.5668
540.659	30.2885
543.551	53.0167
546.444	99.0723
549.337	139.262
552.229	173.274
555.122	187.204
558.015	218.705
560.908	228.595
563.8	227.67
566.693	201.649
569.586	184.819
572.478	177.93
575.371	122.532
578.264	119.363
581.156	92.6762
584.049	114.293
586.942	115.306
589.835	118.133
592.727	121.903
595.62	97.1376
598.513	95.2563
601.405	95.1916
604.298	104.651
607.191	99.3408
610.083	77.4299
612.976	81.2823
615.869	82.4741
618.762	107.711
621.654	59.0048
624.547	53.0525
627.44	56.2483
630.332	51.7662
633.225	32.1083
636.118	14.4213
639.01	37.8529
641.903	22.4756
644.796	8.57593
647.689	3.18774
650.581	6.97852
653.474	20.2664
656.367	0.614502
659.259	84.4325
662.152	76.5376
665.045	92.2665
667.938	107.408
670.83	103.258
673.723	166.659
676.616	226.859
679.508	184.505
682.401	208.753
685.294	227.933
688.186	201.642
691.079	157.614
693.972	124.647
696.865	128.628
699.757	95.2428
702.65	48.6317
705.543	51.8561
708.435	59.5745
711.328	18.8182
714.221	36.0923
717.113	38.831
720.006	29.8221
722.899	35.127
725.792	24.4672
728.684	3.77637
731.577	12.1135
734.47	1.40198
737.362	24.4498
740.255	47.5361
743.148	6.15906
746.04	12.0046
748.933	19.222
751.826	40.4092
754.719	38.1055
757.611	42.1942
760.504	21.9122
763.397	51.0889
766.289	63.0066
769.182	88.9647
772.075	41.096
774.967	74.1859
777.86	72.0234
780.753	59.9045
783.646	49.938
786.538	49.1009
789.431	53.7549
792.324	67.2765
795.216	46.9208
798.109	16.588
801.002	19.333
803.894	13.2288
806.787	8.70862
809.68	7.46643
812.573	3.94238
815.465	14.2404
818.358	5.27417
821.251	18.4722
824.143	19.5078
827.036	3.17871
829.929	34.1023
832.822	0.908081
835.714	8.77637
838.607	7.05115
841.5	34.791
844.392	17.1863
847.285	36.5721
850.178	48.2261
853.07	77.9913
855.963	49.0488
858.856	115.232
861.749	97.1317
864.641	113.331
867.534	173.218
870.427	158.464
873.319	179.423
876.212	171.327
879.105	169.621
881.997	207.102
884.89	195.051
887.783	202.365
890.676	247.353
893.568	260.627
896.461	295.539
899.354	246.598
902.246	294.934
905.139	289.801
908.032	262.825
910.924	261.476
913.817	225.499
916.71	247.311
919.602	212.698
922.495	175.326
925.388	171.674
928.281	166.208
931.173	133.991
934.066	135.592
936.959	100.126
939.851	111.234
942.744	117.025
945.637	143.441
948.529	137.553
951.422	140.172
954.315	196.662
957.208	178.663
960.1	218.924
962.993	193.987
965.886	221.284
968.778	186.079
971.671	148.701
974.564	137.476
977.457	117.457
980.349	49.6022
983.242	64.9304
986.135	13.9736
989.027	18.9835
991.92	17.8329
994.813	15.2421
997.705	10.2979
1000.6	5.5188
1003.49	13.7767
1006.38	13.723
1009.28	12.4661
1012.17	8.83118
1015.06	25.4139
1017.95	5.87817
1020.85	22.0958
1023.74	52.908
1026.63	68.3307
1029.53	72.1329
1032.42	77.7527
1035.31	120.036
1038.2	108.835
1041.1	144.616
1043.99	139.767
1046.88	162.172
1049.77	160.519
1052.67	195.376
1055.56	157.947
1058.45	186.311
1061.35	189.159
1064.24	164.13
1067.13	161.695
1070.02	157.558
1072.92	108.429
1075.81	123.562
1078.7	101.326
1081.59	59.2904
1084.49	91.9464
1087.38	56.7507
1090.27	48.7269
1093.16	27.911
1096.06	45.188
1098.95	20.3738
1101.84	26.8596
1104.73	7.56226
1107.63	27.3141
1110.52	9.25024
1113.41	7.37793
1116.31	29.6148
1119.2	3.80347
1122.09	26.6238
1124.98	15.0272
1127.88	10.183
1130.77	32.7242
1133.66	46.9382
1136.56	26.2967
1139.45	21.2081
1142.34	17.7074
1145.23	32.5885
1148.13	24.8445
1151.02	19.0355
1153.91	4.3811
1156.8	32.1141
1159.7	22.5637
1162.59	56.3171
1165.48	9.18591
1168.38	38.1013
1171.27	19.1948
1174.16	50.3279
1177.05	32.7372
1179.95	34.9913
1182.84	8.60034
1185.73	22.7266
1188.62	5.08337
1191.52	27.0809
1194.41	33.303
1197.3	23.0588
1200.19	51.5801
1203.09	9.71484
1205.98	38.4235
1208.87	13.7706
1211.77	8.49365
1214.66	43.2353
1217.55	19.563
1220.44	39.5609
1223.34	11.5487
1226.23	17.6913
1229.12	40.7898
1232.01	4.70154
1234.91	35.5786
1237.8	23.2396
1240.69	22.5304
1243.59	28.8955
1246.48	20.0273
1249.37	15.3062
1252.26	24.9959
1255.16	23.4655
1258.05	10.5084
1260.94	51.1722
1263.83	39.1058
1266.73	39.0651
1269.62	50.3901
1272.51	12.6205
1275.4	19.385
1278.3	51.1354
1281.19	22.0377
1284.08	18.238
1286.98	9.26685
1289.87	15.4076
