Measurement: Raman, 780 nm, unoriented, Raman Data Processed
Mineral: Allanite-(Ce)
Rruff sample: R060418
Ideal chemistry: CaCeAl_2_Fe^2+^(Si_2_O_7_)(SiO_4_)O(OH)
Locality: Aquarius Range, Mohave County, Arizona, USA
Source: John Weber
Description: Dark brown partially metamict, note that a fragment of this sample was heated and is posted at R080044
Measured chemistry: Ca_1.00_(Ce^3+^_0.36_Nd_0.18_La_0.13_Y_0.09_Th_0.07_Mn_0.06_Ca_0.06_Ti_0.05_)_Σ=1_Fe^2+^_1.00_(Al_1.88_Fe^3+^_0.12_)_Σ=2_[Si_2.00_O_7_][Si_1.00_O_4_]O(OH)
Raman shift (cm-1)	intensity
148.493	0.248901
151.386	4.77063
154.279	4.68213
157.171	8.56165
160.064	11.8085
162.957	13.6956
165.85	12.3777
168.742	23.1165
171.635	20.6572
174.528	24.5005
177.42	32.1663
180.313	23.5909
183.206	36.4058
186.098	42.4883
188.991	37.1631
191.884	43.5675
194.776	39.5267
197.669	46.1949
200.562	44.2993
203.455	35.7151
206.347	40.8992
209.24	32.866
212.133	33.3852
215.025	29.5938
217.918	31.5968
220.811	31.6408
223.703	22.5458
226.596	16.3237
229.489	16.6867
232.382	15.5424
235.274	16.6838
238.167	17.8568
241.06	3.82654
243.952	2.66907
246.845	4.49646
249.738	2.1405
252.631	2.4021
255.523	3.45349
258.416	0.547607
261.309	4.49622
264.201	4.02893
267.094	6.03577
269.987	7.16663
272.879	4.9585
275.772	2.57935
278.665	0.119385
281.558	3.09473
284.45	6.77881
287.343	4.39002
290.236	6.18738
293.128	10.7025
296.021	2.32776
298.914	4.62122
301.806	8.84033
304.699	6.56238
307.592	3.31299
310.485	10.7765
313.377	8.20422
316.27	2.72705
319.163	1.63647
322.055	4.75354
324.948	0.051025
327.841	2.19507
330.733	0.637695
333.626	2.98987
336.519	2.64087
339.411	10.908
342.304	8.09778
345.197	1.04187
348.09	5.75964
350.982	10.6126
353.875	13.4408
356.768	4.45398
359.66	4.51782
362.553	20.2769
365.446	19.9396
368.339	18.4762
371.231	18.1235
374.124	24.2627
377.017	18.0388
379.909	27.1473
382.802	19.5591
385.695	19.0918
388.587	28.199
391.48	26.8562
394.373	32.751
397.265	23.9305
400.158	30.3987
403.051	35.9868
405.944	40.9286
408.836	46.7167
411.729	46.3029
414.622	52.2148
417.514	55.9843
420.407	46.5231
423.3	54.3096
426.192	51.6847
429.085	55.4696
431.978	58.5176
434.871	52.4598
437.763	46.9911
440.656	46.8486
443.549	52.646
446.441	52.9952
449.334	43.0568
452.227	44.7852
455.12	41.3756
458.012	40.904
460.905	36.5159
463.798	27.8433
466.69	24.9512
469.583	22.0114
472.476	21.9758
475.368	15.4614
478.261	14.1683
481.154	5.4541
484.046	8.11169
486.939	0.15332
489.832	6.57654
492.725	6.4801
495.617	3.81616
498.51	1.24963
501.403	3.27954
504.295	9.59241
507.188	3.77332
510.081	4.23498
512.973	11.2883
515.866	5.73657
518.759	6.12183
521.652	6.19275
524.544	7.81873
527.437	16.668
530.33	13.1699
533.222	19.6219
536.115	19.0447
539.008	18.5868
541.9	28.9033
544.793	26.4436
547.686	30.6209
550.579	37.329
553.471	32.2235
556.364	36.9775
559.257	39.9962
562.149	39.2561
565.042	33.6869
567.935	27.2471
570.827	37.928
573.72	29.4359
576.613	29.4933
579.506	31.6851
582.398	25.541
585.291	24.7834
588.184	13.5029
591.076	16.7784
593.969	23.7262
596.862	18.1667
599.755	17.8761
602.647	10.1573
605.54	9.13184
608.433	4.78845
611.325	9.29858
614.218	3.73554
617.111	9.91083
620.003	1.23291
622.896	4.75494
625.789	1.57117
628.682	0.776855
631.574	3.06262
634.467	3.70618
637.36	2.10974
640.252	2.07605
643.145	0.936096
646.038	2.54999
648.93	9.59717
651.823	2.41754
654.716	2.71478
657.609	1.39679
660.501	8.72327
663.394	8.7348
666.287	11.8561
669.179	5.97913
672.072	8.89569
674.965	14.1252
677.857	16.5724
680.75	14.681
683.643	16.0062
686.535	15.2109
689.428	13.8862
692.321	18.4647
695.214	8.31812
698.106	12.1135
700.999	9.60016
703.892	11.0793
706.784	6.64789
709.677	10.6853
712.57	6.60992
715.462	6.41296
718.355	4.18579
721.248	5.40314
724.141	1.97266
727.033	7.39166
729.926	9.82336
732.819	13.5862
735.711	12.5325
738.604	9.94251
741.497	12.1964
744.389	15.6538
747.282	16.3027
750.175	14.9412
753.068	4.51703
755.96	8.42511
758.853	5.97205
761.746	8.45361
764.638	5.80926
767.531	7.96832
770.424	1.82666
773.317	3.14862
776.209	1.37415
779.102	3.46973
781.995	4.21893
784.887	0.35791
787.78	0.391541
790.673	0.824585
793.565	2.93158
796.458	3.85877
799.351	4.60217
802.244	4.09106
805.136	3.28961
808.029	2.76526
810.922	5.40955
813.814	1.68909
816.707	3.18213
819.6	6.31262
822.492	6.23022
825.385	9.90002
828.278	12.7319
831.17	8.92871
834.063	6.28662
836.956	15.6982
839.849	14.6406
842.741	15.2289
845.634	16.1043
848.527	10.4993
851.419	15.9335
854.312	20.5614
857.205	19.6675
860.097	15.1912
862.99	14.5213
865.883	16.3762
868.776	18.3742
871.668	14.9178
874.561	23.6378
877.454	18.231
880.346	22.1636
883.239	16.9225
886.132	17.0789
889.024	15.658
891.917	19.5098
894.81	18.5051
897.703	18.0912
900.595	18.1427
903.488	19.1868
906.381	13.294
909.273	13.4951
912.166	17.3841
915.059	15.8873
917.952	16.6086
920.844	15.627
923.737	14.598
926.63	15.3185
929.522	13.8525
932.415	9.69824
935.308	11.6875
938.2	14.43
941.093	10.2648
943.986	11.1369
946.879	12.8224
949.771	16.3646
952.664	14.6635
955.557	9.68848
958.449	14.4641
961.342	13.8692
964.235	12.316
967.127	4.42596
970.02	10.4036
972.913	6.07526
975.806	2.68701
978.698	0.040527
981.591	2.61475
984.484	6.74091
987.376	3.52948
990.269	1.77429
993.162	3.58923
996.054	0.510559
998.947	1.16
1001.84	4.37817
1004.73	2.03336
1007.62	4.02811
1010.52	3.03055
1013.41	2.68442
1016.3	6.68478
1019.2	6.10422
1022.09	3.89041
1024.98	7.48154
1027.87	10.606
1030.77	10.781
1033.66	10.3152
1036.55	8.14645
1039.44	15.4907
1042.34	1.35284
1045.23	11.516
1048.12	7.66797
1051.02	13.636
1053.91	12.7206
1056.8	7.34894
1059.69	16.4539
1062.59	17.0854
1065.48	6.18359
1068.37	6.81699
1071.27	8.34302
1074.16	8.32394
1077.05	9.36902
1079.94	5.6608
1082.84	9.77689
1085.73	7.31415
1088.62	0.263184
1091.51	1.53134
1094.41	9.38739
1097.3	2.25159
1100.19	4.14014
1103.08	5.66193
1105.98	1.5163
1108.87	5.22409
1111.76	5.90747
1114.65	2.81513
1117.55	6.1528
1120.44	1.37643
1123.33	6.19559
1126.23	2.43277
1129.12	12.0405
1132.01	3.17071
1134.9	3.46161
1137.8	2.13898
1140.69	11.4611
1143.58	3.89282
1146.47	2.81049
1149.37	10.3972
1152.26	11.6502
1155.15	9.5672
1158.05	10.0236
1160.94	11.144
1163.83	12.1726
1166.72	17.743
1169.62	17.6132
1172.51	13.0018
1175.4	17.5133
1178.3	18.1658
1181.19	20.2817
1184.08	22.882
1186.97	28.0465
1189.87	26.0122
1192.76	26.4043
1195.65	28.188
1198.54	30.2595
1201.44	34.6647
1204.33	34.3895
1207.22	46.5348
1210.11	50.88
1213.01	41.0801
1215.9	52.0241
1218.79	56.0163
1221.68	59.4916
1224.58	53.5532
1227.47	56.2043
1230.36	43.4036
1233.26	41.6352
1236.15	40.0699
1239.04	39.3744
1241.93	31.4124
1244.83	23.4138
1247.72	26.5698
1250.61	22.9777
1253.51	22.3132
1256.4	21.7814
1259.29	22.2892
1262.18	24.0516
1265.08	19.6371
1267.97	11.1744
1270.86	10.1419
1273.75	12.1137
1276.65	0.834961
1279.54	7.08838
1282.43	1.03778
1285.32	0
