Measurement: Raman, 532 nm, unoriented, Raman Data Processed
Mineral: Allanite-(Ce)
Rruff sample: R080044
Ideal chemistry: CaCeAl_2_Fe^2+^(Si_2_O_7_)(SiO_4_)O(OH)
Locality: Aquarius Range, Mohave County, Arizona, USA
Source: John Weber
Description: Dark brown fragment from metamict sample R060418, after heating at T = 850 C for 18 hours
Raman shift (cm-1)	intensity
198.486	0
201.379	10.5672
204.272	0.60022
207.164	25.402
210.057	32.7059
212.95	37.7149
215.843	67.7063
218.735	86.8812
221.628	111.755
224.521	130.468
227.413	147.175
230.306	142.578
233.199	95.9893
236.091	102.871
238.984	69.2856
241.877	32.893
244.769	36.8383
247.662	9.75092
250.555	9.47107
253.448	10.9506
256.34	22.391
259.233	2.69458
262.126	4.89276
265.018	1.16541
267.911	18.8348
270.804	17.6689
273.697	24.0273
276.589	15.2538
279.482	24.8124
282.375	23.5925
285.267	32.9625
288.16	35.8201
291.053	46.6926
293.945	74.8079
296.838	70.8625
299.731	77.7065
302.623	77.5585
305.516	66.0059
308.409	86.6182
311.302	82.0091
314.194	93.8873
317.087	94.6277
319.98	129.923
322.872	150.951
325.765	167.823
328.658	191.242
331.55	220.431
334.443	233.563
337.336	209.614
340.229	241.002
343.121	192.678
346.014	149.983
348.907	129.861
351.799	94.1339
354.692	84.5437
357.585	44.3573
360.478	38.798
363.37	27.9662
366.263	6.62408
369.156	22.9465
372.048	16.42
374.941	11.5974
377.834	13.6567
380.726	6.03894
383.619	10.0974
386.512	9.48206
389.404	5.75171
392.297	28.1693
395.19	27.3334
398.083	61.4122
400.975	66.6913
403.868	79.5404
406.761	136.11
409.653	157.036
412.546	175.181
415.439	192.763
418.332	199.405
421.224	197.635
424.117	200.099
427.01	199.468
429.902	205.139
432.795	181.74
435.688	177.156
438.58	177.647
441.473	194.294
444.366	205.699
447.259	205.529
450.151	221.72
453.044	228.737
455.937	213.014
458.829	202.689
461.722	178.591
464.615	136.844
467.507	105.541
470.4	93.4186
473.293	61.7929
476.185	57.7676
479.078	49.4717
481.971	30.8498
484.864	10.48
487.756	46.4845
490.649	35.6472
493.542	31.8812
496.434	41.0679
499.327	38.0779
502.22	32.9102
505.113	40.6191
508.005	24.2572
510.898	10.1408
513.791	28.9469
516.683	1.82202
519.576	9.15173
522.469	6.22876
525.361	13.2599
528.254	20.5231
531.147	9.95795
534.04	6.62189
536.932	4.02075
539.825	9.68201
542.718	3.01984
545.61	8.43359
548.503	24.8665
551.396	15.3771
554.288	48.1804
557.181	40.3007
560.074	16.8596
562.967	25.4833
565.859	3.48383
568.752	30.9538
571.645	11.9437
574.537	33.8446
577.43	27.0237
580.323	46.5142
583.216	82.5696
586.108	80.222
589.001	72.7494
591.894	88.91
594.786	87.5122
597.679	74.9559
600.572	64.3527
603.464	67.3533
606.357	83.8749
609.25	102.211
612.142	88.047
615.035	87.848
617.928	100.343
620.821	88.7271
623.713	80.0975
626.606	92.6162
629.499	88.6021
632.391	101.037
635.284	110.619
638.177	115.407
641.069	145.05
643.962	142.718
646.855	127.505
649.747	157.619
652.64	145.177
655.533	153.907
658.426	162.38
661.318	170.311
664.211	159.84
667.104	113.727
669.996	147.666
672.889	134.734
675.782	155.422
678.674	145.904
681.567	159.169
684.46	130.023
687.353	141.409
690.245	103.455
693.138	95.2253
696.031	95.2924
698.923	81.3799
701.816	74.3363
704.709	65.8733
707.601	60.6473
710.494	49.1489
713.387	38.7325
716.28	29.0108
719.172	3.34741
722.065	3.44312
724.958	0.393188
727.85	13.7216
730.743	4.90472
733.636	11.0016
736.529	5.54224
739.421	2.052
742.314	17.2209
745.207	12.3543
748.099	34.6779
750.992	16.1293
753.885	38.7665
756.777	50.3244
759.67	52.2851
762.563	57.1705
765.456	46.3613
768.348	50.7779
771.241	54.8954
774.134	51.8102
777.026	50.4163
779.919	42.0785
782.812	24.3033
785.704	33.5924
788.597	21.4634
791.49	6.16791
794.383	8.62634
797.275	2.27014
800.168	7.3186
803.061	18.005
805.953	5.14679
808.846	4.10712
811.739	7.44037
814.631	14.9877
817.524	19.8588
820.417	19.9838
823.309	11.9302
826.202	18.3279
829.095	36.0075
831.988	37.9943
834.88	26.8306
837.773	44.73
840.666	33.331
843.558	41.9354
846.451	35.5285
849.344	35.6442
852.236	25.5555
855.129	46.4047
858.022	39.5269
860.915	38.5692
863.807	35.6092
866.7	6.53699
869.593	32.3572
872.485	2.69598
875.378	22.1032
878.271	22.0856
881.163	29.8316
884.056	18.9211
886.949	37.642
889.842	50.7601
892.734	48.4981
895.627	47.1819
898.52	55.4524
901.412	72.049
904.305	88.3467
907.198	72.4436
910.091	71.0352
912.983	66.6089
915.876	58.3785
918.769	52.7835
921.661	43.1238
924.554	22.6058
927.447	35.2844
930.339	27.4992
933.232	11.5998
936.125	0.637817
939.018	23.616
941.91	15.4345
944.803	21.2839
947.696	22.3321
950.588	26.4031
953.481	23.7244
956.374	4.33728
959.266	23.0251
962.159	18.03
965.052	30.7796
967.944	32.6982
970.837	33.1989
973.73	27.9119
976.623	35.9113
979.515	35.5516
982.408	25.0232
985.301	17.3925
988.193	12.47
991.086	4.1651
993.979	5.36407
996.871	9.82404
999.764	14.668
1002.66	2.31158
1005.55	2.10471
1008.44	4.92459
1011.34	8.15949
1014.23	10.5322
1017.12	12.3398
1020.01	0.358795
1022.91	11.684
1025.8	11.1121
1028.69	7.27533
1031.58	11.9642
1034.48	5.82779
1037.37	4.68057
1040.26	15.852
1043.15	10.9715
1046.05	18.7965
1048.94	12.311
1051.83	17.1684
1054.73	31.5414
1057.62	17.7528
1060.51	30.0227
1063.4	30.3585
1066.3	14.7844
1069.19	43.5549
1072.08	39.5337
1074.97	49.2279
1077.87	48.9909
1080.76	26.1316
1083.65	33.0312
1086.55	20.6968
1089.44	20.332
1092.33	35.2911
1095.22	38.8642
1098.12	15.5596
1101.01	16.7554
1103.9	19.4954
1106.79	23.6986
1109.69	17.8351
1112.58	29.9242
1115.47	3.52316
1118.37	14.1571
1121.26	17.0067
1124.15	1.1282
1127.04	1.49997
1129.94	2.4624
1132.83	24.8303
1135.72	6.93213
1138.61	22.9162
1141.51	4.93365
1144.4	22.6566
1147.29	1.64581
1150.18	20.8715
1153.08	11.1121
1155.97	15.8798
1158.86	13.5128
1161.76	28.8824
1164.65	25.7607
1167.54	15.657
1170.43	8.79926
1173.33	16.2049
1176.22	11.6411
1179.11	34.7198
1182	14.0074
1184.9	23.5322
1187.79	32.9888
1190.68	31.5398
1193.58	22.113
1196.47	36.8165
1199.36	26.5023
1202.25	24.5135
1205.15	30.015
1208.04	9.64908
1210.93	18.6518
1213.82	14.0765
1216.72	24.7926
1219.61	7.34491
1222.5	18.5799
1225.39	25.9463
1228.29	28.52
1231.18	14.0314
1234.07	15.879
1236.97	1.87775
1239.86	1.83295
1242.75	5.66727
1245.64	21.2509
1248.54	8.46414
1251.43	0.17038
1254.32	21.5762
1257.21	17.9143
1260.11	6.61484
1263	21.6646
1265.89	28.9968
1268.79	22.8595
1271.68	16.2289
1274.57	14.1356
1277.46	12.4856
1280.36	2.6973
1283.25	15.82
1286.14	10.309
1289.03	1.4021
1291.93	23.4089
1294.82	14.5541
1297.71	0.619446
1300.61	11.5163
