Measurement: Raman, 532 nm, unoriented, Raman Data Processed
Mineral: Allanite-(Ce)
Rruff sample: R060418
Ideal chemistry: CaCeAl_2_Fe^2+^(Si_2_O_7_)(SiO_4_)O(OH)
Locality: Aquarius Range, Mohave County, Arizona, USA
Source: John Weber
Description: Dark brown partially metamict, note that a fragment of this sample was heated and is posted at R080044
Measured chemistry: Ca_1.00_(Ce^3+^_0.36_Nd_0.18_La_0.13_Y_0.09_Th_0.07_Mn_0.06_Ca_0.06_Ti_0.05_)_Σ=1_Fe^2+^_1.00_(Al_1.88_Fe^3+^_0.12_)_Σ=2_[Si_2.00_O_7_][Si_1.00_O_4_]O(OH)
Raman shift (cm-1)	intensity
198.004	0
200.897	0.010742
203.79	1.76829
206.682	0.017838
209.575	4.39278
212.468	4.42766
215.36	5.22726
218.253	5.218
221.146	5.71684
224.038	3.39929
226.931	6.07011
229.824	5.67509
232.717	6.50598
235.609	2.36652
238.502	5.38165
241.395	5.6384
244.287	5.58452
247.18	4.03552
250.073	5.71086
252.965	6.20882
255.858	5.48981
258.751	4.39603
261.644	3.84859
264.536	3.44044
267.429	4.41417
270.322	4.91675
273.214	5.6752
276.107	4.88028
279	5.96133
281.892	2.63132
284.785	2.61144
287.678	1.45287
290.571	2.10821
293.463	1.95488
296.356	0.814285
299.249	3.30489
302.141	2.5863
305.034	1.36467
307.927	2.11334
310.82	3.51437
313.712	2.4913
316.605	1.08575
319.498	2.53656
322.39	1.61726
325.283	0.736343
328.176	0.64769
331.068	2.83612
333.961	0.948166
336.854	1.53177
339.747	1.95583
342.639	2.24928
345.532	0.511429
348.425	1.73068
351.317	1.1328
354.21	0.904694
357.103	1.65083
359.995	2.62019
362.888	1.47549
365.781	0.27832
368.673	0.977249
371.566	2.42958
374.459	1.93643
377.352	0.606018
380.244	0.848618
383.137	0.452881
386.03	3.54079
388.922	0.650162
391.815	2.7663
394.708	2.46449
397.601	3.42851
400.493	2.95416
403.386	5.31473
406.279	4.85379
409.171	6.67018
412.064	6.97487
414.957	11.4006
417.849	5.95468
420.742	7.00633
423.635	6.27348
426.527	7.95822
429.42	7.59445
432.313	7.13734
435.206	4.56093
438.098	5.33575
440.991	6.26648
443.884	6.18674
446.776	5.71288
449.669	6.77837
452.562	5.20424
455.454	6.80901
458.347	4.0705
461.24	2.71193
464.133	3.72238
467.025	1.64966
469.918	1.96509
472.811	1.26378
475.703	0.640579
478.596	1.14227
481.489	3.15636
484.382	1.20247
487.274	0.157227
490.167	1.52998
493.06	0.706589
495.952	0.7733
498.845	1.25592
501.738	1.38393
504.63	1.44721
507.523	2.22168
510.416	0.446625
513.308	1.62604
516.201	2.52084
519.094	1.51192
521.987	1.56644
524.879	1.80734
527.772	3.82517
530.665	4.10707
533.557	3.91743
536.45	4.80318
539.343	4.59587
542.236	6.30206
545.128	6.32684
548.021	9.9958
550.914	9.31076
553.806	12.2577
556.699	11.3544
559.592	11.3359
562.484	8.86986
565.377	9.47893
568.27	9.18434
571.163	7.22778
574.055	6.97447
576.948	6.29777
579.841	6.02434
582.733	5.75882
585.626	7.29616
588.519	4.46709
591.411	4.71263
594.304	5.44731
597.197	4.32204
600.09	4.11633
602.982	5.12883
605.875	4.89989
608.768	1.81343
611.66	2.86157
614.553	1.8689
617.446	0.999527
620.338	1.06566
623.231	2.43803
626.124	0.303177
629.016	0.574203
631.909	0.756088
634.802	1.15643
637.695	2.40297
640.587	0.49025
643.48	0.587128
646.373	3.84174
649.265	1.84286
652.158	0.337738
655.051	0.343826
657.943	1.36536
660.836	0.804413
663.729	0.914032
666.622	0.418427
669.514	2.89513
672.407	0.092331
675.3	0.973068
678.192	2.8591
681.085	3.63293
683.978	1.75349
686.87	4.11687
689.763	4.59499
692.656	5.11018
695.549	1.87137
698.441	4.27062
701.334	1.50197
704.227	0.869095
707.119	3.08488
710.012	2.12016
712.905	1.8306
715.798	1.68189
718.69	0.856308
721.583	2.80016
724.476	1.81294
727.368	1.94054
730.261	2.53178
733.154	3.5554
736.046	4.54492
738.939	3.72449
741.832	4.07089
744.725	5.28935
747.617	5.27994
750.51	6.42447
753.403	7.00247
756.295	9.56885
759.188	7.62148
762.081	7.26099
764.973	8.87927
767.866	8.87941
770.759	5.91119
773.652	5.53007
776.544	5.39233
779.437	6.35387
782.33	3.34573
785.222	4.4461
788.115	4.94161
791.008	1.67609
793.9	1.73702
796.793	1.82307
799.686	1.32883
802.578	0.184669
805.471	0.311951
808.364	0.693306
811.257	0.111229
814.149	0.387199
817.042	0.470657
819.935	0.27021
822.827	1.25265
825.72	1.02013
828.613	0.826515
831.505	3.0246
834.398	2.50697
837.291	4.52203
840.184	3.63727
843.076	4.49208
845.969	5.53471
848.862	4.68402
851.754	5.24907
854.647	6.59199
857.54	7.08225
860.433	6.65033
863.325	7.99877
866.218	5.87374
869.111	7.46228
872.003	4.4581
874.896	3.98766
877.789	8.43982
880.681	7.4204
883.574	6.38246
886.467	7.42482
889.36	9.04777
892.252	9.96051
895.145	9.14125
898.038	7.55922
900.93	9.59641
903.823	7.01109
906.716	9.92937
909.608	6.84689
912.501	8.15134
915.394	6.15497
918.287	5.98116
921.179	6.64294
924.072	5.49452
926.965	6.14772
929.857	6.23167
932.75	5.91986
935.643	3.50447
938.535	5.1116
941.428	4.40981
944.321	4.38762
947.213	6.39368
950.106	4.32738
952.999	5.14694
955.892	3.05559
958.784	5.06569
961.677	3.09573
964.57	1.99764
967.462	4.32175
970.355	1.27196
973.248	2.69599
976.14	2.02674
979.033	0.443344
981.926	0.315361
984.819	0.415344
987.711	0.596527
990.604	1.14561
993.497	1.68887
996.389	0.697258
999.282	1.20621
1002.17	1.57219
1005.07	0.199371
1007.96	1.06382
1010.85	0.158943
1013.75	1.74506
1016.64	0.916206
1019.53	1.88785
1022.42	0.872002
1025.32	0.873184
1028.21	1.5416
1031.1	2.14262
1033.99	0.836288
1036.89	2.1805
1039.78	3.32388
1042.67	2.16585
1045.57	1.80441
1048.46	1.31341
1051.35	0.417915
1054.24	3.00873
1057.14	0.048965
1060.03	3.03293
1062.92	1.49507
1065.81	1.6702
1068.71	1.40218
1071.6	2.02364
1074.49	1.74277
1077.38	0.902924
1080.28	0.929146
1083.17	0.474037
1086.06	0.59716
1088.96	1.60642
1091.85	0.824547
1094.74	1.31513
1097.63	0.77169
1100.53	0.246811
1103.42	0.095787
1106.31	0.10746
1109.2	0.36692
1112.1	0.865211
1114.99	0.220276
1117.88	2.15508
1120.78	1.94804
1123.67	1.96985
1126.56	3.03649
1129.45	0.542515
1132.35	2.13427
1135.24	1.19622
1138.13	3.25988
1141.02	2.7193
1143.92	2.51554
1146.81	0.429089
1149.7	2.82275
1152.6	2.3711
1155.49	2.43372
1158.38	3.58783
1161.27	2.48738
1164.17	1.53332
1167.06	2.22385
1169.95	1.8317
1172.84	2.44683
1175.74	1.88191
1178.63	2.13233
1181.52	3.57159
1184.41	1.3195
1187.31	2.23624
1190.2	2.5096
1193.09	1.98245
1195.99	1.69356
1198.88	0.804375
1201.77	1.85849
1204.66	2.52485
1207.56	2.41498
1210.45	1.58113
1213.34	2.38704
1216.23	2.59943
1219.13	2.2737
1222.02	1.18966
1224.91	1.87526
1227.81	0.895512
1230.7	0.267971
1233.59	1.40204
1236.48	1.3044
1239.38	0.519901
1242.27	2.03364
1245.16	3.39371
1248.05	0.714931
1250.95	2.48973
1253.84	2.84199
1256.73	1.2034
1259.62	1.77006
1262.52	0.426109
1265.41	0.080402
1268.3	0.296425
1271.2	0.301964
1274.09	0.578693
1276.98	1.68906
1279.87	2.35186
1282.77	1.19033
1285.66	0.88559
1288.55	2.08374
1291.44	1.26371
1294.34	2.19119
1297.23	2.62209
1300.12	1.98239
1303.02	0
