Measurement: Raman, 780 nm, unoriented, Raman Data Processed
Mineral: Allanpringite
Rruff sample: R080147
Ideal chemistry: Fe^3+^_3_(PO_4_)_2_(OH)_3_5H_2_O
Locality: Mark mine, Essershausen, Weilburg, Wetzlar, Hesse, Germany
Source: Steffan Jahn
Description: Bundles of acicular yellow crystals on matrix.
Raman shift (cm-1)	intensity
116.925	0
120.3	3.06415
123.674	1.19739
127.049	6.71683
130.424	9.14041
133.799	11.2302
137.174	12.6702
140.549	13.5364
143.923	17.9096
147.298	24.1721
150.673	48.3041
154.048	58.6618
157.423	66.4054
160.798	70.4248
164.172	55.8753
167.547	47.7698
170.922	40.9188
174.297	36.4196
177.672	24.1989
181.046	2.07181
184.421	4.46948
187.796	6.01892
191.171	0.763275
194.546	1.34656
197.921	9.8403
201.295	19.2126
204.67	22.4557
208.045	27.9188
211.42	29.9094
214.795	34.4233
218.169	42.1506
221.544	48.3744
224.919	51.3575
228.294	47.0783
231.669	36.865
235.043	30.557
238.418	24.7978
241.793	27.1637
245.168	34.9695
248.543	33.4661
251.918	36.3823
255.292	44.48
258.667	52.4346
262.042	71.2755
265.417	84.4676
268.792	105.247
272.166	124.965
275.541	145.274
278.916	165.842
282.291	176.626
285.666	183.392
289.041	176.464
292.415	147.455
295.79	119.477
299.165	84.0597
302.54	50.3176
305.915	29.1163
309.289	14.3918
312.664	1.77554
316.039	7.24194
319.414	2.03864
322.789	1.56912
326.164	4.10745
329.538	9.88129
332.913	12.7746
336.288	20.9158
339.663	33.3717
343.038	34.8091
346.413	44.2832
349.787	53.2358
353.162	55.6401
356.537	56.2146
359.912	61.4871
363.287	53.2655
366.661	49.0988
370.036	37.7756
373.411	29.774
376.786	19.837
380.161	12.1612
383.536	9.20607
386.91	4.33926
390.285	8.31656
393.66	6.24623
397.035	9.82527
400.41	6.05447
403.784	5.8799
407.159	1.10985
410.534	1.61739
413.909	2.45151
417.284	5.22427
420.659	7.8582
424.033	8.77301
427.408	1.50885
430.783	4.06891
434.158	3.00848
437.533	3.54246
440.907	2.48895
444.282	11.9241
447.657	12.8192
451.032	19.1435
454.407	31.946
457.781	42.9583
461.156	53.121
464.531	59.9552
467.906	65.1608
471.281	62.9896
474.656	58.966
478.03	58.4011
481.405	54.3064
484.78	48.7205
488.155	44.432
491.53	45.0849
494.904	34.2239
498.279	29.4052
501.654	25.0053
505.029	15.6235
508.404	13.8809
511.779	5.56734
515.153	4.93041
518.528	1.58453
521.903	6.76494
525.278	2.48344
528.653	0.822189
532.028	0.373581
535.402	4.60689
538.777	1.50696
542.152	3.927
545.527	7.57047
548.902	9.01778
552.276	13.1822
555.651	15.1161
559.026	14.0448
562.401	14.6829
565.776	15.3855
569.15	15.1179
572.525	19.0029
575.9	23.6203
579.275	31.0671
582.65	41.8877
586.025	42.4077
589.399	45.6421
592.774	44.6962
596.149	45.9943
599.524	54.3602
602.899	48.2569
606.274	45.9655
609.648	45.5123
613.023	39.6068
616.398	31.022
619.773	25.2975
623.148	23.6106
626.523	19.1623
629.897	10.2464
633.272	8.44766
636.647	3.77133
640.022	5.15347
643.396	3.17626
646.771	2.56949
650.146	2.82505
653.521	1.38365
656.896	0.514137
660.271	0.398094
663.645	3.51607
667.02	1.41762
670.395	0.481567
673.77	4.96324
677.145	1.43387
680.519	7.41522
683.894	2.13914
687.269	1.56246
690.644	3.29472
694.019	1.23734
697.394	8.55546
700.769	2.28773
704.143	3.18617
707.518	1.21709
710.893	6.36594
714.268	2.60084
717.643	6.5459
721.017	4.15533
724.392	4.35633
727.767	1.83096
731.142	4.57237
734.517	4.13117
737.891	6.04932
741.266	2.04028
744.641	0.625771
748.016	1.96295
751.391	0.970009
754.766	1.76881
758.14	1.83071
761.515	0.319054
764.89	1.80575
768.265	5.16761
771.64	0.014534
775.014	7.08074
778.389	0.717674
781.764	6.34919
785.139	2.10514
788.514	4.29692
791.889	3.72958
795.263	7.66208
798.638	0.084961
802.013	3.88888
805.388	4.62625
808.763	4.01578
812.138	0.371941
815.512	6.11438
818.887	3.28004
822.262	4.61351
825.637	4.66547
829.012	8.28369
832.386	6.54504
835.761	4.14304
839.136	7.29723
842.511	6.28884
845.886	4.08695
849.26	6.14874
852.635	9.47772
856.01	6.89983
859.385	9.43327
862.76	8.92213
866.135	5.8121
869.509	9.89746
872.884	14.8387
876.259	16.208
879.634	12.4507
883.009	7.92654
886.384	9.22896
889.758	7.92719
893.133	8.51617
896.508	8.5482
899.883	10.8213
903.258	7.58866
906.632	3.61504
910.007	7.30361
913.382	5.34808
916.757	2.62276
920.132	1.24664
923.506	0.351936
926.881	1.18131
930.256	4.32741
933.631	0.529099
937.006	2.65649
940.381	2.29323
943.755	1.0272
947.13	3.49622
950.505	2.12074
953.88	0.690422
957.255	2.69081
960.63	6.60839
964.004	13.8904
967.379	24.6209
970.754	38.8445
974.129	58.916
977.504	89.4651
980.878	116.636
984.253	151.667
987.628	163.691
991.003	161.252
994.378	153.9
997.753	152.239
1001.13	160.303
1004.5	161.202
1007.88	168.001
1011.25	153.245
1014.63	121.494
1018	98.4221
1021.38	81.7282
1024.75	61.3126
1028.13	47.5517
1031.5	39.9951
1034.88	28.9169
1038.25	38.9829
1041.62	43.1224
1045	45.9954
1048.38	53.087
1051.75	56.4165
1055.12	67.0551
1058.5	71.0511
1061.87	66.7612
1065.25	66.5371
1068.62	59.6894
1072	47.6853
1075.37	30.7742
1078.75	30.5316
1082.12	22.3763
1085.5	21.8721
1088.87	17.8719
1092.25	20.2874
1095.62	12.387
1099	11.8473
1102.37	16.2245
1105.75	10.8843
1109.12	5.33291
1112.5	2.75764
1115.87	0.594971
1119.25	0.467705
1122.62	2.10856
1126	2.44184
1129.37	2.00352
1132.74	0.641663
1136.12	4.80056
1139.49	0.177971
1142.87	2.26952
1146.24	4.63345
1149.62	3.27812
1152.99	5.1075
1156.37	5.67487
1159.74	7.58935
1163.12	6.14143
1166.49	7.14614
1169.87	9.57484
1173.24	9.33808
1176.62	8.36238
1179.99	8.04321
1183.37	6.49301
1186.74	8.47482
1190.12	7.61955
1193.49	8.02323
1196.87	7.03123
1200.24	7.42794
1203.62	7.88436
1206.99	8.9123
1210.37	4.83735
1213.74	2.56922
1217.12	4.779
1220.49	5.90005
1223.87	6.58443
1227.24	4.88556
1230.62	8.13258
1233.99	6.13364
1237.37	2.30535
1240.74	4.62367
1244.11	0.430046
1247.49	7.44709
1250.86	0.984539
1254.24	9.29968
1257.61	4.06039
1260.99	0.393681
1264.36	4.35204
1267.74	6.86103
1271.11	3.04892
1274.49	6.42723
1277.86	5.8887
1281.24	1.0353
1284.61	5.22103
