Measurement: Raman, 785 nm, unoriented, Raman Data Processed
Mineral: Allanite-(La)
Rruff sample: R070246
Ideal chemistry: CaLaFe^2+^Al_2_(Si_2_O_7_)(SiO_4_)O(OH)
Locality: Nueva Vizcaya Mine, Burguillos del Cerro, Badajoz, Extremadura, Spain
Source: Michael Scott
Description: Dark green prismatic crystal asociated with lustrous magnetite and pale green epidote
Raman shift (cm-1)	intensity
187.069	0
189.962	56.8105
192.855	64.0752
195.748	93.5371
198.64	97.2744
201.533	99.0713
204.426	131.258
207.318	97.6221
210.211	106.884
213.104	76.27
215.996	86.2515
218.889	64.7036
221.782	149.388
224.674	124.421
227.567	99.8223
230.46	51.8867
233.353	9.71289
236.245	4.66943
239.138	44.2065
242.031	44.1577
244.923	3.20166
247.816	27.0957
250.709	2.67041
253.601	11.2197
256.494	53.8882
259.387	26.7197
262.28	48.6685
265.172	89.9453
268.065	88.6543
270.958	76.6265
273.85	97.8979
276.743	166.783
279.636	100.315
282.529	104.34
285.421	151.815
288.314	147.905
291.207	103.663
294.099	133.84
296.992	143.929
299.885	89.269
302.777	106.036
305.67	162.081
308.563	152.65
311.455	111.18
314.348	163.909
317.241	96.5615
320.134	117.978
323.026	74.1714
325.919	95.2349
328.812	60.7778
331.704	57.457
334.597	88.4165
337.49	72.3989
340.382	18.3438
343.275	34.7036
346.168	16.9824
349.061	14.7646
351.953	56.0444
354.846	33.085
357.739	23.5732
360.631	5.40967
363.524	13.1289
366.417	24.0029
369.31	2.1626
372.202	54.6855
375.095	56.646
377.988	55.4194
380.88	86.3188
383.773	26.5698
386.666	44.2368
389.558	9.0542
392.451	106.525
395.344	63.2207
398.236	59.9751
401.129	63.602
404.022	119.176
406.915	142.62
409.807	203.488
412.7	213.749
415.593	260.8
418.485	326.803
421.378	335.528
424.271	326.549
427.163	324.146
430.056	264.828
432.949	349.328
435.842	257.765
438.734	290.597
441.627	286.194
444.52	334.619
447.412	329.039
450.305	316.073
453.198	321.797
456.091	296.271
458.983	266.09
461.876	242.995
464.769	228.894
467.661	172.461
470.554	180.147
473.447	119.816
476.339	112.145
479.232	95.6816
482.125	21.1494
485.017	24.0195
487.91	31.999
490.803	29.0132
493.696	8.20215
496.588	23.1729
499.481	33.585
502.374	14.6162
505.266	41.7993
508.159	18.1314
511.052	13.3076
513.944	34.0903
516.837	2.52393
519.73	24.5996
522.623	10.0156
525.515	4.10644
528.408	16.4238
531.301	72.3008
534.193	56.4536
537.086	37.4536
539.979	90.585
542.871	30.5962
545.764	48.3648
548.657	97.9546
551.55	116.959
554.442	87.1611
557.335	149.629
560.228	183.133
563.12	111.15
566.013	138.865
568.906	145.715
571.798	127.198
574.691	66.2852
577.584	84.9624
580.477	63.2998
583.369	94.6743
586.262	67.6382
589.155	81.853
592.047	83.061
594.94	70.2905
597.833	63.7422
600.726	27.1973
603.618	64.9512
606.511	55.3599
609.404	64.3769
612.296	62.9258
615.189	44.999
618.082	51.1934
620.974	43.1431
623.867	28.2939
626.76	30.5957
629.653	36.9243
632.545	34.1113
635.438	10.2227
638.331	15.4307
641.223	4.1499
644.116	54.5879
647.009	10.9507
649.901	10.2852
652.794	3.65942
655.687	31.9453
658.58	29.8074
661.472	44.8411
664.365	61.856
667.258	148.811
670.15	129.021
673.043	166.409
675.936	215.01
678.828	232.322
681.721	255.995
684.614	213.355
687.506	223.624
690.399	172.096
693.292	219.137
696.185	173.512
699.077	174.597
701.97	98.0295
704.863	28.8289
707.755	90.9097
710.648	32.2444
713.541	33.7034
716.433	77.5701
719.326	42.4014
722.219	55.0784
725.112	32.8013
728.004	29.4477
730.897	46.5591
733.79	33.4727
736.682	36.5688
739.575	41.2835
742.468	63.3472
745.361	29.0134
748.253	57.8081
751.146	31.2432
754.039	15.0913
756.931	0.900391
759.824	56.9893
762.717	52.8943
765.609	42.7795
768.502	31.3804
771.395	36.5137
774.288	38.1628
777.18	41.1728
780.073	3.77173
782.966	35.1018
785.858	34.3015
788.751	32.6663
791.644	8.4917
794.536	13.9565
797.429	11.8943
800.322	5.04761
803.215	8.19141
806.107	25.333
809	5.07471
811.893	16.061
814.785	21.1116
817.678	6.15405
820.571	6.10229
823.463	9.34009
826.356	18.1248
829.249	15.0276
832.141	45.9482
835.034	17.8472
837.927	71.1448
840.82	24.5442
843.712	20.2717
846.605	3.87158
849.498	49.8906
852.39	48.3901
855.283	42.3479
858.176	55.1187
861.068	78.2571
863.961	63.4014
866.854	71.3921
869.747	96.3101
872.639	36.7463
875.532	72.7036
878.425	138.013
881.317	75.8206
884.21	114.079
887.103	76.3352
889.995	62.2239
892.888	123.739
895.781	131.027
898.674	121.403
901.566	131.155
904.459	126.773
907.352	109.791
910.244	129.845
913.137	110.968
916.03	101.201
918.923	122.214
921.815	81.1526
924.708	75.8064
927.601	87.4631
930.493	106.722
933.386	115.903
936.279	101.472
939.171	98.8674
942.064	50.6829
944.957	141.563
947.85	108.698
950.742	169.674
953.635	133.422
956.528	143.592
959.42	209.094
962.313	200.33
965.206	202.09
968.098	197.972
970.991	188.779
973.884	154.967
976.777	108.504
979.669	97.4563
982.562	60.0576
985.455	15.9922
988.347	30.1865
991.24	7.25903
994.133	28.1743
997.025	2.66992
999.918	10.106
1002.81	27.147
1005.7	28.0393
1008.6	24.8828
1011.49	7.03882
1014.38	38.0823
1017.27	14.7234
1020.17	31.1706
1023.06	2.87671
1025.95	41.2866
1028.85	69.3347
1031.74	75.4697
1034.63	40.8474
1037.52	80.1306
1040.42	105.014
1043.31	124.36
1046.2	121.864
1049.09	188.934
1051.99	160.772
1054.88	161.601
1057.77	142.799
1060.66	145.466
1063.56	158.509
1066.45	143.686
1069.34	134.141
1072.24	125.064
1075.13	86.8533
1078.02	75.2195
1080.91	119.269
1083.81	76.2039
1086.7	64.4944
1089.59	39.3984
1092.48	75.947
1095.38	58.0735
1098.27	37.6208
1101.16	69.4028
1104.06	18.5005
1106.95	45.0635
1109.84	66.5593
1112.73	39.2722
1115.63	11.2612
1118.52	35
1121.41	13.3667
1124.3	4.73169
1127.2	10.0515
1130.09	21.3245
1132.98	33.7566
1135.88	9.06665
1138.77	18.7217
1141.66	18.6182
1144.55	9.38062
1147.45	47.9243
1150.34	37.3972
1153.23	27.3975
1156.12	48.6831
1159.02	17.4504
1161.91	35.7744
1164.8	59.7466
1167.69	33.9233
1170.59	24.5933
1173.48	24.7168
1176.37	9.45508
1179.27	46.0535
1182.16	51.2417
1185.05	50.0796
1187.94	6.79346
1190.84	34.9797
1193.73	12.6204
1196.62	47.113
1199.51	62.7749
1202.41	50.9849
1205.3	41.3723
1208.19	31.6331
1211.09	51.6531
1213.98	2.77222
1216.87	15.5225
1219.76	0.639648
