Measurement: Raman, 532 nm, unoriented, Raman Data Processed
Mineral: Allophane
Rruff sample: R070188
Ideal chemistry: Al_2_O_3_(SiO_2_)_1.3-2.0_2.5-3.0H_2_O
Locality: Old Gold Hill mine, Tooele County, Utah
Source: Michael Scott
Description: Pale blue fine-grained coating
Raman shift (cm-1)	intensity
170.913	0
173.805	0.435547
176.698	73.4902
179.591	71.9238
182.483	59.7959
185.376	138.039
188.269	230.758
191.161	219.019
194.054	194.325
196.947	297.498
199.84	234.725
202.732	220.001
205.625	236.48
208.518	253.128
211.41	266.655
214.303	338.275
217.196	384.53
220.089	406.425
222.981	417.992
225.874	477.791
228.767	598.241
231.659	481.818
234.552	523.308
237.445	490.42
240.337	390.998
243.23	268.181
246.123	339.693
249.015	258.628
251.908	306.649
254.801	165.382
257.693	48.54
260.586	42.1875
263.479	30.5527
266.372	79.7773
269.264	38.1953
272.157	0.261719
275.05	51.0547
277.942	38.8105
280.835	15.4863
283.728	74.9258
286.62	33.0312
289.513	180.643
292.406	233.926
295.299	291.982
298.191	317.709
301.084	260.59
303.977	185.197
306.869	262.81
309.762	218.799
312.655	339.924
315.548	355.602
318.44	534.59
321.333	622.9
324.226	699.295
327.118	560.481
330.011	408.531
332.904	346.26
335.796	229.738
338.689	199.254
341.582	142.846
344.474	242.562
347.367	165.613
350.26	271.312
353.152	291.066
356.045	397.633
358.938	466.289
361.831	480.281
364.723	332.553
367.616	249.717
370.509	139.107
373.401	18.2344
376.294	10.3379
379.187	55.8496
382.079	53.0449
384.972	233.375
387.865	480.803
390.758	609.713
393.65	784.848
396.543	842.014
399.436	810.516
402.328	556.232
405.221	544.863
408.114	497.377
411.007	434.535
413.899	393.865
416.792	416.904
419.685	439.185
422.577	392.185
425.47	317.334
428.363	576.869
431.255	440.613
434.148	475.736
437.041	667.053
439.933	828.242
442.826	1025.49
445.719	1051.48
448.612	997.553
451.504	757.867
454.397	431.982
457.29	334.506
460.182	136.209
463.075	11.2754
465.968	34.6797
468.86	8.07617
471.753	28.8379
474.646	45.2246
477.538	8.60547
480.431	52.1328
483.324	19.4844
486.217	135.861
489.109	233.148
492.002	188.266
494.895	341.012
497.787	307.398
500.68	451.033
503.573	522.209
506.466	644.758
509.358	588.867
512.251	678.541
515.144	799.356
518.036	978.555
520.929	1081.47
523.822	1181.1
526.714	1285.53
529.607	1064.99
532.5	923.367
535.393	640.176
538.285	508.758
541.178	240.996
544.071	156.76
546.963	140.184
549.856	114.973
552.749	85.6562
555.641	121.791
558.534	50.2598
561.427	41.9609
564.319	32.4316
567.212	87.7715
570.105	125.998
572.998	56.6816
575.89	73.4316
578.783	109.805
581.676	15.3301
584.568	83.9238
587.461	46.1602
590.354	100.33
593.246	51.4453
596.139	58.0859
599.032	8.97266
601.924	168.68
604.817	64.1172
607.71	23.3457
610.603	114.211
613.495	120.445
616.388	135.188
619.281	178.342
622.173	115.527
625.066	36.1738
627.959	258.156
630.851	284.018
633.744	142.219
636.637	181.473
639.53	252.789
642.422	112.059
645.315	248.748
648.208	129.055
651.1	229.398
653.993	91.4394
656.886	173.049
659.779	118.541
662.671	207.094
665.564	148.168
668.457	141.969
671.349	235.928
674.242	260.391
677.135	154.238
680.027	173.334
682.92	109.459
685.813	183.998
688.705	130.912
691.598	76.4043
694.491	176.547
697.384	262.764
700.276	96.9062
703.169	156.008
706.062	186.945
708.954	173.334
711.847	130.582
714.74	153.258
717.632	112.055
720.525	146.82
723.418	65.4727
726.311	41.4219
729.203	104.17
732.096	119.148
734.989	73.7148
737.881	87.2363
740.774	98.0371
743.667	5.10156
746.559	25.5234
749.452	62.7539
752.345	12.75
755.237	89.2305
758.13	90.6465
761.023	100.717
763.916	59.0332
766.808	9.08594
769.701	60.877
772.594	2.31641
775.486	114.004
778.379	53.1641
781.272	230.91
784.164	300.053
787.057	605.012
789.95	719.629
792.843	1072.33
795.735	1360.67
798.628	1573.68
801.521	1826.75
804.413	1747.19
807.306	1919.5
810.199	1972.63
813.091	2077.15
815.984	2153.19
818.877	2367.43
821.769	2529.68
824.662	2651
827.555	2761.58
830.448	2967.24
833.34	2888.18
836.233	2949.86
839.126	2780.2
842.018	2831.72
844.911	2980.59
847.804	3304.53
850.697	3797.24
853.589	4217.65
856.482	4714.62
859.375	4957.98
862.267	4912
865.16	4646.1
868.053	4028.69
870.945	3441.18
873.838	2659.33
876.731	2192.22
879.624	1754.99
882.516	1357.27
885.409	1171.02
888.302	1106.75
891.194	842.576
894.087	711.367
896.98	637.438
899.872	621.342
902.765	474.504
905.658	454.867
908.551	465.027
911.443	278.438
914.336	273.348
917.229	62.7617
920.121	2.90625
923.014	68.6172
925.907	37.8828
928.799	38.3906
931.692	78.5293
934.585	41.2832
937.477	34.498
940.37	51.3047
943.263	8.75977
946.155	6.10742
949.048	69.0918
951.941	22.8711
954.834	101.111
957.726	10.5059
960.619	132.059
963.512	70
966.404	129.504
969.297	177.848
972.19	64.0332
975.082	121.287
977.975	161.565
980.868	269.725
983.761	132.549
986.653	97.1934
989.546	276.49
992.439	247.693
995.331	77.7695
998.224	261.787
1001.12	155.065
1004.01	44.3145
1006.9	189.369
1009.79	220.793
1012.69	165.307
1015.58	23.7988
1018.47	74.207
1021.37	125.846
1024.26	158.893
1027.15	178.996
1030.04	135.188
1032.94	183.113
1035.83	116.42
1038.72	181.172
1041.62	87.418
1044.51	98.8945
1047.4	0.582031
1050.29	89.7207
1053.18	78.6797
1056.08	112.447
1058.97	69.2734
1061.86	54.123
1064.76	100.353
1067.65	154.619
1070.54	116.58
1073.43	75.6777
1076.33	137.185
1079.22	106.662
1082.11	12.8652
1085.01	99.4277
1087.9	166.779
1090.79	26.7988
1093.68	110.01
1096.58	111.324
1099.47	120.279
1102.36	15.8164
1105.25	106.188
1108.15	69.4941
1111.04	62
1113.93	35.3223
1116.83	103.857
1119.72	84.2227
1122.61	118.168
1125.5	11.2383
1128.4	185.133
1131.29	95.6894
1134.18	152.535
1137.07	6.37109
1139.97	113.981
1142.86	92.5332
1145.75	67.8516
1148.64	65.0137
1151.54	50.0996
1154.43	139.279
1157.32	104.305
1160.21	213.383
1163.11	159.371
1166	62.3613
1168.89	90.6445
1171.79	129.662
1174.68	88.5234
1177.57	127.738
1180.46	92.5898
1183.36	76.582
1186.25	8.15039
1189.14	35.9766
1192.04	115.557
1194.93	101.928
1197.82	73.0644
1200.71	8.2207
1203.61	83.9277
1206.5	158.164
1209.39	67.0801
1212.28	109.031
1215.18	86.6602
1218.07	59.9238
1220.96	213.641
1223.85	92.916
1226.75	90.3613
1229.64	83.8926
1232.53	152.385
1235.42	112.371
1238.32	3.27148
1241.21	31.5527
1244.1	183.967
1247	135.221
1249.89	102.738
1252.78	84.0957
1255.67	161.365
1258.57	130.951
1261.46	205.41
1264.35	136.725
1267.24	204.301
1270.14	74.957
1273.03	153.1
1275.92	248.185
1278.82	124.629
1281.71	230.877
1284.6	182.711
1287.49	166.367
1290.39	110.494
1293.28	42.0977
1296.17	150.207
1299.07	52.4316
1301.96	0.134766
1304.85	61.373
1307.74	54.0957
1310.63	23.2598
1313.53	0
