Measurement: Raman, 785 nm, unoriented, Raman Data Processed
Mineral: Allophane
Rruff sample: R070188
Ideal chemistry: Al_2_O_3_(SiO_2_)_1.3-2.0_2.5-3.0H_2_O
Locality: Old Gold Hill mine, Tooele County, Utah
Source: Michael Scott
Description: Pale blue fine-grained coating
Raman shift (cm-1)	intensity
152.165	0
155.058	63.6428
157.95	0.119019
160.843	57.7551
163.736	125.173
166.628	139.245
169.521	114.447
172.414	110.959
175.306	85.071
178.199	51.9309
181.092	25.788
183.985	33.8964
186.877	45.7592
189.77	74.0282
192.663	56.5603
195.555	49.8566
198.448	10.9544
201.341	12.8241
204.233	65.3043
207.126	13.097
210.019	60.6598
212.912	109.884
215.804	123.62
218.697	121.364
221.59	179.765
224.482	160.991
227.375	130.771
230.268	136.899
233.161	127.151
236.053	128.015
238.946	86.0164
241.839	100.236
244.731	90.2443
247.624	55.785
250.517	10.9647
253.409	24.8215
256.302	34.1341
259.195	9.16925
262.087	9.05023
264.98	7.11322
267.873	8.13092
270.766	20.088
273.658	5.90234
276.551	10.6484
279.444	8.51654
282.336	4.42273
285.229	39.772
288.122	75.6675
291.014	104.039
293.907	130.251
296.8	149.064
299.693	169.94
302.585	158.295
305.478	155.612
308.371	138.769
311.263	153.499
314.156	150.798
317.049	198.452
319.942	151.432
322.834	145.093
325.727	104.519
328.62	116.856
331.512	84.431
334.405	82.6791
337.298	62.2642
340.19	52.7771
343.083	59.3495
345.976	66.2468
348.868	73.208
351.761	77.5223
354.654	91.7358
357.547	77.2814
360.439	80.1328
363.332	27.1708
366.225	37.3735
369.117	25.4443
372.01	12.8353
374.903	4.23828
377.796	4.43829
380.688	28.1434
383.581	80.597
386.474	109.662
389.366	149.392
392.259	178.447
395.152	196.969
398.044	233.601
400.937	165.565
403.83	164.492
406.723	144.762
409.615	123.361
412.508	149.096
415.401	141.258
418.293	145.298
421.186	168.305
424.079	154.335
426.971	175.563
429.864	148.36
432.757	179.839
435.649	236.064
438.542	262.28
441.435	338.416
444.328	343.767
447.22	365.703
450.113	288.956
453.006	214.769
455.898	152.12
458.791	63.3026
461.684	31.4631
464.577	27.7487
467.469	7.40076
470.362	12.1251
473.255	24.1962
476.147	18.561
479.04	8.1673
481.933	25.451
484.825	9.59155
487.718	35.4259
490.611	68.0958
493.503	64.9052
496.396	105.2
499.289	115.734
502.182	160.981
505.074	167.651
507.967	197.434
510.86	217.105
513.752	251.02
516.645	315.134
519.538	353.778
522.431	384.924
525.323	397.228
528.216	381.002
531.109	312.426
534.001	231.843
536.894	192.054
539.787	103.157
542.679	74.2689
545.572	44.0545
548.465	55.7899
551.357	20.516
554.25	11.5132
557.143	29.2657
560.036	18.6958
562.928	7.33652
565.821	9.54315
568.714	18.5448
571.606	21.9356
574.499	35.9247
577.392	31.839
580.284	16.5225
583.177	32.2283
586.07	15.9804
588.963	22.815
591.855	32.8452
594.748	6.05856
597.641	28.4539
600.533	22.2642
603.426	38.7408
606.319	11.957
609.212	6.28149
612.104	21.7993
614.997	22.696
617.89	14.4663
620.782	12.7337
623.675	16.9591
626.568	24.933
629.46	50.5689
632.353	0.436005
635.246	5.78128
638.139	31.3824
641.031	29.047
643.924	51.8192
646.817	38.7933
649.709	28.6942
652.602	18.408
655.495	41.9388
658.387	29.9434
661.28	18.5601
664.173	39.3321
667.066	25.6949
669.958	29.1747
672.851	31.391
675.744	41.4764
678.636	36.0272
681.529	44.6874
684.422	30.4486
687.314	40.8647
690.207	63.9608
693.1	36.4175
695.992	57.0478
698.885	54.1814
701.778	27.1747
704.671	65.0825
707.563	43.6262
710.456	57.1724
713.349	28.9571
716.241	29.4698
719.134	32.5613
722.027	37.3471
724.919	62.803
727.812	13.2871
730.705	12.0102
733.598	43.0084
736.49	12.282
739.383	13.7321
742.276	1.23001
745.168	6.18072
748.061	7.00952
750.954	2.94122
753.846	28.2108
756.739	16.1773
759.632	27.9073
762.525	32.6148
765.417	27.4874
768.31	12.2719
771.203	27.591
774.095	51.742
776.988	75.5049
779.881	77.6171
782.774	132.147
785.666	177.083
788.559	245.71
791.452	286.584
794.344	365.277
797.237	365.545
800.13	398.389
803.022	420.594
805.915	429.595
808.808	443.098
811.701	428.562
814.593	467.842
817.486	456.003
820.379	470.066
823.271	512.789
826.164	553.4
829.057	572.217
831.949	626.116
834.842	691.311
837.735	682.289
840.628	707.304
843.52	752.616
846.413	870.687
849.306	933.039
852.198	1061.44
855.091	1184.05
857.984	1297.77
860.876	1329.18
863.769	1305.25
866.662	1245.14
869.554	1097.03
872.447	884.681
875.34	706.283
878.233	554.321
881.125	482.093
884.018	386.792
886.911	378.553
889.803	311.078
892.696	235.294
895.589	229.919
898.481	169.12
901.374	143.834
904.267	154.558
907.16	103.222
910.052	98.6551
912.945	48.2952
915.838	50.8624
918.73	11.6655
921.623	13.0877
924.516	13.0453
927.409	29.1573
930.301	12.0496
933.194	19.7354
936.087	14.8821
938.979	3.7648
941.872	21.3256
944.765	10.796
947.657	22.2561
950.55	68.5778
953.443	11.4128
956.336	31.1037
959.228	32.1329
962.121	41.9531
965.014	40.3318
967.906	44.0906
970.799	30.4047
973.692	47.1631
976.584	7.46384
979.477	55.0431
982.37	64.6221
985.263	63.0108
988.155	56.5303
991.048	47.728
993.941	30.5451
996.833	57.5127
999.726	41.5962
1002.62	38.0253
1005.51	38.1244
1008.4	43.7221
1011.3	22.604
1014.19	27.6762
1017.08	19.37
1019.98	4.72998
1022.87	21.3311
1025.76	6.42078
1028.65	46.7646
1031.55	40.4207
1034.44	33.3644
1037.33	28.5813
1040.22	28.803
1043.12	31.1502
1046.01	11.4335
1048.9	44.1289
1051.8	29.3203
1054.69	2.79559
1057.58	9.92947
1060.47	5.14941
1063.37	12.8118
1066.26	18.6281
1069.15	44.2101
1072.04	26.6404
1074.94	29.6632
1077.83	26.9491
1080.72	28.5719
1083.61	4.05444
1086.51	56.7291
1089.4	17.7467
1092.29	0.499207
1095.18	20.5545
1098.08	37.2305
1100.97	42.2534
1103.86	6.01776
1106.76	30.6161
1109.65	17.5303
1112.54	40.5105
1115.43	34.9073
1118.33	21.4573
1121.22	18.3576
1124.11	16.1438
1127.01	17.9009
1129.9	57.0897
1132.79	12.547
1135.68	20.2448
1138.58	6.71237
1141.47	38.2075
1144.36	2.36469
1147.25	9.0838
1150.15	16.3849
1153.04	9.02594
1155.93	41.8059
1158.82	31.9489
1161.72	27.0112
1164.61	0.799408
1167.5	14.6441
1170.39	1.12763
1173.29	12.918
1176.18	5.08493
1179.07	17.5523
1181.97	34.203
1184.86	35.8874
1187.75	11.6291
1190.64	38.4509
1193.54	47.7004
1196.43	20.3091
1199.32	33.0637
1202.21	4.36533
1205.11	30.0114
1208	11.8146
1210.89	35.2023
1213.79	22.471
1216.68	6.31635
1219.57	24.6862
1222.46	37.9275
1225.36	24.1429
1228.25	14.0756
1231.14	0.445343
1234.04	7.2359
