Measurement: Raman, 532 nm, unoriented, Raman Data Processed
Mineral: Allophane
Rruff sample: R120001
Ideal chemistry: Al_2_O_3_(SiO_2_)_1.3-2.0_2.5-3.0H_2_O
Locality: Juanita mine, Kelly, New Mexico, USA
Source: Robert Jenkins
Description: Light blue globular
Raman shift (cm-1)	intensity
225.485	0
228.377	6.08276
231.27	22.7633
234.163	34.1123
237.056	31.4487
239.948	27.4755
242.841	26.1971
245.734	22.2489
248.626	17.8253
251.519	8.94751
254.412	0.134155
257.305	1.86536
260.197	1.65454
263.09	9.38757
265.983	16.848
268.875	26.0093
271.768	36.0284
274.661	42.7388
277.553	42.0384
280.446	38.5991
283.339	18.9419
286.232	8.54724
289.124	3.62927
292.017	2.00464
294.91	1.80994
297.802	2.56763
300.695	3.1322
303.588	0.020142
306.481	0.499023
309.373	0.073608
312.266	1.05835
315.159	2.52051
318.051	7.54895
320.944	3.61841
323.837	4.49744
326.729	11.8886
329.622	13.9484
332.515	19.806
335.408	27.6296
338.3	34.4398
341.193	33.2631
344.086	31.8842
346.978	32.8248
349.871	37.8375
352.764	36.6804
355.656	40.9391
358.549	37.7596
361.442	38.1465
364.334	37.0254
367.227	35.5677
370.12	33.0813
373.012	28.8087
375.905	18.6509
378.798	12.036
381.691	2.53369
384.583	5.26904
387.476	7.22778
390.369	2.16882
393.261	0.240234
396.154	1.13696
399.047	2.67737
401.94	0.863403
404.832	8.20666
407.725	7.64832
410.618	5.36206
413.51	10.4771
416.403	10.5903
419.296	10.3528
422.188	7.06067
425.081	8.73377
427.974	14.1489
430.866	12.3601
433.759	10.6014
436.652	7.5166
439.545	5.81677
442.437	10.2778
445.33	7.4801
448.223	18.9299
451.115	10.2858
454.008	14.8565
456.901	18.6242
459.793	22.3676
462.686	20.7471
465.579	19.8711
468.472	18.0321
471.364	12.7766
474.257	17.3635
477.15	16.7634
480.042	18.3491
482.935	20.3147
485.828	23.4391
488.721	22.4023
491.613	25.804
494.506	30.0195
497.399	27.1314
500.291	25.2612
503.184	18.0884
506.077	15.5729
508.969	9.91418
511.862	7.51343
514.755	6.06201
517.648	4.23731
520.54	2.30359
523.433	2.75391
526.326	2.04688
529.218	4.1084
532.111	0.623413
535.004	0.169067
537.896	1.73535
540.789	1.21533
543.682	0.884766
546.575	0.934814
549.467	5.85461
552.36	5.41223
555.253	4.45264
558.145	2.14417
561.038	2.62512
563.931	4.91821
566.823	4.10877
569.716	7.03467
572.609	0.095337
575.502	1.47766
578.394	3.94714
581.287	9.49805
584.18	2.3916
587.072	3.76672
589.965	3.17456
592.858	3.89905
595.75	7.43835
598.643	2.80994
601.536	1.06897
604.428	1.13867
607.321	1.17773
610.214	1.14099
613.107	7.10877
615.999	3.79065
618.892	1.45178
621.785	3.6156
624.677	1.44751
627.57	5.37134
630.463	0.924194
633.356	4.39917
636.248	3.09058
639.141	5.48743
642.034	6.64002
644.926	4.0437
647.819	5.5376
650.712	6.47571
653.604	11.5159
656.497	10.1467
659.39	12.7778
662.283	10.2269
665.175	8.79761
668.068	6.7666
670.961	12.6479
673.853	10.1677
676.746	12.9967
679.639	15.378
682.531	20.5138
685.424	18.9929
688.317	19.4728
691.21	25.912
694.102	28.1837
696.995	27.277
699.888	28.7775
702.78	28.4642
705.673	29.9922
708.566	35.1132
711.458	35.6654
714.351	43.1888
717.244	37.9828
720.136	39.6936
723.029	44.6952
725.922	48.5826
728.815	48.1583
731.707	46.5662
734.6	47.7468
737.493	39.0132
740.385	36.9684
743.278	32.4635
746.171	25.6104
749.063	22.0865
751.956	23.0975
754.849	14.7443
757.742	12.2725
760.634	13.1348
763.527	12.6792
766.42	8.86487
769.312	4.14307
772.205	3.86401
775.098	1.0343
777.99	0.012695
780.883	4.24768
783.776	2.43115
786.669	0.964111
789.561	3.32141
792.454	0.003784
795.347	1.38684
798.239	0.149658
801.132	1.30493
804.025	2.40271
806.918	0.65918
809.81	7.09656
812.703	4.22705
815.596	6.10303
818.488	17.4509
821.381	25.0406
824.274	31.584
827.166	34.5668
830.059	40.902
832.952	55.3434
835.845	62.9552
838.737	67.2712
841.63	83.948
844.523	93.9556
847.415	106.538
850.308	116.567
853.201	130.078
856.093	137.214
858.986	137.468
861.879	129.841
864.771	123.245
867.664	106.08
870.557	98.7805
873.45	92.1359
876.342	80.0041
879.235	63.3673
882.128	60.1351
885.02	47.2135
887.913	42.2078
890.806	30.9125
893.698	24.1709
896.591	16.4933
899.484	15.7935
902.377	10.4136
905.269	11.8466
908.162	12.4002
911.055	11.3673
913.947	11.8235
916.84	11.0015
919.733	8.55896
922.625	3.72437
925.518	0.746826
928.411	2.4137
931.304	0.330933
934.196	1.24109
937.089	2.36047
939.982	0.891357
942.875	4.16956
945.767	9.53638
948.66	8.15491
951.553	10.3957
954.445	13.8301
957.338	10.8279
960.231	9.33948
963.123	9.07983
966.016	8.94849
968.909	12.5006
971.802	4.92651
974.694	7.43115
977.587	11.4785
980.48	18.2461
983.372	16.2681
986.265	12.9385
989.158	10.423
992.05	13.6279
994.943	6.60583
997.836	1.12927
1000.73	1.87317
1003.62	2.01086
1006.51	1.19922
1009.41	2.05884
1012.3	0.965332
1015.19	3.07202
1018.09	1.34424
1020.98	3.68091
1023.87	4.04968
1026.76	3.88769
1029.66	7.18909
1032.55	7.51428
1035.44	16.1036
1038.33	8.65381
1041.23	7.04578
1044.12	5.27502
1047.01	8.87268
1049.9	12.6449
1052.8	10.0452
1055.69	11.1083
1058.58	12.9375
1061.47	12.8945
1064.37	18.0523
1067.26	14.6066
1070.15	12.1383
1073.05	11.6758
1075.94	11.8908
1078.83	12.5172
1081.72	17.0331
1084.62	21.9142
1087.51	28.7528
1090.4	40.7221
1093.3	52.4845
1096.19	67.5037
1099.08	77.3342
1101.97	85.7081
1104.87	85.1843
1107.76	76.6021
1110.65	65.6818
1113.54	53.9164
1116.44	46.2186
1119.33	38.7692
1122.22	30.1594
1125.12	18.179
1128.01	16.9794
1130.9	14.5117
1133.79	7.70007
1136.68	10.5813
1139.58	9.0116
1142.47	5.90491
1145.36	2.36231
1148.26	1.28113
1151.15	1.46289
1154.04	6.06177
1156.93	0.755981
1159.83	1.12353
1162.72	3.68396
1165.61	1.40332
1168.51	2.33057
1171.4	0.446289
1174.29	0.147949
1177.18	1.24133
1180.08	5.24658
1182.97	1.65796
1185.86	6.35486
1188.75	1.82727
1191.65	4.56213
1194.54	5.08728
1197.43	3.11938
1200.33	6.52673
1203.22	2.94226
1206.11	7.68103
1209	12.5909
1211.9	10.4292
1214.79	9.57629
1217.68	5.2948
1220.57	4.27954
1223.47	7.49841
1226.36	6.34814
1229.25	2.74451
1232.14	3.06653
1235.04	0.922119
1237.93	0.371094
1240.82	2.77478
1243.71	3.79456
1246.61	4.1073
1249.5	2.63574
1252.39	6.01636
1255.29	9.88001
1258.18	7.5448
1261.07	7.43726
1263.96	6.10889
1266.86	6.25159
1269.75	6.27344
1272.64	2.34631
1275.54	2.49036
1278.43	2.21069
1281.32	2.66211
1284.21	1.15649
1287.11	2.87573
1290	3.50305
1292.89	5.50561
1295.78	2.76086
1298.68	6.15088
1301.57	1.49194
