Measurement: Raman, 780 nm, unoriented, Raman Data Processed
Mineral: Alumoklyuchevskite
Rruff sample: R070041
Ideal chemistry: K_3_Cu^2+^_3_AlO_2_(S^6+^O_4_)_4_
Locality: main fracture, N breakthrough, Tolbachik Volcano, Kamchatka Peninsula, Russia
Source: Michael Scott
Description: Green blebs to prismatic or needle-like crystals associated with vergasovaite, co-type material
Raman shift (cm-1)	intensity
142.392	0
145.284	80.0144
148.177	163.631
151.07	55.5376
153.963	46.7795
156.855	48.5022
159.748	52.4348
162.641	36.8511
165.533	7.50757
168.426	73.5022
171.319	9.66821
174.211	90.471
177.104	208.9
179.997	156.288
182.889	104.521
185.782	156.77
188.675	204.415
191.568	314.375
194.46	369.113
197.353	546.775
200.246	645.879
203.138	859.94
206.031	1140.57
208.924	1459.26
211.816	1740
214.709	2026.51
217.602	2009.98
220.495	1915.94
223.387	1829.47
226.28	1383.68
229.173	1002.17
232.065	694.447
234.958	519.371
237.851	336.418
240.744	262.681
243.636	135.015
246.529	117.814
249.422	129.294
252.314	75.6378
255.207	13.8479
258.1	24.6548
260.992	15.1934
263.885	20.4252
266.778	36.8519
269.671	5.25281
272.563	52.6423
275.456	80.2084
278.349	98.0757
281.241	88.6143
284.134	150.681
287.027	159.921
289.919	139.711
292.812	100.615
295.705	159.022
298.598	35.7562
301.49	110.179
304.383	71.5426
307.276	43.1038
310.168	64.5104
313.061	128.184
315.954	80.5153
318.846	11.0746
321.739	81.6635
324.632	31.4177
327.524	56.8774
330.417	3.70258
333.31	59.2073
336.203	116.684
339.095	88.2581
341.988	31.0692
344.881	50.9722
347.773	40.6591
350.666	0.985413
353.559	46.6159
356.452	75.1232
359.344	48.1256
362.237	75.0574
365.13	68.8482
368.022	33.4396
370.915	63.9025
373.808	34.5845
376.7	35.1857
379.593	20.7278
382.486	54.0618
385.378	0.909973
388.271	16.0748
391.164	52.0073
394.057	37.6655
396.949	35.6331
399.842	27.5552
402.735	29.0164
405.627	38.369
408.52	52.0194
411.413	60.3956
414.305	62.7707
417.198	41.5369
420.091	63.7423
422.984	81.8986
425.876	65.4359
428.769	109.275
431.662	204.261
434.554	227.899
437.447	235.872
440.34	278.49
443.233	290.675
446.125	285.793
449.018	334.733
451.911	389.159
454.803	418.581
457.696	428.909
460.589	460.77
463.481	496.545
466.374	367.491
469.267	396.412
472.159	289.201
475.052	214.267
477.945	140.103
480.838	104.889
483.73	95.8566
486.623	64.5621
489.516	62.3503
492.408	56.1815
495.301	52.1014
498.194	63.1561
501.087	75.06
503.979	79.2769
506.872	82.2216
509.765	73.3309
512.657	106.357
515.55	64.0095
518.443	130.25
521.335	55.5984
524.228	29.4965
527.121	102.105
530.014	51.5031
532.906	29.4583
535.799	17.5206
538.692	24.4762
541.584	44.0031
544.477	60.6581
547.37	50.5178
550.262	3.04004
553.155	13.1664
556.048	51.8842
558.941	16.183
561.833	88.5849
564.726	0.30304
567.619	62.9245
570.511	63.515
573.404	42.5692
576.297	19.8522
579.189	30.6116
582.082	120.041
584.975	89.9161
587.868	140.371
590.76	169.019
593.653	211.008
596.546	223.94
599.438	231.808
602.331	230.913
605.224	201.447
608.116	197.15
611.009	227.924
613.902	106.026
616.795	123.216
619.687	130.925
622.58	179.052
625.473	133.238
628.365	145.693
631.258	142.248
634.151	233.302
637.043	147.625
639.936	298.252
642.829	199.316
645.722	305.937
648.614	243.287
651.507	239.544
654.4	153.98
657.292	47.1558
660.185	114.666
663.078	71.6198
665.971	6.37701
668.863	71.2647
671.756	41.5983
674.649	33.5067
677.541	40.6639
680.434	27.91
683.327	3.94696
686.219	73.8113
689.112	0.496094
692.005	22.5796
694.898	27.9116
697.79	1.22223
700.683	4.06653
703.576	23.6429
706.468	25.3118
709.361	110.796
712.254	74.7993
715.146	63.7197
718.039	56.3793
720.932	65.3573
723.824	48.1378
726.717	69.7802
729.61	77.0002
732.503	73.9432
735.395	47.8003
738.288	36.6348
741.181	76.5239
744.073	64.3951
746.966	84.384
749.859	66.8914
752.751	48.4506
755.644	45.1836
758.537	62.8708
761.43	21.3127
764.322	20.2027
767.215	66.2184
770.108	17.2658
773	5.8526
775.893	50.8627
778.786	61.726
781.678	77.1315
784.571	12.6834
787.464	37.4285
790.357	28.3604
793.249	17.2255
796.142	21.3123
799.035	90.1725
801.927	53.706
804.82	31.214
807.713	17.4582
810.606	33.0133
813.498	7.60327
816.391	53.283
819.284	8.52716
822.176	13.2234
825.069	58.1663
827.962	42.7814
830.854	119.546
833.747	67.7318
836.64	93.1351
839.533	23.6428
842.425	18.6199
845.318	38.3991
848.211	69.941
851.103	37.4435
853.996	81.494
856.889	87.2328
859.781	26.9534
862.674	35.596
865.567	54.3918
868.46	50.7345
871.352	63.2413
874.245	66.4233
877.138	83.4069
880.03	55.6593
882.923	60.9308
885.816	47.7306
888.708	57.3488
891.601	54.1362
894.494	49.2308
897.386	42.0468
900.279	7.13617
903.172	38.7546
906.065	30.9189
908.957	15.7535
911.85	20.7627
914.743	45.1246
917.635	32.3425
920.528	1.27258
923.421	55.5261
926.313	9.32532
929.206	5.30579
932.099	37.8674
934.992	16.5938
937.884	7.42645
940.777	3.21899
943.67	51.766
946.562	23.7775
949.455	112.23
952.348	134.703
955.24	240.131
958.133	382.802
961.026	444.543
963.919	450.051
966.811	481.572
969.704	401.323
972.597	421.43
975.489	467.787
978.382	513.613
981.275	577.957
984.168	687.637
987.06	679.455
989.953	672.801
992.846	696.741
995.738	585.299
998.631	554.356
1001.52	502.963
1004.42	490.241
1007.31	535.602
1010.2	564.862
1013.09	537.866
1015.99	509.019
1018.88	472.202
1021.77	450.471
1024.66	401.185
1027.56	442.31
1030.45	452.66
1033.34	463.317
1036.24	485.457
1039.13	592.966
1042.02	608.516
1044.91	574.69
1047.81	509.32
1050.7	404.86
1053.59	286.107
1056.48	195.864
1059.38	123.241
1062.27	95.9982
1065.16	49.8632
1068.06	82.4385
1070.95	83.2991
1073.84	33.0585
1076.73	74.7732
1079.63	68.6979
1082.52	62.8441
1085.41	53.2804
1088.31	37.6146
1091.2	14.91
1094.09	11.1186
1096.98	1.9895
1099.88	53.8624
1102.77	45.59
1105.66	45.9862
1108.55	79.7719
1111.45	51.7994
1114.34	91.0181
1117.23	71.1934
1120.12	81.467
1123.02	104.29
1125.91	59.4448
1128.8	56.9005
1131.69	48.1564
1134.59	69.1017
1137.48	55.0045
1140.37	60.1147
1143.27	66.0309
1146.16	71.6533
1149.05	45.1406
1151.94	9.00971
1154.84	21.7669
1157.73	46.4982
1160.62	97.0214
1163.52	10.263
1166.41	28.4968
1169.3	19.8924
1172.19	9.30322
1175.09	55.8776
1177.98	51.0372
1180.87	63.1129
1183.76	58.8064
1186.66	55.5398
1189.55	3.815
1192.44	111.645
1195.34	51.0597
1198.23	53.0972
1201.12	50.8473
1204.01	85.7805
1206.9	66.4706
1209.8	111.611
1212.69	102.651
1215.58	140.956
1218.48	179.46
1221.37	208.424
1224.26	228.264
1227.15	172.181
1230.05	202.494
1232.94	261.106
1235.83	288.677
1238.72	323.875
1241.62	314.31
1244.51	375.45
1247.4	365.571
1250.3	336.113
1253.19	269.048
1256.08	134.275
1258.97	58.1454
1261.87	63.8522
1264.76	22.7611
1267.65	120.329
1270.55	135.604
1273.44	169.538
1276.33	169.385
1279.22	135.273
1282.12	56.8044
1285.01	15.9268
