Measurement: Raman, 532 nm, unoriented, Raman Data Processed
Mineral: Aluminite
Rruff sample: R060691
Ideal chemistry: Al_2_S^6+^O_4_(OH)_4_7H_2_O
Locality: Newhaven, East Sussex, England, United Kingdom
Source: Michael Scott
Description: Nodular masses of white fibers
Raman shift (cm-1)	intensity
162.503	0
165.396	127.418
168.288	261.537
171.181	11.3926
174.074	23.627
176.966	79.7637
179.859	299.42
182.752	265.643
185.645	464.486
188.537	561.91
191.43	549.656
194.323	567.514
197.215	426.215
200.108	529.356
203.001	785.055
205.893	1168.73
208.786	1149.09
211.679	943.184
214.572	883.559
217.464	907.481
220.357	848.26
223.249	902.436
226.142	707.107
229.035	626.814
231.928	604.986
234.82	595.973
237.713	646.387
240.606	697.281
243.498	808.285
246.391	1165.38
249.284	1201.99
252.176	999.576
255.069	773.625
257.962	565.066
260.855	496.289
263.747	349.801
266.64	245.777
269.533	184.031
272.425	218.875
275.318	309.477
278.211	394.848
281.103	626.836
283.996	575.031
286.889	373.941
289.782	450.703
292.674	336.496
295.567	223.516
298.46	19.2969
301.352	277.758
304.245	548.621
307.138	718.789
310.03	650.926
312.923	715.508
315.816	538.019
318.709	481.223
321.601	212.254
324.494	261.504
327.387	246.824
330.279	236.801
333.172	200.223
336.065	103.043
338.957	35.0039
341.85	184.82
344.743	100.703
347.635	3.89062
350.528	34.0938
353.421	313.5
356.314	116.254
359.206	13.2422
362.099	84.7734
364.992	8.59375
367.884	43.0234
370.777	36.5312
373.67	64.6211
376.562	138.633
379.455	192.016
382.348	53.1406
385.241	79.8125
388.133	368.258
391.026	375.832
393.919	273.125
396.811	292.988
399.704	145.152
402.597	248.094
405.49	298.594
408.382	140.727
411.275	409.016
414.168	470.883
417.06	814.465
419.953	804.414
422.846	700.625
425.738	882.609
428.631	1083.75
431.524	1285.64
434.416	1716.7
437.309	1814.88
440.202	1820.16
443.095	1471.34
445.987	1079.8
448.88	914.266
451.773	699.25
454.665	651.387
457.558	398.906
460.451	361.246
463.343	384.867
466.236	354.5
469.129	328.191
472.022	405.523
474.914	480.988
477.807	243
480.7	100.254
483.592	341.781
486.485	487.746
489.378	454.039
492.27	230.336
495.163	119.699
498.056	76.8359
500.948	46.707
503.841	63.0586
506.734	53.1797
509.627	141.922
512.519	80.2656
515.412	184.211
518.305	289.348
521.197	323.676
524.09	261.574
526.983	348.379
529.875	248.16
532.768	54.1406
535.661	6.30469
538.554	36.6562
541.446	84.6719
544.339	126.102
547.232	283.781
550.124	128.184
553.017	15.7695
555.91	25.543
558.802	86.7812
561.695	145.363
564.588	265.762
567.481	303.328
570.373	356.871
573.266	379.543
576.159	377.945
579.051	437.113
581.944	400.332
584.837	600.793
587.729	740.809
590.622	1049.45
593.515	1057.8
596.407	1032.36
599.3	1232.95
602.193	1367.77
605.086	1379.18
607.978	1519.11
610.871	1409.25
613.764	1173.59
616.656	1078.16
619.549	1053.57
622.442	922.59
625.334	938.375
628.227	853.766
631.12	516.988
634.013	359.981
636.905	253.078
639.798	101.559
642.691	51.6484
645.583	62.3086
648.476	160.801
651.369	381.512
654.261	321.293
657.154	229.359
660.047	204.188
662.94	149.805
665.832	190.25
668.725	338.246
671.618	550.731
674.51	272.644
677.403	4.875
680.296	34.9805
683.188	221.387
686.081	310.805
688.974	349.152
691.867	261.281
694.759	263.344
697.652	323.676
700.545	263.016
703.437	124.141
706.33	13.1406
709.223	9.05078
712.115	20.5742
715.008	34.6719
717.901	102.82
720.794	231.109
723.686	344.629
726.579	109.777
729.472	140.043
732.364	167.512
735.257	210.742
738.15	23.5703
741.042	101.945
743.935	412.219
746.828	602.672
749.72	535.527
752.613	114.289
755.506	347.727
758.398	127.148
761.291	27.9336
764.184	40.3555
767.077	135.336
769.969	402.629
772.862	421.445
775.755	315.457
778.647	183.102
781.54	297.059
784.433	317.812
787.326	298.481
790.218	389.977
793.111	600.969
796.004	517.519
798.896	467.023
801.789	349.481
804.682	421.383
807.574	343.969
810.467	127.434
813.36	331.438
816.252	183.715
819.145	86.4766
822.038	20.4062
824.93	151.066
827.823	184.023
830.716	95.4609
833.609	304.773
836.501	49.6602
839.394	110.941
842.287	129.195
845.179	143.07
848.072	196.902
850.965	37.8242
853.857	74.4414
856.75	129.797
859.643	150.523
862.536	388.266
865.428	383.84
868.321	544.738
871.214	95.9609
874.106	101.207
876.999	88.5781
879.892	260.562
882.784	357.141
885.677	420.141
888.57	492.078
891.463	652.633
894.355	722.133
897.248	975.383
900.141	558.977
903.033	425.586
905.926	272.383
908.819	396.859
911.711	1.10938
914.604	293.773
917.497	194.875
920.39	51.7656
923.282	626.734
926.175	594.148
929.068	793.82
931.96	501.211
934.853	323.25
937.746	281.023
940.638	312.68
943.531	222.398
946.424	11.8359
949.317	54.1406
952.209	35.9531
955.102	183.672
957.995	24.7031
960.887	54.125
963.78	284.914
966.673	66.9844
969.565	170.93
972.458	358.5
975.351	774.703
978.244	1609.13
981.136	2464.56
984.029	4359.94
986.922	7848.9
989.814	14630.3
992.707	18605.5
995.6	6854.38
998.492	2545.45
1001.38	1571.41
1004.28	960.992
1007.17	518.758
1010.06	341.883
1012.96	253.336
1015.85	166.18
1018.74	30.6406
1021.63	8.03125
1024.53	48.5625
1027.42	341.688
1030.31	111.734
1033.2	107.055
1036.1	66.7734
1038.99	444.156
1041.88	422.141
1044.78	22.5781
1047.67	211.305
1050.56	24.7422
1053.45	447.234
1056.35	630.109
1059.24	651.227
1062.13	541.617
1065.02	119.445
1067.92	173.242
1070.81	412.906
1073.7	612.836
1076.6	835.234
1079.49	306.047
1082.38	686.219
1085.27	1146.75
1088.17	1504.9
1091.06	1740.16
1093.95	1531.43
1096.84	1558.77
1099.74	1304.21
1102.63	1018.91
1105.52	783.305
1108.41	684.148
1111.31	359.766
1114.2	335.859
1117.09	157.727
1119.99	116.648
1122.88	114.93
1125.77	332.289
1128.66	668.211
1131.56	828.336
1134.45	799.18
1137.34	580.461
1140.23	257.828
1143.13	492.688
1146.02	152.688
1148.91	37.25
1151.81	188.867
1154.7	487.805
1157.59	516.023
1160.48	246.695
1163.38	178.516
1166.27	17.5234
1169.16	156.773
1172.05	105.188
1174.95	568.664
1177.84	506.539
1180.73	480.883
1183.62	494.125
1186.52	607.305
1189.41	378.906
1192.3	120.594
1195.2	276.273
1198.09	318.242
1200.98	114.25
1203.87	116.438
1206.77	179.461
1209.66	447.633
1212.55	809.656
1215.44	401.406
1218.34	349.734
1221.23	245.961
1224.12	547.164
1227.02	432.766
1229.91	536.016
1232.8	653.992
1235.69	642.656
1238.59	998.562
1241.48	513.352
1244.37	539.961
1247.26	760.016
1250.16	806.953
1253.05	596.688
1255.94	433.875
1258.84	645.625
1261.73	194.766
1264.62	133.445
1267.51	3.71094
1270.41	704.414
1273.3	922.859
1276.19	647.727
1279.08	252.461
1281.98	101.289
