Measurement: Raman, 532 nm, unoriented, Raman Data Processed
Mineral: Alumohydrocalcite
Rruff sample: R070516
Ideal chemistry: CaAl_2_(CO_3_)_2_(OH)_4_3H_2_O
Locality: Mount Hamiliton, Santa Clara County, California, USA
Source: James Shigley
Description: Radial aggregates of light pink fibers associated with green massive dolomite
Raman shift (cm-1)	intensity
155.459	0
158.351	10.9985
161.244	186.382
164.137	151.268
167.029	156.68
169.922	315.495
172.815	470.68
175.708	621.444
178.6	680.739
181.493	762.674
184.386	951.317
187.278	1021.73
190.171	1087.93
193.064	942.454
195.957	814.034
198.849	709.411
201.742	668.506
204.635	749.39
207.527	788.954
210.42	867.33
213.313	967.001
216.205	1063.38
219.098	995.126
221.991	920.149
224.883	614.968
227.776	397.254
230.669	273.4
233.562	143.296
236.454	82.9019
239.347	139.771
242.24	128.925
245.132	124.782
248.025	93.2954
250.918	42.7197
253.81	2.18652
256.703	44.2285
259.596	25.416
262.489	80.4717
265.381	17.7383
268.274	1.8999
271.167	61.9712
274.059	106.696
276.952	122.217
279.845	181.506
282.738	183.719
285.63	285.321
288.523	222.891
291.416	291.003
294.308	281.87
297.201	349.793
300.094	360.413
302.986	323.646
305.879	315.175
308.772	340.764
311.664	328.606
314.557	340.54
317.45	312.422
320.343	257.596
323.235	269.484
326.128	263.922
329.021	213.482
331.913	105.448
334.806	109.916
337.699	146.689
340.591	87.9448
343.484	51.1631
346.377	78.5254
349.27	74.7363
352.162	104.191
355.055	109.219
357.948	37.1069
360.84	57.3032
363.733	62.2876
366.626	12.1499
369.519	28.4058
372.411	29.1724
375.304	46.2637
378.197	10.6841
381.089	51.1011
383.982	61.1455
386.875	42.1367
389.767	43.8159
392.66	39.4917
395.553	15.2783
398.446	74.9507
401.338	9.83935
404.231	43.3223
407.124	68.9502
410.016	41.6245
412.909	72.084
415.802	57.7202
418.695	48.9556
421.587	19.7754
424.48	32.6284
427.373	59.0342
430.265	5.92139
433.158	61.4048
436.051	5.43018
438.943	38.3857
441.836	2.38086
444.729	21.145
447.622	8.66211
450.514	24.0547
453.407	54.9043
456.3	33.5063
459.192	22.7671
462.085	38.7578
464.978	14.6416
467.87	24.8066
470.763	23.7505
473.656	65.4722
476.548	49.7617
479.441	96.4067
482.334	85.8315
485.227	188.39
488.119	192.781
491.012	168.689
493.905	168.224
496.797	224.815
499.69	237.168
502.583	255.355
505.476	198.282
508.368	220.385
511.261	337.773
514.154	347.322
517.046	335.402
519.939	366.782
522.832	326.803
525.724	408.642
528.617	418.25
531.51	471.356
534.403	466.698
537.295	458.66
540.188	463.234
543.081	474.072
545.973	458.499
548.866	536.315
551.759	557.17
554.651	552.206
557.544	679.191
560.437	687.501
563.33	722.457
566.222	768.106
569.115	792.701
572.008	787.477
574.9	643.358
577.793	545.008
580.686	392.892
583.578	258.24
586.471	125.863
589.364	105.29
592.256	174.949
595.149	109.95
598.042	99.2808
600.935	47.6709
603.827	48.9692
606.72	4.04834
609.613	83.4438
612.505	29.1436
615.398	0.480957
618.291	17.3242
621.183	5.89356
624.076	40.5869
626.969	29.2393
629.862	24.3037
632.754	46.8267
635.647	37.0098
638.54	13.7793
641.432	29.2476
644.325	33.5376
647.218	50.2549
650.111	35.626
653.003	4.19629
655.896	27.727
658.789	104.486
661.681	81.8359
664.574	41.977
667.467	55.7705
670.36	89.5352
673.252	70.5898
676.145	11.6099
679.038	123.735
681.93	113.991
684.823	130.702
687.716	97.9922
690.608	69.3213
693.501	87.4966
696.394	117.216
699.287	170.555
702.179	173.144
705.072	235.645
707.965	300.613
710.857	297.963
713.75	310.809
716.643	339.047
719.535	336.952
722.428	293.507
725.321	277.508
728.213	231.517
731.106	186.915
733.999	85.5474
736.892	11.5649
739.784	28.3643
742.677	106.431
745.57	49.0864
748.462	33.9658
751.355	76.0894
754.248	34.4224
757.14	6.27197
760.033	97.9277
762.926	30.584
765.819	9.55371
768.711	17.2246
771.604	37.5063
774.497	39.5024
777.389	25.8711
780.282	1.70459
783.175	68.6162
786.067	80.5654
788.96	33.0102
791.853	44.6875
794.746	7.89258
797.638	26.6899
800.531	22.77
803.424	16.9019
806.316	14.2368
809.209	48.0713
812.102	23.0523
814.995	78.3774
817.887	0.845703
820.78	11.0947
823.673	22.3164
826.565	70.5596
829.458	14.3232
832.351	71.3213
835.244	34.9321
838.136	27.5859
841.029	68.9814
843.922	83.8394
846.814	89.25
849.707	156.4
852.6	129.566
855.492	85.334
858.385	114.934
861.278	92.1406
864.17	109.237
867.063	120.402
869.956	159.136
872.849	57.3965
875.741	105.719
878.634	165.725
881.527	110.689
884.419	114.924
887.312	69.4189
890.205	118.089
893.097	73.0591
895.99	119.126
898.883	25.8711
901.776	8.28613
904.668	66.6064
907.561	47.728
910.454	60.8897
913.346	36.2275
916.239	26.792
919.132	5.2666
922.024	0.252441
924.917	99.519
927.81	24.1733
930.703	47.9434
933.595	11.0928
936.488	48.7515
939.381	82.1274
942.273	39.3452
945.166	84.6719
948.059	54.895
950.952	35.2573
953.844	24.3716
956.737	74.4526
959.63	52.9502
962.522	88.7876
965.415	30.4126
968.308	110.259
971.2	48.8179
974.093	84.6641
976.986	86.6265
979.879	119.302
982.771	13.6826
985.664	51.1255
988.557	84.8711
991.449	21.6294
994.342	40.1558
997.235	30.7905
1000.13	1.2124
1003.02	10.3945
1005.91	36.8164
1008.81	28.3384
1011.7	64.2578
1014.59	75.9053
1017.48	28.1821
1020.38	2.67822
1023.27	18.896
1026.16	35.6304
1029.05	66.8774
1031.95	59.1885
1034.84	67.5918
1037.73	11.2485
1040.62	21.356
1043.52	41.9404
1046.41	79.5869
1049.3	45.3672
1052.2	7.06006
1055.09	50.7685
1057.98	70.3589
1060.87	75.4258
1063.77	87.8955
1066.66	201.308
1069.55	185.027
1072.44	205.655
1075.34	259.997
1078.23	257.72
1081.12	379.221
1084.02	543.915
1086.91	782.438
1089.8	1183.42
1092.69	1508.2
1095.59	1768.82
1098.48	1748.47
1101.37	1361.86
1104.27	836.67
1107.16	618.293
1110.05	511.787
1112.94	443.556
1115.84	371.765
1118.73	255.094
1121.62	171.57
1124.51	102.259
1127.41	99.0557
1130.3	70.2056
1133.19	104.678
1136.08	56.4507
1138.98	33.7398
1141.87	60.9878
1144.76	27.7041
1147.65	61.606
1150.55	47.3369
1153.44	87.8301
1156.33	7.00098
1159.23	16.6221
1162.12	8.26025
1165.01	6.47607
1167.9	29.9966
1170.8	71.2734
1173.69	84.1367
1176.58	69.8945
1179.47	44.458
1182.37	35.4106
1185.26	52.458
1188.15	97.2881
1191.05	113.985
1193.94	52.5088
1196.83	22.1841
1199.72	54.4932
1202.62	75.0483
1205.51	3.97266
1208.4	47.7173
1211.3	41.7891
1214.19	12.8945
1217.08	80.6597
1219.97	121.168
1222.87	135.043
1225.76	97.396
1228.65	64.124
1231.54	6.56836
1234.44	64.3716
1237.33	56.9273
1240.22	56.144
1243.11	16.5054
1246.01	29.1001
1248.9	49.5615
1251.79	56.0601
1254.68	2.62695
1257.58	20.9819
1260.47	72.2324
1263.36	52.7144
1266.26	94.0727
1269.15	191.938
1272.04	96.4717
1274.93	59.0083
1277.83	40.6367
1280.72	67.5127
1283.61	8.4873
1286.51	37.3506
1289.4	21.1655
1292.29	48.1089
