Measurement: Raman, 785 nm, unoriented, Raman Data Processed
Mineral: Alumohydrocalcite
Rruff sample: R070516
Ideal chemistry: CaAl_2_(CO_3_)_2_(OH)_4_3H_2_O
Locality: Mount Hamiliton, Santa Clara County, California, USA
Source: James Shigley
Description: Radial aggregates of light pink fibers associated with green massive dolomite
Raman shift (cm-1)	intensity
180.7	0
183.593	12.7373
186.486	249.546
189.378	529.545
192.271	748.333
195.164	707.281
198.056	474.378
200.949	423.358
203.842	615.928
206.735	693.561
209.627	788.321
212.52	889.572
215.413	1051.2
218.305	1384.24
221.198	1586.2
224.091	1457.48
226.983	1086.67
229.876	581.547
232.769	226.973
235.662	91.874
238.554	53.9072
241.447	80.4932
244.34	81.8818
247.232	151.618
250.125	137.816
253.018	93.668
255.911	37.8135
258.803	55.1318
261.696	9.64453
264.589	9.79346
267.481	50.3535
270.374	106.603
273.267	147.707
276.159	198.679
279.052	317.738
281.945	373.887
284.837	391.337
287.73	465.752
290.623	566.244
293.516	628.766
296.408	688.755
299.301	758.715
302.194	728.13
305.086	759.8
307.979	764.656
310.872	723.527
313.764	586.261
316.657	585.262
319.55	522.319
322.442	508.856
325.335	439.002
328.228	433.8
331.121	387.278
334.013	349.562
336.906	316.614
339.799	306.137
342.691	250.252
345.584	205.809
348.477	145.487
351.37	92.5259
354.262	115.471
357.155	99.061
360.048	65.7065
362.94	35.8159
365.833	29.9092
368.726	90.8496
371.618	74.1313
374.511	22.6274
377.404	112.688
380.296	77.519
383.189	74.4526
386.082	142.149
388.975	144.295
391.867	141.244
394.76	143.598
397.653	84.3086
400.545	89.959
403.438	85.3769
406.331	118.488
409.224	139.106
412.116	73.9902
415.009	105.554
417.902	97.2197
420.794	117.405
423.687	70.4365
426.58	66.0044
429.472	59.7661
432.365	93.2588
435.258	54.0547
438.151	28.3335
441.043	51.0918
443.936	97.0542
446.829	4.65332
449.721	54.1128
452.614	6.74268
455.507	0.829102
458.399	20.5225
461.292	24.7627
464.185	15.251
467.077	7.89795
469.97	1.34277
472.863	20.3877
475.756	59.1362
478.648	88.6196
481.541	129.96
484.434	162.925
487.326	209.456
490.219	170.47
493.112	228.703
496.005	281.363
498.897	336.809
501.79	348.786
504.683	375.373
507.575	355.894
510.468	337.757
513.361	355.449
516.253	377.166
519.146	395.707
522.039	371.421
524.932	447.307
527.824	591.96
530.717	583.058
533.61	621.792
536.502	642.602
539.395	644.859
542.288	591.318
545.18	608.391
548.073	661.273
550.966	697.7
553.858	765.763
556.751	859.925
559.644	888.44
562.537	985.384
565.429	1119.59
568.322	1229.59
571.215	1175.71
574.107	1098.6
577	967.799
579.893	752.812
582.785	511.258
585.678	331.159
588.571	264.312
591.463	129.675
594.356	103.193
597.249	134.836
600.142	38.4531
603.034	111.496
605.927	100.348
608.82	20.9575
611.712	15.9414
614.605	9.8418
617.498	16.3872
620.39	8.47119
623.283	16.5356
626.176	2.40772
629.069	40.105
631.961	8.12354
634.854	11.4404
637.747	15.6938
640.639	41.1143
643.532	2.02588
646.425	52.6694
649.317	17.5317
652.21	35.8965
655.103	32.6621
657.995	2.4043
660.888	19.8149
663.781	40.3813
666.674	95.0811
669.566	125.468
672.459	110.704
675.352	76.6001
678.244	55.7266
681.137	123.829
684.03	124.85
686.923	80.4702
689.815	134.594
692.708	113.861
695.601	135.119
698.493	159.141
701.386	181.927
704.279	248.481
707.171	242.169
710.064	369.129
712.957	429.366
715.85	427.935
718.742	441.45
721.635	407.082
724.528	443.054
727.42	382.668
730.313	218.372
733.206	86.1035
736.098	80.0327
738.991	18.1821
741.884	47.4204
744.777	79.7686
747.669	9.85498
750.562	5.14893
753.455	24.2559
756.347	109.96
759.24	66.1782
762.133	40.7349
765.025	52.7666
767.918	19.977
770.811	68.4526
773.703	82.3584
776.596	31.352
779.489	67.2285
782.382	20.7559
785.274	17.6763
788.167	29.9492
791.06	54.624
793.952	51.5806
796.845	9.85547
799.738	48.9688
802.63	67.6313
805.523	53.3975
808.416	62.7978
811.309	1.21094
814.201	35.5972
817.094	55.8999
819.987	73.3887
822.879	54.3457
825.772	13.3994
828.665	48.4922
831.558	19.4204
834.45	67.7905
837.343	43.0415
840.236	55.5483
843.128	40.2632
846.021	63.2417
848.914	134.435
851.806	79.083
854.699	94.4409
857.592	41.251
860.484	80.479
863.377	76.4595
866.27	92.6352
869.163	77.6069
872.055	100.181
874.948	82.5415
877.841	116.06
880.733	107.646
883.626	49.9307
886.519	49.0776
889.411	55.8428
892.304	32.27
895.197	20.5093
898.09	19.272
900.982	38.1118
903.875	11.0029
906.768	17.0024
909.66	32.7959
912.553	2.35644
915.446	28.583
918.338	10.4458
921.231	17.0947
924.124	3.4541
927.016	16.0674
929.909	3.79053
932.802	11.3633
935.695	5.75977
938.587	69.2852
941.48	44.1245
944.373	95.1567
947.265	57.4077
950.158	104.178
953.051	55.2891
955.943	84.7236
958.836	75.6177
961.729	96.9863
964.622	124.811
967.514	93.8755
970.407	85.5908
973.3	75.6406
976.192	60.6841
979.085	124.42
981.978	52.1631
984.87	69.9028
987.763	20.1787
990.656	30.8433
993.549	53.8408
996.441	42.3276
999.334	35.6157
1002.23	12.8374
1005.12	5.96533
1008.01	6.15332
1010.9	13.9292
1013.8	27.4087
1016.69	17.002
1019.58	53.8374
1022.48	13.8584
1025.37	38.6738
1028.26	48.5981
1031.15	0.47998
1034.05	1.70752
1036.94	20.8057
1039.83	30.4888
1042.72	22.1899
1045.62	23.5146
1048.51	17.002
1051.4	4.17139
1054.3	41.3096
1057.19	55.7139
1060.08	33.5234
1062.97	52.709
1065.87	34.6714
1068.76	82.8599
1071.65	71.4634
1074.54	127.352
1077.44	145.031
1080.33	224.57
1083.22	355.859
1086.12	528.275
1089.01	816.581
1091.9	1204.74
1094.79	1576.23
1097.69	1934.26
1100.58	1786.04
1103.47	1198.72
1106.36	791.95
1109.26	648.979
1112.15	472.17
1115.04	351.799
1117.93	330.188
1120.83	188.225
1123.72	119.624
1126.61	96.1291
1129.51	91.9053
1132.4	62.7961
1135.29	34.4714
1138.18	26.6252
1141.08	19.4036
1143.97	14.4097
1146.86	22.0093
1149.75	4.70996
1152.65	33.1821
1155.54	4.68799
1158.43	4.76514
1161.33	2.19482
1164.22	36.9175
1167.11	3.05103
1170	44.3848
1172.9	31.9416
1175.79	66.6372
1178.68	15.1145
1181.57	18.4641
1184.47	15.9426
1187.36	44.0056
1190.25	5.08569
1193.14	16.71
1196.04	29.0708
1198.93	22.5017
1201.82	53.8774
1204.72	43.8894
1207.61	25.6504
1210.5	35.0391
1213.39	78.3716
1216.29	18.8894
1219.18	47.4397
1222.07	40.1606
1224.96	39.0791
1227.86	50.8748
1230.75	37.0915
1233.64	70.8037
1236.54	42.3467
1239.43	38.971
1242.32	30.9998
1245.21	29.1482
1248.11	49.0923
1251	74.2793
1253.89	28.407
1256.78	20.6291
1259.68	59.8884
1262.57	6.76172
