Measurement: Raman, 532 nm, unoriented, Raman Data Processed
Mineral: Alumohydrocalcite
Rruff sample: R061067
Ideal chemistry: CaAl_2_(CO_3_)_2_(OH)_4_3H_2_O
Locality: Lubom'ra, Czech Republic
Source: Michael Scott
Description: White fibers in flowing radial aggregates
Raman shift (cm-1)	intensity
152.592	0
155.485	113.918
158.378	63.2188
161.27	294.273
164.163	762.727
167.056	1300.45
169.948	1780.45
172.841	2067.47
175.734	2486.23
178.627	2818.59
181.519	3227.92
184.412	3720.89
187.305	4364.29
190.197	4477.53
193.09	4024.58
195.983	2998.96
198.875	2397.71
201.768	2348.65
204.661	2286.92
207.554	2079.53
210.446	2224.2
213.339	2410.8
216.232	2360.06
219.124	2544.09
222.017	1856.94
224.91	1663.2
227.803	1600.34
230.695	1271.14
233.588	1159.43
236.481	1051.78
239.373	1034.16
242.266	1097.08
245.159	1182.26
248.051	1114.35
250.944	1194.4
253.837	1343.45
256.729	1262.62
259.622	1658.56
262.515	1335.87
265.408	794.394
268.3	646.324
271.193	507.336
274.086	414.18
276.978	447.621
279.871	144.602
282.764	269.699
285.656	159.688
288.549	230.121
291.442	74.4609
294.335	0.351563
297.227	0.160156
300.12	20.7695
303.013	14.0508
305.905	28.6602
308.798	66.3711
311.691	95.6016
314.584	96.4297
317.476	90.418
320.369	122.469
323.262	20.9922
326.154	141.25
329.047	19.5078
331.94	94.5
334.832	194.344
337.725	103.336
340.618	258.062
343.51	307.281
346.403	254.539
349.296	233.18
352.189	305.93
355.081	313.359
357.974	313.219
360.867	296.148
363.76	383.297
366.652	229.32
369.545	264.672
372.438	268.766
375.33	406.742
378.223	454.078
381.116	318.133
384.008	391.703
386.901	344.914
389.794	326.234
392.687	366.797
395.579	109.617
398.472	264.742
401.365	138.977
404.257	122.305
407.15	221.227
410.043	240.766
412.935	168.68
415.828	386.828
418.721	169.445
421.613	93.1172
424.506	218.461
427.399	418.984
430.292	391.258
433.184	296.031
436.077	306.758
438.97	413.055
441.862	245.384
444.755	273.014
447.648	319.753
450.541	246.359
453.433	145.523
456.326	280.273
459.219	19.4062
462.111	285.117
465.004	6.91406
467.897	6.14844
470.789	173.82
473.682	192.172
476.575	213.808
479.467	254.272
482.36	314.977
485.253	303.867
488.146	341.328
491.038	521.711
493.931	570.578
496.824	633.969
499.716	537.984
502.609	483.086
505.502	518.758
508.394	224.094
511.287	413.211
514.18	332.43
517.073	324.039
519.965	452.945
522.858	281.664
525.751	276.336
528.643	288.273
531.536	91.0625
534.429	0.398438
537.322	129.336
540.214	4.71875
543.107	48.0938
546	6.4375
548.892	104.703
551.785	200.242
554.678	140.859
557.57	29.8516
560.463	97.5938
563.356	276.055
566.249	135.867
569.141	63.3125
572.034	125.5
574.927	179.148
577.819	624.375
580.712	1050.06
583.605	1230.41
586.497	1489.52
589.39	1683.68
592.283	1088.14
595.176	399.633
598.068	335.594
600.961	246.75
603.854	144.625
606.746	293.617
609.639	219.875
612.532	101.305
615.424	309.5
618.317	25.9219
621.21	311.906
624.103	294.625
626.995	180.406
629.888	246.883
632.781	449.891
635.673	266.977
638.566	399.852
641.459	437.297
644.351	681.688
647.244	611.117
650.137	656.977
653.03	765.695
655.922	816.688
658.815	769.164
661.708	625.539
664.6	497.469
667.493	530.773
670.386	322.148
673.279	351.93
676.171	313.836
679.064	441.031
681.957	313.578
684.849	217.305
687.742	23.6719
690.635	236.945
693.527	330.375
696.42	368.422
699.313	142.305
702.206	151.211
705.098	230.57
707.991	168.664
710.884	283.078
713.776	222.719
716.669	352.18
719.562	250.945
722.454	398.641
725.347	496.914
728.24	297.305
731.133	561.891
734.025	470.734
736.918	233.578
739.811	55.2344
742.703	406.516
745.596	144.531
748.489	163.07
751.381	51.0469
754.274	259.984
757.167	70.6641
760.06	148.539
762.952	135.805
765.845	204.219
768.738	51.1484
771.63	360.625
774.523	51.9844
777.416	180.922
780.308	148.438
783.201	121.242
786.094	145.531
788.987	231.148
791.879	52
794.772	17.7109
797.665	258.414
800.557	271.445
803.45	24.2812
806.343	99.4219
809.236	228.93
812.128	588.156
815.021	170.445
817.914	516.133
820.806	482.289
823.699	538.164
826.592	275.82
829.484	385.766
832.377	382.906
835.27	468.883
838.163	680.734
841.055	562.812
843.948	367.539
846.841	566.836
849.733	267.953
852.626	686.734
855.519	720.453
858.411	645.094
861.304	321.664
864.197	381.43
867.09	486.352
869.982	469.312
872.875	104.242
875.768	59.7188
878.66	293.758
881.553	243.328
884.446	36.6719
887.338	309.172
890.231	45.9609
893.124	406.734
896.016	261.203
898.909	199.859
901.802	121.078
904.695	69.3438
907.587	75.7969
910.48	221.172
913.373	70.2031
916.265	7.5
919.158	32.2188
922.051	484.297
924.943	488.062
927.836	216.562
930.729	233.391
933.622	376.312
936.514	334.219
939.407	233.172
942.3	312.25
945.192	295.609
948.085	380.266
950.978	265.531
953.87	354.188
956.763	365.406
959.656	441.844
962.549	69.8281
965.441	105.797
968.334	270.984
971.227	388.266
974.119	314.375
977.012	594.844
979.905	652.297
982.798	455.922
985.69	484.625
988.583	661.109
991.476	615.297
994.368	426.703
997.261	446.234
1000.15	26.1875
1003.05	433.391
1005.94	376.375
1008.83	211.812
1011.73	34.0469
1014.62	272.391
1017.51	358.891
1020.4	211.25
1023.29	318.828
1026.19	249.953
1029.08	263.094
1031.97	241.188
1034.87	99.2656
1037.76	191.797
1040.65	77.0781
1043.54	259.625
1046.44	88.9844
1049.33	223.672
1052.22	0.765625
1055.12	116.25
1058.01	398.328
1060.9	558.438
1063.79	279.547
1066.69	338.734
1069.58	457.203
1072.47	166.422
1075.36	401.469
1078.26	663.734
1081.15	1194.72
1084.04	1749
1086.93	2535.73
1089.83	2758.52
1092.72	2837.53
1095.61	2449.75
1098.51	1877.97
1101.4	1263.61
1104.29	892.031
1107.18	997.969
1110.08	423.938
1112.97	446.266
1115.86	505.719
1118.76	658.047
1121.65	225.891
1124.54	423.281
1127.43	224.969
1130.33	44.2656
1133.22	459.703
1136.11	107.781
1139	308.203
1141.9	492.656
1144.79	78.6094
1147.68	357.297
1150.57	343.359
1153.47	405.172
1156.36	87.1094
1159.25	499.422
1162.14	251.297
1165.04	308.719
1167.93	306.922
1170.82	298.766
1173.72	23.5
1176.61	442.797
1179.5	605.109
1182.39	479.266
1185.29	263.719
1188.18	588.406
1191.07	402.969
1193.96	414.234
1196.86	238.219
1199.75	79.1719
1202.64	475.281
1205.54	653.391
1208.43	75.2188
1211.32	178.922
1214.21	124.109
1217.11	91.75
1220	406.609
1222.89	165.688
1225.78	74.9844
1228.68	189.828
1231.57	269.594
1234.46	38.1094
1237.36	334.891
1240.25	284.266
1243.14	367.219
1246.03	0.96875
1248.93	690.359
1251.82	640.953
1254.71	210.156
1257.6	261.078
1260.5	547.734
1263.39	719.922
1266.28	788.828
1269.17	504.922
1272.07	411.156
1274.96	620.344
1277.85	940.328
1280.75	646.594
1283.64	821.125
1286.53	865.109
1289.42	413.547
1292.32	615.781
1295.21	566.906
1298.1	694.406
1300.99	208.719
1303.89	88.9375
1306.78	218.359
