Measurement: Raman, 514 nm, unoriented, Raman Data Processed
Mineral: Amarantite
Rruff sample: R050153
Ideal chemistry: Fe^3+^_2_O(S^6+^O_4_)_2_7H_2_O
Locality: Paposo, Antofagasta, Chile
Source: Jim McGlasson
Description: Aggregate of red radiating platy crystals
Measured chemistry: Fe^3+^_2.00_(S_1.00_O_4_)_2_OÂ·7H_2_O
Raman shift (cm-1)	intensity
144.787	0
148.942	13.899
153.096	18.661
157.247	8.171
161.396	125.279
165.544	176.079
169.689	231.311
173.833	337.443
177.974	460.928
182.114	562.53
186.251	326.584
190.387	189.09
194.52	249.363
198.652	241.955
202.782	292.041
206.909	376.677
211.035	352.26
215.159	79.314
219.281	96.184
223.4	161.417
227.518	204.52
231.634	175.082
235.748	195.307
239.86	211.543
243.97	208.313
248.079	169.202
252.185	180.335
256.289	136.653
260.391	91.868
264.492	81.272
268.59	77.212
272.687	52.349
276.781	81.658
280.874	67.138
284.964	177.635
289.053	213.086
293.14	133.443
297.225	35.678
301.308	6.79
305.389	4.773
309.468	39.087
313.545	30.071
317.62	14.49
321.693	9.388
325.765	7.937
329.834	15.481
333.902	45.996
337.967	88.468
342.031	99.891
346.093	85.26
350.153	65.572
354.21	66.796
358.267	59.936
362.321	97.248
366.373	122.087
370.423	166.192
374.471	227.534
378.518	306.843
382.563	382.322
386.605	446.623
390.646	506.447
394.685	496.147
398.722	471.43
402.757	386.286
406.79	339.311
410.821	294.277
414.851	236.242
418.878	214.843
422.904	147.842
426.927	171.282
430.949	179.344
434.969	166.035
438.987	197.121
443.003	188.135
447.018	220.059
451.03	248.891
455.041	183.629
459.049	160.133
463.056	181.146
467.061	209.706
471.064	377.682
475.065	369.117
479.064	512.266
483.062	635.851
487.057	662.108
491.051	777.681
495.043	700.183
499.032	618.078
503.02	424.694
507.007	292.353
510.991	225.771
514.973	182.075
518.954	117.168
522.933	79.247
526.91	122.982
530.885	58.394
534.858	44.536
538.829	30.273
542.799	50.863
546.766	16.31
550.732	8.431
554.696	9.397
558.658	15.453
562.618	14.906
566.576	8.521
570.533	1.634
574.488	0.103
578.44	5.429
582.391	64.086
586.341	22.616
590.288	79.016
594.233	112.3
598.177	127.504
602.119	154.644
606.059	160.71
609.997	156.494
613.933	149.783
617.868	140.965
621.801	103.932
625.731	131.531
629.66	116.278
633.588	136.156
637.513	112.482
641.437	163.249
645.358	114.049
649.278	156.177
653.196	173.689
657.113	184.436
661.027	184.789
664.94	152.154
668.851	154.447
672.76	141.128
676.667	121.193
680.572	114.326
684.476	117.772
688.378	121.887
692.278	148.659
696.176	129.841
700.072	149.254
703.967	191.068
707.86	218.031
711.751	246.66
715.64	258.985
719.527	229.531
723.413	223.206
727.297	182.732
731.179	183.962
735.059	160.589
738.937	155.875
742.814	135.236
746.689	128.449
750.562	113.83
754.433	73.316
758.303	126.04
762.17	120.123
766.036	81.055
769.901	30.497
773.763	54.4
777.624	19.003
781.482	59.475
785.339	25.244
789.195	26.877
793.048	33.295
796.9	33.541
800.75	4.314
804.598	21.698
808.445	3.597
812.289	6.363
816.132	5.001
819.973	35.528
823.813	23.951
827.65	1.746
831.486	34.425
835.32	24.459
839.152	11.355
842.983	3.159
846.812	39.985
850.639	41.779
854.464	45.514
858.288	0.195
862.11	35.85
865.93	29.475
869.748	12.072
873.564	18.667
877.379	7.72
881.192	0.865
885.004	4.577
888.813	1.944
892.621	7.42
896.427	5.171
900.232	5.978
904.034	0.523
907.835	14.642
911.634	15.19
915.432	7.166
919.227	16.088
923.021	1.795
926.813	14.285
930.604	9.035
934.393	3.402
938.18	7.468
941.965	14.534
945.749	17.305
949.53	15.573
953.311	2.64
957.089	25.271
960.866	66.968
964.641	48.925
968.414	74.975
972.185	90.821
975.955	112.21
979.723	114.992
983.49	150.59
987.254	190.888
991.017	238.491
994.779	259.079
998.538	283.942
1002.3	354.9
1006.05	524.923
1009.81	519.806
1013.56	557.818
1017.31	638.31
1021.06	650.316
1024.81	674.713
1028.55	750.978
1032.3	850.238
1036.04	1030.28
1039.78	1212.92
1043.52	1385.44
1047.26	1889.78
1050.99	2719.68
1054.73	2682.66
1058.46	1866.96
1062.19	1423.31
1065.92	1247.77
1069.65	1114.71
1073.37	1135.52
1077.1	1088.81
1080.82	1187.96
1084.54	1220.33
1088.26	1330.12
1091.97	1747.03
1095.69	2323.09
1099.4	2170.25
1103.12	1567.52
1106.83	1172.9
1110.54	1016.39
1114.24	887.999
1117.95	859.709
1121.65	867.032
1125.35	876.424
1129.06	827.437
1132.75	836.547
1136.45	690.75
1140.15	572.041
1143.84	534.419
1147.53	471.884
1151.22	440.765
1154.91	411.037
1158.6	334.768
1162.28	286.874
1165.97	354.08
1169.65	270.885
1173.33	270.334
1177.01	276.974
1180.69	255.514
1184.36	238.959
1188.04	241.42
1191.71	267.741
1195.38	253.755
1199.05	241.696
1202.71	220.059
1206.38	224.385
1210.04	217.598
1213.71	223.623
1217.37	240.979
1221.03	260.7
1224.68	320.294
1228.34	440.719
1231.99	491.307
1235.65	430.368
1239.3	323.354
1242.95	216.57
1246.59	174.69
1250.24	112.734
1253.88	142.915
1257.53	70.727
1261.17	67.964
1264.81	67.234
1268.45	102.96
1272.08	71.707
1275.72	56.457
1279.35	56.174
1282.98	39.4
1286.61	31.564
1290.24	24.222
1293.87	18.148
1297.49	10.584
1301.11	6.91
1304.73	15.649
1308.36	16.708
1311.97	9.016
1315.59	4.276
1319.2	12.167
1322.82	8.013
1326.43	9.911
1330.04	23.136
1333.65	8.864
1337.26	7.064
1340.86	2.001
1344.47	11.204
1348.07	10.45
1351.67	6.642
1355.27	17.105
1358.87	27.58
1362.46	16.946
1366.06	11.527
1369.65	3.024
1373.24	33.41
1376.83	15.835
1380.42	6.247
1384	16.661
1387.59	53.085
1391.17	17.524
1394.75	33.539
1398.33	47.298
1401.91	19.729
1405.49	18.621
1409.06	57.626
1412.64	76.702
1416.21	84.704
1419.78	76.869
1423.35	46.351
1426.91	82.639
1430.48	76.786
1434.05	100.656
1437.61	60.479
1441.17	84.643
1444.73	82.55
1448.29	66.571
1451.84	70.325
1455.4	65.316
1458.95	76.17
1462.5	112.731
1466.05	78.273
1469.6	24.904
1473.15	34.941
1476.69	34.112
1480.24	0.583
1483.78	37.812
1487.32	14.906
1490.86	16.114
