Measurement: Raman, 532 nm, unoriented, Raman Data Processed
Mineral: Amblygonite
Rruff sample: R040067
Ideal chemistry: LiAlPO_4_F
Locality: Montebras, France
Source: University of Arizona Mineral Museum
Description: Pale blue fine-grained massive
Measured chemistry: (Li_0.76_Na_0.24_)Al(PO_4_)(F_0.80_(OH)_0.20_)
Raman shift (cm-1)	intensity
128.754	0
132.129	46.6348
135.504	21.5591
138.878	194.165
142.253	459.524
145.628	570.674
149.003	614.332
152.378	473.032
155.752	508.878
159.127	667.328
162.502	892.845
165.877	821.175
169.252	723.199
172.626	637.63
176.001	640.869
179.376	638.138
182.751	676.65
186.126	561.677
189.5	606.831
192.875	493.293
196.25	391.782
199.625	348.046
203	373.546
206.375	386.956
209.749	309.615
213.124	316.067
216.499	290.603
219.874	227.06
223.249	180.324
226.624	151.11
229.998	104.302
233.373	71.6348
236.748	86.293
240.123	38.3281
243.498	76.2002
246.872	50.3935
250.247	12.3369
253.622	27.5303
256.997	31.3525
260.372	106.621
263.747	181.892
267.121	205.952
270.496	210.947
273.871	289.39
277.246	210.976
280.62	263.823
283.995	373.216
287.37	552.645
290.745	936.074
294.12	1480.17
297.495	2033.62
300.869	2620.18
304.244	2502.93
307.619	1799.12
310.994	1274.7
314.369	911.675
317.743	554.859
321.118	514.809
324.493	336.917
327.868	289.116
331.243	190.027
334.618	95.7871
337.992	50.8291
341.367	29.1289
344.742	8.03711
348.117	112.852
351.492	17.1953
354.866	21.9316
358.241	14.7891
361.616	14.6846
364.991	8.47266
368.366	7.28516
371.74	60.7129
375.115	80.9307
378.49	99.4482
381.865	12.0166
385.24	89.8135
388.615	128.304
391.989	77.2422
395.364	15.1445
398.739	5.86914
402.114	5.36816
405.489	95.0908
408.863	199.525
412.238	415.411
415.613	872.8
418.988	1327.82
422.363	2008.52
425.738	2228.31
429.112	1183.7
432.487	415.383
435.862	194.745
439.237	152.682
442.612	1.7959
445.986	36.9736
449.361	46.5957
452.736	8.1582
456.111	28.4727
459.486	81.2783
462.861	174.765
466.235	281.899
469.61	286.091
472.985	492.661
476.36	430.675
479.735	617.989
483.109	747.311
486.484	732.517
489.859	598.068
493.234	517.238
496.609	397.659
499.983	214.587
503.358	134.959
506.733	73.9873
510.108	60.3643
513.483	24.4961
516.857	47.0068
520.232	91.082
523.607	17.2617
526.982	29.4072
530.357	12.0801
533.732	32.8994
537.106	52.376
540.481	0.661133
543.856	76.1494
547.231	42.1484
550.606	65.5439
553.981	88.6064
557.355	137.57
560.73	180.404
564.105	211.562
567.48	249.199
570.855	254.211
574.229	359.698
577.604	332.316
580.979	432.394
584.354	518.014
587.729	655.252
591.104	800.384
594.478	932.391
597.853	1224.67
601.228	1565.74
604.603	1566.92
607.977	1491.9
611.352	1474.59
614.727	1620.34
618.102	1865.71
621.477	2121.3
624.852	2465.58
628.226	2905.42
631.601	3243.57
634.976	3409.77
638.351	3280.1
641.726	3548.07
645.101	3819.3
648.475	2965.32
651.85	1481.72
655.225	855.306
658.6	452.942
661.975	183.184
665.349	134.315
668.724	120.242
672.099	115.582
675.474	39.9336
678.849	19.4053
682.223	9.81641
685.598	71.4902
688.973	47.8428
692.348	55.0781
695.723	45.6826
699.097	41.6738
702.472	42.0996
705.847	5.03613
709.222	19.1338
712.597	143.179
715.972	79.3945
719.346	169.298
722.721	120.868
726.096	193.87
729.471	188.427
732.846	146.147
736.221	59.8369
739.595	130.208
742.97	57.9736
746.345	136.922
749.72	124.493
753.095	57.4072
756.469	89.2373
759.844	28.6973
763.219	67.3955
766.594	2.7959
769.969	26.9404
773.343	29.6758
776.718	58.2607
780.093	19.3525
783.468	137.897
786.843	169.278
790.217	209.072
793.592	305.373
796.967	273.534
800.342	302.832
803.717	467.492
807.092	585.423
810.466	734.024
813.841	884.536
817.216	1153.12
820.591	1347.01
823.966	1448.75
827.341	1461.82
830.715	1288.15
834.09	1252.52
837.465	1201.26
840.84	1021.73
844.215	895.984
847.589	785.203
850.964	547.723
854.339	463.162
857.714	472.01
861.089	495.596
864.463	314.389
867.838	243.078
871.213	252.685
874.588	248.086
877.963	295.475
881.337	258.106
884.712	241.92
888.087	321.688
891.462	374.93
894.837	303.498
898.212	291.467
901.586	231.748
904.961	180.594
908.336	190.019
911.711	188.543
915.086	108.131
918.46	47.0449
921.835	151.141
925.21	224.949
928.585	72.7891
931.96	135.316
935.335	105.682
938.709	98.1191
942.084	9.94141
945.459	6.1543
948.834	16.5391
952.209	1.19727
955.583	5.36523
958.958	3.17383
962.333	16.1582
965.708	17.041
969.083	73.9023
972.457	136.955
975.832	165.549
979.207	139.363
982.582	214.783
985.957	375.766
989.332	557.258
992.706	1010.21
996.081	1521.36
999.456	2046.42
1002.83	2680.47
1006.21	3163.38
1009.58	3442.49
1012.96	3143.74
1016.33	2322.02
1019.71	1667.61
1023.08	1299.2
1026.45	1204.64
1029.83	1213.08
1033.2	1393.46
1036.58	1818.53
1039.95	2075.19
1043.33	2274.24
1046.7	2237.53
1050.08	2418.95
1053.45	2638.59
1056.83	3024.69
1060.2	3235.7
1063.58	3081.38
1066.95	2050.26
1070.33	1288.52
1073.7	672.459
1077.08	340.481
1080.45	44.4219
1083.83	7.33203
1087.2	85.5898
1090.58	9.42383
1093.95	97.7168
1097.33	13.8418
1100.7	87.0938
1104.08	205.512
1107.45	218.291
1110.83	185.459
1114.2	290.635
1117.57	233.935
1120.95	219.297
1124.32	301.662
1127.7	389.783
1131.07	299.553
1134.45	302.31
1137.82	196.658
1141.2	226.195
1144.57	12.0078
1147.95	140.391
1151.32	38.0293
1154.7	107.25
1158.07	160.004
1161.45	116.383
1164.82	32.707
1168.2	26.8906
1171.57	141.209
1174.95	195.785
1178.32	189.451
1181.7	223.56
1185.07	142.117
1188.45	166.25
1191.82	179.102
1195.19	107.602
1198.57	236.795
1201.94	150.01
1205.32	63.582
1208.69	206.631
1212.07	226.428
1215.44	141.404
1218.82	167.285
1222.19	197.6
1225.57	80.9941
1228.94	105.762
1232.32	164.619
1235.69	225.107
1239.07	46.9121
1242.44	102.893
1245.82	188.752
1249.19	214.539
1252.57	30.3379
1255.94	65.6406
1259.32	108.033
1262.69	48.3574
1266.07	13.6387
1269.44	244.408
1272.82	283.201
1276.19	238.637
1279.57	98.3125
1282.94	27.1191
1286.32	13.209
