Measurement: Raman, 780 nm, unoriented, Raman Data Processed
Mineral: Amphibole
Rruff sample: R110203
Locality: Bear Lake diggings, Tory Hill, Monmounth Township, Haliburton Co., Ontario, Canada
Source: Donald Doell
Description: Black hexagonal prism, note that amphiboles from here are characterized by Hawthorne et al (2006)
Raman shift (cm-1)	intensity
164.403	0.053101
167.296	1.26672
170.189	2.33153
173.081	4.41296
175.974	5.00198
178.867	6.04446
181.759	5.75185
184.652	3.61292
187.545	3.63837
190.437	1.24393
193.33	1.81723
196.223	0.516403
199.115	1.05309
202.008	1.59312
204.901	0.681458
207.794	3.08743
210.686	2.68666
213.579	4.47066
216.472	6.23657
219.364	9.00352
222.257	9.64056
225.15	10.9042
228.042	10.8652
230.935	9.19052
233.828	8.48178
236.721	8.43228
239.613	6.99542
242.506	4.52534
245.399	4.59833
248.291	2.92951
251.184	3.67689
254.077	1.80242
256.969	0.624718
259.862	1.21369
262.755	0.044197
265.648	0.539879
268.54	0.161781
271.433	0.533028
274.326	2.14047
277.218	3.28091
280.111	3.04858
283.004	5.72835
285.897	5.58614
288.789	8.69629
291.682	8.17725
294.575	8.81007
297.467	9.42975
300.36	8.2191
303.253	7.83381
306.145	6.96922
309.038	6.01755
311.931	5.53054
314.824	4.15326
317.716	3.41755
320.609	1.50446
323.502	0.454582
326.394	1.03434
329.287	1.22031
332.18	0.3918
335.072	0.544884
337.965	0.125191
340.858	0.944366
343.75	2.12122
346.643	2.35869
349.536	3.64111
352.429	3.61939
355.321	3.96706
358.214	5.53194
361.107	5.9454
364	6.52821
366.892	7.11789
369.785	8.94826
372.678	8.78787
375.57	9.44581
378.463	9.86415
381.356	10.0313
384.248	10.1506
387.141	10.1273
390.034	8.92857
392.926	6.26196
395.819	6.88746
398.712	6.01958
401.605	5.79846
404.497	4.10234
407.39	6.46493
410.283	7.09067
413.175	7.78664
416.068	8.50057
418.961	10.0768
421.853	11.7608
424.746	10.8915
427.639	13.4198
430.532	15.4951
433.424	14.3718
436.317	15.0493
439.21	14.7965
442.102	14.3599
444.995	12.8605
447.888	11.6027
450.781	11.4744
453.673	7.81874
456.566	5.13434
459.459	3.54768
462.351	2.09891
465.244	1.67193
468.137	0.744095
471.029	1.24365
473.922	1.15295
476.815	1.14882
479.707	3.3577
482.6	4.87125
485.493	7.01989
488.386	9.03632
491.278	10.3468
494.171	13.2851
497.064	16.5411
499.956	18.4876
502.849	21.5552
505.742	23.945
508.635	26.3006
511.527	28.2986
514.42	31.4022
517.313	32.7766
520.205	36.1833
523.098	36.5763
525.991	39.0602
528.883	39.3895
531.776	40.7646
534.669	38.5648
537.562	37.5243
540.454	35.7271
543.347	33.1626
546.24	32.3372
549.132	28.821
552.025	27.7342
554.918	25.3856
557.81	23.1715
560.703	21.9277
563.596	21.3999
566.489	17.6711
569.381	17.1346
572.274	12.5399
575.167	9.76095
578.059	7.47223
580.952	5.1505
583.845	3.93522
586.737	1.67284
589.63	0.15152
592.523	0.588959
595.415	0.566227
598.308	0.010471
601.201	1.51347
604.094	0.243259
606.986	0.13448
609.879	0.461151
612.772	0.133915
615.664	0.041084
618.557	0.350254
621.45	1.1838
624.342	1.30165
627.235	1.34503
630.128	3.89449
633.021	2.74689
635.913	3.0569
638.806	4.67031
641.699	5.39844
644.591	6.5606
647.484	8.22638
650.377	9.83916
653.269	11.0275
656.162	16.1575
659.055	18.5404
661.948	21.0973
664.84	24.472
667.733	26.1657
670.626	25.0324
673.518	24.1558
676.411	19.9499
679.304	14.5517
682.197	11.1405
685.089	8.69925
687.982	7.04111
690.875	4.59624
693.767	3.04829
696.66	3.03758
699.553	2.12926
702.445	2.57847
705.338	2.08046
708.231	2.53618
711.124	2.29588
714.016	2.6879
716.909	2.2821
719.802	1.96928
722.694	2.85409
725.587	2.23135
728.48	1.70361
731.372	3.20355
734.265	2.28848
737.158	1.2404
740.051	0.744164
742.943	1.06873
745.836	1.29163
748.729	0.736839
751.621	1.20274
754.514	0.287056
757.407	0.788991
760.299	0.14756
763.192	0.419044
766.085	0.517357
768.977	1.48695
771.87	1.69531
774.763	1.40392
777.656	1.23704
780.548	2.14491
783.441	2.3219
786.334	2.00339
789.226	2.36263
792.119	2.28899
795.012	1.85724
797.904	1.44039
800.797	0.911865
803.69	1.9996
806.583	2.03993
809.475	0.325764
812.368	0.795834
815.261	0.313614
818.153	0.38224
821.046	0.950703
823.939	0.154514
826.832	0.967201
829.724	0.74556
832.617	1.78875
835.51	0.36557
838.402	0.842743
841.295	0.330608
844.188	1.58783
847.08	0.218683
849.973	1.23242
852.866	1.24363
855.759	1.56982
858.651	1.09739
861.544	0.459782
864.437	2.24394
867.329	1.01721
870.222	1.08325
873.115	0.06591
876.007	0.341431
878.9	0.750149
881.793	0.65369
884.686	0.613636
887.578	0.061264
890.471	0.313587
893.364	0.051678
896.256	0.406479
899.149	0.310497
902.042	0.024086
904.934	1.39879
907.827	0.809444
910.72	1.21362
913.612	0.391708
916.505	0.894985
919.398	1.11372
922.291	0.831425
925.183	1.0955
928.076	0.417858
930.969	0.652897
933.861	0.444565
936.754	0.125015
939.647	0.127945
942.539	0.455349
945.432	0.838264
948.325	1.18293
951.218	0.692165
954.11	1.41409
957.003	0.582752
959.896	0.885639
962.788	1.6578
965.681	1.19829
968.574	1.56096
971.466	1.58165
974.359	1.28005
977.252	0.946152
980.145	0.880146
983.037	1.985
985.93	1.68626
988.823	2.55377
991.715	2.15154
994.608	3.81354
997.501	2.18091
1000.39	0.990921
1003.29	2.59849
1006.18	2.02943
1009.07	2.81446
1011.96	2.82249
1014.86	2.74711
1017.75	3.30532
1020.64	3.09568
1023.53	2.83572
1026.43	2.95154
1029.32	3.65138
1032.21	3.02769
1035.11	1.83573
1038	3.56173
1040.89	2.96316
1043.78	3.24384
1046.68	2.94772
1049.57	2.81206
1052.46	2.87963
1055.36	3.56055
1058.25	3.44238
1061.14	2.72821
1064.03	3.69312
1066.93	3.83689
1069.82	3.67378
1072.71	3.94753
1075.6	4.01855
1078.5	2.78867
1081.39	2.29382
1084.28	2.34391
1087.17	1.32652
1090.07	1.90833
1092.96	0.648842
1095.85	0.023773
1098.74	0.117435
1101.64	0.263786
1104.53	1.14533
1107.42	0.364849
1110.32	1.55451
1113.21	0.408466
1116.1	0.056793
1118.99	0.440895
1121.89	0.025528
1124.78	0.159004
1127.67	1.99004
1130.57	1.59834
1133.46	0.391258
1136.35	1.36235
1139.24	1.17277
1142.14	1.202
1145.03	1.57009
1147.92	1.89875
1150.81	1.87149
1153.71	1.7147
1156.6	1.35497
1159.49	1.95346
1162.38	1.59572
1165.28	1.49902
1168.17	1.82519
1171.06	2.23671
1173.96	2.00172
1176.85	1.46109
1179.74	1.7935
1182.63	2.12808
1185.53	0.887962
1188.42	1.2812
1191.31	1.74783
1194.2	1.92411
1197.1	1.89381
1199.99	1.13712
1202.88	1.28517
1205.78	1.92576
1208.67	2.07569
1211.56	2.26699
1214.45	2.29097
1217.35	1.86855
1220.24	2.33974
1223.13	0.828667
1226.02	1.80607
1228.92	2.15153
1231.81	0.970623
1234.7	0.545029
1237.6	1.0034
1240.49	1.61248
1243.38	1.84869
1246.27	1.84834
1249.17	1.05141
1252.06	1.25534
1254.95	1.71389
1257.84	1.64014
1260.74	1.30784
1263.63	0.53775
1266.52	0.196165
1269.41	1.30069
1272.31	0.394369
1275.2	0.887959
1278.09	1.81082
1280.98	1.77611
1283.88	1.91048
