Measurement: Raman, 532 nm, unoriented, Raman Data Processed
Mineral: Amphibole
Rruff sample: R110203
Locality: Bear Lake diggings, Tory Hill, Monmounth Township, Haliburton Co., Ontario, Canada
Source: Donald Doell
Description: Black hexagonal prism, note that amphiboles from here are characterized by Hawthorne et al (2006)
Raman shift (cm-1)	intensity
176.309	0
179.202	7.51591
182.094	10.8574
184.987	11.2168
187.88	3.32401
190.773	2.04886
193.665	0.407043
196.558	0.092712
199.451	0.610245
202.343	4.00406
205.236	2.02098
208.129	6.99689
211.021	9.24178
213.914	14.0865
216.807	16.5382
219.699	23.2967
222.592	27.6784
225.485	26.9453
228.377	27.1202
231.27	27.4393
234.163	26.8615
237.056	21.9365
239.948	16.877
242.841	16.4455
245.734	15.2383
248.626	10.5891
251.519	8.5264
254.412	6.15436
257.305	4.61754
260.197	0.795609
263.09	0.817108
265.983	1.84567
268.875	1.15543
271.768	0.1129
274.661	0.377823
277.553	1.01175
280.446	2.42099
283.339	3.5271
286.232	6.47879
289.124	7.74785
292.017	7.36211
294.91	8.48957
297.802	11.135
300.695	9.06863
303.588	8.94373
306.481	8.76045
309.373	6.32319
312.266	6.19498
315.159	5.75465
318.051	4.73101
320.944	3.46885
323.837	2.71439
326.729	2.07225
329.622	2.26459
332.515	4.35909
335.408	5.96363
338.3	5.15813
341.193	7.33929
344.086	9.47483
346.978	11.2404
349.871	16.6358
352.764	16.7589
355.656	18.1658
358.549	18.5752
361.442	18.1372
364.334	14.4582
367.227	15.5922
370.12	12.377
373.012	13.0043
375.905	12.4979
378.798	9.71326
381.691	11.5902
384.583	10.2325
387.476	7.4287
390.369	4.99227
393.261	2.2037
396.154	2.12974
399.047	1.13432
401.94	1.65299
404.832	2.04913
407.725	0.62928
410.618	0.546265
413.51	4.30032
416.403	3.44086
419.296	6.83472
422.188	6.63073
425.081	7.49772
427.974	11.5098
430.866	12.4849
433.759	12.1383
436.652	11.1527
439.545	10.0436
442.437	6.97187
445.33	5.82447
448.223	7.68394
451.115	1.70924
454.008	2.59039
456.901	1.36127
459.793	0.31041
462.686	0.900368
465.579	1.56653
468.472	0.854317
471.364	0.76799
474.257	0.267624
477.15	0.562683
480.042	1.67492
482.935	1.60124
485.828	4.85346
488.721	5.42078
491.613	6.46658
494.506	7.88427
497.399	11.2022
500.291	12.2376
503.184	15.7982
506.077	18.4549
508.969	15.7732
511.862	21.4708
514.755	22.7122
517.648	26.2058
520.54	28.9212
523.433	29.7973
526.326	34.6533
529.218	36.8021
532.111	36.5684
535.004	40.1447
537.896	39.3282
540.789	40.4453
543.682	36.3655
546.575	35.8641
549.467	34.5177
552.36	33.6459
555.253	30.4865
558.145	28.7978
561.038	26.258
563.931	23.7592
566.823	22.259
569.716	19.9859
572.609	20.1295
575.502	14.8965
578.394	15.1959
581.287	9.6148
584.18	9.54472
587.072	3.65239
589.965	0.55896
592.858	1.74307
595.75	0.25737
598.643	0.446594
601.536	1.19206
604.428	0.175011
607.321	0.192398
610.214	1.13659
613.107	0.709557
615.999	2.21088
618.892	3.20594
621.785	3.51898
624.677	2.09292
627.57	6.41668
630.463	6.33435
633.356	8.63968
636.248	7.18783
639.141	9.64111
642.034	12.6895
644.926	14.337
647.819	18.0474
650.712	25.0395
653.604	28.8223
656.497	37.0391
659.39	44.16
662.283	55.9639
665.175	63.0867
668.068	67.9549
670.961	68.9195
673.853	62.8141
676.746	50.69
679.639	35.0614
682.531	24.1885
685.424	15.843
688.317	12.5003
691.21	7.82613
694.102	6.24071
696.995	6.04434
699.888	0.019463
702.78	2.775
705.673	1.71149
708.566	2.80667
711.458	1.96601
714.351	3.17143
717.244	3.71413
720.136	2.91453
723.029	3.97722
725.922	4.03754
728.815	5.86205
731.707	4.57478
734.6	3.7541
737.493	1.33686
740.385	3.39786
743.278	1.98453
746.171	2.80981
749.063	1.37888
751.956	0.091988
754.849	1.56732
757.742	0.724976
760.634	3.63277
763.527	1.76125
766.42	4.14834
769.312	4.49873
772.205	4.66256
775.098	3.6914
777.99	4.34181
780.883	2.85778
783.776	4.39407
786.669	4.90866
789.561	3.3702
792.454	3.03595
795.347	3.27508
798.239	2.07018
801.132	1.63641
804.025	2.97927
806.918	4.03611
809.81	1.48894
812.703	0.016869
815.596	0.44754
818.488	1.67802
821.381	0.820839
824.274	1.72822
827.166	1.8981
830.059	0.277725
832.952	0.185555
835.845	2.09776
838.737	1.9262
841.63	0.383293
844.523	2.00311
847.415	0.896797
850.308	0.514626
853.201	4.90769
856.093	1.00246
858.986	1.2624
861.879	3.12571
864.771	2.24011
867.664	2.70933
870.557	2.54366
873.45	3.14058
876.342	4.54655
879.235	1.51894
882.128	0.679924
885.02	1.72687
887.913	0.293297
890.806	0.346741
893.698	1.85816
896.591	2.06738
899.484	2.91484
902.377	1.30999
905.269	2.01293
908.162	1.57098
911.055	4.09038
913.947	1.09678
916.84	2.22628
919.733	5.31889
922.625	4.31046
925.518	7.65356
928.411	6.50737
931.304	4.74329
934.196	6.00223
937.089	7.33893
939.982	6.72079
942.875	7.55967
945.767	8.31344
948.66	9.09301
951.553	9.27041
954.445	9.51738
957.338	9.7849
960.231	8.84412
963.123	9.45707
966.016	10.6719
968.909	8.40692
971.802	7.39851
974.694	6.06181
977.587	5.05382
980.48	3.49016
983.372	1.66013
986.265	2.57912
989.158	1.32202
992.05	0.967957
994.943	1.62399
997.836	1.45992
1000.73	3.59422
1003.62	0.214973
1006.51	1.4001
1009.41	2.76815
1012.3	2.17198
1015.19	2.55168
1018.09	3.50774
1020.98	4.09913
1023.87	3.46021
1026.76	5.42633
1029.66	4.29174
1032.55	5.27876
1035.44	3.7244
1038.33	5.5033
1041.23	5.71801
1044.12	2.32555
1047.01	3.43582
1049.9	5.26024
1052.8	5.74828
1055.69	5.83069
1058.58	6.12865
1061.47	5.66842
1064.37	3.65667
1067.26	2.21435
1070.15	3.24152
1073.05	1.77324
1075.94	1.12232
1078.83	0.25383
1081.72	2.18219
1084.62	0.433884
1087.51	0.392891
1090.4	0.563103
1093.3	1.30291
1096.19	3.95344
1099.08	1.96247
1101.97	0.289574
1104.87	1.55418
1107.76	0.636833
1110.65	1.85042
1113.54	2.42679
1116.44	1.22825
1119.33	1.3333
1122.22	0.574219
1125.12	0.770905
1128.01	1.98193
1130.9	0.430477
1133.79	1.17414
1136.68	0.274513
1139.58	1.98378
1142.47	0.797913
1145.36	0.988819
1148.26	1.37755
1151.15	0.184956
1154.04	0.545135
1156.93	1.234
1159.83	1.4217
1162.72	2.45155
1165.61	2.15761
1168.51	0.835083
1171.4	2.21757
1174.29	2.39462
1177.18	2.12014
1180.08	4.48525
1182.97	1.59116
1185.86	3.61393
1188.75	1.28899
1191.65	4.8394
1194.54	1.55244
1197.43	3.7124
1200.33	3.43319
1203.22	3.46384
1206.11	3.24581
1209	5.62843
1211.9	2.15406
1214.79	2.75896
1217.68	3.66387
1220.57	2.93122
1223.47	3.12071
1226.36	3.79855
1229.25	1.69487
1232.14	2.21851
1235.04	3.04424
1237.93	2.01961
1240.82	0.163383
1243.71	1.3621
1246.61	3.14061
1249.5	2.60789
1252.39	2.77615
1255.29	0.643665
1258.18	1.41697
1261.07	2.00591
1263.96	0.927864
1266.86	0.817841
1269.75	1.36864
1272.64	2.89534
1275.54	0.597912
1278.43	2.26418
1281.32	3.20927
1284.21	0.889664
1287.11	2.61067
1290	2.65508
1292.89	1.30761
1295.78	1.99129
1298.68	0.938663
1301.57	1.10427
