Measurement: Raman, 532 nm, unoriented, Raman Data Processed
Mineral: Anapaite
Rruff sample: R050510
Ideal chemistry: Ca_2_Fe^2+^(PO_4_)_2_4H_2_O
Locality: Prats-Sampsor, Spain
Source: University of Arizona Mineral Museum
Description: Pale green tabular crystals lining fractured rock. Probe photo shows two phases. This sample is the lighter phase in the probe photo.
Measured chemistry: Ca_2.00_(Fe^2+^_0.93_Mn_0.07_)_Σ=1_(P_1.00_O_4_)_2_·4H_2_O; (lighter phase)
Raman shift (cm-1)	intensity
156.494	0
159.387	5.71094
162.279	97.6328
165.172	368.582
168.065	483.871
170.957	517.457
173.85	333.688
176.743	269.66
179.636	443.434
182.528	624.961
185.421	834.285
188.314	590.301
191.206	539.508
194.099	594.742
196.992	711.766
199.884	1008.22
202.777	1239.32
205.67	505.711
208.562	243.664
211.455	228.723
214.348	389.488
217.241	630.086
220.133	795.144
223.026	541.856
225.919	247.117
228.811	262.453
231.704	295.484
234.597	148.566
237.489	66.2734
240.382	53.6875
243.275	39.0156
246.168	38.0664
249.06	87.4297
251.953	45.9062
254.846	110.965
257.738	164.422
260.631	192.602
263.524	228.652
266.416	298.867
269.309	287.254
272.202	125.566
275.095	228.652
277.987	490.887
280.88	802.394
283.773	901.902
286.665	1073.92
289.558	927.531
292.451	661.566
295.344	423.684
298.236	339.812
301.129	295.914
304.022	266.875
306.914	172.172
309.807	86.8281
312.7	165.703
315.592	232.602
318.485	333.113
321.378	181.082
324.271	319.547
327.163	400.234
330.056	470.664
332.949	489.59
335.841	515.973
338.734	469.289
341.627	433.508
344.519	428.996
347.412	425.633
350.305	429.691
353.197	383.356
356.09	425.469
358.983	345.285
361.876	242.414
364.768	150.746
367.661	8.31641
370.554	55.4961
373.446	11.2812
376.339	38.2695
379.232	121.133
382.125	33.5938
385.017	7.89453
387.91	31.9375
390.803	69.9688
393.695	99.9297
396.588	62.1523
399.481	59.4141
402.373	5.47656
405.266	156.164
408.159	245.359
411.051	269.832
413.944	375.019
416.837	492.488
419.73	656.863
422.622	992.031
425.515	1338.45
428.408	1832.43
431.3	2306.5
434.193	2180.1
437.086	1808.9
439.978	1736.92
442.871	1792.34
445.764	1536.13
448.657	1332.36
451.549	956.082
454.442	693.699
457.335	370.473
460.227	221.594
463.12	89.6992
466.013	107.035
468.906	13.0312
471.798	4.79688
474.691	26.375
477.584	125.723
480.476	165.352
483.369	161.559
486.262	139.75
489.154	114.766
492.047	109.816
494.94	129.137
497.832	143.918
500.725	72.9141
503.618	5.87891
506.511	5.37109
509.403	87.1094
512.296	164.879
515.189	164.051
518.081	53.9727
520.974	88.0859
523.867	220.566
526.76	222.938
529.652	179.484
532.545	182.047
535.438	356.453
538.33	491.289
541.223	662.731
544.116	927.008
547.008	1059.38
549.901	664.973
552.794	445.84
555.687	361.215
558.579	258.906
561.472	210.57
564.365	224.106
567.257	346.129
570.15	372.582
573.043	336.234
575.935	337.207
578.828	352.969
581.721	543.648
584.613	401.219
587.506	341.793
590.399	118.531
593.292	126.227
596.184	123.457
599.077	86.0391
601.97	40.0078
604.862	63.8242
607.755	50.0446
610.648	246.547
613.54	325.621
616.433	407.254
619.326	549.168
622.218	499.762
625.111	360.731
628.004	226.738
630.897	181.203
633.789	97.5938
636.682	158.832
639.575	225.352
642.467	208.051
645.36	218.18
648.253	303.273
651.145	256.648
654.038	444.098
656.931	469.418
659.824	464.172
662.716	306.934
665.609	195.688
668.502	125.09
671.394	194.359
674.287	140.137
677.18	9.09766
680.072	7.60547
682.965	188.207
685.858	164.359
688.751	130.019
691.643	175.84
694.536	74.4375
697.429	66.6875
700.321	215.945
703.214	188.106
706.107	259.168
709	222.566
711.892	135.164
714.785	121.242
717.678	200.164
720.57	247.656
723.463	107.172
726.356	0.570313
729.248	111.305
732.141	158.117
735.034	151.539
737.927	17.9102
740.819	100.996
743.712	84.8633
746.605	129.344
749.497	30.3633
752.39	83.4531
755.283	96.5664
758.175	129.953
761.068	114.711
763.961	211.398
766.854	253.91
769.746	320.879
772.639	400.621
775.532	253.273
778.424	234.266
781.317	171.477
784.21	140.773
787.102	131.945
789.995	62.1211
792.888	284.008
795.78	322.461
798.673	228.031
801.566	264.449
804.459	223.559
807.351	361.289
810.244	366.332
813.137	214.863
816.029	203.66
818.922	111.551
821.815	208.789
824.707	252.637
827.6	342.156
830.493	205.637
833.386	118.917
836.278	37.4883
839.171	43.6055
842.064	222.508
844.956	78.6406
847.849	40.4271
850.742	75.332
853.635	203.137
856.527	304.621
859.42	117.32
862.313	47.7969
865.205	117.262
868.098	122.117
870.991	124.004
873.883	10.5352
876.776	43.3789
879.669	40.1289
882.562	76.7734
885.454	48.4453
888.347	55.9219
891.24	120.719
894.132	125.949
897.025	222.082
899.918	336.332
902.81	457.082
905.703	523.621
908.596	466.394
911.489	571.977
914.381	868.879
917.274	1296.03
920.167	1546.64
923.059	1823.18
925.952	2099.55
928.845	2754.82
931.737	3621.29
934.63	4826.81
937.523	5999.88
940.415	7123.54
943.308	7075.43
946.201	5574.42
949.094	3554.1
951.986	2263.58
954.879	1700.23
957.772	1580.43
960.664	1811.26
963.557	1829.12
966.45	1377.8
969.342	748.914
972.235	233.156
975.128	218.375
978.021	266.078
980.913	264.609
983.806	88.5508
986.699	80.3438
989.591	67.0742
992.484	80.1133
995.377	146.504
998.269	193.316
1001.16	269.387
1004.05	35.1719
1006.95	21.6953
1009.84	87.9688
1012.73	114.508
1015.63	13.9609
1018.52	18.8047
1021.41	64.0625
1024.3	93.8984
1027.2	72.1797
1030.09	167.562
1032.98	318.727
1035.88	608.367
1038.77	498.633
1041.66	379.828
1044.55	317.016
1047.44	174.203
1050.34	241.289
1053.23	215.555
1056.12	221.031
1059.02	454.172
1061.91	676.656
1064.8	1126.12
1067.69	1372.27
1070.59	1601.87
1073.48	1049.43
1076.37	626.461
1079.27	300.516
1082.16	170.68
1085.05	266.234
1087.94	15.2812
1090.84	14.1417
1093.73	44.875
1096.62	2.625
1099.51	19.2578
1102.41	98.375
1105.3	233.602
1108.19	204.93
1111.09	221.562
1113.98	90.2344
1116.87	8.6875
1119.76	61.0547
1122.66	140.93
1125.55	57.1953
1128.44	164.609
1131.33	177.398
1134.23	134.961
1137.12	148.75
1140.01	84.8203
1142.9	105.422
1145.8	48.0703
1148.69	19.7891
1151.58	115.906
1154.47	171.719
1157.37	158.578
1160.26	89.9609
1163.15	152.242
1166.05	141.156
1168.94	54.9688
1171.83	127.398
1174.72	91.8672
1177.62	84.6797
1180.51	76.7812
1183.4	131.742
1186.3	170.961
1189.19	85.0859
1192.08	159.297
1194.97	162.195
1197.87	224.992
1200.76	142.125
1203.65	62.1562
1206.54	93.3594
1209.44	56.4531
1212.33	102.195
1215.22	270.18
1218.12	235.242
1221.01	196.773
1223.9	192.297
1226.79	144.344
1229.68	3.20312
1232.58	50.4922
1235.47	37.3125
1238.36	63.9869
1241.26	119.078
1244.15	252.094
1247.04	283.672
1249.93	251.992
1252.83	75.1719
1255.72	70.6719
1258.61	38.0312
1261.51	115.289
1264.4	154.391
1267.29	142.195
1270.18	261.078
1273.08	133.539
1275.97	174.922
1278.86	256.812
1281.75	216.852
1284.65	222.039
1287.54	194.883
1290.43	123.531
1293.33	44.1328
1296.22	113.164
1299.11	299.492
1302	87.4062
