Measurement: Raman, 780 nm, unoriented, Raman Data Processed
Mineral: Andalusite
Rruff sample: R050449
Ideal chemistry: Al_2_SiO_5_
Locality: Itinga, Minas Gerais, Brazil
Source: Marcus Origlieri
Description: Green fragment
Measured chemistry: Al_2.00_Fe^3+^_0.01_Si_0.99_O_5_
Raman shift (cm-1)	intensity
151.155	0
154.048	4.94112
156.94	1.14313
159.833	3.51311
162.726	2.61401
165.619	1.19848
168.511	3.42681
171.404	2.19866
174.297	0.928467
177.189	0.675179
180.082	3.99362
182.975	4.64547
185.868	3.52116
188.76	3.64829
191.653	3.23294
194.546	1.22739
197.438	3.72676
200.331	1.34068
203.224	3.55258
206.117	4.29302
209.009	3.34332
211.902	2.35195
214.795	2.79437
217.687	2.01158
220.58	3.94215
223.473	5.8568
226.365	3.91457
229.258	4.21397
232.151	4.2981
235.043	5.75916
237.936	4.11148
240.829	6.15618
243.722	3.56313
246.614	6.15595
249.507	3.72463
252.4	2.87927
255.292	1.93808
258.185	1.2454
261.078	0.202332
263.971	4.43939
266.863	1.08053
269.756	4.10031
272.649	5.02765
275.541	12.183
278.434	18.9897
281.327	20.942
284.219	26.5259
287.112	31.1812
290.005	36.8907
292.897	30.3004
295.79	15.1667
298.683	3.11366
301.576	8.62653
304.468	9.56969
307.361	12.5372
310.254	16.945
313.146	22.6406
316.039	34.8045
318.932	41.919
321.825	34.5368
324.717	17.2215
327.61	7.445
330.503	0.85228
333.395	0.587311
336.288	1.45061
339.181	4.93706
342.074	8.88611
344.966	14.3646
347.859	19.621
350.752	25.7626
353.644	29.7371
356.537	35.1754
359.43	32.6341
362.322	21.7524
365.215	13.0883
368.108	7.00706
371	2.91394
373.893	3.96755
376.786	2.64014
379.679	1.88613
382.571	1.66851
385.464	0.098946
388.357	3.15748
391.249	0.733627
394.142	1.30536
397.035	0.434425
399.928	0.753716
402.82	1.47749
405.713	0.616989
408.606	2.00188
411.498	5.4397
414.391	4.80583
417.284	5.20606
420.176	4.04204
423.069	1.91683
425.962	0.794777
428.854	0.405457
431.747	1.16473
434.64	1.86972
437.533	4.25952
440.425	1.55991
443.318	3.45263
446.211	4.93531
449.103	5.50059
451.996	7.34832
454.889	3.03098
457.781	2.14989
460.674	2.50806
463.567	0.527328
466.46	4.04317
469.352	2.44173
472.245	2.91495
475.138	4.15131
478.031	4.43315
480.923	4.6553
483.816	5.75221
486.709	7.27942
489.601	5.75236
492.494	6.26268
495.387	2.12281
498.279	2.2093
501.172	2.50168
504.065	1.98495
506.957	1.71774
509.85	0.831268
512.743	0.978836
515.636	0.056602
518.528	0.877739
521.421	2.71958
524.314	2.14863
527.206	1.28994
530.099	2.3269
532.992	5.31094
535.885	4.7314
538.777	6.13022
541.67	5.65054
544.563	8.02185
547.455	10.6374
550.348	11.2883
553.241	7.42869
556.133	5.34089
559.026	3.50616
561.919	3.98885
564.812	2.97668
567.704	4.85622
570.597	2.96658
573.49	0.70665
576.382	1.34643
579.275	1.61681
582.168	0.04554
585.06	1.73518
587.953	0.501579
590.846	0.203758
593.739	2.72842
596.631	2.69949
599.524	1.28614
602.417	3.16943
605.309	3.98392
608.202	2.18681
611.095	3.29713
613.987	2.40634
616.88	3.99358
619.773	3.66465
622.665	4.13553
625.558	1.52514
628.451	4.00056
631.344	4.45699
634.236	3.02703
637.129	4.29994
640.022	2.76702
642.914	3.54652
645.807	4.30084
648.7	3.80724
651.593	3.34226
654.485	3.26534
657.378	0.578918
660.271	0.269836
663.163	3.76554
666.056	2.03087
668.949	0.309982
671.841	0.814674
674.734	2.44869
677.627	0.405411
680.52	0.383881
683.412	0.861618
686.305	0.614616
689.198	3.71275
692.09	1.2223
694.983	1.41557
697.876	1.75779
700.769	4.4493
703.661	0.694817
706.554	7.17995
709.447	5.56406
712.339	5.78188
715.232	7.7743
718.125	5.09827
721.017	4.87135
723.91	3.70866
726.803	2.69513
729.696	0.761902
732.588	0.352463
735.481	3.49471
738.374	1.02927
741.266	0.883667
744.159	1.87816
747.052	2.98144
749.944	4.05047
752.837	0.884972
755.73	3.49705
758.623	0.768425
761.515	0.90979
764.408	2.1345
767.301	0.314743
770.193	1.0851
773.086	0.048317
775.979	3.73846
778.871	0.84568
781.764	0.965012
784.657	3.33934
787.55	4.01719
790.442	3.13485
793.335	5.52969
796.228	4.12222
799.12	3.28554
802.013	3.41815
804.906	5.9234
807.798	3.71542
810.691	7.41161
813.584	9.35549
816.477	8.93126
819.369	7.93008
822.262	9.26725
825.155	7.48683
828.047	7.04263
830.94	3.77428
833.833	5.53834
836.726	2.68958
839.618	2.13905
842.511	2.8256
845.404	3.884
848.296	2.57984
851.189	1.31483
854.082	2.97623
856.974	2.06083
859.867	0.934959
862.76	2.10118
865.653	2.18179
868.545	2.36295
871.438	1.08431
874.331	1.08083
877.223	0.925888
880.116	0.451111
883.009	0.459091
885.901	0.980408
888.794	4.13538
891.687	0.836334
894.58	0.133972
897.472	1.36836
900.365	6.58077
903.258	10.8821
906.15	17.6479
909.043	28.793
911.936	43.483
914.828	55.8551
917.721	63.2082
920.614	51.4327
923.506	30.3143
926.399	21.1352
929.292	12.2849
932.185	7.87416
935.077	7.27379
937.97	4.02634
940.863	4.64539
943.755	1.32718
946.648	3.75284
949.541	4.65988
952.434	2.71796
955.326	0.267532
958.219	1.30325
961.112	0.318924
964.004	1.47537
966.897	1.94969
969.79	0.179306
972.683	1.26181
975.575	2.40833
978.468	1.46111
981.361	0.266968
984.253	0.359039
987.146	0.245834
990.039	5.38213
992.931	1.63582
995.824	2.75771
998.717	3.35969
1001.61	4.06674
1004.5	0.755051
1007.39	5.33594
1010.29	3.81624
1013.18	0.211304
1016.07	3.40312
1018.97	5.63631
1021.86	5.27618
1024.75	3.57098
1027.64	3.96799
1030.54	1.46864
1033.43	1.20273
1036.32	2.52301
1039.21	4.80658
1042.11	1.74107
1045	2.17107
1047.89	3.02714
1050.79	1.96535
1053.68	3.09317
1056.57	7.52304
1059.46	8.22301
1062.36	7.65987
1065.25	6.92276
1068.14	4.13794
1071.03	3.70645
1073.93	3.87241
1076.82	3.08487
1079.71	2.8367
1082.61	2.15741
1085.5	4.12656
1088.39	0.200195
1091.28	3.04134
1094.18	2.233
1097.07	0.524857
1099.96	0.249512
1102.85	1.39879
1105.75	3.3172
1108.64	1.78697
1111.53	0.938354
1114.42	0.194519
1117.32	0.182098
1120.21	3.77318
1123.1	1.29738
1126	1.97197
1128.89	0.009796
1131.78	2.89761
1134.67	3.81575
1137.57	2.43843
1140.46	1.88052
1143.35	0.969406
1146.24	2.60583
1149.14	2.84021
1152.03	4.36601
1154.92	2.00203
1157.82	1.63313
1160.71	2.06262
1163.6	3.09146
1166.49	2.38199
1169.39	2.98083
1172.28	2.13155
1175.17	1.44252
1178.06	4.49306
1180.96	0.545547
1183.85	1.7731
1186.74	0.939331
1189.63	3.32803
1192.53	2.09442
1195.42	1.14145
1198.31	1.50415
1201.21	1.49396
1204.1	2.1758
1206.99	1.97169
1209.88	3.21498
1212.78	0.292404
1215.67	1.37436
1218.56	0.837158
1221.45	0.253052
1224.35	3.84268
1227.24	2.89427
1230.13	2.73846
1233.03	1.34213
1235.92	3.83064
1238.81	0.461212
1241.7	1.73032
1244.6	2.65054
1247.49	3.57704
1250.38	4.61842
1253.28	1.3313
1256.17	1.63471
1259.06	1.19058
1261.95	1.55176
1264.85	1.82382
1267.74	1.03375
1270.63	5.01155
1273.52	0.414169
1276.42	3.08325
1279.31	4.07233
