Measurement: Raman, 780 nm, unoriented, Raman Data Processed
Mineral: Andorite VI
Rruff sample: R100212
Ideal chemistry: Ag^1+^Pb^2+^Sb^3+^_3_S^2-^_6_
Locality: Felsobanya, Romania
Source: Mark N. Feinglos
Description: Elogated crystals with striations, associated with wurtzite
Measured chemistry: Ag_0.94_Pb_0.87_Cu_0.11_Fe_0.06_Mn_0.05_Bi_0.01_Sb_3.14_S_6_
Raman shift (cm-1)	intensity
184.618	0
187.511	3.35312
190.404	1.91279
193.296	3.55309
196.189	0.623672
199.082	0.284756
201.974	1.20686
204.867	1.96182
207.76	6.00307
210.652	4.36504
213.545	9.15972
216.438	11.9249
219.331	11.7594
222.223	18.2209
225.116	18.8507
228.009	19.1051
230.901	23.7174
233.794	28.4168
236.687	26.8387
239.579	27.7458
242.472	26.762
245.365	28.892
248.257	31.0321
251.15	29.1978
254.043	29.9549
256.936	35.7207
259.828	36.7684
262.721	40.4826
265.614	34.8246
268.506	34.1496
271.399	28.6817
274.292	36.2549
277.185	25.3222
280.077	25.6139
282.97	20.4551
285.863	17.3926
288.755	14.3478
291.648	8.70638
294.541	15.9103
297.433	16.1687
300.326	14.5657
303.219	24.5893
306.111	30.3463
309.004	32.4308
311.897	31.3853
314.79	34.9087
317.682	37.4235
320.575	35.3568
323.468	35.7708
326.36	29.1688
329.253	24.0434
332.146	22.9286
335.038	16.8896
337.931	12.4245
340.824	5.32371
343.717	7.97493
346.609	1.8957
349.502	1.59596
352.395	1.35082
355.287	2.57499
358.18	1.25752
361.073	0.236841
363.965	1.43311
366.858	1.77038
369.751	2.68687
372.644	2.3884
375.536	1.48263
378.429	1.27833
381.322	1.81327
384.214	2.39073
387.107	2.90493
390	3.50094
392.892	2.28453
395.785	3.35978
398.678	0.617112
401.57	5.67881
404.463	4.85945
407.356	6.17043
410.249	2.36879
413.141	5.80931
416.034	3.75416
418.927	7.81859
421.819	3.52837
424.712	0.845999
427.605	6.92288
430.498	6.29476
433.39	2.48463
436.283	5.94548
439.176	2.64291
442.068	6.24057
444.961	5.16248
447.854	5.06548
450.746	1.14885
453.639	3.65919
456.532	3.82893
459.425	4.72898
462.317	2.19746
465.21	5.9471
468.103	5.01202
470.995	5.43606
473.888	2.5414
476.781	2.34505
479.673	1.92343
482.566	5.16561
485.459	1.25555
488.351	2.45515
491.244	2.18851
494.137	0.212629
497.029	5.08518
499.922	3.99342
502.815	1.99726
505.708	6.20152
508.6	6.83536
511.493	3.86363
514.386	1.83351
517.278	3.21178
520.171	0.702354
523.064	2.34644
525.957	2.70261
528.849	2.79989
531.742	6.77932
534.635	4.82609
537.527	3.30792
540.42	3.7077
543.313	3.95102
546.205	0.709342
549.098	4.01537
551.991	3.61646
554.884	3.18513
557.776	5.36169
560.669	3.36681
563.562	1.56159
566.454	2.72267
569.347	1.62633
572.24	1.58621
575.132	1.6534
578.025	2.59183
580.918	0.109974
583.811	6.05666
586.703	0.514782
589.596	4.01845
592.489	1.9926
595.381	5.60856
598.274	3.61753
601.167	0.019264
604.059	1.45953
606.952	3.14724
609.845	2.10372
612.737	3.32483
615.63	0.765378
618.523	0.91674
621.416	5.96211
624.308	4.44757
627.201	2.53625
630.094	2.76759
632.986	1.37255
635.879	6.11827
638.772	0.017966
641.664	1.14811
644.557	1.87131
647.45	0.074222
650.342	4.86231
653.235	6.57984
656.128	2.07296
659.021	3.38977
661.913	4.47755
664.806	4.89581
667.699	6.03597
670.591	0.484658
673.484	2.41665
676.377	0.780703
679.269	0.010097
682.162	3.69158
685.055	4.97559
687.948	3.10582
690.84	1.87954
693.733	5.82786
696.626	7.19925
699.518	1.36112
702.411	4.60037
705.304	3.405
708.197	6.32488
711.089	0.946584
713.982	2.79407
716.875	5.06904
719.767	4.31236
722.66	5.28807
725.553	6.24772
728.445	4.09173
731.338	1.71444
734.231	6.3054
737.124	4.20257
740.016	4.96396
742.909	0.979206
745.802	1.13664
748.694	1.54215
751.587	0.114485
754.48	3.18389
757.372	6.35261
760.265	2.27467
763.158	6.88601
766.051	3.49958
768.943	4.69455
771.836	1.76189
774.729	5.91973
777.621	2.60708
780.514	3.21108
783.407	5.39609
786.299	0.29671
789.192	2.47823
792.085	1.27739
794.977	0.001695
797.87	4.85384
800.763	4.34806
803.655	1.89886
806.548	5.72223
809.441	3.32083
812.334	2.77693
815.226	3.25262
818.119	2.56256
821.012	1.023
823.904	6.31926
826.797	0.47388
829.69	4.20463
832.582	0.980074
835.475	1.2178
838.368	4.95698
841.261	0.654402
844.153	0.075231
847.046	3.2716
849.939	0.709455
852.831	2.51285
855.724	0.164967
858.617	5.40688
861.51	1.06499
864.402	2.52467
867.295	6.57066
870.188	5.4752
873.08	1.86743
875.973	0.887217
878.866	2.08414
881.758	3.62369
884.651	1.80009
887.544	0.442659
890.437	1.76551
893.329	0.4917
896.222	5.89119
899.115	3.27486
902.007	4.89381
904.9	6.10504
907.793	2.43027
910.685	4.58507
913.578	2.15899
916.471	3.73121
919.364	1.521
922.256	3.38437
925.149	6.97023
928.042	7.13864
930.934	5.52181
933.827	3.73065
936.72	4.4038
939.612	3.13333
942.505	5.88906
945.398	1.48552
948.29	0.291852
951.183	3.91333
954.076	3.64083
956.968	0.395807
959.861	3.95284
962.754	3.1941
965.647	4.01124
968.539	5.81999
971.432	2.78963
974.325	8.47877
977.217	4.21346
980.11	3.4648
983.003	3.91526
985.895	4.29366
988.788	1.31461
991.681	4.31814
994.574	4.86388
997.466	3.67762
1000.36	2.172
1003.25	1.89959
1006.14	3.66029
1009.04	5.36125
1011.93	1.77428
1014.82	2.95426
1017.72	2.1222
1020.61	3.46592
1023.5	3.94732
1026.39	6.40482
1029.29	5.93842
1032.18	2.9711
1035.07	3.25065
1037.96	2.51944
1040.86	2.86392
1043.75	6.72522
1046.64	3.61578
1049.54	0.985402
1052.43	3.9319
1055.32	2.0083
1058.21	2.34431
1061.11	4.47652
1064	2.08904
1066.89	4.00066
1069.78	2.20183
1072.68	3.09241
1075.57	6.21632
1078.46	6.22715
1081.35	3.89645
1084.25	2.32289
1087.14	6.4585
1090.03	4.99863
1092.92	0.086904
1095.82	0.674549
1098.71	2.06565
1101.6	1.78346
1104.5	1.47889
1107.39	2.77417
1110.28	2.1188
1113.17	0.95578
1116.07	6.14884
1118.96	2.83419
1121.85	1.79386
1124.74	1.90149
1127.64	3.63452
1130.53	3.90542
1133.42	2.39007
1136.32	3.96934
1139.21	1.67157
1142.1	1.98373
1144.99	0.716971
1147.89	3.50343
1150.78	3.96092
1153.67	2.86961
1156.57	5.14358
1159.46	1.43154
1162.35	1.1994
1165.24	2.92852
1168.13	0.623827
1171.03	3.19845
1173.92	2.96875
1176.81	2.73522
1179.71	1.19045
1182.6	3.01941
1185.49	3.11765
1188.38	1.13578
1191.28	6.33024
1194.17	3.66186
1197.06	3.56925
1199.95	0.890174
1202.85	4.15954
1205.74	2.77983
1208.63	2.00489
1211.53	7.16849
1214.42	3.37486
1217.31	0.590549
1220.2	4.69018
1223.1	2.68884
1225.99	3.10033
1228.88	2.4718
1231.78	1.02854
1234.67	4.04244
1237.56	3.1956
1240.45	2.98059
1243.35	3.87422
1246.24	0.217495
1249.13	2.81955
1252.02	4.49802
1254.92	0.795713
1257.81	0.730449
1260.7	0.779106
1263.59	3.02221
1266.49	1.04299
1269.38	1.06959
1272.27	2.08312
1275.16	3.02259
1278.06	1.83466
1280.95	3.66951
1283.84	0.011041
