Measurement: Raman, 514 nm, unoriented, Raman Data Processed
Mineral: Andradite
Rruff sample: R050377
Ideal chemistry: Ca_3_Fe^3+^_2_(SiO_4_)_3_
Locality: Zlatoust District, South Urals, Russia
Source: University of Arizona Mineral Museum
Description: Dark red cubes
Measured chemistry: Ca_3.00_(Fe^3+^_1.48_Ti_0.31_Mg_0.14_Zr_0.07_)_Σ=2_(Si_2.73_Al_0.24_Ti_0.03_)_Σ=3_O_12_
Raman shift (cm-1)	intensity
97.554	0
101.732	43.658
105.908	266.039
110.082	67.721
114.254	15.83
118.424	686.012
122.592	934.74
126.758	536.091
130.922	680.909
135.083	713.017
139.243	877.83
143.401	564.913
147.557	575.835
151.711	500.676
155.863	721.905
160.013	756.289
164.161	1282.64
168.308	1930.62
172.452	1262.96
176.594	954.475
180.734	680.027
184.872	403.467
189.008	481.648
193.143	461.988
197.275	752.803
201.405	616.43
205.534	480.717
209.66	619.852
213.784	482.4
217.907	695.375
222.027	915.775
226.146	1248.59
230.263	1686.81
234.377	1561.41
238.49	1203.39
242.601	1183.78
246.709	1375.62
250.816	1415.94
254.921	1717.38
259.024	1870.05
263.125	2238.17
267.224	2042.12
271.321	1546.07
275.416	1540.1
279.51	1681.04
283.601	1698.49
287.69	2135.15
291.778	2606.79
295.863	3290.51
299.947	3295.05
304.029	3849.05
308.108	4151.65
312.186	3956.55
316.262	3776.16
320.336	3883.93
324.408	3899.83
328.478	4572.8
332.546	5572.79
336.612	7889.77
340.677	11186.7
344.739	14531.5
348.799	15701.2
352.858	16530.8
356.915	20013.3
360.969	23777.6
365.022	24034.7
369.073	19434.7
373.122	13832.6
377.169	9312.63
381.215	5713.14
385.258	3641.16
389.299	2513.46
393.339	1299.12
397.376	765.914
401.412	540.945
405.446	350.465
409.478	226.738
413.508	215.928
417.536	270.357
421.562	311.268
425.586	235.688
429.609	124.904
433.629	55.904
437.648	153.596
441.665	358.967
445.68	665.98
449.693	434.607
453.704	59.816
457.713	100.221
461.721	273.43
465.726	389.898
469.73	121.68
473.731	169.271
477.731	349.377
481.729	589.451
485.725	956.932
489.72	1692.8
493.712	1666.05
497.703	1360.65
501.691	1839.6
505.678	3987.31
509.663	8185.47
513.646	12864.4
517.627	11825.6
521.607	7450.01
525.584	4660.72
529.56	2960.21
533.534	2095.67
537.506	1254.62
541.476	1413.3
545.444	735.809
549.41	1188.27
553.375	1073.41
557.337	444.162
561.298	155.531
565.257	155.123
569.214	65.383
573.17	250.852
577.123	664.984
581.075	564.037
585.024	687.891
588.972	688.889
592.918	722.816
596.863	767.432
600.805	672.977
604.746	828.395
608.685	708.67
612.621	360.805
616.557	658.645
620.49	786.74
624.421	1594.24
628.351	1421.13
632.279	1716.91
636.205	2016.18
640.129	2353.31
644.051	2254.3
647.972	2232.15
651.89	2636.86
655.807	2492.41
659.722	2432.82
663.636	2112.09
667.547	1460.19
671.457	1370.14
675.365	818.938
679.271	625.568
683.175	7.959
687.077	17.094
690.978	126.582
694.877	520.986
698.774	3.381
702.669	140.721
706.562	70.684
710.454	291.145
714.344	304.51
718.232	50.152
722.118	547.342
726.002	1412.79
729.885	1807.45
733.766	3040.7
737.645	3478.03
741.522	4156.39
745.397	4028.79
749.271	3405.27
753.143	4121.77
757.013	3639.22
760.881	3256.63
764.748	2962.42
768.613	3030.31
772.476	2968.46
776.337	2715.14
780.196	2825.23
784.054	3193.61
787.91	3499.13
791.764	3660.73
795.616	3865.45
799.467	4214.47
803.316	4636.59
807.163	5132.77
811.008	6008.13
814.851	6068.73
818.693	5918.51
822.533	5651.33
826.371	5118.19
830.208	5249.11
834.042	5894.12
837.875	5562.66
841.706	6060.02
845.536	6060.08
849.363	6224.27
853.189	6355.8
857.013	6813.81
860.836	7149.69
864.656	7809.56
868.475	8666.35
872.292	9046.54
876.108	9408.65
879.922	8697.81
883.733	6516.27
887.544	4965.38
891.352	3450.11
895.159	2824.18
898.964	2496.38
902.767	2541.19
906.568	1910.24
910.368	2447.93
914.166	2402.04
917.962	2561.74
921.757	2600.97
925.55	2923.11
929.341	2703.51
933.13	2527.05
936.918	2393.49
940.703	1987.14
944.488	2218.87
948.27	1858.39
952.051	2318.21
955.83	1939.07
959.607	2455.08
963.383	1973.93
967.156	2159.52
970.928	2079.73
974.699	2396.88
978.468	2351.31
982.234	2381.39
986	1843.91
989.763	1803.39
993.525	1628.29
997.285	1234.01
1001.04	824.258
1004.8	863.357
1008.55	1380.44
1012.31	1450.16
1016.06	1027.89
1019.81	405.045
1023.56	257.484
1027.31	68.836
1031.05	393.004
1034.79	99.25
1038.53	272.227
1042.27	424
1046.01	172.348
1049.75	34.859
1053.48	171.148
1057.22	13.945
1060.95	295.535
1064.68	267.008
1068.4	33.781
1072.13	126.133
1075.86	312.113
1079.58	131.984
1083.3	246.203
1087.02	33.855
1090.74	36.121
1094.45	11.387
1098.17	201.68
1101.88	308.789
1105.59	161.855
1109.3	309.078
1113.01	108.723
1116.71	131.199
1120.42	392.879
1124.12	284.691
1127.82	44.164
1131.52	117.336
1135.22	10.633
1138.91	272.711
1142.61	192.52
1146.3	148.293
1149.99	129.973
1153.68	179.316
1157.37	283.719
1161.06	152.086
1164.74	265.523
1168.42	93.273
1172.1	160.312
1175.78	222.57
1179.46	62.066
1183.14	561.25
1186.81	571.773
1190.48	432.637
1194.15	845.273
1197.83	630.73
1201.49	788.059
1205.16	90.328
1208.82	546.5
1212.49	519.742
1216.15	705.441
1219.81	608.055
1223.46	682.191
1227.12	702.332
1230.78	702.855
1234.43	390.332
1238.08	208.562
1241.73	646.125
1245.38	431.664
1249.03	547.48
1252.67	373.543
1256.31	246.781
1259.95	517.828
1263.6	329.043
1267.23	160.531
1270.87	213.621
1274.51	85.773
1278.14	198.645
1281.77	305.293
1285.4	5.059
1289.03	238.094
1292.66	349.957
1296.28	115.145
1299.91	254.148
1303.53	165.836
1307.15	132.488
1310.77	0.219
1314.38	173.852
1318	490.84
1321.61	507.109
1325.23	366.73
1328.84	312.355
1332.45	494.715
1336.06	345.809
1339.66	369.219
1343.27	444.961
1346.87	761.242
1350.47	717.133
1354.07	509.793
1357.67	512.523
1361.26	574.652
1364.86	534.094
1368.45	518.406
1372.04	255.062
1375.63	427.066
1379.22	549.047
1382.81	325.641
1386.39	383.016
1389.98	389.742
1393.56	26.887
1397.14	239.258
1400.72	245.445
1404.3	268.441
1407.87	294.332
