Measurement: Raman, 780 nm, unoriented, Raman Data Processed
Mineral: Anilite
Rruff sample: R060514
Ideal chemistry: Cu_7_S_4_
Locality: Villamanin, Carmenes District, Leon Province, Spain
Source: Michael Scott
Description: Steel gray platy coating on tan colored dolomite
Measured chemistry: Cu_6.78_S_4.00
Raman shift (cm-1)	intensity
164.359	0
167.252	1.85654
170.145	1.65143
173.038	4.61468
175.93	1.68573
178.823	3.21799
181.716	3.93182
184.608	1.93152
187.501	3.44122
190.394	3.99499
193.286	7.13547
196.179	6.21292
199.072	4.18311
201.965	2.47247
204.857	0.7854
207.75	0.24884
210.643	0.165314
213.535	0.313934
216.428	1.17389
219.321	2.142
222.214	0.006226
225.106	1.87567
227.999	4.01764
230.892	5.03571
233.784	8.81738
236.677	10.4682
239.57	11.5528
242.462	17.6425
245.355	18.7485
248.248	22.9013
251.14	30.0977
254.033	28.5129
256.926	31.8395
259.818	34.1365
262.711	35.6717
265.604	32.0579
268.497	25.7219
271.389	18.678
274.282	11.8084
277.175	7.64038
280.067	4.12851
282.96	3.08398
285.853	1.70252
288.745	0.701202
291.638	0.050018
294.531	0.30545
297.424	0.341064
300.316	0.892517
303.209	0.329712
306.102	1.33966
308.994	0.384613
311.887	0.637024
314.78	0.734161
317.673	0.174744
320.565	1.71858
323.458	2.03546
326.351	2.81738
329.243	2.07507
332.136	2.36238
335.029	2.99706
337.921	4.2845
340.814	3.99075
343.707	4.28624
346.599	2.24878
349.492	3.17244
352.385	2.33777
355.278	2.64526
358.17	3.53865
361.063	3.66141
363.956	3.80327
366.848	3.51131
369.741	2.3526
372.634	1.97694
375.526	1.96533
378.419	3.41916
381.312	3.30533
384.205	3.23508
387.097	0.815979
389.99	0.406601
392.883	0.731705
395.775	0.498123
398.668	0.972656
401.561	0.629959
404.453	0.276001
407.346	0.531433
410.239	0.941879
413.132	0.445099
416.024	0.523239
418.917	0.833374
421.81	0.521942
424.702	0.718994
427.595	1.41397
430.488	2.69054
433.38	3.30092
436.273	1.94672
439.166	4.3921
442.058	4.75648
444.951	5.97301
447.844	7.34992
450.737	9.09268
453.629	13.3606
456.522	17.5627
459.415	21.2572
462.307	26.9145
465.2	35.1844
468.093	45.668
470.986	54.3162
473.878	51.7671
476.771	35.344
479.664	21.2324
482.556	14.0491
485.449	9.05955
488.342	7.15024
491.234	5.18753
494.127	3.81357
497.02	4.68163
499.913	3.70999
502.805	2.58192
505.698	1.82176
508.591	3.23494
511.483	2.6328
514.376	2.65054
517.269	1.49031
520.161	0.073273
523.054	1.51926
525.947	0.68605
528.84	0.159149
531.732	1.23044
534.625	0.741776
537.518	1.573
540.41	0.154373
543.303	0.66066
546.196	1.03552
549.088	1.15381
551.981	0.035095
554.874	0.749451
557.766	1.42741
560.659	0.16806
563.552	1.11339
566.444	1.11764
569.337	1.0609
572.23	0.025528
575.123	0.800934
578.015	0.042725
580.908	1.98752
583.801	1.20348
586.693	0.991058
589.586	0.651932
592.479	1.19003
595.371	0.543121
598.264	0.559631
601.157	0.64917
604.05	1.77803
606.942	0.617065
609.835	1.7624
612.728	0.314407
615.62	0.397949
618.513	0.71199
621.406	2.54431
624.298	0.296036
627.191	0.846329
630.084	0.21048
632.977	0.857742
635.869	1.08717
638.762	0.786209
641.655	1.6344
644.547	1.09319
647.44	2.71085
650.333	1.44115
653.226	1.95001
656.118	2.51505
659.011	1.93175
661.904	1.86105
664.796	2.39142
667.689	2.10847
670.582	1.15947
673.474	2.63289
676.367	0.963684
679.26	2.36999
682.153	1.7359
685.045	0.880005
687.938	1.97588
690.831	0.80275
693.723	1.06265
696.616	1.60237
699.509	0.47937
702.401	0.4375
705.294	0.262283
708.187	0.002151
711.079	0.966248
713.972	1.04546
716.865	0.310532
719.758	0.285217
722.65	0.23172
725.543	1.4758
728.436	0.161072
731.328	0.806061
734.221	0.814087
737.114	1.61276
740.006	0.060486
742.899	0.010925
745.792	0.00531
748.684	0.471298
751.577	1.99924
754.47	0.542603
757.363	0.730881
760.255	0.067886
763.148	0.035919
766.041	0.763962
768.933	0.20842
771.826	1.25404
774.719	0.544983
777.611	0.867325
780.504	1.26532
783.397	0.017044
786.29	1.5603
789.182	0.934692
792.075	2.58737
794.968	2.33588
797.86	2.28445
800.753	2.3044
803.646	3.27151
806.538	3.22853
809.431	3.53725
812.324	2.47699
815.217	3.47807
818.109	4.61424
821.002	3.7439
823.895	4.63461
826.787	3.47072
829.68	5.41118
832.573	5.12445
835.466	5.409
838.358	5.73112
841.251	6.41359
844.144	6.91028
847.036	6.51588
849.929	5.58865
852.822	6.82458
855.714	6.86911
858.607	7.24959
861.5	6.55714
864.393	5.7336
867.285	5.53226
870.178	5.31789
873.071	5.45502
875.963	5.71681
878.856	3.867
881.749	4.05937
884.641	4.03087
887.534	3.15958
890.427	3.20804
893.319	2.31667
896.212	1.66496
899.105	1.06625
901.997	0.921921
904.89	1.81519
907.783	1.28371
910.676	1.06972
913.568	1.04126
916.461	0.280426
919.354	0.050568
922.246	1.04733
925.139	0.348099
928.032	0.157242
930.924	0.404266
933.817	1.37848
936.71	1.51798
939.603	0.412643
942.495	0.034622
945.388	0.096436
948.281	0.360001
951.173	0.063339
954.066	0.36058
956.959	0.392929
959.851	0.942917
962.744	0.095779
965.637	0.318268
968.529	0.886108
971.422	2.0831
974.315	3.59171
977.208	0.721191
980.1	0.557831
982.993	1.07887
985.886	1.57706
988.778	2.63336
991.671	2.63373
994.564	1.84868
997.457	1.48212
1000.35	1.47096
1003.24	1.59221
1006.13	2.15881
1009.03	1.11082
1011.92	1.5777
1014.81	2.06854
1017.71	1.25774
1020.6	1.45859
1023.49	1.12416
1026.38	1.44687
1029.28	1.13116
1032.17	1.95154
1035.06	3.3994
1037.95	3.30196
1040.85	2.75355
1043.74	2.1985
1046.63	3.45441
1049.53	3.18851
1052.42	1.5753
1055.31	2.70958
1058.2	1.74411
1061.1	2.79684
1063.99	2.38149
1066.88	1.92448
1069.77	1.13057
1072.67	1.46857
1075.56	1.31966
1078.45	0.299118
1081.35	3.61519
1084.24	1.22572
1087.13	1.28769
1090.02	0.005447
1092.92	0.831848
1095.81	1.00009
1098.7	0.307968
1101.59	1.65828
1104.49	1.18761
1107.38	1.98959
1110.27	1.27387
1113.16	0.498444
1116.06	0.923599
1118.95	0.18425
1121.84	4.37456
1124.73	1.87756
1127.63	1.89471
1130.52	1.3951
1133.41	1.65591
1136.31	0.778046
1139.2	0.483673
1142.09	0.445938
1144.98	1.29526
1147.88	3.36278
1150.77	1.02205
1153.66	3.14383
1156.56	1.36513
1159.45	0.823441
1162.34	1.45064
1165.23	0.884262
1168.13	0.730911
1171.02	1.18753
1173.91	1.48872
1176.8	0.975632
1179.7	1.52242
1182.59	0.575943
1185.48	0.77504
1188.38	0.977982
1191.27	2.48495
1194.16	0.711914
1197.05	0.741608
1199.94	1.64545
1202.84	0.639709
1205.73	1.3458
1208.62	1.0782
1211.52	1.18445
1214.41	1.25696
1217.3	0.514908
1220.19	0.274277
1223.09	0.368866
1225.98	0.493866
1228.87	0.523193
1231.77	1.47984
1234.66	1.26079
1237.55	2.16646
1240.44	1.36487
1243.34	0.085999
1246.23	1.58162
1249.12	1.27968
1252.01	0.708267
1254.91	0.338943
1257.8	1.50703
1260.69	2.0657
1263.59	1.76917
1266.48	1.54169
1269.37	1.0289
1272.26	0.766556
1275.16	1.21426
1278.05	0.657104
1280.94	1.44359
1283.83	0.662643
