Measurement: Raman, 532 nm, unoriented, Raman Data Processed
Mineral: Anilite
Rruff sample: R060514
Ideal chemistry: Cu_7_S_4_
Locality: Villamanin, Carmenes District, Leon Province, Spain
Source: Michael Scott
Description: Steel gray platy coating on tan colored dolomite
Measured chemistry: Cu_6.78_S_4.00
Raman shift (cm-1)	intensity
172.627	0
175.52	2.832
178.413	31.25
181.305	206.781
184.198	411.77
187.091	426.488
189.984	375.02
192.876	296.934
195.769	85.887
198.662	90.68
201.554	123.523
204.447	160.609
207.34	231.703
210.232	186.215
213.125	95.781
216.018	102.004
218.911	132.738
221.803	117.07
224.696	93.906
227.589	78.57
230.481	210.137
233.374	66.105
236.267	29.891
239.16	54.852
242.052	284.777
244.945	520.074
247.838	562.891
250.73	676.328
253.623	459.773
256.516	470.48
259.408	574.949
262.301	750.242
265.194	921.422
268.086	745.32
270.979	551.883
273.872	265.082
276.765	602.469
279.657	589.996
282.55	584.648
285.443	551.414
288.335	434.266
291.228	433.277
294.121	311.461
297.013	289.5
299.906	19.906
302.799	502.82
305.691	500.391
308.584	749.801
311.477	546.531
314.37	388.27
317.262	196.637
320.155	201.469
323.048	240.812
325.94	313.871
328.833	417.957
331.726	524.504
334.618	326.387
337.511	236.84
340.404	174.832
343.297	159.371
346.189	31.988
349.082	188.961
351.975	269.656
354.867	403.508
357.76	81.047
360.653	39.723
363.546	44.273
366.438	74.273
369.331	20.738
372.224	135.578
375.116	37.266
378.009	258.004
380.902	157.711
383.794	51.109
386.687	230.43
389.58	219.219
392.473	229.395
395.365	195.812
398.258	21.652
401.151	139.848
404.043	161.977
406.936	95.301
409.829	20.941
412.721	196.312
415.614	293.176
418.507	399.254
421.4	165.508
424.292	195.684
427.185	74.531
430.078	312.078
432.97	305.82
435.863	336.18
438.756	489.008
441.648	773.441
444.541	1220.45
447.434	1401.17
450.327	1970.86
453.219	2727.04
456.112	3794
459.005	5293.16
461.897	7132.73
464.79	9511.23
467.683	11597.8
470.575	12037.4
473.468	8658.91
476.361	4980.11
479.254	2829.62
482.146	1897.52
485.039	1619.38
487.931	1299.8
490.824	855.105
493.717	435.32
496.61	437.852
499.502	106.195
502.395	137.078
505.288	550.594
508.181	350.676
511.073	260.879
513.966	192.98
516.859	271.051
519.751	449.055
522.644	517.758
525.537	453.18
528.429	496.055
531.322	379.324
534.215	91.562
537.107	86.242
540	93.609
542.893	159.02
545.786	167.91
548.678	160.703
551.571	77.105
554.464	39.812
557.356	16.449
560.249	67.969
563.142	70.973
566.034	143.078
568.927	138.129
571.82	199.363
574.713	119.66
577.605	18.566
580.498	65.465
583.391	132.086
586.283	139.82
589.176	136.609
592.069	153.469
594.961	172.02
597.854	21.047
600.747	31.578
603.64	104.785
606.532	254.906
609.425	444.754
612.318	588.816
615.21	244.938
618.103	508.031
620.996	318.926
623.888	695.082
626.781	681.902
629.674	527.082
632.567	507.918
635.459	336.09
638.352	645.887
641.245	311.531
644.137	140.273
647.03	324.582
649.923	581
652.815	622.535
655.708	663.324
658.601	727.367
661.494	420.41
664.386	264.562
667.279	379.082
670.172	538.059
673.064	455.105
675.957	144.633
678.85	53.273
681.742	238.25
684.635	320.09
687.528	136.25
690.42	326.781
693.313	374.914
696.206	449.391
699.099	257.672
701.991	104.078
704.884	195.809
707.777	28.473
710.669	32.695
713.562	60.992
716.455	309.715
719.347	226.609
722.24	291.82
725.133	457.594
728.026	365.441
730.918	170.043
733.811	536.188
736.704	93.23
739.596	54.289
742.489	258.039
745.382	385.391
748.274	680.113
751.167	250.098
754.06	166.012
756.953	329.719
759.845	172.246
762.738	60.969
765.631	321.98
768.523	376.289
771.416	312.582
774.309	309.086
777.201	26.75
780.094	7.582
782.987	221.746
785.88	219.094
788.772	207.969
791.665	215.699
794.558	371.785
797.45	380.141
800.343	332.023
803.236	168.027
806.128	291.184
809.021	210.605
811.914	182.176
814.807	72.852
817.699	63.844
820.592	29.16
823.485	1.734
826.377	97.344
829.27	236.516
832.163	263.508
835.055	184.004
837.948	174.348
840.841	216.102
843.734	175.832
846.626	357.125
849.519	357.289
852.412	11.289
855.304	198.477
858.197	25.906
861.09	488.859
863.982	350.672
866.875	366.383
869.768	151.984
872.661	164.07
875.553	284.414
878.446	337.742
881.339	635.141
884.231	281.695
887.124	615.398
890.017	581.188
892.909	619.273
895.802	1079.59
898.695	1309.96
901.588	542.18
904.48	591.953
907.373	493.188
910.266	615.555
913.158	460.227
916.051	344.281
918.944	487.938
921.836	573.539
924.729	895.469
927.622	953.43
930.515	980.039
933.407	815.148
936.3	563.18
939.193	427.422
942.085	542.844
944.978	58.648
947.871	381.828
950.763	6.273
953.656	78.57
956.549	212.273
959.442	323.117
962.334	63.266
965.227	240.695
968.12	96.539
971.012	74.57
973.905	37.172
976.798	340.273
979.69	305.562
982.583	312.148
985.476	208.516
988.369	190.289
991.261	302.047
994.154	273.125
997.047	384.891
999.939	542.266
1002.83	599.766
1005.73	383.258
1008.62	497.969
1011.51	391.086
1014.4	459.312
1017.29	368.344
1020.19	335.664
1023.08	568.625
1025.97	787.945
1028.87	687.375
1031.76	543.68
1034.65	493.859
1037.54	509.109
1040.44	814.82
1043.33	467.445
1046.22	61.664
1049.12	439.031
1052.01	229.734
1054.9	668.062
1057.79	747.336
1060.69	455.914
1063.58	207.609
1066.47	607.406
1069.36	142.617
1072.26	402.961
1075.15	381.539
1078.04	34.164
1080.93	146.742
1083.83	146.406
1086.72	364.844
1089.61	351.867
1092.51	386.82
1095.4	767.164
1098.29	803.719
1101.18	483.953
1104.08	502.398
1106.97	630.125
1109.86	458.734
1112.76	269.141
1115.65	348.539
1118.54	184.688
1121.43	208.148
1124.33	265.578
1127.22	431.375
1130.11	764.75
1133	1224.88
1135.9	849.289
1138.79	767.18
1141.68	600.414
1144.57	585.891
1147.47	303.086
1150.36	346.156
1153.25	627.07
1156.14	780.594
1159.04	741.641
1161.93	622.219
1164.82	554.484
1167.72	201.617
1170.61	68.383
1173.5	622.82
1176.39	542.047
1179.29	707.406
1182.18	584.578
1185.07	913.461
1187.96	288.18
1190.86	415.383
1193.75	41.469
1196.64	242.242
1199.54	71.836
1202.43	119.414
1205.32	48.203
1208.21	140.852
1211.11	420.828
1214	321.516
1216.89	20.961
1219.78	94.562
1222.68	41.414
1225.57	183.352
1228.46	51.586
1231.36	171
1234.25	397.305
1237.14	456.148
1240.03	381.539
1242.93	382.445
1245.82	637.062
1248.71	509.867
1251.6	515.688
1254.5	259.109
1257.39	220.602
1260.28	329.602
1263.17	134.43
1266.07	4.922
1268.96	127.445
1271.85	548.727
1274.75	628.648
1277.64	328.68
1280.53	20.977
1283.42	289.953
1286.32	203.688
1289.21	279.43
1292.1	0
