Measurement: Raman, 514 nm, unoriented, Raman Data Processed
Mineral: Annite
Rruff sample: R060204
Ideal chemistry: KFe^2+^_3_AlSi_3_O_10_(OH)_2_
Locality: Mont Saint-Hilaire, Rouville County, Quebec, Canada
Source: Royal Ontario Museum
Description: Black mica with pseudohexagonal outines
Measured chemistry: (K_0.96_Na_0.04_)_Σ=1_(Fe^2+^_2.04_Mg_0.81_Mn_0.09_Ti_0.03_[box]_0.03_)_Σ=3_(Si_3.00_Al_1.00_)O_10_((OH)_1.54_F_0.46_)_Σ=2_
Raman shift (cm-1)	intensity
243.286	0
247.394	125.288
251.501	5.004
255.605	31.513
259.708	109.143
263.808	127.8
267.907	163.462
272.004	193.675
276.099	290.801
280.192	276.883
284.283	375.627
288.372	250.436
292.459	189.394
296.544	139.461
300.627	105.963
304.709	7.401
308.788	77.283
312.865	38.187
316.941	32.635
321.015	52.459
325.086	56.264
329.156	11.337
333.224	33.817
337.29	43.695
341.354	62.113
345.416	154.661
349.476	155.917
353.534	268.851
357.591	257.613
361.645	231.851
365.698	213.664
369.748	229.774
373.797	192.532
377.844	176.021
381.889	189.271
385.932	176.271
389.973	141.205
394.012	175.551
398.049	177.848
402.084	317.942
406.118	260.692
410.15	234.004
414.179	223.442
418.207	219.647
422.233	257.201
426.257	131.472
430.279	120.419
434.299	38.695
438.318	37.667
442.334	1.718
446.349	5.976
450.361	6.807
454.372	0.176
458.381	80.569
462.388	19.359
466.394	53.582
470.397	119.587
474.398	159.817
478.398	139.691
482.396	328.385
486.391	313.376
490.385	478.222
494.377	367.903
498.368	410.383
502.356	428.909
506.342	588.696
510.327	564.717
514.31	526.473
518.291	530.09
522.27	522.459
526.247	566.594
530.222	587.001
534.196	604.012
538.167	791.409
542.137	657.069
546.105	708.625
550.071	652.894
554.035	590.612
557.998	552.433
561.958	427.088
565.917	353.658
569.874	267.946
573.829	244.962
577.782	175.499
581.733	121.267
585.683	65.81
589.63	70.767
593.576	15.351
597.52	28.464
601.462	86.713
605.402	79.836
609.341	76.269
613.277	105.587
617.212	152.175
621.145	73.391
625.076	99.125
629.006	248.638
632.933	280.849
636.859	297.026
640.783	349.606
644.705	443.376
648.625	537.103
652.543	634.811
656.46	713.476
660.375	980.514
664.288	1158.46
668.199	1617.97
672.108	1849.59
676.016	2011.14
679.921	1815.01
683.825	1655.78
687.727	1514.68
691.628	1651.5
695.526	1665.14
699.423	1872.27
703.318	2163.72
707.211	2590.83
711.102	3012.39
714.992	3171.84
718.879	3200.2
722.765	3101.11
726.649	2964.04
730.532	2533.61
734.412	2176.05
738.291	1938.1
742.168	1767.59
746.043	1653.73
749.916	1699.96
753.788	1636.64
757.658	1860.44
761.526	1878.75
765.392	1990.26
769.257	1947.96
773.119	1826.39
776.98	1703.75
780.839	1367.21
784.697	1074.75
788.552	947.26
792.406	745.721
796.258	525.128
800.108	455.476
803.957	331.764
807.804	293.845
811.649	122.158
815.492	104.257
819.333	41.285
823.173	17.231
827.011	10.073
830.847	7.293
834.681	26.14
838.514	32.401
842.345	21.55
846.174	38.717
850.001	10.167
853.827	82.84
857.651	11.76
861.473	42.181
865.293	26.011
869.112	6.716
872.928	81.404
876.744	32.028
880.557	82.591
884.369	152.1
888.178	137.556
891.987	163.965
895.793	197.341
899.598	266.687
903.401	268.003
907.202	354.291
911.001	320.551
914.799	355.781
918.595	328.967
922.389	446.112
926.182	332.205
929.972	377.24
933.761	391.22
937.549	425.144
941.334	379.033
945.118	451.867
948.9	447.645
952.681	431.376
956.459	395.057
960.236	404.68
964.012	330.249
967.785	292.342
971.557	270.173
975.327	274.475
979.095	204.673
982.862	255.407
986.627	288.823
990.39	245.599
994.152	198.461
997.912	247.907
1001.67	209.096
1005.43	290.899
1009.18	204.975
1012.93	248.079
1016.68	269.649
1020.43	321.96
1024.18	351.082
1027.93	338.838
1031.67	359.68
1035.42	391.136
1039.16	277.046
1042.9	375.379
1046.63	270.355
1050.37	293.156
1054.11	361.047
1057.84	341.934
1061.57	285.809
1065.3	336.698
1069.03	307.965
1072.75	370.846
1076.47	321.728
1080.2	309.613
1083.92	348.5
1087.64	361.3
1091.36	260.257
1095.07	244.126
1098.79	199.982
1102.5	126.948
1106.21	84.657
1109.92	140.354
1113.62	70.014
1117.33	96.653
1121.04	78.288
1124.74	97.907
1128.44	46.544
1132.14	50.266
1135.83	20.967
1139.53	71.696
1143.22	3.424
1146.92	27.214
1150.61	67.15
1154.3	64.102
1157.98	0.458
1161.67	41.491
1165.35	39.446
1169.04	6.421
1172.72	13.576
1176.4	3.63
1180.07	7.961
1183.75	17.813
1187.42	3.576
1191.1	26.347
1194.77	11.86
1198.44	26.947
1202.1	41.786
1205.77	77.667
1209.43	12.54
1213.1	21.441
1216.76	60.365
1220.42	52.356
1224.07	76.424
1227.73	82.497
1231.38	89.492
1235.04	44.734
1238.69	81.782
1242.34	113.754
1245.99	15.515
1249.63	108.583
1253.28	117.852
1256.92	31.665
1260.56	51.108
1264.2	25.223
1267.84	48.409
1271.48	101.429
1275.11	86.233
1278.74	85.779
1282.38	43.704
1286.01	44.35
1289.63	23.17
1293.26	2.034
1296.89	49.672
1300.51	116.248
1304.13	16.2
1307.75	40.466
1311.37	21.104
1314.99	37.941
1318.6	54.633
1322.22	50.347
