Measurement: Raman, 532 nm, unoriented, Raman Data Processed
Mineral: Annite
Rruff sample: R060211
Ideal chemistry: KFe^2+^_3_AlSi_3_O_10_(OH)_2_
Locality: Mont Saint-Hilaire, Rouville County, Quebec, Canada
Source: Royal Ontario Museum
Description: Black mica
Measured chemistry: (K_0.94_[box]_0.03_Na_0.02_)_Σ=1_(Fe^2+^_2.07_Mg_0.57_Mn_0.33_Ti_0.03_)_Σ=3_(Si_2.98_Al_1.02_)O_10_((OH)_1.72_F_0.28_)_Σ=2_
Raman shift (cm-1)	intensity
110.314	0
113.689	3.31783
117.064	18.8541
120.439	18.5129
123.813	40.3177
127.188	32.7907
130.563	53.0735
133.938	54.0323
137.313	62.1256
140.687	78.9323
144.062	67.133
147.437	71.1053
150.812	65.756
154.187	68.9697
157.561	59.9682
160.936	55.5703
164.311	57.8444
167.686	53.3341
171.061	53.3997
174.436	49.056
177.81	45.4116
181.185	39.0909
184.56	32.0719
187.935	25.2474
191.31	18.6829
194.685	15.0133
198.059	11.1963
201.434	7.38188
204.809	6.14218
208.184	3.69443
211.559	2.3681
214.933	2.35252
218.308	0.69043
221.683	0.768829
225.058	1.73369
228.433	0.932587
231.808	0.375702
235.182	0.526672
238.557	1.93686
241.932	1.51109
245.307	0.477432
248.682	1.92656
252.056	1.46079
255.431	3.26302
258.806	4.95186
262.181	8.13207
265.556	10.0112
268.93	11.6593
272.305	12.5648
275.68	14.6898
279.055	15.0718
282.43	14.016
285.805	12.3032
289.179	10.367
292.554	8.11751
295.929	3.82695
299.304	5.13554
302.679	2.95956
306.053	0.300629
309.428	0.209869
312.803	0.45726
316.178	0.905869
319.553	0.252335
322.928	2.24663
326.302	2.64108
329.677	3.80012
333.052	4.51503
336.427	5.36209
339.802	6.05032
343.176	6.82388
346.551	6.83527
349.926	8.2338
353.301	9.99342
356.676	9.73807
360.051	9.29771
363.425	9.01111
366.8	9.3961
370.175	8.88879
373.55	7.85626
376.925	9.22998
380.3	7.80588
383.674	9.561
387.049	10.9728
390.424	14.5974
393.799	15.5866
397.174	17.4404
400.548	18.6922
403.923	18.2143
407.298	17.372
410.673	13.9861
414.048	13.3273
417.423	12.4881
420.797	10.4084
424.172	8.19646
427.547	6.22261
430.922	4.73984
434.296	2.03845
437.671	0.658264
441.046	0.405212
444.421	1.34659
447.796	1.82089
451.171	0.793076
454.545	0.247192
457.92	0.293198
461.295	2.92363
464.67	4.56724
468.045	7.36655
471.42	7.72508
474.794	13.252
478.169	14.4463
481.544	18.6915
484.919	21.7278
488.294	23.6657
491.668	28.2453
495.043	30.1146
498.418	31.651
501.793	34.1495
505.168	36.1795
508.543	38.1954
511.917	38.4296
515.292	40.742
518.667	43.3407
522.042	45.1293
525.417	49.3093
528.791	54.0435
532.166	58.6618
535.541	61.687
538.916	58.4453
542.291	57.1931
545.665	53.7312
549.04	49.297
552.415	44.9716
555.79	37.6067
559.165	31.7701
562.54	25.6696
565.914	19.5952
569.289	14.531
572.664	12.5029
576.039	8.96677
579.414	6.48641
582.788	5.15708
586.163	2.977
589.538	2.93185
592.913	0.956329
596.288	0.61586
599.663	0.636467
603.037	1.01133
606.412	1.28516
609.787	0.339302
613.162	0.411339
616.537	0.034447
619.912	0.022583
623.286	0.966576
626.661	0.532951
630.036	0.795998
633.411	0.961823
636.786	0.685532
640.16	0.322357
643.535	2.18092
646.91	4.9164
650.285	7.75076
653.66	13.9096
657.034	18.7978
660.409	27.6304
663.784	36.2534
667.159	44.2769
670.534	45.5623
673.909	43.679
677.283	33.6722
680.658	26.4489
684.033	21.0623
687.408	18.6528
690.783	18.3384
694.158	21.0364
697.532	24.881
700.907	31.1547
704.282	38.9638
707.657	47.1165
711.032	54.5597
714.406	58.0954
717.781	60.2278
721.156	56.6932
724.531	52.0007
727.906	45.3931
731.28	37.4521
734.655	31.7273
738.03	27.9641
741.405	27.3553
744.78	27.5965
748.154	30.1378
751.529	35.4786
754.904	40.6808
758.279	46.639
761.654	52.6983
765.029	57.9091
768.403	59.1874
771.778	60.0245
775.153	58.1695
778.528	54.394
781.903	48.0833
785.278	42.8012
788.652	32.8171
792.027	24.4227
795.402	17.802
798.777	11.2609
802.152	5.69802
805.526	3.00919
808.901	0.874336
812.276	1.68714
815.651	4.22364
819.026	2.85351
822.4	0.653839
825.775	0.112267
829.15	0.604164
832.525	0.618057
835.9	1.40402
839.275	1.47629
842.649	2.58444
846.024	4.10344
849.399	3.54713
852.774	4.70643
856.149	4.84458
859.524	5.99882
862.898	7.53171
866.273	7.95525
869.648	11.0928
873.023	11.0748
876.398	10.3266
879.773	9.97316
883.147	10.9641
886.522	10.029
889.897	10.8554
893.272	12.2722
896.646	11.8992
900.021	12.1383
903.396	12.2912
906.771	12.0341
910.146	13.0705
913.521	14.1937
916.895	14.9393
920.27	14.7635
923.645	15.1468
927.02	14.6822
930.395	14.8506
933.769	14.4251
937.144	14.7268
940.519	15.0183
943.894	14.8774
947.269	12.4922
950.644	10.2808
954.018	9.55341
957.393	8.3082
960.768	5.90179
964.143	3.62174
967.518	2.60455
970.893	0.891792
974.267	0.173218
977.642	1.26565
981.017	0.562378
984.392	0.313896
987.767	0.678673
991.141	0.297058
994.516	0.187027
997.891	0.452698
1001.27	0.061691
1004.64	1.25748
1008.02	2.81348
1011.39	3.86955
1014.76	6.85294
1018.14	6.59881
1021.51	8.7144
1024.89	8.68285
1028.26	8.79517
1031.64	7.60199
1035.01	6.90074
1038.39	6.96336
1041.76	5.9194
1045.14	5.31278
1048.51	6.4071
1051.89	5.88438
1055.26	8.30208
1058.64	6.93778
1062.01	7.57004
1065.39	7.66238
1068.76	7.97945
1072.14	8.24334
1075.51	8.21317
1078.89	7.55426
1082.26	7.9683
1085.64	6.28774
1089.01	5.34385
1092.39	5.11712
1095.76	2.29208
1099.14	1.11146
1102.51	0.197319
1105.88	0.594398
1109.26	0.817307
1112.63	0.495277
1116.01	0.136124
1119.38	0.327156
1122.76	0.512474
1126.13	0.608269
1129.51	0.000908
1132.88	0.169121
1136.26	0.819366
1139.63	1.16307
1143.01	1.54317
1146.38	0.152672
1149.76	1.29005
1153.13	0.93087
1156.51	1.76399
1159.88	0.613632
1163.26	1.91753
1166.63	1.78087
1170.01	1.71515
1173.38	1.23201
1176.76	1.37495
1180.13	1.14868
1183.51	1.27592
1186.88	0.82943
1190.26	1.76122
1193.63	1.92059
1197.01	1.47514
1200.38	1.56653
1203.76	1.87981
1207.13	1.88453
1210.51	2.46671
1213.88	1.83442
1217.25	0.916916
1220.63	1.22362
1224	1.64036
1227.38	0.866844
1230.75	0.35466
1234.13	1.12035
1237.5	1.30024
1240.88	1.18343
1244.25	1.61858
1247.63	0.79805
1251	0.664894
1254.38	1.48161
1257.75	0.804764
1261.13	1.35789
1264.5	1.39073
1267.88	0.464218
1271.25	0.684952
1274.63	1.28599
1278	0.822975
1281.38	1.5441
1284.75	1.0939
1288.12	0.15538
1291.5	0.796082
1294.88	0.447388
1298.25	0.521751
