Measurement: Raman, 780 nm, unoriented, Raman Data Processed
Mineral: Antlerite
Rruff sample: R050212
Ideal chemistry: Cu^2+^_3_(S^6+^O_4_)(OH)_4_
Locality: Chuquicamata mine, Calama, Antofagasta Province, Chile
Source: John Dagenais
Description: Deep green tabular crystals
Measured chemistry: Cu_3.00_S_1.00_O_4_(OH)_4_
Raman shift (cm-1)	intensity
139.851	0
142.743	0.287826
145.636	1.23996
148.529	1.48611
151.421	0.717939
154.314	0.811851
157.207	0.134657
160.1	0.109097
162.992	0.617276
165.885	0.328074
168.778	0.176422
171.67	0.324185
174.563	0.069615
177.456	0.017408
180.348	0.128226
183.241	0.066318
186.134	0.24866
189.026	0.596465
191.919	1.2093
194.812	1.74777
197.705	1.93883
200.597	2.878
203.49	3.29055
206.383	3.50243
209.275	3.67592
212.168	3.57284
215.061	3.19756
217.953	3.00691
220.846	2.90973
223.739	3.16516
226.632	2.90365
229.524	2.85935
232.417	2.59601
235.31	2.24914
238.202	2.73846
241.095	2.69933
243.988	3.35241
246.881	3.74691
249.773	3.90653
252.666	3.29706
255.559	3.31553
258.451	3.56242
261.344	3.0061
264.237	2.52492
267.129	2.07579
270.022	0.545682
272.915	0.514101
275.808	0.253866
278.7	0.114359
281.593	0.07769
284.486	0.078709
287.378	0.063841
290.271	0.199111
293.164	0.304233
296.056	0.136576
298.949	0.044595
301.842	0.413505
304.735	0.580167
307.627	0.7384
310.52	1.40086
313.413	2.29036
316.305	2.6467
319.198	3.07883
322.091	3.69393
324.983	3.83662
327.876	3.62806
330.769	2.86449
333.661	2.4524
336.554	2.1188
339.447	1.34679
342.339	0.722257
345.232	0.539952
348.125	0.222801
351.018	0.341279
353.91	0.107271
356.803	0.249825
359.696	0.085955
362.588	0.044092
365.481	0.119065
368.374	0.268214
371.267	0.024391
374.159	0.026806
377.052	0.095795
379.945	0.226154
382.837	0.58115
385.73	0.566786
388.623	1.79074
391.515	3.2439
394.408	5.96214
397.301	8.4479
400.193	10.9183
403.086	12.2895
405.979	13.7856
408.872	14.2505
411.764	14.0207
414.657	11.1782
417.55	8.02561
420.442	5.2934
423.335	3.97215
426.228	3.25298
429.12	2.61801
432.013	2.07985
434.906	2.13117
437.799	1.48113
440.691	1.61999
443.584	1.77044
446.477	1.95014
449.369	2.08843
452.262	2.79094
455.155	3.93429
458.048	3.83987
460.94	4.29864
463.833	4.82276
466.726	4.39889
469.618	3.55983
472.511	3.44165
475.404	2.1826
478.296	1.96547
481.189	1.70923
484.082	1.29241
486.974	0.805578
489.867	0.863062
492.76	0.875862
495.653	0.613965
498.545	0.392677
501.438	0.612142
504.331	0.277963
507.223	0.486717
510.116	0.023601
513.009	0.132568
515.902	0.241539
518.794	0.129157
521.687	0.043642
524.58	0.216576
527.472	0.048643
530.365	0.034997
533.258	0.023227
536.15	0.380512
539.043	0.001385
541.936	0.312997
544.829	0.119177
547.721	0.370772
550.614	0.02107
553.507	0.153555
556.399	0.546447
559.292	0.13718
562.185	0.356515
565.077	0.345832
567.97	0.349045
570.863	0.302265
573.756	0.574389
576.648	0.684301
579.541	1.18809
582.434	1.81419
585.326	2.10482
588.219	2.49544
591.112	3.31601
594.004	3.38234
596.897	3.25092
599.79	3.10789
602.683	2.09966
605.575	2.13804
608.468	1.66715
611.361	1.74135
614.253	1.21451
617.146	1.44293
620.039	1.2417
622.931	1.04896
625.824	1.23442
628.717	1.34403
631.61	0.643197
634.502	0.834841
637.395	0.889048
640.288	0.867564
643.18	0.629169
646.073	0.755603
648.966	0.634943
651.858	0.474221
654.751	0.224345
657.644	0.399684
660.537	0.537431
663.429	0.046635
666.322	0.47954
669.215	0.135688
672.107	0.124085
675	0.138331
677.893	0.085017
680.785	0.425364
683.678	0.066046
686.571	0.195127
689.463	0.455528
692.356	0.182236
695.249	0.074388
698.142	0.25561
701.034	0.164949
703.927	0.217444
706.82	0.171617
709.712	0.210368
712.605	0.57002
715.498	0.211356
718.39	0.32958
721.283	0.316634
724.176	0.153454
727.069	0.333542
729.961	0.572331
732.854	0.224356
735.747	0.13966
738.639	0.446943
741.532	0.455779
744.425	0.235869
747.317	0.61868
750.21	0.289356
753.103	0.465463
755.996	0.056829
758.888	0.526029
761.781	0.278218
764.674	0.185563
767.566	0.185302
770.459	0.16924
773.352	0.218653
776.245	0.496054
779.137	0.276432
782.03	0.256184
784.923	0.302458
787.815	0.389009
790.708	0.576973
793.601	0.022301
796.493	0.257012
799.386	0.23266
802.279	0.045102
805.172	0.364032
808.064	0.627168
810.957	0.409958
813.85	0.195097
816.742	0.157626
819.635	0.41304
822.528	0.423897
825.42	0.661521
828.313	0.397318
831.206	0.846138
834.098	0.755684
836.991	0.622791
839.884	0.795191
842.777	0.697898
845.669	1.00798
848.562	1.33332
851.455	1.11541
854.347	1.04966
857.24	1.13916
860.133	0.992236
863.025	1.3056
865.918	1.09532
868.811	0.859082
871.704	0.704388
874.596	0.574812
877.489	1.2506
880.382	0.809145
883.274	0.934344
886.167	0.823048
889.06	1.0309
891.952	0.712643
894.845	0.799221
897.738	0.839319
900.631	0.456537
903.523	0.296697
906.416	0.029019
909.309	0.078401
912.201	0.350791
915.094	0.228739
917.987	0.0135
920.88	0.073607
923.772	0.127224
926.665	0.367969
929.558	0.121113
932.45	0.137303
935.343	0.174665
938.236	0.07124
941.128	0.006091
944.021	0.189668
946.914	0.440526
949.807	0.738993
952.699	1.05662
955.592	1.29398
958.485	1.0032
961.377	1.78202
964.27	2.23477
967.163	3.30312
970.055	5.71561
972.948	10.6437
975.841	18.2036
978.734	23.3417
981.626	28.1176
984.519	29.4029
987.412	23.0937
990.304	11.7718
993.197	5.07938
996.09	2.56672
998.982	1.58736
1001.88	0.98977
1004.77	0.525105
1007.66	0.52772
1010.55	0.034413
1013.45	0.051202
1016.34	0.378942
1019.23	0.116086
1022.12	0.158411
1025.02	0.210863
1027.91	0.308477
1030.8	0.192576
1033.69	0.202798
1036.59	0.5655
1039.48	0.011724
1042.37	0.214356
1045.27	0.223425
1048.16	0.259295
1051.05	0.432091
1053.94	0.374371
1056.84	0.35953
1059.73	1.29103
1062.62	1.91939
1065.52	2.37235
1068.41	2.78088
1071.3	3.0814
1074.19	2.37338
1077.09	2.24786
1079.98	1.38447
1082.87	1.62776
1085.76	1.27358
1088.66	0.416926
1091.55	0.198259
1094.44	0.163353
1097.33	0.194355
1100.23	0.143646
1103.12	0.24265
1106.01	0.044029
1108.9	0.149586
1111.8	0.316242
1114.69	0.184081
1117.58	0.270544
1120.48	0.22495
1123.37	0.880267
1126.26	0.726064
1129.15	0.826919
1132.05	0.981458
1134.94	0.196216
1137.83	0.348226
1140.72	0.356052
1143.62	0.324284
1146.51	0.272604
1149.4	0.254748
1152.3	0.353333
1155.19	0.830877
1158.08	1.32272
1160.97	2.1334
1163.87	2.37014
1166.76	2.86119
1169.65	1.87314
1172.54	1.55298
1175.44	0.619823
1178.33	0.129136
1181.22	0.318477
1184.12	0.499141
1187.01	0.075302
1189.9	0.021483
1192.79	0.194273
1195.69	0.342422
1198.58	0.298738
1201.47	0.237505
1204.36	0.12443
1207.26	0.430916
1210.15	0.037847
1213.04	0.25169
1215.93	0.210125
1218.83	0.103526
1221.72	0.235505
1224.61	0.359998
1227.51	0.028551
1230.4	0.015747
1233.29	0.396319
1236.18	0.199321
1239.08	0.255005
1241.97	0.01136
1244.86	0.200275
1247.76	0.353446
1250.65	0.354897
1253.54	0.234827
1256.43	0.675089
1259.33	0.172044
1262.22	0.046836
1265.11	0.160162
1268	0.297722
1270.9	0.040502
1273.79	0.078045
