Measurement: Raman, 780 nm, unoriented, Raman Data Processed
Mineral: Antlerite
Rruff sample: R110045
Ideal chemistry: Cu^2+^_3_(S^6+^O_4_)(OH)_4_
Locality: Childs Aldwinkle mine, Bunker Hill District, Copper Creek, Pinal County, Arizona, USA
Source: Bob Downs, collected March 2011
Description: Green granular aggregate
Raman shift (cm-1)	intensity
172.599	0
175.492	4.01184
178.385	4.02649
181.277	9.45496
184.17	4.67285
187.063	1.47375
189.955	1.39905
192.848	12.4331
195.741	10.7543
198.633	15.3971
201.526	14.3645
204.419	20.9479
207.311	22.6787
210.204	17.1965
213.097	21.4287
215.99	17.3803
218.882	22.4418
221.775	24.6069
224.668	27.3577
227.56	33.7374
230.453	33.8669
233.346	23.8904
236.238	28.4689
239.131	32.8848
242.024	22.4398
244.917	32.6273
247.809	36.3977
250.702	29.251
253.595	29.8912
256.487	36.9484
259.38	43.0869
262.273	35.2305
265.166	18.7699
268.058	13.5966
270.951	0.504517
273.844	2.94031
276.736	5.58325
279.629	11.2366
282.522	13.2449
285.414	25.1896
288.307	34.4172
291.2	38.0132
294.092	39.2058
296.985	26.9026
299.878	15.9327
302.771	11.6329
305.663	6.88123
308.556	4.96606
311.449	0.583435
314.341	5.90515
317.234	12.145
320.127	11.0069
323.019	18.4162
325.912	23.05
328.805	26.7304
331.698	21.1102
334.59	16.7253
337.483	14.0366
340.376	6.58582
343.268	3.72681
346.161	0.526428
349.054	2.19165
351.947	0.546875
354.839	2.09424
357.732	3.99353
360.625	2.32202
363.517	0.362366
366.41	0.73114
369.303	2.29944
372.195	3.15411
375.088	1.44769
377.981	0.125
380.873	3.12695
383.766	0.664734
386.659	1.46851
389.552	0.490601
392.444	11.3422
395.337	23.8279
398.23	33.3804
401.122	50.109
404.015	76.0413
406.908	122.403
409.8	139.82
412.693	150.283
415.586	121.324
418.479	87.6304
421.371	63.4579
424.264	53.1324
427.157	45.253
430.049	41.1211
432.942	51.4774
435.835	52.509
438.728	56.4772
441.62	47.6128
444.513	45.563
447.406	38.3527
450.298	25.9233
453.191	32.9057
456.084	27.0596
458.976	31.306
461.869	39.377
464.762	42.3574
467.654	46.4121
470.547	47.8146
473.44	48.1818
476.333	53.2767
479.225	62.0635
482.118	56.9857
485.011	50.4234
487.903	35.8357
490.796	35.9016
493.689	31.5194
496.582	25.8942
499.474	24.6968
502.367	18.9877
505.26	12.8163
508.152	12.0561
511.045	9.68445
513.938	8.20392
516.83	9.76623
519.723	0.63092
522.616	2.89288
525.509	0.797852
528.401	1.83618
531.294	2.02679
534.187	0.299255
537.079	3.6731
539.972	1.09326
542.865	1.31403
545.757	0.312012
548.65	3.41656
551.543	0.420776
554.436	2.8324
557.328	1.19562
560.221	3.42481
563.114	1.69812
566.006	0.479797
568.899	0.106323
571.792	4.37262
574.684	6.95612
577.577	6.3985
580.47	7.46802
583.362	10.4064
586.255	16.4714
589.148	19.415
592.041	30.2289
594.933	31.7347
597.826	52.7357
600.719	41.8878
603.611	36.9662
606.504	29.9471
609.397	25.8004
612.29	20.4476
615.182	29.9258
618.075	30.5148
620.968	40.053
623.86	61.6054
626.753	70.9968
629.646	58.2873
632.538	33.8888
635.431	27.7895
638.324	17.9912
641.217	8.57068
644.109	7.70654
647.002	8.05749
649.895	15.7117
652.787	7.7724
655.68	5.97675
658.573	3.89392
661.466	3.95483
664.358	0.659729
667.251	3.02728
670.144	1.06128
673.036	4.05987
675.929	4.22131
678.822	0.292786
681.714	1.53778
684.607	3.46845
687.5	0.726807
690.393	4.46631
693.285	1.83466
696.178	1.45972
699.071	0.041382
701.963	0.785034
704.856	5.08252
707.749	6.01733
710.641	3.2121
713.534	0.82312
716.427	1.7713
719.319	4.11047
722.212	9.90051
725.105	1.97784
727.998	6.57928
730.89	14.0846
733.783	4.90918
736.676	10.8475
739.568	14.5746
742.461	9.75207
745.354	11.8421
748.246	12.7526
751.139	10.699
754.032	10.2776
756.925	7.61023
759.817	5.94739
762.71	9.0603
765.603	7.10065
768.495	7.79669
771.388	10.2275
774.281	7.82831
777.173	7.78558
780.066	11.0995
782.959	7.00446
785.852	16.0635
788.744	8.11932
791.637	12.0356
794.53	5.9447
797.422	3.97876
800.315	4.01135
803.208	2.82336
806.101	0.125305
808.993	3.12286
811.886	2.00842
814.779	3.36548
817.671	5.953
820.564	2.48108
823.457	6.29169
826.349	0.291199
829.242	11.7773
832.135	6.1131
835.028	6.50043
837.92	4.46368
840.813	6.91388
843.706	8.30853
846.598	4.79913
849.491	6.68494
852.384	5.2016
855.276	5.47046
858.169	4.13013
861.062	0.386047
863.955	10.4341
866.847	10.6126
869.74	10.9412
872.633	8.29321
875.525	5.27393
878.418	6.54016
881.311	4.62512
884.203	7.63483
887.096	14.8958
889.989	1.48438
892.881	0.575378
895.774	2.28192
898.667	3.16644
901.56	2.21808
904.452	2.46075
907.345	0.940735
910.238	3.01245
913.13	0.957031
916.023	0.154297
918.916	4.35443
921.808	2.95496
924.701	0.152649
927.594	2.27435
930.487	0.697754
933.379	7.54584
936.272	13.19
939.165	5.67883
942.057	5.35852
944.95	3.13592
947.843	3.56519
950.736	5.13525
953.628	11.42
956.521	4.11957
959.414	5.95502
962.306	8.10474
965.199	7.86609
968.092	17.8607
970.984	20.1798
973.877	27.9738
976.77	42.0593
979.663	73.1508
982.555	129.867
985.448	201.873
988.341	219.513
991.233	112.107
994.126	47.4003
997.019	30.9854
999.911	14.3
1002.8	8.61529
1005.7	11.5721
1008.59	8.81403
1011.48	0.149719
1014.38	1.90518
1017.27	5.25357
1020.16	1.24005
1023.05	1.80966
1025.95	3.15955
1028.84	2.50601
1031.73	2.91937
1034.62	2.4426
1037.52	1.00479
1040.41	0.783234
1043.3	5.86423
1046.19	4.22925
1049.09	3.69968
1051.98	5.95566
1054.87	13.9189
1057.77	10.4963
1060.66	21.563
1063.55	12.1573
1066.44	17.9651
1069.34	29.633
1072.23	40.3344
1075.12	49.5761
1078.01	44.6256
1080.91	30.0779
1083.8	17.6417
1086.69	15.2164
1089.59	12.8793
1092.48	9.01471
1095.37	12.203
1098.26	4.34882
1101.16	5.10938
1104.05	0.625397
1106.94	0.739655
1109.83	6.99918
1112.73	3.49698
1115.62	0.814941
1118.51	0.591736
1121.4	3.54642
1124.3	2.59192
1127.19	7.39191
1130.08	3.92081
1132.98	3.73651
1135.87	3.98361
1138.76	3.36929
1141.65	4.83737
1144.55	1.68582
1147.44	0.725494
1150.33	5.02173
1153.22	6.51474
1156.12	0.671387
1159.01	5.19379
1161.9	9.4079
1164.8	8.35861
1167.69	13.0568
1170.58	10.6055
1173.47	12.0763
1176.37	3.51489
1179.26	5.43195
1182.15	6.20081
1185.04	2.48489
1187.94	7.04941
1190.83	4.98029
1193.72	6.87076
1196.62	3.76517
1199.51	5.54401
1202.4	6.30103
1205.29	8.95255
1208.19	1.45703
1211.08	1.64407
1213.97	10.5156
1216.86	4.02609
1219.76	3.71069
1222.65	2.23615
1225.54	0.423157
1228.43	1.17023
1231.33	0.968628
1234.22	0.941162
1237.11	4.69241
1240.01	0.49292
1242.9	0.460297
1245.79	9.89349
1248.68	2.53021
1251.58	0.536041
1254.47	1.67026
1257.36	5.96207
1260.25	9.93762
1263.15	5.00522
1266.04	4.45712
1268.93	7.9856
1271.83	4.04813
1274.72	0.226593
1277.61	4.29568
1280.5	1.58337
1283.4	0.683868
