Measurement: Raman, 532 nm, unoriented, Raman Data Processed
Mineral: Apachite
Rruff sample: R060694
Ideal chemistry: Cu^2+^_9_Si_10_O_29_11H_2_O
Locality: Christmas mine, Gila County, Arizona, USA
Source: Bob Jenkins
Description: Spherical aggregates of pale blue fibers, associated with yellowish-orange andradite and colorless calcite
Raman shift (cm-1)	intensity
202.519	0
205.411	269.641
208.304	431.434
211.197	352.652
214.089	147.672
216.982	62.438
219.875	191.207
222.767	138.555
225.66	129.188
228.553	85.57
231.445	186.043
234.338	157.738
237.231	310.109
240.124	232.016
243.016	484.219
245.909	609.762
248.802	737.082
251.694	601.941
254.587	486.852
257.48	437.266
260.372	530.66
263.265	650.191
266.158	693.441
269.051	508.801
271.943	387.355
274.836	136.254
277.729	155.488
280.621	213.168
283.514	260.715
286.407	254.113
289.299	182.496
292.192	42.719
295.085	68.73
297.978	7.566
300.87	46.613
303.763	217.734
306.656	545.434
309.548	510.742
312.441	569.805
315.334	566.234
318.226	418.988
321.119	544.133
324.012	661.371
326.905	1024.77
329.797	942.941
332.69	938.598
335.583	855.227
338.475	1012.64
341.368	897.027
344.261	528.711
347.153	467.566
350.046	580.781
352.939	459.223
355.832	331.172
358.724	184.426
361.617	15.953
364.51	113.523
367.402	39.68
370.295	40.02
373.188	100.633
376.08	223.723
378.973	280.055
381.866	269.938
384.759	379
387.651	682.723
390.544	823.754
393.437	927.422
396.329	887.379
399.222	870.82
402.115	892.703
405.007	808.676
407.9	646.539
410.793	714.867
413.685	723.648
416.578	886.375
419.471	956.117
422.364	961.777
425.256	1122.7
428.149	1134.25
431.042	1405.77
433.934	1533.06
436.827	1666.01
439.72	1535.34
442.612	1217.01
445.505	898.129
448.398	872.84
451.29	545.832
454.183	517.438
457.076	335.336
459.969	271.711
462.861	95.922
465.754	340.441
468.647	62.348
471.539	150.93
474.432	210.996
477.325	21.719
480.217	48.898
483.11	216.164
486.003	340.578
488.896	201.754
491.788	92.199
494.681	40.793
497.574	28.402
500.466	66.02
503.359	148.73
506.252	237.312
509.145	498.965
512.037	410.762
514.93	563.297
517.823	549.129
520.715	527.742
523.608	549.852
526.501	484.465
529.393	513.914
532.286	341.301
535.179	261.852
538.071	22.055
540.964	222.719
543.857	281.52
546.75	257.551
549.642	287.691
552.535	189.527
555.428	190.395
558.32	65.176
561.213	101.113
564.106	80.074
566.998	234.422
569.891	258.613
572.784	127.578
575.677	147.281
578.569	119.035
581.462	48.863
584.355	90.688
587.247	79.605
590.14	69.957
593.033	50.016
595.925	24.059
598.818	26.824
601.711	104.312
604.604	98.16
607.496	123.488
610.389	275.605
613.282	228.402
616.174	274.316
619.067	190.949
621.96	336.582
624.852	363.316
627.745	333.777
630.638	216.836
633.531	90.078
636.423	76.66
639.316	76.488
642.209	82.137
645.101	236.105
647.994	412.918
650.887	938.145
653.779	1255.62
656.672	1192.88
659.565	1487.23
662.458	1640.46
665.35	1990.57
668.243	2394.59
671.135	2764.52
674.028	2522.33
676.921	2070.04
679.814	1362.78
682.706	1233.93
685.599	926.562
688.492	561.391
691.384	567.875
694.277	699.461
697.17	416.227
700.062	253.328
702.955	201.301
705.848	26.984
708.741	128.008
711.633	33.785
714.526	149.637
717.419	122.215
720.311	167.586
723.204	201.895
726.097	112.031
728.99	294.844
731.882	137.715
734.775	130.793
737.667	162.211
740.56	149.91
743.453	264.719
746.346	281.625
749.238	206.766
752.131	76.77
755.024	109.723
757.916	213.457
760.809	14.668
763.702	40.609
766.594	157.355
769.487	331.578
772.38	307.445
775.273	217.836
778.165	158.684
781.058	245.312
783.951	284.934
786.843	253.531
789.736	202.668
792.629	92.5
795.521	346.961
798.414	244.43
801.307	131.348
804.2	102.648
807.092	131.988
809.985	136.41
812.878	72.816
815.77	72.785
818.663	157.277
821.556	101.395
824.448	120.461
827.341	256.203
830.234	265.934
833.127	125.438
836.019	11.801
838.912	179.348
841.805	130.957
844.697	239.891
847.59	265.625
850.483	222.012
853.375	111.402
856.268	42.266
859.161	275.621
862.054	282.707
864.946	220.387
867.839	237.164
870.732	3.867
873.624	20.215
876.517	190.891
879.41	158.672
882.302	317.949
885.195	456.504
888.088	639.359
890.981	544.742
893.873	624.652
896.766	810.5
899.659	546.414
902.551	288.254
905.444	235.234
908.337	217.879
911.229	123.047
914.122	22.742
917.015	13.238
919.907	22.984
922.8	231.469
925.693	417.625
928.586	460.785
931.478	459.723
934.371	353.832
937.264	391.816
940.156	269.547
943.049	272.02
945.942	360.895
948.834	297.344
951.727	348.555
954.62	303.137
957.513	216.34
960.405	277.469
963.298	304.203
966.191	373.184
969.083	318.438
971.976	397.035
974.869	343.039
977.761	395.602
980.654	459.539
983.547	233.363
986.44	299.66
989.332	285.512
992.225	53.469
995.118	162.039
998.01	203.941
1000.9	245.719
1003.8	329.098
1006.69	267.496
1009.58	193.004
1012.47	315.039
1015.37	116.332
1018.26	149.43
1021.15	99.199
1024.05	75.652
1026.94	293.398
1029.83	71.664
1032.72	126.551
1035.62	216.055
1038.51	330.707
1041.4	221.297
1044.29	155.578
1047.19	60.211
1050.08	295.898
1052.97	388.324
1055.86	441.961
1058.76	406.387
1061.65	249.914
1064.54	139.324
1067.43	65.945
1070.33	64.301
1073.22	221.375
1076.11	243.836
1079.01	129.395
1081.9	130.809
1084.79	209.461
1087.68	164.707
1090.58	273.086
1093.47	429.707
1096.36	466.559
1099.26	402.75
1102.15	461.008
1105.04	485.105
1107.93	484.203
1110.83	235.289
1113.72	142.727
1116.61	357.566
1119.5	332.121
1122.4	122.043
1125.29	86.91
1128.18	343.676
1131.07	480.32
1133.97	512.664
1136.86	482.746
1139.75	321
1142.64	233.719
1145.54	33.918
1148.43	72.133
1151.32	313.316
1154.22	203.176
1157.11	405.875
1160	231.102
1162.89	235.211
1165.79	24.188
1168.68	78.148
1171.57	58.266
1174.46	221.758
1177.36	253.652
1180.25	311.914
1183.14	376.078
1186.04	353.156
1188.93	340.969
1191.82	60.18
1194.71	130.422
1197.61	76.211
1200.5	50.945
1203.39	100.445
1206.29	103.414
1209.18	256.613
1212.07	344.496
1214.96	233.176
1217.86	313.098
1220.75	53.969
1223.64	91.566
1226.53	132.938
1229.43	208.277
1232.32	252.277
1235.21	408.207
1238.1	395.75
1241	294.383
1243.89	180.793
1246.78	360.703
1249.67	324.457
1252.57	197.121
1255.46	230.07
1258.35	385.758
1261.25	97.398
1264.14	133.863
1267.03	104.938
1269.92	368.918
1272.82	558.168
1275.71	494.707
1278.6	393.992
1281.49	275.461
1284.39	380.973
1287.28	376.852
1290.17	274.219
1293.07	199.027
1295.96	307.719
1298.85	1.922
