Measurement: Raman, 532 nm, unoriented, Raman Data Processed
Mineral: Apuanite
Rruff sample: R060674
Ideal chemistry: Fe^2+^Fe^3+^_4_Sb^3+^_4_O_12_S^2-^
Locality: Buca della Vena mine, Stazzema, Apuan Alps, Lucca Province, Tuscany, Italy
Source: Michael Scott
Description: Black massive granular
Raman shift (cm-1)	intensity
154.789	8.34033
157.682	25.7034
160.574	58.324
163.467	122.605
166.36	233.489
169.252	408.71
172.145	389.892
175.038	388.197
177.931	375.393
180.823	306.065
183.716	233.631
186.609	146.387
189.501	140.851
192.394	210.95
195.287	333.152
198.179	457.89
201.072	654.752
203.965	878.817
206.858	944.179
209.75	1037.21
212.643	907.771
215.536	978.458
218.428	1121.07
221.321	1419.91
224.214	1696.52
227.107	2027.47
229.999	2115.55
232.892	2032.88
235.785	1940.42
238.677	2028.07
241.57	2234.13
244.463	2402.49
247.355	2344.06
250.248	2009.15
253.141	1427.98
256.033	998.435
258.926	584.785
261.819	349.534
264.712	198.208
267.604	86.5276
270.497	107.302
273.39	60.4951
276.282	106.913
279.175	77.4878
282.068	80.5606
284.96	81.3125
287.853	16.0088
290.746	6.99316
293.639	6.33716
296.531	132.054
299.424	272.502
302.317	521.046
305.209	713.416
308.102	827.981
310.995	895.619
313.887	920.918
316.78	934.674
319.673	972.917
322.565	992.977
325.458	995.723
328.351	1055.21
331.244	996.5
334.136	891.913
337.029	747.536
339.922	603.024
342.814	390.448
345.707	309.497
348.6	150.592
351.493	145.639
354.385	81.4932
357.278	7.46606
360.171	4.85449
363.063	46.4006
365.956	59.8494
368.849	30.2866
371.741	19.3027
374.634	11.8955
377.527	45.8193
380.419	132.17
383.312	114.983
386.205	227.768
389.098	263.62
391.99	295.744
394.883	278.377
397.776	292.19
400.668	249.241
403.561	244.011
406.454	239.037
409.346	164.806
412.239	265.825
415.132	227.209
418.024	272.353
420.917	223.437
423.81	266.876
426.703	217.101
429.595	211.667
432.488	210.253
435.381	167.601
438.273	196.082
441.166	95.0845
444.059	102.826
446.952	61.1682
449.844	22.5569
452.737	36.9001
455.63	8.6687
458.522	15.1177
461.415	16.0112
464.308	35.5249
467.2	2.17798
470.093	49.2119
472.986	41.0554
475.878	47.6694
478.771	53.8547
481.664	73.8833
484.557	112.543
487.449	109.69
490.342	93.5193
493.235	94.9058
496.127	108.112
499.02	141.685
501.913	89.2085
504.805	147.207
507.698	153.827
510.591	150.18
513.484	130.671
516.376	183.261
519.269	173.976
522.162	230.969
525.054	203.514
527.947	280.353
530.84	299.514
533.732	323.099
536.625	315.728
539.518	296.354
542.41	391.222
545.303	446.161
548.196	396.781
551.089	363.179
553.981	345.684
556.874	311.404
559.767	269.618
562.659	183.242
565.552	236.232
568.445	190.699
571.337	166.211
574.23	137.188
577.123	102.513
580.016	73.6799
582.908	58.0911
585.801	57.1675
588.694	48.9536
591.586	2.87353
594.479	29.0093
597.372	15.3186
600.264	5.36597
603.157	13.8088
606.05	15.4807
608.942	10.7129
611.835	23.0627
614.728	19.874
617.621	12.1113
620.513	3.55298
623.406	34.4622
626.299	103.235
629.191	54.6382
632.084	65.5794
634.977	109.158
637.87	165.158
640.762	179.021
643.655	248.697
646.548	388.397
649.44	409.788
652.333	558.543
655.226	716.318
658.118	871.708
661.011	985.736
663.904	1081.34
666.797	1101.43
669.689	974.625
672.582	847.635
675.475	710.858
678.367	588.636
681.26	520.78
684.153	360.333
687.045	348.546
689.938	259.764
692.831	294.058
695.723	265.689
698.616	285.981
701.509	277.362
704.402	307.806
707.294	290.896
710.187	341.643
713.08	335.698
715.972	324.745
718.865	297.039
721.758	319.619
724.65	323.284
727.543	313.515
730.436	315.08
733.328	224.842
736.221	240.971
739.114	207.049
742.007	132.725
744.899	105.707
747.792	80.2148
750.685	95.2852
753.577	6.44995
756.47	12.6672
759.363	21.6865
762.255	3.79858
765.148	3.35913
768.041	58.769
770.934	31.7161
773.826	15.3618
776.719	14.2263
779.612	20.5156
782.504	0.52832
785.397	27.4839
788.29	1.59668
791.183	15.635
794.075	14.4751
796.968	1.77905
799.861	12.7131
802.753	5.20435
805.646	52.1782
808.539	59.51
811.431	22.958
814.324	43.1025
817.217	73.6063
820.109	1.91309
823.002	46.01
825.895	3.50635
828.788	57.4517
831.68	27.5604
834.573	37.031
837.466	46.5503
840.358	27.2949
843.251	78.7363
846.144	114.156
849.036	67.7214
851.929	109.34
854.822	148.152
857.715	93.3595
860.607	97.6755
863.5	85.9175
866.393	60.2116
869.285	39.7427
872.178	82.2167
875.071	79.7423
877.963	31.5731
880.856	45.4768
883.749	78.8094
886.641	53.1095
889.534	84.0847
892.427	35.6819
895.32	48.4866
898.212	60.6881
901.105	68.0587
903.998	44.6665
906.89	9.15857
909.783	58.0092
912.676	24.334
915.568	14.5172
918.461	13.8733
921.354	46.2728
924.246	3.36621
927.139	46.52
930.032	80.3813
932.925	41.593
935.817	16.8982
938.71	69.0399
941.603	71.6783
944.495	60.2019
947.388	19.1172
950.281	36.7048
953.173	27.8142
956.066	76.1722
958.959	78.6145
961.852	50.124
964.744	38.4663
967.637	7.78223
970.53	76.0798
973.422	46.05
976.315	54.5803
979.208	72.6664
982.101	59.7931
984.993	60.7667
987.886	75.7465
990.779	50.8187
993.671	20.731
996.564	38.9404
999.457	8.00378
1002.35	7.11987
1005.24	5.83203
1008.13	110.755
1011.03	56.729
1013.92	65.1753
1016.81	46.1019
1019.71	31.7469
1022.6	59.4121
1025.49	85.5935
1028.38	32.5917
1031.28	54.7169
1034.17	61.8085
1037.06	43.8059
1039.95	41.3976
1042.85	62.3285
1045.74	89.8929
1048.63	100.631
1051.53	57.1343
1054.42	61.5077
1057.31	69.7439
1060.2	82.9236
1063.1	50.2249
1065.99	42.3855
1068.88	26.6081
1071.77	19.16
1074.67	37.0399
1077.56	23.0542
1080.45	46.9074
1083.35	50.2814
1086.24	57.1345
1089.13	41.8835
1092.02	83.0504
1094.92	37.7515
1097.81	9.32898
1100.7	50.2598
1103.59	43.0049
1106.49	49.6847
1109.38	38.3644
1112.27	29.8646
1115.16	13.6622
1118.06	13.6133
1120.95	6.94189
1123.84	24.6211
1126.73	13.8264
1129.63	41.1959
1132.52	1.10413
1135.41	13.6606
1138.31	25.748
1141.2	31.579
1144.09	32.9446
1146.98	2.86072
1149.88	15.9447
1152.77	52.7771
1155.66	25.125
1158.56	37.7145
1161.45	4.09753
1164.34	4.10168
1167.23	53.9467
1170.13	5.88208
1173.02	6.38232
1175.91	24.9137
1178.8	62.7126
1181.7	99.902
1184.59	10.3879
1187.48	61.6808
1190.38	5.51965
1193.27	21.3081
1196.16	77.391
1199.05	67.1792
1201.94	35.8535
1204.84	41.056
1207.73	77.9021
1210.62	101.586
1213.52	52.7372
1216.41	76.9432
1219.3	12.2374
1222.19	70.6868
1225.09	66.6505
1227.98	49.9127
1230.87	28.774
1233.77	70.2887
1236.66	54.2801
1239.55	67.8282
1242.44	81.4503
1245.34	60.9738
1248.23	131.059
1251.12	1.99988
1254.01	46.5812
1256.91	63.2437
1259.8	32.1483
1262.69	48.8624
1265.59	5.46362
1268.48	55.4324
1271.37	25.9484
1274.26	33.1603
1277.16	65.6655
1280.05	41.5554
1282.94	4.50561
1285.83	81.2261
1288.73	74.7407
1291.62	55.7037
1294.51	49.6433
1297.4	1.49194
1300.3	23.1838
