Measurement: Raman, 785 nm, unoriented, Raman Data Processed
Mineral: Aqualite
Rruff sample: R070413
Ideal chemistry: (H_3_O)_8_(Na,K,Sr)_5_Ca_6_Zr^4+^_3_Si_26_O_66_(OH)_9_Cl
Locality: Kovdor Phlogopite mine (Mica mine; Slyuda mine; Kovdorslyuda Shaft), Kovdor Massif, Kola Peninsula, Murmanskaja Oblast', Northern Region, Russia
Source: Michael Scott
Description: Pink gemmy massive inclusions in matrix of fine-grained white undetermined zeolite
Raman shift (cm-1)	intensity
165.856	0
168.749	21.2705
171.642	78.7925
174.534	107.12
177.427	180.017
180.32	281.184
183.212	393.199
186.105	349.425
188.998	387.017
191.891	412.872
194.783	443.028
197.676	526.39
200.569	542.287
203.461	571.597
206.354	592.974
209.247	516.938
212.139	498.058
215.032	446.475
217.925	432.748
220.818	440.067
223.71	353.429
226.603	332.094
229.496	282.779
232.388	300.813
235.281	145.433
238.174	209.954
241.066	165.078
243.959	193.911
246.852	153.561
249.745	138.462
252.637	139.739
255.53	110.181
258.423	143.301
261.315	196.688
264.208	195.801
267.101	211.305
269.993	260.035
272.886	249.707
275.779	262.733
278.672	271.932
281.564	276.919
284.457	257.313
287.35	220.433
290.242	196.125
293.135	169.933
296.028	151.13
298.921	81.0566
301.813	160.935
304.706	90.8696
307.599	18.4956
310.491	73.167
313.384	3.43018
316.277	33.9014
319.169	62.543
322.062	46.4316
324.955	5.76758
327.847	9.71875
330.74	6.54297
333.633	125.09
336.526	170.591
339.418	228.254
342.311	266.602
345.204	297.408
348.096	316.268
350.989	335.503
353.882	239.402
356.774	278.688
359.667	301.289
362.56	284.388
365.452	292.519
368.345	300.482
371.238	297.944
374.131	391.695
377.023	403.234
379.916	342.419
382.809	372.455
385.701	386.625
388.594	306.96
391.487	301.098
394.38	290.752
397.272	231.071
400.165	238.75
403.058	271.432
405.95	214.448
408.843	202.334
411.736	258.296
414.628	245.943
417.521	227.23
420.414	209.509
423.307	202.666
426.199	163.696
429.092	144.303
431.985	160.279
434.877	109.448
437.77	35.6177
440.663	42.0923
443.555	57.7031
446.448	36.7402
449.341	61.9893
452.234	26.2261
455.126	7.19092
458.019	1.76465
460.912	3.24268
463.804	7.76269
466.697	40.6387
469.59	11.9956
472.483	52.332
475.375	1.33301
478.268	77.4575
481.161	26.8438
484.053	28.8516
486.946	39.4443
489.839	113.243
492.731	94.29
495.624	109.529
498.517	86.3955
501.409	168.947
504.302	211.567
507.195	241.308
510.088	162.579
512.98	209.389
515.873	205.984
518.766	168.879
521.658	184.741
524.551	170.236
527.444	191.525
530.337	183.763
533.229	265.495
536.122	293.822
539.015	377.607
541.907	457.075
544.8	517.734
547.693	585.197
550.585	702.826
553.478	801.625
556.371	857.666
559.263	941.521
562.156	1009.15
565.049	1015.42
567.942	1039.95
570.834	996.697
573.727	838.496
576.62	793.902
579.512	644.485
582.405	546.746
585.298	319.802
588.19	271.14
591.083	139.857
593.976	73.689
596.869	2.68066
599.761	5.32129
602.654	29.5044
605.547	8.83691
608.439	68.2769
611.332	39.834
614.225	8.96191
617.117	141.379
620.01	104.24
622.903	72.5396
625.795	160.738
628.688	170.718
631.581	246.285
634.474	217.416
637.366	212.493
640.259	304.948
643.152	342.817
646.044	299.296
648.937	356.015
651.83	452.05
654.722	437.774
657.615	424.185
660.508	428.019
663.401	469.592
666.293	438.614
669.186	499.549
672.079	467.283
674.971	487.576
677.864	447.592
680.757	431.012
683.649	411.361
686.542	371.45
689.435	372.906
692.328	332.951
695.22	327.054
698.113	303.395
701.006	273.42
703.898	244.16
706.791	129.96
709.684	156.937
712.577	51.563
715.469	51.1924
718.362	3.45752
721.255	20.6992
724.147	51.5923
727.04	7.8374
729.933	12.4097
732.825	62.4902
735.718	74.2783
738.611	102.152
741.504	99.3897
744.396	114.845
747.289	200.841
750.182	152.496
753.074	174.098
755.967	158.037
758.86	184.379
761.752	198.369
764.645	191.115
767.538	211.9
770.431	189.64
773.323	242.022
776.216	229.966
779.109	250.627
782.001	209.022
784.894	187.095
787.787	178.605
790.679	198.014
793.572	184.166
796.465	151.929
799.357	118.209
802.25	143.123
805.143	64.5908
808.036	103.801
810.928	7.29639
813.821	49.0478
816.714	29.1929
819.606	19.2671
822.499	1.61426
825.392	13.8438
828.284	23.5
831.177	41.7017
834.07	28.9907
836.963	1.3833
839.855	22.3389
842.748	36.6475
845.641	52.8584
848.533	27.2925
851.426	13.2378
854.319	19.3257
857.212	2.21631
860.104	48.3272
862.997	59.7505
865.89	24.8306
868.782	17.4434
871.675	76.9165
874.568	27.6616
877.46	123.481
880.353	85.9604
883.246	147.772
886.139	109.601
889.031	145.592
891.924	195.26
894.817	247.405
897.709	229.611
900.602	297.158
903.495	290.817
906.388	293.438
909.28	355.221
912.173	417.977
915.066	396.725
917.958	411.522
920.851	410.752
923.744	425.495
926.636	422.765
929.529	378.325
932.422	405.441
935.314	399.014
938.207	392.492
941.1	397.823
943.993	390.494
946.885	403.585
949.778	355.503
952.671	314.481
955.563	295.281
958.456	298.138
961.349	257.184
964.241	261.396
967.134	232.053
970.027	282.997
972.92	312.442
975.812	308.701
978.705	430.144
981.598	452.491
984.49	481.057
987.383	486.644
990.276	531.274
993.168	431.1
996.061	452.849
998.954	374.959
1001.85	333.114
1004.74	318.584
1007.63	250.665
1010.52	200.107
1013.42	184.834
1016.31	165.952
1019.2	63.917
1022.1	73.6675
1024.99	42.4273
1027.88	44.4321
1030.77	5.90088
1033.67	38.1157
1036.56	13.2715
1039.45	13.8945
1042.34	29.3584
1045.24	36.104
1048.13	11.3613
1051.02	50.1709
1053.91	135.769
1056.81	218.519
1059.7	264.462
1062.59	395.626
1065.49	445.34
1068.38	515.461
1071.27	547.956
1074.16	616.06
1077.06	703.091
1079.95	764.499
1082.84	827.363
1085.73	988.106
1088.63	971.247
1091.52	753.721
1094.41	641.723
1097.31	613.142
1100.2	570.696
1103.09	592.324
1105.98	621.027
1108.88	621.672
1111.77	610.434
1114.66	619.415
1117.56	523.375
1120.45	461.856
1123.34	408.202
1126.23	305.063
1129.12	282.518
1132.02	213.822
1134.91	106.193
1137.8	70.876
1140.7	37.8379
1143.59	0.72168
1146.48	0.453125
