Measurement: Raman, 532 nm, unoriented, Raman Data Processed
Mineral: Aqualite
Rruff sample: R070413
Ideal chemistry: (H_3_O)_8_(Na,K,Sr)_5_Ca_6_Zr^4+^_3_Si_26_O_66_(OH)_9_Cl
Locality: Kovdor Phlogopite mine (Mica mine; Slyuda mine; Kovdorslyuda Shaft), Kovdor Massif, Kola Peninsula, Murmanskaja Oblast', Northern Region, Russia
Source: Michael Scott
Description: Pink gemmy massive inclusions in matrix of fine-grained white undetermined zeolite
Raman shift (cm-1)	intensity
157.376	0
160.75	80.207
164.125	10.4463
167.5	59.294
170.875	66.8818
174.25	94.0127
177.625	126.923
180.999	27.2451
184.374	113.171
187.749	159.357
191.124	223.482
194.499	275.642
197.874	331.878
201.248	373.476
204.623	278.014
207.998	333.676
211.373	425.797
214.748	324.1
218.122	338.042
221.497	281.742
224.872	209.662
228.247	174.992
231.622	138.879
234.996	41.1279
238.371	34.6514
241.746	103.677
245.121	45.6055
248.496	55.4717
251.871	123.785
255.245	28.8828
258.62	166.444
261.995	114.458
265.37	120.691
268.745	114.88
272.12	148.645
275.494	216.654
278.869	212.199
282.244	260.672
285.619	220.258
288.994	177.9
292.368	223.943
295.743	329.562
299.118	224.088
302.493	238.194
305.868	143.006
309.243	99.2109
312.617	77.4971
315.992	58.0635
319.367	11.3711
322.742	113.916
326.117	300.217
329.491	383.852
332.866	578.241
336.241	770.48
339.616	918.278
342.991	924.077
346.365	904.852
349.74	837.921
353.115	799.623
356.49	682.481
359.865	541.66
363.24	447.214
366.614	348.464
369.989	238.51
373.364	148.351
376.739	108.061
380.114	4.98047
383.488	11.1455
386.863	61.3066
390.238	3.02832
393.613	20.9795
396.988	2.68945
400.363	99.958
403.737	3.72949
407.112	196.862
410.487	197.485
413.862	271.027
417.237	202.633
420.611	265.475
423.986	264.595
427.361	161.204
430.736	225.758
434.111	187.298
437.486	205.129
440.86	115.008
444.235	71.8154
447.61	46.0449
450.985	58.1435
454.36	45.627
457.735	16.6123
461.109	21.7236
464.484	50.331
467.859	8.22656
471.234	19.6543
474.609	17.5908
477.983	24.8086
481.358	57.9033
484.733	106.499
488.108	69.4443
491.483	260.711
494.858	395.69
498.232	510.015
501.607	623.333
504.982	765.209
508.357	890.994
511.732	897.636
515.106	868.242
518.481	892.516
521.856	901.043
525.231	882.899
528.606	967.116
531.981	994.019
535.355	1182.27
538.73	1386.65
542.105	1553.43
545.48	1761.39
548.855	2097.2
552.229	2381.06
555.604	2639.9
558.979	2820.93
562.354	2948.38
565.729	2944.15
569.104	2639.64
572.478	2422.16
575.853	2067.24
579.228	1657.29
582.603	1199.04
585.978	768.187
589.352	535.188
592.727	191.048
596.102	80.2822
599.477	32.8906
602.852	7.44336
606.227	34.668
609.601	0.882813
612.976	18.4219
616.351	127.2
619.726	202.378
623.101	237.544
626.476	267.908
629.85	404.901
633.225	481.87
636.6	639.315
639.975	951.188
643.35	873.974
646.724	1058.5
650.099	1266.32
653.474	1342.16
656.849	1422.72
660.224	1381.43
663.598	1368.61
666.973	1492.19
670.348	1400.64
673.723	1417.59
677.098	1350.25
680.472	1280.44
683.847	1293.39
687.222	1134.6
690.597	1151.91
693.972	1132.7
697.347	982.44
700.721	812.733
704.096	668.239
707.471	477.729
710.846	200.202
714.221	124.216
717.596	84.6064
720.97	39.3145
724.345	45.7783
727.72	21.75
731.095	138.968
734.47	166.332
737.844	241.84
741.219	339.397
744.594	540.065
747.969	514.416
751.344	493.884
754.719	524.284
758.093	508.928
761.468	538.325
764.843	515.488
768.218	626.038
771.593	646.086
774.967	773.312
778.342	774.001
781.717	724.446
785.092	756.315
788.467	751.889
791.842	688.482
795.216	546.906
798.591	470.389
801.966	390.989
805.341	347.266
808.716	248.503
812.091	136.757
815.465	91.7803
818.84	75.8008
822.215	12.376
825.59	14.1445
828.965	33.3154
832.339	15.3301
835.714	32.668
839.089	56.167
842.464	14.3613
845.839	57.8682
849.213	11.9473
852.588	9.74609
855.963	14.416
859.338	24.9785
862.713	117.417
866.087	168.299
869.462	192.908
872.837	250.908
876.212	343.849
879.587	464.884
882.962	554.275
886.337	644.438
889.711	738.286
893.086	886.618
896.461	950.896
899.836	971.725
903.211	1072.67
906.585	1120.98
909.96	1184.24
913.335	1268.59
916.71	1283.98
920.085	1266.66
923.46	1233.35
926.834	1265.31
930.209	1213.47
933.584	1264.49
936.959	1233.8
940.334	1247.2
943.708	1233.53
947.083	1153.91
950.458	1040.85
953.833	904.977
957.208	814.094
960.582	717.514
963.957	811.8
967.332	859.497
970.707	766.895
974.082	1031.54
977.457	1139.15
980.831	1283.53
984.206	1284.24
987.581	1468.77
990.956	1152.02
994.331	973.006
997.705	799.836
1001.08	537.779
1004.46	605.577
1007.83	290.982
1011.21	242.494
1014.58	265.325
1017.95	110.062
1021.33	78.2168
1024.7	12.6758
1028.08	89.9717
1031.45	13.1904
1034.83	79.1172
1038.2	81.6894
1041.58	158.808
1044.95	224.679
1048.33	407.507
1051.7	613.864
1055.08	783.135
1058.45	1126.65
1061.83	1605.62
1065.2	1709.45
1068.58	1984.31
1071.95	2098.98
1075.33	2184
1078.7	2280.64
1082.08	2137.39
1085.45	2048.35
1088.83	1639.22
1092.2	1249.29
1095.58	923.513
1098.95	709.849
1102.33	475.69
1105.7	388.829
1109.07	320.256
1112.45	301.137
1115.82	193.295
1119.2	177.782
1122.57	117.971
1125.95	96.6357
1129.32	23.8174
1132.7	38.5635
1136.07	48.8057
1139.45	6.67383
1142.82	5.01465
1146.2	8.40625
1149.57	27.5049
1152.95	24.7266
1156.32	88.2998
1159.7	51.2852
1163.07	29.3535
1166.45	63.832
1169.82	94.9678
1173.2	100.907
1176.57	86.9287
1179.95	80.4111
1183.32	83.9561
1186.69	153.041
1190.07	129.89
1193.44	106.443
1196.82	195.171
1200.19	104.981
1203.57	120.827
1206.94	233.147
1210.32	150.997
1213.69	73.9541
1217.07	108.478
1220.44	141.72
1223.82	72.1894
1227.19	50.5674
1230.57	11.0049
1233.94	7.77148
1237.32	73.6377
1240.69	33.8291
1244.07	46.5498
1247.44	77.96
1250.82	86.251
1254.19	86.0049
1257.57	73.0215
1260.94	102.641
1264.32	27.5811
1267.69	85.9609
1271.07	151.753
1274.44	73.8594
1277.82	28.5547
1281.19	22.6982
1284.57	89.2139
1287.94	45.6611
1291.32	66.6816
1294.69	111.149
1298.06	61.4297
1301.44	68.3965
1304.81	41.1084
1308.19	76.4316
1311.56	114.484
1314.94	0
