Measurement: Raman, 532 nm, unoriented, Raman Data Processed
Mineral: Arakiite
Rruff sample: R060812
Ideal chemistry: Zn^2+^Mn^2+^_12_Fe^3+^_2_(As^3+^O_3_)(As^5+^O_4_)_2_(OH)_23_
Locality: Nordmark, Sweden
Source: Michael Scott
Description: Deep red massive between grains
Raman shift (cm-1)	intensity
166.842	0
169.735	0.184814
172.627	9.50732
175.52	9.05225
178.413	28.8865
181.305	56.8057
184.198	120.052
187.091	49.9705
189.984	146.164
192.876	77.9331
195.769	120.76
198.662	97.311
201.554	59.7764
204.447	110.226
207.34	93.0366
210.232	65.8687
213.125	43.478
216.018	57.4429
218.911	28.6939
221.803	59.3721
224.696	81.0498
227.589	50.8281
230.481	128.947
233.374	113.645
236.267	124.981
239.159	77.9482
242.052	130.012
244.945	103.806
247.837	142.75
250.73	90.6948
253.623	37.0449
256.516	87.397
259.408	106.609
262.301	137.094
265.194	152.544
268.086	51.917
270.979	76.5503
273.872	83.7612
276.764	122.439
279.657	77.9746
282.55	88.6289
285.443	110.227
288.335	30.2646
291.228	83.6899
294.121	24.0605
297.013	18.4565
299.906	25.6714
302.799	10.6167
305.691	39.8789
308.584	48.437
311.477	76.6733
314.37	46.8389
317.262	64.5322
320.155	8.771
323.048	4.74414
325.94	82.5024
328.833	63.8452
331.726	83.6309
334.618	64.6025
337.511	73.7129
340.404	88.9434
343.297	79.1221
346.189	77.9087
349.082	108.739
351.975	116.862
354.867	87.6997
357.76	91.3916
360.653	93.0083
363.545	92.1118
366.438	94.6001
369.331	68.0981
372.224	64.6719
375.116	62.7602
378.009	24.3926
380.902	31.4492
383.794	46.5503
386.687	87.8975
389.58	142.658
392.472	112.022
395.365	128.919
398.258	66.8144
401.151	120.98
404.043	129.498
406.936	103.674
409.828	122.228
412.721	71.23
415.614	80.2764
418.507	6.63916
421.399	27.7695
424.292	0.344727
427.185	16.623
430.077	9.61182
432.97	5.9209
435.863	6.20752
438.755	21.3433
441.648	37.4473
444.541	48.8086
447.434	55.6665
450.326	22.2222
453.219	62.5063
456.112	43.7275
459.004	33.9697
461.897	117.353
464.79	52.3101
467.682	110.603
470.575	174.558
473.468	207.635
476.361	204.358
479.253	227.218
482.146	317.9
485.039	449.563
487.931	502.495
490.824	589.706
493.717	687.516
496.609	712.457
499.502	898.972
502.395	966.181
505.288	1054.15
508.18	1012.04
511.073	962.46
513.966	908.992
516.858	899.855
519.751	833.29
522.644	799.812
525.536	732.301
528.429	597.758
531.322	632.889
534.214	462.966
537.107	368.227
540	333.437
542.893	307.42
545.785	248.247
548.678	191.215
551.571	115.567
554.463	141.014
557.356	50.9141
560.249	17.2534
563.141	9.88721
566.034	47.043
568.927	1.80762
571.82	44.377
574.712	27.3804
577.605	24.6436
580.498	75.0386
583.39	24.7666
586.283	11.3696
589.176	7.88574
592.068	31.3418
594.961	7.69092
597.854	12.104
600.747	57.3481
603.639	54.0435
606.532	69.8364
609.425	64.2383
612.317	152.166
615.21	143.745
618.103	156.555
620.995	179.581
623.888	229.708
626.781	233.16
629.674	197.964
632.566	151.985
635.459	100.15
638.352	99.5083
641.244	100.241
644.137	17.9351
647.03	99.7866
649.922	83.1724
652.815	126.93
655.708	73.1894
658.601	76.3584
661.493	50.0654
664.386	88.8716
667.279	67.2378
670.171	59.103
673.064	101.547
675.957	29.1436
678.849	28.4463
681.742	41.6162
684.635	40.7993
687.528	37.7148
690.42	23.6773
693.313	71.811
696.206	88.6084
699.098	99.731
701.991	25.166
704.884	19.7227
707.776	16.6733
710.669	9.49268
713.562	0.147461
716.455	34.7764
719.347	39.8994
722.24	93.8413
725.133	105.944
728.025	106.824
730.918	129.589
733.811	120.657
736.703	87.6436
739.596	99.2476
742.489	61.396
745.381	65.7104
748.274	110.149
751.167	105.645
754.06	74.1802
756.952	64.6597
759.845	80.7808
762.738	91.4746
765.63	83.2178
768.523	224.179
771.416	352.688
774.308	585.91
777.201	655.848
780.094	754.773
782.987	715.201
785.879	610.095
788.772	466.01
791.665	331.954
794.557	313.051
797.45	240.472
800.343	270.968
803.235	320.385
806.128	336.029
809.021	368.849
811.914	559.014
814.806	547.156
817.699	546.49
820.592	469.471
823.484	403.808
826.377	360.163
829.27	306.622
832.162	234.217
835.055	168.914
837.948	117.462
840.841	55.604
843.733	18.002
846.626	4.95117
849.519	69.4282
852.411	5.83154
855.304	10.7227
858.197	61.2827
861.089	15.8042
863.982	32.4004
866.875	78.9717
869.767	19.1338
872.66	30.2436
875.553	5.3916
878.445	26.8213
881.338	13.8149
884.231	14.4624
887.124	85.6191
890.016	8.93262
892.909	81.2031
895.802	77.457
898.694	68.3745
901.587	2.65576
904.48	51.0874
907.372	86.4414
910.265	33.2681
913.158	30.1997
916.051	50.748
918.943	48.6655
921.836	44.5894
924.729	117.31
927.621	72.1904
930.514	142.947
933.407	80.0347
936.299	121.081
939.192	77.3823
942.085	73.5552
944.977	44.3603
947.87	76.6519
950.763	24.6602
953.656	60.9595
956.548	94.0019
959.441	54.5986
962.334	16.3857
965.226	68.1611
968.119	18.9429
971.012	72.1221
973.904	29.7695
976.797	40.8618
979.69	64.9565
982.583	121.634
985.475	50.0752
988.368	80.2627
991.261	113.628
994.153	7.11084
997.046	100.325
999.939	44.3643
1002.83	82.0986
1005.72	27.3852
1008.62	63.2383
1011.51	63.8682
1014.4	87.5147
1017.29	79.6538
1020.19	97.8721
1023.08	107.723
1025.97	95.1821
1028.87	120.916
1031.76	121.053
1034.65	130.179
1037.54	69.8936
1040.44	30.939
1043.33	114.077
1046.22	41.7954
1049.12	34.7842
1052.01	89.2036
1054.9	122.206
1057.79	62.3291
1060.68	127.814
1063.58	98.0444
1066.47	16.3042
1069.36	49.5938
1072.26	111.113
1075.15	32.9087
1078.04	9.69287
1080.93	39.917
1083.83	34.2759
1086.72	96.0596
1089.61	102.425
1092.51	93.4209
1095.4	37.2656
1098.29	112.544
1101.18	101.619
1104.08	79.5347
1106.97	91.6001
1109.86	110.443
1112.75	7.43408
1115.65	1.04443
1118.54	34.4502
1121.43	28.4302
1124.33	10.0049
1127.22	120.927
1130.11	120.522
1133	74.6528
1135.9	37.6494
1138.79	94.313
1141.68	44.1773
1144.57	74.3809
1147.47	27.8159
1150.36	69.6416
1153.25	67.5894
1156.14	25.5972
1159.04	32.5767
1161.93	58.2105
1164.82	76.7876
1167.71	13.8726
1170.61	11.7153
1173.5	51.0366
1176.39	76.6938
1179.29	65.1919
1182.18	105.577
1185.07	69.9141
1187.96	106.914
1190.86	60.5444
1193.75	3.30371
1196.64	24.4297
1199.54	24.083
1202.43	18.0972
1205.32	41.9141
1208.21	101.612
1211.11	64.5894
1214	143.634
1216.89	155.812
1219.78	28.5308
1222.68	80.8237
1225.57	81.9878
1228.46	84.3828
1231.36	106.724
1234.25	160.303
1237.14	154.567
1240.03	111.62
1242.92	116.713
1245.82	42.4053
1248.71	100.285
1251.6	100.855
1254.5	90.4912
1257.39	95.4492
1260.28	84.7461
1263.17	98.0615
1266.07	63.3105
1268.96	24.5508
1271.85	117.03
1274.74	80.0488
1277.64	114.82
1280.53	103.161
1283.42	11.3935
