Measurement: Raman, 532 nm, unoriented, Raman Data Processed
Mineral: Aramayoite
Rruff sample: R061071
Ideal chemistry: Ag^1+^_3_Sb^3+^_2_(Bi^3+^,Sb^3+^)S^2-^_6_
Locality: Animas mine, Potosi, Bolivia
Source: Michael Scott
Description: Black platy submetallic
Raman shift (cm-1)	intensity
109.03	0
112.405	23.4916
115.779	56.8856
119.154	283.99
122.529	488.748
125.904	451.741
129.279	425
132.654	374.289
136.028	383.041
139.403	328.59
142.778	361.749
146.153	326.253
149.528	293.742
152.902	264.282
156.277	216.477
159.652	259.066
163.027	201.779
166.402	203.342
169.776	165.558
173.151	142.774
176.526	113.026
179.901	73.5648
183.276	111.09
186.65	98.881
190.025	87.9319
193.4	22.7773
196.775	78.3195
200.15	8.79993
203.525	0.961914
206.899	12.1674
210.274	26.2649
213.649	1.15845
217.024	8.5083
220.399	5.54163
223.774	38.0776
227.148	29.4622
230.523	17.1584
233.898	44.2175
237.273	41.9645
240.648	148.906
244.022	133.576
247.397	148.847
250.772	146.947
254.147	139.79
257.522	176.363
260.896	195.192
264.271	130.947
267.646	152.097
271.021	175.182
274.396	198.711
277.771	251.659
281.145	243.411
284.52	257.75
287.895	251.709
291.27	251.94
294.645	274.623
298.019	346.07
301.394	359.307
304.769	405.336
308.144	379.786
311.519	365.44
314.893	197.555
318.268	84.47
321.643	33.6586
325.018	23.2698
328.393	56.6199
331.767	27.7425
335.142	20.9421
338.517	14.5359
341.892	1.3432
345.267	10.9537
348.642	12.2147
352.016	15.6897
355.391	8.50085
358.766	4.68378
362.141	29.7825
365.516	31.6696
368.89	29.543
372.265	51.6763
375.64	16.4319
379.015	79.6973
382.39	31.689
385.765	57.8003
389.139	71.5639
392.514	53.5542
395.889	85.4467
399.264	51.6875
402.639	66.2816
406.013	77.3188
409.388	39.8134
412.763	46.2117
416.138	46.5431
419.513	43.136
422.887	57.7979
426.262	63.7028
429.637	19.8886
433.012	32.78
436.387	12.9723
439.762	8.60748
443.136	59.6893
446.511	34.7358
449.886	25.0722
453.261	32.8184
456.636	42.9676
460.01	29.0511
463.385	29.382
466.76	46.6593
470.135	25.9024
473.51	4.53369
476.885	65.017
480.259	14.2378
483.634	27.943
487.009	53.3852
490.384	32.4738
493.759	27.5744
497.133	16.5906
500.508	16.9726
503.883	54.2688
507.258	36.8175
510.633	3.84213
514.008	12.6385
517.382	44.986
520.757	37.1497
524.132	39.6146
527.507	29.4652
530.882	15.4952
534.256	37.1273
537.631	21.1594
541.006	31.1783
544.381	4.59232
547.756	20.6719
551.13	19.3513
554.505	23.3788
557.88	45.748
561.255	5.74338
564.63	30.2152
568.005	13.585
571.379	23.527
574.754	11.6693
578.129	7.18216
581.504	32.4646
584.879	22.0564
588.253	36.2254
591.628	24.1018
595.003	23.7646
598.378	22.3819
601.753	46.3843
605.128	17.7779
608.502	25.2772
611.877	9.55194
615.252	5.92908
618.627	39.5472
622.001	27.1932
625.376	34.4829
628.751	42.8362
632.126	44.6177
635.501	35.2961
638.876	44.0972
642.25	33.4876
645.625	6.92627
649	42.1207
652.375	10.1774
655.75	14.7638
659.125	22.3265
662.499	33.0332
665.874	10.9335
669.249	24.0991
672.624	1.25906
675.999	32.7987
679.373	40.6439
682.748	53.1918
686.123	37.7329
689.498	46.2747
692.873	37.7064
696.247	11.063
699.622	16.5459
702.997	22.1992
706.372	31.2402
709.747	45.2348
713.121	24.2338
716.496	29.2926
719.871	25.0963
723.246	59.2748
726.621	5.75626
729.996	28.1057
733.37	18.2578
736.745	19.8846
740.12	18.0207
743.495	28.1222
746.87	37.7844
750.245	7.11978
753.619	18.6126
756.994	27.1395
760.369	47.3807
763.744	37.7223
767.119	19.3642
770.493	53.9968
773.868	42.8196
777.243	41.0229
780.618	42.6469
783.993	34.2588
787.367	45.0612
790.742	27.0531
794.117	4.71628
797.492	39.7275
800.867	7.89056
804.241	26.6859
807.616	39.4015
810.991	24.6215
814.366	7.33377
817.741	9.50687
821.116	16.7862
824.49	79.8512
827.865	37.7426
831.24	27.7438
834.615	47.7929
837.99	44.0549
841.365	58.1374
844.739	43.9113
848.114	26.0727
851.489	23.3525
854.864	38.6663
858.239	17.2948
861.613	43.06
864.988	45.5879
868.363	57.3051
871.738	70.3121
875.113	39.8144
878.487	51.6636
881.862	8.11029
885.237	58.3564
888.612	53.6242
891.987	52.8728
895.361	23.7459
898.736	5.47986
902.111	59.6614
905.486	10.7823
908.861	21.8947
912.236	8.19312
915.61	30.3778
918.985	29.2136
922.36	0.427307
925.735	31.9112
929.11	28.2238
932.485	10.7104
935.859	1.77176
939.234	5.38434
942.609	34.561
945.984	32.6141
949.359	19.1653
952.733	49.3706
956.108	17.378
959.483	8.57709
962.858	36.3514
966.233	42.4846
969.607	74.8178
972.982	28.8775
976.357	49.6858
979.732	22.8302
983.107	63.7306
986.481	32.9113
989.856	18.5088
993.231	59.0204
996.606	46.2867
999.981	25.7996
1003.36	35.5041
1006.73	35.2105
1010.11	49.7577
1013.48	30.1786
1016.86	20.4677
1020.23	41.2423
1023.6	45.8259
1026.98	27.0084
1030.35	12.9298
1033.73	34.0238
1037.1	2.80035
1040.48	18.8556
1043.85	54.5435
1047.23	32.2006
1050.6	16.4777
1053.98	83.7672
1057.35	38.1083
1060.73	50.3362
1064.1	51.4348
1067.48	7.08859
1070.85	58.4987
1074.23	17.8128
1077.6	7.08148
1080.98	51.5353
1084.35	21.4891
1087.73	4.59445
1091.1	32.6679
1094.48	17.8638
1097.85	16.3847
1101.22	18.3089
1104.6	35.1982
1107.97	15.876
1111.35	51.1944
1114.72	6.68909
1118.1	45.8105
1121.47	10.6511
1124.85	15.5689
1128.22	37.1401
1131.6	24.7511
1134.97	11.4421
1138.35	15.4149
1141.72	27.2619
1145.1	40.017
1148.47	8.79102
1151.85	31.476
1155.22	75.7054
1158.6	55.0158
1161.97	83.5125
1165.35	49.2334
1168.72	67.3099
1172.1	67.8904
1175.47	37.5698
1178.85	48.1404
1182.22	27.3439
1185.6	62.9959
1188.97	19.8417
1192.35	79.763
1195.72	42.9306
1199.1	14.3536
1202.47	28.6564
1205.84	37.943
1209.22	49.0128
1212.59	55.6339
1215.97	17.8867
1219.34	24.1296
1222.72	24.7412
1226.09	6.77179
1229.47	5.41809
1232.84	52.7013
1236.22	17.173
1239.59	5.83557
1242.97	4.60541
1246.34	14.7918
1249.72	27.6351
1253.09	45.3755
1256.47	28.0504
1259.84	49.4699
1263.22	30.1309
1266.59	30.7292
1269.97	19.8797
1273.34	8.77216
1276.72	23.8534
1280.09	22.2252
1283.46	42.0436
1286.84	26.1666
1290.21	75.832
1293.59	14.6957
1296.96	7.49878
