Measurement: Raman, 532 nm, unoriented, Raman Data Processed
Mineral: Ardealite
Rruff sample: R060233
Ideal chemistry: Ca_2_(PO_3_OH)(S^6+^O_4_)4H_2_O
Locality: Moorba Cave, Jurien Bay, Western Australia, Australia
Source: Michael Scott
Description: Tan colored powder
Measured chemistry: (Ca_1.98_Fe_0.02_)_Σ=2_(HP_1.00_O_4_)(S_1.00_O_4_)·4H_2_O ; H not measured but assumed
Raman shift (cm-1)	intensity
215.982	0
218.875	54.9121
221.768	47.0605
224.66	121.539
227.553	151.166
230.446	132.648
233.338	9.49805
236.231	2.52734
239.124	26.2168
242.016	48.2383
244.909	155.502
247.802	170.035
250.695	133.879
253.587	177.416
256.48	193.217
259.373	188.418
262.265	175.881
265.158	114.68
268.051	97.5664
270.943	58.3594
273.836	110.027
276.729	100.127
279.622	115.127
282.514	52.4609
285.407	36.9102
288.3	24.5879
291.192	36.8301
294.085	131.818
296.978	148.404
299.87	61.2344
302.763	44.7402
305.656	79.2891
308.548	112.113
311.441	129.223
314.334	98.2578
317.227	111.932
320.119	102.504
323.012	52.2969
325.905	39.6133
328.797	86.4199
331.69	103.193
334.583	74.1836
337.476	144.912
340.368	182.293
343.261	124.178
346.154	107.312
349.046	139.16
351.939	183.43
354.832	181.481
357.724	162.246
360.617	165.617
363.51	225.973
366.402	253.527
369.295	198.652
372.188	80.3086
375.08	67.3203
377.973	36.9336
380.866	42.8789
383.759	10.8906
386.651	10.9844
389.544	46.8203
392.437	96.7266
395.329	74.4648
398.222	128.391
401.115	141.906
404.007	98.2031
406.9	74.6094
409.793	80.7656
412.686	196.227
415.578	238.527
418.471	193.109
421.364	184.133
424.256	245.469
427.149	75.3828
430.042	62.6641
432.935	47.4922
435.827	12.25
438.72	17.1719
441.613	42.2812
444.505	115.164
447.398	117.113
450.291	81.6484
453.183	70.2969
456.076	50.207
458.969	146.977
461.861	113.961
464.754	127.035
467.647	55.3516
470.54	38.8477
473.432	38.9648
476.325	101.07
479.218	74.3516
482.11	49.5898
485.003	101.109
487.896	165.148
490.788	230.512
493.681	216.758
496.574	184.832
499.467	188.086
502.359	186.414
505.252	209.68
508.145	193.828
511.037	217.027
513.93	160.41
516.823	121.434
519.716	52.5352
522.608	4.25391
525.501	20.9258
528.394	113.008
531.286	99.6406
534.179	136.969
537.072	105.141
539.964	43.2539
542.857	58.2852
545.75	141.441
548.643	79.7031
551.535	123.934
554.428	43.3906
557.321	4.25
560.213	2.44922
563.106	27.8906
565.999	8.21094
568.891	30.5078
571.784	20.5586
574.677	47.7344
577.569	57.6367
580.462	79.8125
583.355	121.492
586.248	68.3828
589.14	185.894
592.033	166.902
594.926	107.394
597.818	88.957
600.711	222.856
603.604	303.879
606.496	352.754
609.389	333.481
612.282	242.219
615.175	153.5
618.067	106.18
620.96	70.0508
623.853	25.0742
626.745	73.0547
629.638	31.2617
632.531	32.2734
635.423	43.3359
638.316	166.32
641.209	172.523
644.102	103.023
646.994	68.0039
649.887	73.8828
652.78	97.8555
655.672	213.879
658.565	169.332
661.458	219.93
664.351	214.023
667.243	210.617
670.136	285.973
673.029	208.352
675.921	207.644
678.814	104.402
681.707	48.9727
684.599	49.4219
687.492	9.72266
690.385	133.637
693.278	233.023
696.17	202.945
699.063	270.809
701.956	249.516
704.848	139.961
707.741	119.527
710.634	109.367
713.526	115.297
716.419	135.758
719.312	135.394
722.205	210.758
725.097	230.699
727.99	151.09
730.883	173.32
733.775	84.625
736.668	64.4805
739.561	46.5117
742.453	2.50781
745.346	8.76953
748.239	73.4297
751.131	14.4766
754.024	5.01953
756.917	21.6836
759.81	100.547
762.702	27.3594
765.595	96.25
768.488	53.9023
771.38	35.7578
774.273	40.3359
777.166	100.047
780.058	87.875
782.951	148.164
785.844	151.203
788.736	92.9258
791.629	152.633
794.522	132.664
797.415	140.957
800.307	176.34
803.2	247.168
806.093	163.828
808.985	117.492
811.878	7.57422
814.771	59.668
817.663	113.301
820.556	86.875
823.449	177.086
826.342	91.0391
829.234	106.5
832.127	83.8984
835.02	8.66797
837.912	22.1797
840.805	66.5273
843.698	99.9297
846.591	109.004
849.483	91.8945
852.376	44.7617
855.269	69.2695
858.161	96.3086
861.054	174.082
863.947	262.293
866.839	259.043
869.732	161.371
872.625	128.469
875.518	143.797
878.41	166.633
881.303	130.984
884.196	64.1953
887.088	13.3711
889.981	162.34
892.874	162.496
895.766	71.8984
898.659	2.36719
901.552	70.3281
904.444	148.586
907.337	147.809
910.23	145.676
913.123	91.2852
916.015	28.1797
918.908	67.9062
921.801	19.3906
924.693	16.3086
927.586	74.2266
930.479	118.016
933.371	73.4961
936.264	53.7578
939.157	51.8828
942.05	72.6562
944.942	73.8945
947.835	32.9453
950.728	13.0273
953.62	52.0742
956.513	23.5117
959.406	2.94531
962.298	14.6133
965.191	10.1992
968.084	59.6055
970.977	21.3086
973.869	81.3906
976.762	84.9805
979.655	210.481
982.547	250.371
985.44	278.57
988.333	496.703
991.226	813.316
994.118	1170.93
997.011	1655.27
999.904	2043.03
1002.8	2328.58
1005.69	1864.66
1008.58	1154.07
1011.47	662.031
1014.37	370.762
1017.26	292.941
1020.15	354.965
1023.04	351.848
1025.94	230.297
1028.83	236.512
1031.72	51.5352
1034.62	70.9609
1037.51	248.305
1040.4	83.3125
1043.29	44.5859
1046.19	30.5938
1049.08	20.3125
1051.97	177.988
1054.87	231.453
1057.76	122.043
1060.65	39.0625
1063.54	74.293
1066.44	29.3711
1069.33	25.7812
1072.22	95.6367
1075.11	9.08203
1078.01	48.3906
1080.9	16.7031
1083.79	1.69141
1086.68	138.445
1089.58	166.144
1092.47	237.379
1095.36	354.688
1098.26	357.519
1101.15	316.242
1104.04	148.199
1106.93	231.934
1109.83	230.734
1112.72	371.188
1115.61	238.996
1118.5	229.75
1121.4	292.973
1124.29	239.617
1127.18	121.793
1130.08	262.113
1132.97	254.059
1135.86	394.375
1138.75	399.144
1141.65	414.394
1144.54	394.609
1147.43	388.848
1150.32	401.051
1153.22	356.137
1156.11	287.445
1159	209.606
1161.89	164.91
1164.79	178.18
1167.68	119.062
1170.57	82.6445
1173.47	131.824
1176.36	128.129
1179.25	39.7461
1182.14	136.434
1185.04	34.5977
1187.93	88.2773
1190.82	21.6836
1193.71	153.031
1196.61	94.6758
1199.5	151.894
1202.39	23.5781
1205.29	24.168
1208.18	108.008
1211.07	169.918
1213.96	169.594
1216.86	173.559
1219.75	147.461
1222.64	258.754
1225.53	248.023
1228.43	196.746
1231.32	89.8477
1234.21	49.5938
1237.11	84.5703
1240	85.332
1242.89	330.773
1245.78	278.988
1248.68	135.641
1251.57	13.2227
1254.46	92.5195
1257.35	101.441
1260.25	219.387
1263.14	240.676
1266.03	134.113
1268.92	164.746
1271.82	164.172
1274.71	147.144
1277.6	68.9844
1280.49	32.6914
1283.39	82.8477
1286.28	27.8477
1289.17	72.5586
1292.07	67.3008
1294.96	36.0664
1297.85	47.7188
1300.74	205.731
1303.64	149.496
