Measurement: Raman, 780 nm, unoriented, Raman Data Processed
Mineral: Ardealite
Rruff sample: R060233
Ideal chemistry: Ca_2_(PO_3_OH)(S^6+^O_4_)4H_2_O
Locality: Moorba Cave, Jurien Bay, Western Australia, Australia
Source: Michael Scott
Description: Tan colored powder
Measured chemistry: (Ca_1.98_Fe_0.02_)_Σ=2_(HP_1.00_O_4_)(S_1.00_O_4_)·4H_2_O ; H not measured but assumed
Raman shift (cm-1)	intensity
107.255	0
110.63	8.30211
114.004	14.257
117.379	35.899
120.754	32.5645
124.129	72.3312
127.504	25.5009
130.879	13.7032
134.253	4.78673
137.628	23.3645
141.003	32.5365
144.378	33.3519
147.753	31.7552
151.127	41.2395
154.502	51.9408
157.877	49.9881
161.252	48.7919
164.627	72.2923
168.002	40.4534
171.376	37.8134
174.751	31.6441
178.126	37.6241
181.501	37.3569
184.876	53.6488
188.25	48.1786
191.625	36.1609
195	43.7339
198.375	39.2869
201.75	9.96867
205.125	17.0935
208.499	30.1465
211.874	1.31842
215.249	13.4152
218.624	6.45674
221.999	12.6357
225.374	21.5158
228.748	25.5598
232.123	24.3614
235.498	5.99201
238.873	27.637
242.248	1.94928
245.622	0.72412
248.997	21.106
252.372	18.6063
255.747	8.92884
259.122	11.7252
262.496	19.7925
265.871	11.6148
269.246	25.8639
272.621	17.4519
275.996	9.93995
279.37	7.93605
282.745	10.2833
286.12	3.44342
289.495	15.0724
292.87	25.1442
296.245	0.259695
299.619	7.00577
302.994	5.66997
306.369	4.65674
309.744	6.44774
313.119	0.427693
316.493	14.3116
319.868	9.47507
323.243	32.8444
326.618	23.5477
329.993	17.6895
333.368	0.612568
336.742	27.9849
340.117	26.2051
343.492	17.776
346.867	10.5979
350.242	30.1304
353.616	24.0802
356.991	47.5589
360.366	36.3577
363.741	33.9543
367.116	28.0714
370.491	46.3243
373.865	8.98723
377.24	10.9814
380.615	8.57551
383.99	1.87112
387.365	2.63354
390.74	3.71585
394.114	1.70893
397.489	2.1482
400.864	16.2451
404.239	14.7815
407.614	30.4775
410.988	22.984
414.363	32.1482
417.738	27.2469
421.113	39.4278
424.488	45.3103
427.863	25.9458
431.237	21.1737
434.612	22.4152
437.987	18.9856
441.362	12.1031
444.736	24.5179
448.111	32.7736
451.486	30.5878
454.861	38.6589
458.236	24.3964
461.611	28.1763
464.985	20.1294
468.36	19.0531
471.735	1.13386
475.11	23.3853
478.485	24.8435
481.86	18.5781
485.234	24.9493
488.609	23.8523
491.984	37.2669
495.359	51.9832
498.734	47.8029
502.108	26.137
505.483	42.1667
508.858	29.4113
512.233	23.3155
515.608	38.4656
518.982	2.66853
522.357	8.56441
525.732	3.22896
529.107	27.4508
532.482	13.8246
535.857	14.4822
539.231	0.165858
542.606	0.65769
545.981	2.19463
549.356	2.76195
552.731	9.66792
556.106	10.8274
559.48	2.36733
562.855	1.75636
566.23	6.69373
569.605	11.8686
572.98	17.0075
576.354	12.3747
579.729	13.5611
583.104	17.1511
586.479	53.3972
589.854	23.0632
593.229	35.6967
596.603	28.8892
599.978	29.2356
603.353	55.5503
606.728	44.5654
610.102	28.999
613.477	21.2426
616.852	20.6539
620.227	28.2325
623.602	16.2278
626.977	11.4706
630.351	12.605
633.726	16.7496
637.101	10.5449
640.476	16.3567
643.851	7.13353
647.226	10.4313
650.6	24.2909
653.975	4.27455
657.35	5.59385
660.725	4.17308
664.1	6.47543
667.474	15.1051
670.849	10.986
674.224	8.35399
677.599	0.478218
680.974	12.014
684.348	7.94161
687.723	7.44728
691.098	23.2159
694.473	1.24507
697.848	0.659588
701.223	9.73147
704.597	7.67884
707.972	17.0417
711.347	30.0293
714.722	15.5962
718.097	11.8518
721.471	19.7794
724.846	18.2696
728.221	11.5082
731.596	53.646
734.971	16.6257
738.346	21.5657
741.72	24.6928
745.095	6.63257
748.47	21.1985
751.845	21.2365
755.22	0.761256
758.595	2.00786
761.969	6.02215
765.344	3.91368
768.719	15.043
772.094	22.4691
775.469	2.49195
778.843	10.5622
782.218	8.45721
785.593	0.031699
788.968	3.79246
792.343	47.3687
795.717	33.5175
799.092	10.9374
802.467	5.37058
805.842	20.3133
809.217	23.9012
812.592	36.7308
815.966	24.173
819.341	29.4185
822.716	32.5978
826.091	13.0692
829.466	8.18084
832.84	22.7523
836.215	18.9703
839.59	17.2754
842.965	19.9037
846.34	16.2444
849.715	19.5598
853.089	20.8873
856.464	35.4564
859.839	37.1488
863.214	24.0689
866.589	40.3042
869.963	26.6169
873.338	11.1703
876.713	11.3968
880.088	5.73034
883.463	17.048
886.837	55.8455
890.212	3.90082
893.587	2.02425
896.962	0.997976
900.337	26.2124
903.712	0.726499
907.086	13.6533
910.461	1.26051
913.836	1.79179
917.211	6.19892
920.586	4.12586
923.96	4.99729
927.335	7.95306
930.71	2.63866
934.085	15.1484
937.46	23.0785
940.835	3.11435
944.209	7.1939
947.584	8.65778
950.959	3.74737
954.334	5.91769
957.709	1.35875
961.083	7.31701
964.458	1.75225
967.833	17.2226
971.208	4.66667
974.583	1.47231
977.957	0.551018
981.332	26.7752
984.707	32.3786
988.082	68.016
991.457	139.28
994.832	230.165
998.206	315.436
1001.58	373.826
1004.96	241.896
1008.33	110.071
1011.71	50.8869
1015.08	36.7817
1018.46	28.8757
1021.83	11.0473
1025.2	11.2522
1028.58	0.947392
1031.95	10.4708
1035.33	0.966731
1038.7	12.2852
1042.08	8.05153
1045.45	18.8169
1048.83	13.516
1052.2	0.807322
1055.58	25.1307
1058.95	37.9051
1062.33	20.7536
1065.7	13.5506
1069.08	3.1766
1072.45	11.8314
1075.83	0.777259
1079.2	0.275327
1082.58	13.7839
1085.95	15.3488
1089.33	33.2825
1092.7	24.2413
1096.08	20.726
1099.45	12.2749
1102.83	10.3316
1106.2	0.910824
1109.58	23.8161
1112.95	1.81627
1116.33	4.84408
1119.7	1.87181
1123.08	18.776
1126.45	25.2272
1129.82	33.7692
1133.2	27.8474
1136.57	33.5938
1139.95	36.7964
1143.32	24.1703
1146.7	34.4128
1150.07	16.431
1153.45	17.6178
1156.82	13.2152
1160.2	10.4253
1163.57	21.9828
1166.95	22.1499
1170.32	22.231
1173.7	31.8514
1177.07	12.6934
1180.45	32.0038
1183.82	10.9754
1187.2	22.3552
1190.57	26.6785
1193.95	15.6545
1197.32	18.0978
1200.69	13.2166
1204.07	21.0535
1207.44	7.11628
1210.82	0.484856
1214.19	8.22811
1217.57	7.02486
1220.94	2.45813
1224.32	16.3603
1227.69	31.5842
1231.07	0.825952
1234.44	0.434069
1237.82	3.09829
1241.19	0.017465
1244.57	3.89133
1247.94	0.962161
1251.32	1.93394
1254.69	4.36095
1258.07	2.38891
1261.44	16.727
1264.82	34.1765
1268.19	13.9122
1271.57	6.07483
1274.94	10.6365
1278.32	4.43601
1281.69	13.2593
1285.07	0
