Measurement: Raman, 785 nm, unoriented, Raman Data Processed
Mineral: Arfvedsonite
Rruff sample: R040127
Ideal chemistry: NaNa_2_(Fe^2+^_4_Fe^3+^)Si_8_O_22_(OH)_2_
Locality: Mont Saint-Hilaire, Rouville County, Quebec, Canada
Source: Bob Downs
Description: Black prismatic crystal associated with white analcime, R040128
Measured chemistry: (Na_0.61_K_0.39_)Na_2.00_(Fe^2+^_2.40_Mg_0.80_Mn_0.75_Ca_0.05_)_=4_(Fe^3+^_0.60_Al_0.25_Mn_0.15_)(Si_0.99_Ti_0.01_)_8_O_22_((OH)_0.67_F_0.33_)_2_
Raman shift (cm-1)	intensity
158.142	0
161.035	163.993
163.928	200.444
166.821	191.502
169.713	99.4628
172.606	84.5996
175.499	54.7335
178.391	3.74927
181.284	28.8344
184.177	38.8424
187.069	112.599
189.962	151.202
192.855	195.729
195.748	192.366
198.64	173.579
201.533	161.821
204.426	156.02
207.318	92.7387
210.211	94.7704
213.104	42.0217
215.996	98.2096
218.889	49.7808
221.782	93.6762
224.674	65.3939
227.567	44.1647
230.46	36.5453
233.353	20.7345
236.245	19.3143
239.138	34.2111
242.031	42.0171
244.923	3.28479
247.816	33.8792
250.709	9.4198
253.601	26.8649
256.494	7.59582
259.387	44.45
262.28	18.542
265.172	18.1508
268.065	0.934204
270.958	14.0315
273.85	19.7136
276.743	30.5452
279.636	31.3645
282.529	52.7526
285.421	45.7775
288.314	80.5773
291.207	80.6123
294.099	104.378
296.992	127.806
299.885	126.003
302.777	108.82
305.67	130.007
308.563	121.12
311.455	123.394
314.348	96.184
317.241	59.6359
320.134	26.941
323.026	1.23767
325.919	24.1204
328.812	7.81055
331.704	20.1688
334.597	8.92835
337.49	19.493
340.382	16.3203
343.275	46.3245
346.168	62.9054
349.061	63.3
351.953	105.894
354.846	82.3554
357.739	129.397
360.631	121.387
363.524	121.339
366.417	149.002
369.31	159.741
372.202	187.483
375.095	216.592
377.988	200.22
380.88	211.846
383.773	178.417
386.666	172.56
389.558	113.402
392.451	95.311
395.344	73.4105
398.236	47.0169
401.129	23.0143
404.022	27.9851
406.915	9.96057
409.807	9.21875
412.7	47.6312
415.593	46.0305
418.485	73.4272
421.378	71.5476
424.271	101.206
427.163	75.1636
430.056	104.052
432.949	92.2275
435.842	74.8804
438.734	69.5101
441.627	62.0087
444.52	45.8304
447.412	43.2617
450.305	10.4139
453.198	23.9297
456.091	22.8904
458.983	12.2997
461.876	1.62769
464.769	1.20776
467.661	22.742
470.554	13.5422
473.447	9.39209
476.339	10.9598
479.232	19.1291
482.125	1.87097
485.017	42.2713
487.91	58.0914
490.803	75.9253
493.696	106.559
496.588	133.407
499.481	132.361
502.374	143.858
505.266	202.049
508.159	214.918
511.052	234.094
513.944	283.315
516.837	326.583
519.73	377.393
522.623	403.055
525.515	489.608
528.408	561.536
531.301	587.465
534.193	657.651
537.086	659.037
539.979	607.684
542.871	606.709
545.764	593.841
548.657	579.737
551.55	573.4
554.442	551.883
557.335	532.551
560.228	505.382
563.12	525.282
566.013	490.15
568.906	443.66
571.798	432.057
574.691	376.726
577.584	320.96
580.477	234.305
583.369	164.377
586.262	132.296
589.155	79.2468
592.047	67.079
594.94	34.4279
597.833	3.0481
600.726	27.7602
603.618	1.8335
606.511	11.6933
609.404	6.75177
612.296	8.48834
615.189	8.13232
618.082	3.23389
620.974	0.130493
623.867	4.18164
626.76	38.0695
629.653	1.61017
632.545	7.45306
635.438	13.8211
638.331	23.1672
641.223	18.4615
644.116	17.0152
647.009	37.6491
649.901	24.5669
652.794	56.2689
655.687	51.5945
658.58	83.2568
661.472	104.769
664.365	127.101
667.258	210.606
670.15	240.617
673.043	279.436
675.936	282.659
678.828	195.752
681.721	153.393
684.614	105.027
687.506	60.0273
690.399	64.692
693.292	41.2237
696.185	71.8908
699.077	76.9975
701.97	63.0297
704.863	35.2089
707.755	94.4952
710.648	45.8241
713.541	33.3112
716.433	49.4135
719.326	50.4974
722.219	48.5455
725.112	42.6824
728.004	59.1396
730.897	49.623
733.79	46.9582
736.682	50.1608
739.575	73.8753
742.468	70.1464
745.361	43.7627
748.253	27.9854
751.146	26.4937
754.039	4.99829
756.931	43.4389
759.824	38.9578
762.717	11.7681
765.609	10.6442
768.502	10.9014
771.395	15.082
774.288	5.94458
777.18	22.4438
780.073	17.3134
782.966	32.5839
785.858	11.7281
788.751	21.3561
791.644	25.1976
794.536	11.4006
797.429	4.16266
800.322	15.1842
803.215	10.7122
806.107	22.7476
809	8.539
811.893	15.4535
814.785	7.84253
817.678	17.8851
820.571	23.4026
823.463	11.5026
826.356	10.5424
829.249	6.53095
832.141	23.0187
835.034	1.27765
837.927	6.43109
840.82	17.6273
843.712	23.7059
846.605	20.7398
849.498	25.9819
852.39	56.9141
855.283	37.0177
858.176	38.1965
861.068	55.5493
863.961	40.9518
866.854	44.3429
869.747	44.5132
872.639	75.9421
875.532	66.8072
878.425	67.6663
881.317	73.0076
884.21	84.0129
887.103	116.153
889.995	114.096
892.888	57.6281
895.781	98.7075
898.674	79.8837
901.566	56.4446
904.459	72.84
907.352	44.9797
910.244	28.3236
913.137	46.697
916.03	20.1101
918.923	36.7216
921.815	34.9771
924.708	27.052
927.601	33.4564
930.493	17.8807
933.386	9.81482
936.279	0.101196
939.171	13.4534
942.064	1.32867
944.957	4.52454
947.85	5.77734
950.742	12.2926
953.635	35.9701
956.528	8.21826
959.42	23.5488
962.313	21.1088
965.206	56.5308
968.098	47.7635
970.991	63.7011
973.884	79.9935
976.777	77.7484
979.669	102.047
982.562	99.198
985.455	106.3
988.347	85.4833
991.24	88.0023
994.133	68.3538
997.025	47.9529
999.918	42.89
1002.81	48.5649
1005.7	57.8279
1008.6	46.3976
1011.49	68.8841
1014.38	79.5359
1017.27	61.3514
1020.17	40.5231
1023.06	34.3426
1025.95	39.2604
1028.85	32.6692
1031.74	45.1078
1034.63	60.8907
1037.52	20.971
1040.42	67.2675
1043.31	65.9426
1046.2	54.7611
1049.09	86.155
1051.99	60.5221
1054.88	90.1162
1057.77	84.7283
1060.66	97.7256
1063.56	89.4603
1066.45	61.5649
1069.34	69.5841
1072.24	76.0541
1075.13	59.1715
1078.02	77.307
1080.91	65.1252
1083.81	74.6912
1086.7	91.3872
1089.59	67.0743
1092.48	53.9019
1095.38	74.7237
1098.27	92.7557
1101.16	73.9715
1104.06	57.2689
1106.95	48.7946
1109.84	59.0813
1112.73	55.1735
1115.63	41.4163
1118.52	37.1955
1121.41	7.02673
1124.3	12.5717
1127.2	29.1985
1130.09	9.89325
1132.98	1.75684
1135.88	30.4436
1138.77	11.0866
1141.66	5.97626
1144.55	2.1875
1147.45	2.71606
1150.34	5.43506
1153.23	16.243
1156.12	2.61218
1159.02	7.96497
1161.91	25.8085
1164.8	1.69958
1167.69	9.10437
1170.59	21.9054
1173.48	11.1152
1176.37	23.5069
1179.27	29.5547
1182.16	36.7469
1185.05	33.5857
1187.94	34.6402
1190.84	30.5845
1193.73	39.8737
1196.62	33.6697
1199.51	13.7869
1202.41	19.1075
1205.3	15.7124
1208.19	31.77
1211.09	28.1669
1213.98	45.5251
1216.87	16.9361
1219.76	8.30102
1222.66	31.0906
1225.55	28.0435
1228.44	0.442017
