Measurement: Raman, 532 nm, unoriented, Raman Data Processed
Mineral: Arfvedsonite
Rruff sample: R040127
Ideal chemistry: NaNa_2_(Fe^2+^_4_Fe^3+^)Si_8_O_22_(OH)_2_
Locality: Mont Saint-Hilaire, Rouville County, Quebec, Canada
Source: Bob Downs
Description: Black prismatic crystal associated with white analcime, R040128
Measured chemistry: (Na_0.61_K_0.39_)Na_2.00_(Fe^2+^_2.40_Mg_0.80_Mn_0.75_Ca_0.05_)_=4_(Fe^3+^_0.60_Al_0.25_Mn_0.15_)(Si_0.99_Ti_0.01_)_8_O_22_((OH)_0.67_F_0.33_)_2_
Raman shift (cm-1)	intensity
151.59	0
154.483	12.5363
157.376	19.21
160.268	40.5181
163.161	80.0286
166.054	90.0055
168.946	93.7767
171.839	71.081
174.732	45.2266
177.625	22.6466
180.517	6.21875
183.41	40.7382
186.303	84.337
189.195	115.11
192.088	131.328
194.981	172.278
197.874	199.022
200.766	192.254
203.659	208.916
206.552	160.515
209.444	125.685
212.337	122.02
215.23	120.352
218.122	106.249
221.015	93.2671
223.908	76.7949
226.8	78.7563
229.693	66.2259
232.586	79.1388
235.479	90.5402
238.371	88.0546
241.264	98.8642
244.157	80.8592
247.049	96.3445
249.942	81.5625
252.835	65.6835
255.727	49.4622
258.62	50.482
261.513	23.8861
264.406	51.1617
267.298	42.4587
270.191	1.42151
273.084	6.61261
275.976	12.2465
278.869	15.2142
281.762	9.54102
284.655	2.08978
287.547	1.40033
290.44	12.3055
293.333	12.8612
296.225	8.18365
299.118	24.0399
302.011	34.8878
304.904	39.4051
307.796	53.4953
310.689	37.3681
313.582	72.5372
316.474	65.4293
319.367	63.5189
322.26	49.0013
325.152	49.0112
328.045	52.6555
330.938	51.5146
333.83	59.4044
336.723	74.8983
339.616	85.8617
342.509	114.022
345.401	162.593
348.294	194.498
351.187	207.369
354.079	214.494
356.972	221.402
359.865	206.153
362.757	168.662
365.65	150.668
368.543	137.485
371.436	136.223
374.328	111.85
377.221	114.95
380.114	77.9635
383.006	104.137
385.899	74.0137
388.792	59.2508
391.685	52.4507
394.577	36.6409
397.47	39.8587
400.363	6.26532
403.255	16.9816
406.148	16.3236
409.041	19.9736
411.933	25.3242
414.826	32.8102
417.719	67.7422
420.611	54.4694
423.504	59.7555
426.397	58.7565
429.29	31.4124
432.182	50.0711
435.075	34.5914
437.968	16.8636
440.86	34.4202
443.753	0.890656
446.646	10.8573
449.538	7.96304
452.431	10.1491
455.324	2.81949
458.217	3.92899
461.109	20.5403
464.002	26.1032
466.895	17.2905
469.787	12.8089
472.68	10.275
475.573	13.9353
478.466	18.6308
481.358	22.0269
484.251	1.91284
487.144	27.0249
490.036	55.4817
492.929	80.9177
495.822	65.2527
498.714	129.19
501.607	110.329
504.5	147.568
507.393	148.454
510.285	144.537
513.178	160.314
516.071	194.099
518.963	214.235
521.856	243.549
524.749	288.843
527.641	330.04
530.534	373.433
533.427	415.178
536.32	388.809
539.212	386.487
542.105	362.997
544.998	356.077
547.89	320.912
550.783	319.046
553.676	293.555
556.568	263.21
559.461	277.077
562.354	258.668
565.247	262.426
568.139	257.615
571.032	231.006
573.925	196.497
576.817	173.22
579.71	137.4
582.603	94.6075
585.495	72.201
588.388	65.6663
591.281	33.5337
594.174	18.6664
597.066	8.9213
599.959	17.5797
602.852	15.6205
605.744	17.4495
608.637	14.0826
611.53	20.4747
614.423	2.26315
617.315	8.46463
620.208	2.9722
623.101	11.0439
625.993	25.8091
628.886	6.86212
631.779	20.7937
634.671	5.61993
637.564	12.4281
640.457	29.7036
643.35	50.0103
646.242	36.0887
649.135	72.2175
652.028	55.1636
654.92	81.4954
657.813	96.0883
660.706	135.52
663.598	211.834
666.491	270.605
669.384	350.085
672.277	414.469
675.169	435.165
678.062	364.572
680.955	245.606
683.847	171.875
686.74	120.928
689.633	98.4216
692.525	83.5189
695.418	101.523
698.311	90.933
701.204	99.9573
704.096	103.469
706.989	110.148
709.882	109.899
712.774	106.25
715.667	111.686
718.56	117.67
721.452	123.677
724.345	112.297
727.238	105.697
730.131	108.408
733.023	112.666
735.916	99.8076
738.809	91.1427
741.701	50.9489
744.594	60.511
747.487	37.3909
750.38	45.0376
753.272	27.7508
756.165	44.8561
759.058	25.2349
761.95	3.90381
764.843	41.4037
767.736	25.7904
770.628	34.7717
773.521	19.8849
776.414	42.7385
779.307	47.5592
782.199	33.3596
785.092	39.6422
787.985	27.5084
790.877	23.6805
793.77	5.19492
796.663	13.6699
799.555	38.9082
802.448	17.4375
805.341	15.0028
808.234	2.10065
811.126	6.4808
814.019	8.83682
816.912	8.10397
819.804	8.76782
822.697	14.4058
825.59	10.8343
828.482	1.05969
831.375	6.7132
834.268	19.6172
837.16	12.4552
840.053	20.283
842.946	13.8974
845.839	27.1807
848.731	44.3578
851.624	36.7416
854.517	63.295
857.409	59.4069
860.302	83.5686
863.195	95.7268
866.087	105.76
868.98	150.568
871.873	165.856
874.766	190.299
877.658	197.319
880.551	214.485
883.444	213.347
886.337	213.716
889.229	177.81
892.122	202.896
895.015	136.667
897.907	146.006
900.8	134.624
903.693	123.234
906.585	128.973
909.478	82.8988
912.371	72.0072
915.264	56.3764
918.156	58.8541
921.049	39.9636
923.942	24.5499
926.834	22.4159
929.727	7.15625
932.62	2.07642
935.512	14.8348
938.405	3.05353
941.298	14.4849
944.191	31.6819
947.083	36.1621
949.976	40.2645
952.869	67.7059
955.761	69.8946
958.654	107.525
961.547	120.913
964.439	153.66
967.332	173.847
970.225	221.78
973.117	240.026
976.01	258.331
978.903	259.83
981.796	252.259
984.688	219.034
987.581	185.437
990.474	147.194
993.366	118.473
996.259	79.9369
999.152	63.7361
1002.04	26.0509
1004.94	34.4531
1007.83	32.7911
1010.72	46.3044
1013.62	32.3484
1016.51	36.7681
1019.4	11.4721
1022.29	17.5563
1025.19	11.0552
1028.08	2.96893
1030.97	3.94379
1033.86	8.83173
1036.76	2.50647
1039.65	3.77862
1042.54	17.8376
1045.43	25.3969
1048.33	18.3391
1051.22	25.2172
1054.11	10.3718
1057.01	33.0351
1059.9	35.7842
1062.79	35.1197
1065.68	28.5037
1068.58	42.5367
1071.47	49.6865
1074.36	65.8743
1077.26	62.0679
1080.15	62.3097
1083.04	64.7886
1085.93	53.0555
1088.83	55.8566
1091.72	87.5895
1094.61	90.4379
1097.5	57.2372
1100.4	62.8198
1103.29	65.4969
1106.18	64.6048
1109.07	66.7191
1111.97	41.4784
1114.86	50.0922
1117.75	31.5217
1120.64	55.1171
1123.54	44.0832
1126.43	45.6116
1129.32	40.6123
1132.22	32.9518
1135.11	34.4327
1138	35.6581
1140.89	33.6581
1143.79	22.6328
1146.68	41.5557
1149.57	31.2218
1152.46	22.5051
1155.36	0.248383
1158.25	7.4335
1161.14	2.10699
1164.04	1.146
1166.93	13.1946
1169.82	10.8604
1172.71	10.5821
1175.61	2.52295
1178.5	16.5578
1181.39	14.0875
1184.29	6.39429
1187.18	9.44714
1190.07	8.97742
1192.96	0.58606
1195.86	29.8916
1198.75	30.5989
1201.64	30.4247
1204.53	29.6548
1207.43	18.6378
1210.32	47.1272
1213.21	20.7245
1216.1	45.6718
1219	35.2432
1221.89	37.9387
1224.78	28.1616
1227.67	47.3443
1230.57	29.2339
1233.46	49.3239
1236.35	35.6163
1239.25	33.8501
1242.14	40.1342
1245.03	27.9514
1247.92	34.4135
1250.82	14.4785
1253.71	14.6643
1256.6	24.124
1259.49	15.8874
1262.39	39.4675
1265.28	18.4079
1268.17	11.9042
1271.07	11.9442
1273.96	20.3642
1276.85	35.6829
1279.74	40.5697
1282.64	14.5018
1285.53	10.623
1288.42	13.5165
1291.32	19.0024
1294.21	14.9691
1297.1	5.61456
