Measurement: Raman, 532 nm, unoriented, Raman Data Processed
Mineral: Arfvedsonite
Rruff sample: R050514
Ideal chemistry: NaNa_2_(Fe^2+^_4_Fe^3+^)Si_8_O_22_(OH)_2_
Locality: unknown
Source: Frank Hawthorne
Description: Small black fragments
Measured chemistry: (Na_2.44_K_0.22_Ca_0.17_[box]_0.17_)_Σ=3_(Fe^2+^_2.55_Fe^3+^_0.94_Mg_0.80_Mn_0.55_Ti_0.09_Al_0.07_)_Σ=5_(Si_7.81_Al_0.19_)_8_O_22_((OH)_1.40_F_0.60_)_Σ=2_
Raman shift (cm-1)	intensity
153.119	0
156.012	5.87454
158.905	0.637024
161.797	14.7701
164.69	19.2414
167.583	21.7703
170.475	20.2714
173.368	14.1825
176.261	15.6507
179.153	24.7148
182.046	30.8925
184.939	38.5497
187.832	50.2929
190.724	58.4768
193.617	61.8279
196.51	62.1086
199.402	61.6169
202.295	56.7689
205.188	49.7828
208.08	33.3741
210.973	36.5318
213.866	30.6088
216.758	27.0936
219.651	26.1468
222.544	19.5818
225.437	24.261
228.329	26.145
231.222	27.2664
234.115	34.688
237.007	38.0354
239.9	41.0768
242.793	39.6141
245.685	35.6383
248.578	30.2979
251.471	29.5472
254.364	22.4338
257.256	19.9113
260.149	15.1023
263.042	13.024
265.934	11.8844
268.827	7.7724
271.72	8.35861
274.613	7.69974
277.505	2.44586
280.398	2.64236
283.291	1.13696
286.183	1.64319
289.076	0.567017
291.969	0.980927
294.861	4.44385
297.754	6.03503
300.647	7.698
303.539	7.49997
306.432	17.7846
309.325	25.1216
312.218	20.7334
315.11	23.0908
318.003	19.4107
320.896	15.0321
323.788	14.484
326.681	16.7552
329.574	17.9137
332.466	24.9904
335.359	23.8077
338.252	33.4575
341.145	43.8497
344.037	44.5904
346.93	51.9759
349.823	58.3418
352.715	56.3512
355.608	58.2925
358.501	57.6008
361.394	53.8865
364.286	50.7231
367.179	47.1666
370.072	39.9629
372.964	30.4966
375.857	25.7881
378.75	25.0655
381.642	17.9111
384.535	14.2033
387.428	11.0501
390.32	9.918
393.213	5.13065
396.106	0.208649
398.999	2.78883
401.891	1.1253
404.784	0.666111
407.677	3.24782
410.569	2.36585
413.462	11.7599
416.355	8.72804
419.248	10.8068
422.14	9.3087
425.033	6.386
427.926	4.67676
430.818	5.8282
433.711	2.29604
436.604	3.13219
439.496	0.017502
442.389	0.404495
445.282	4.20907
448.174	3.3262
451.067	0.618881
453.96	1.46852
456.853	1.98633
459.745	0.128525
462.638	4.02068
465.531	7.29318
468.423	6.76791
471.316	8.60843
474.209	4.33447
477.101	4.49011
479.994	2.74188
482.887	5.18326
485.779	5.92218
488.672	4.80524
491.565	10.9529
494.458	15.6523
497.35	16.2516
500.243	16.6883
503.136	23.1511
506.028	30.1212
508.921	31.5537
511.814	37.2937
514.707	40.8505
517.599	50.2366
520.492	61.3124
523.385	72.3569
526.277	86.3218
529.17	93.6693
532.063	106.243
534.955	106.037
537.848	112.287
540.741	109.751
543.634	100.484
546.526	91.3187
549.419	86.2351
552.312	84.9733
555.204	83.1233
558.097	80.6091
560.99	79.7462
563.882	82.1058
566.775	80.0581
569.668	77.4096
572.561	72.358
575.453	57.2838
578.346	48.8188
581.239	36.3822
584.131	24.3536
587.024	14.3027
589.917	9.7023
592.809	5.82251
595.702	3.63753
598.595	2.10474
601.487	1.88237
604.38	0.945969
607.273	0.386429
610.166	1.95793
613.058	0.222031
615.951	0.998459
618.844	2.4827
621.736	2.15987
624.629	0.096497
627.522	7.28786
630.414	4.42224
633.307	7.80043
636.2	7.87637
639.093	16.2078
641.985	15.4138
644.878	24.4813
647.771	26.9576
650.663	39.2691
653.556	50.5032
656.449	64.3521
659.341	79.867
662.234	99.7147
665.127	117.305
668.02	133.482
670.912	135.511
673.805	131.263
676.698	107.483
679.59	82.7963
682.483	61.6198
685.376	42.9187
688.269	34.9554
691.161	27.188
694.054	19.7888
696.947	17.0097
699.839	18.3086
702.732	15.3092
705.625	11.9445
708.517	16.3948
711.41	13.4592
714.303	13.4214
717.196	13.6366
720.088	12.7175
722.981	11.2446
725.874	10.4762
728.766	10.4457
731.659	7.55994
734.552	9.69939
737.444	11.2977
740.337	7.74748
743.23	8.29593
746.122	8.99243
749.015	4.97415
751.908	4.93393
754.801	3.26198
757.693	5.28087
760.586	5.21487
763.479	4.88544
766.371	5.42011
769.264	1.9044
772.157	0.264526
775.049	1.95955
777.942	1.02135
780.835	3.44174
783.727	1.21628
786.62	0.922348
789.513	1.91243
792.406	0.419266
795.298	0.63916
798.191	1.16257
801.084	0.155533
803.976	0.727051
806.869	2.64267
809.762	2.47292
812.654	0.134094
815.547	2.11226
818.44	0.067856
821.333	0.544571
824.225	0.908829
827.118	8.20515
830.011	5.22716
832.903	1.85863
835.796	6.14348
838.689	1.51965
841.582	6.28644
844.474	4.57039
847.367	2.75214
850.26	2.90361
853.152	8.33639
856.045	8.37244
858.938	7.6716
861.83	12.1773
864.723	15.9711
867.616	17.6637
870.509	25.2603
873.401	24.8205
876.294	24.2926
879.187	26.6923
882.079	25.9954
884.972	22.4054
887.865	21.8093
890.757	21.4406
893.65	19.2535
896.543	18.143
899.436	12.5866
902.328	12.5734
905.221	12.9011
908.114	8.59819
911.006	5.75255
913.899	2.84638
916.792	3.54393
919.684	2.35031
922.577	2.51666
925.47	1.01768
928.362	0.116669
931.255	1.50319
934.148	6.31805
937.041	6.87444
939.933	13.8301
942.826	15.893
945.719	21.7847
948.611	30.2189
951.504	36.0217
954.397	42.0171
957.29	51.3243
960.182	59.0795
963.075	65.9467
965.968	68.2897
968.86	65.1189
971.753	60.052
974.646	56.3312
977.538	51.229
980.431	40.4395
983.324	31.9101
986.216	22.7829
989.109	16.4389
992.002	9.52713
994.895	4.04469
997.787	4.18578
1000.68	1.35429
1003.57	0.822983
1006.47	0.651199
1009.36	3.95337
1012.25	0.480133
1015.14	0.069962
1018.04	1.17006
1020.93	1.5918
1023.82	0.40152
1026.71	1.55086
1029.61	5.53842
1032.5	0.935928
1035.39	3.55246
1038.29	4.89793
1041.18	7.33742
1044.07	5.04617
1046.96	7.22964
1049.86	7.51718
1052.75	9.2208
1055.64	14.0404
1058.53	13.8717
1061.43	15.3049
1064.32	19.1644
1067.21	20.4232
1070.11	20.0021
1073	18.0088
1075.89	16.3063
1078.78	14.8195
1081.68	14.5912
1084.57	11.4442
1087.46	13.5496
1090.35	14.2273
1093.25	12.8136
1096.14	11.237
1099.03	10.0056
1101.92	11.8548
1104.82	8.05733
1107.71	8.28828
1110.6	7.99443
1113.49	8.86043
1116.39	12.5107
1119.28	10.148
1122.17	9.27065
1125.07	10.5388
1127.96	9.30977
1130.85	8.81281
1133.74	9.23912
1136.64	5.52429
1139.53	5.84502
1142.42	7.51939
1145.32	2.77223
1148.21	2.20499
1151.1	2.00583
1153.99	0.523041
1156.89	0.168793
1159.78	1.58746
1162.67	3.23119
1165.56	1.1438
1168.46	2.09416
1171.35	2.20714
1174.24	1.38124
1177.13	0.737122
1180.03	2.7975
1182.92	3.92055
1185.81	5.01141
1188.7	4.45541
1191.6	1.545
1194.49	4.99661
1197.38	5.56303
1200.28	3.51202
1203.17	6.32405
1206.06	7.61385
1208.95	3.53065
1211.85	6.81729
1214.74	5.64455
1217.63	6.43857
1220.53	7.1125
1223.42	7.99004
1226.31	4.4343
1229.2	4.97633
1232.1	4.06282
1234.99	4.71074
1237.88	2.6122
1240.77	0.939346
1243.67	2.86807
1246.56	4.11571
1249.45	3.96139
1252.35	2.63551
1255.24	3.11223
1258.13	1.7831
1261.02	1.44006
1263.92	3.49922
1266.81	4.22992
1269.7	4.14951
1272.59	4.05402
1275.49	0.277435
1278.38	1.17366
1281.27	3.24782
1284.16	4.01503
1287.06	2.34494
1289.95	3.50374
1292.84	1.26363
1295.73	2.48674
1298.63	0.903503
1301.52	1.58601
