Measurement: Raman, 785 nm, unoriented, Raman Data Processed
Mineral: Argentopyrite
Rruff sample: R070173
Ideal chemistry: Ag^1+^Fe_2_S^2-^_3_
Locality: St. Joachimsthal, Bohemia, Czech Republic
Source: Michael Scott
Description: Bronze and blue tarnished rectangular prisms associated with proustite
Raman shift (cm-1)	intensity
173.378	0
176.271	20.2324
179.163	2.8645
182.056	9.60913
184.949	20.1438
187.841	89.9456
190.734	52.4402
193.627	53.3672
196.52	70.1211
199.412	55.3889
202.305	134.255
205.198	93.1028
208.09	71.0232
210.983	51.1787
213.876	69.1172
216.768	119.045
219.661	71.5115
222.554	100.006
225.447	78.0132
228.339	44.4851
231.232	94.8635
234.125	55.7932
237.017	35.8218
239.91	7.88306
242.803	41.1187
245.696	67.2466
248.588	52.4202
251.481	9.36694
254.374	35.1418
257.266	42.9646
260.159	55.655
263.052	41.6299
265.945	43.9963
268.837	29.5034
271.73	10.8979
274.623	41.8745
277.515	22.5068
280.408	19.731
283.301	17.2578
286.193	25.873
289.086	14.7617
291.979	15.7632
294.872	29.7842
297.764	74.4482
300.657	132.103
303.55	119.997
306.442	257.759
309.335	328.523
312.228	396.375
315.12	472.437
318.013	515.19
320.906	447.555
323.798	375.889
326.691	444.242
329.584	507.384
332.476	614.11
335.369	758.625
338.262	986.637
341.155	990.962
344.047	499.446
346.94	346.045
349.833	219.817
352.725	218.321
355.618	294.516
358.511	262.305
361.404	290.153
364.296	266.26
367.189	283.159
370.082	291.428
372.974	298.392
375.867	340.449
378.76	344.135
381.652	315.135
384.545	249.137
387.438	72.0635
390.33	49.9468
393.223	67.9121
396.116	103.928
399.009	33.0176
401.901	9.55225
404.794	28.8682
407.687	15.438
410.579	41.1128
413.472	76.2129
416.365	114.744
419.257	105.144
422.15	122.69
425.043	133.843
427.936	159.376
430.828	140.136
433.721	110.657
436.614	57.6201
439.506	7.53076
442.399	19.9092
445.292	38.1992
448.185	20.7827
451.077	0.758789
453.97	69.8989
456.863	41.0762
459.755	9.17822
462.648	23.335
465.541	30.7061
468.433	48.2573
471.326	7.99463
474.219	50.8799
477.111	62.2456
480.004	3.80762
482.897	64.1509
485.79	23.8023
488.682	55.1279
491.575	81.3057
494.468	91.6113
497.36	6.99121
500.253	23.6484
503.146	40.5752
506.038	48.627
508.931	35.6343
511.824	60.314
514.717	54.2075
517.609	79.2173
520.502	48.833
523.395	43.9155
526.288	21.5957
529.18	25.8149
532.073	17.8809
534.966	59.9487
537.858	82.1074
540.751	73.7212
543.644	26.3486
546.536	58.9531
549.429	31.2598
552.322	45.0449
555.214	55.8569
558.107	62.8218
561	53.9121
563.893	56.6846
566.785	60.1123
569.678	36.0405
572.571	43.2949
575.463	43.106
578.356	25.3686
581.249	42.6655
584.141	69.4941
587.034	68.3477
589.927	70.2466
592.819	34.7065
595.712	32.7881
598.605	56.6714
601.498	66.3867
604.39	76.1846
607.283	23.502
610.176	10.998
613.068	48.3726
615.961	57.4736
618.854	42.2666
621.746	32.5444
624.639	62.0244
627.532	38.1533
630.425	0.540527
633.317	44.3721
636.21	30.0093
639.103	30.21
641.995	1.20264
644.888	60.8852
647.781	38.0952
650.673	49.5142
653.566	18.2383
656.459	44.2105
659.352	33.0723
662.244	45.3506
665.137	6.71729
668.03	11.3101
670.922	23.6992
673.815	2.12842
676.708	67.4365
679.601	26.2236
682.493	47.6572
685.386	38.061
688.279	22.3516
691.171	103.608
694.064	48.5581
696.957	82.9326
699.849	86.8442
702.742	62.3945
705.635	63.752
708.528	3.42188
711.42	57.9692
714.313	67.2729
717.206	57.5117
720.098	42.6938
722.991	60.4585
725.884	26.7446
728.776	67.5078
731.669	1.20703
734.562	45.3496
737.455	35.8023
740.347	44.5684
743.24	7.6626
746.133	86.1802
749.025	19.8682
751.918	66.3345
754.811	71.0854
757.703	97.7236
760.596	98.5498
763.489	80.8784
766.381	30.9614
769.274	80.7881
772.167	44.1494
775.06	77.02
777.952	96.4858
780.845	10.169
783.738	34.3931
786.63	24.9575
789.523	139.061
792.416	67.0405
795.308	60.5889
798.201	71.293
801.094	61.958
803.987	5.97461
806.879	103.528
809.772	4.86572
812.665	34.8745
815.557	32.8042
818.45	51.0112
821.343	13.0972
824.236	1.50147
827.128	6.89453
830.021	3.75879
832.914	22.3232
835.806	82.7896
838.699	78.1655
841.592	107.341
844.484	30.853
847.377	59.3852
850.27	56.8672
853.163	91.8779
856.055	73.8018
858.948	60.9224
861.841	62.6855
864.733	53.1182
867.626	71.48
870.519	50.9312
873.411	35.7563
876.304	51.897
879.197	31.1636
882.09	54.1065
884.982	28.0928
887.875	53.7197
890.768	56.4775
893.66	28.5908
896.553	26.4326
899.446	69.3945
902.338	17.3442
905.231	38.9409
908.124	40.5684
911.016	16.7632
913.909	16.6357
916.802	4.19336
919.695	32.919
922.587	7.78711
925.48	49.206
928.373	41.8906
931.265	58.1914
934.158	34.4624
937.051	27.3335
939.943	69.9356
942.836	42.666
945.729	102.24
948.622	89.9346
951.514	59.2388
954.407	75.0361
957.3	63.0972
960.192	34.8799
963.085	74.9434
965.978	53.2563
968.87	19.3379
971.763	31.7505
974.656	74.5977
977.549	81.2026
980.441	97.1489
983.334	66.896
986.227	37.1846
989.119	45.0132
992.012	53.1484
994.905	70.4399
997.798	100.009
1000.69	4.13281
1003.58	8.34961
1006.48	68.9565
1009.37	29.875
1012.26	70.8804
1015.15	37.0552
1018.05	12.1938
1020.94	28.4311
1023.83	73.2939
1026.72	10.8667
1029.62	37.3442
1032.51	81.9614
1035.4	40.1006
1038.3	13.9028
1041.19	70.4946
1044.08	43.5986
1046.97	28.332
1049.87	61.4531
1052.76	30.2485
1055.65	57.5034
1058.54	44.3159
1061.44	65.084
1064.33	35.3989
1067.22	53.8252
1070.12	26.1011
1073.01	31.9448
1075.9	72.5508
1078.79	8.88184
1081.69	105.004
1084.58	10.2788
1087.47	30.3818
1090.36	49.5234
1093.26	51.1577
1096.15	2.46582
1099.04	35.2725
1101.93	37.7456
1104.83	77.7148
1107.72	70.1709
1110.61	57.4248
1113.51	55.2217
1116.4	84.5644
1119.29	8.9668
1122.18	45.1392
1125.08	67.9019
1127.97	63.1968
1130.86	97.8838
1133.75	22.8589
1136.65	80.9365
1139.54	105.822
1142.43	65.4956
1145.33	92.3731
1148.22	63.0185
1151.11	71.7656
1154	73.8462
1156.9	77.9097
1159.79	23.8257
1162.68	26.8628
1165.57	44.4702
1168.47	50.3638
1171.36	68.0288
1174.25	34.2319
1177.14	81.4028
1180.04	36.2188
1182.93	77.1074
1185.82	72.0894
1188.72	56.3301
1191.61	25.5747
1194.5	68.0478
1197.39	50.6435
1200.29	87.6152
1203.18	27.0464
1206.07	22.7388
1208.96	1.17822
1211.86	37.8843
1214.75	48.3066
1217.64	28.4375
1220.54	76.0425
1223.43	20.2432
1226.32	15.0923
