Measurement: Raman, 532 nm, unoriented, Raman Data Processed
Mineral: Armalcolite
Rruff sample: R070260
Ideal chemistry: (Mg,Fe^2+^)Ti^4+^_2_O_5_
Locality: Chelyabinsk Oblast', Urals Region, Russia
Source: Michael Scott
Description: Gray semimetallic, elongated tabular crystals on coal
Raman shift (cm-1)	intensity
196.076	0
198.968	4.07558
201.861	12.2149
204.754	18.2289
207.647	25.1404
210.539	22.3723
213.432	17.125
216.325	8.34481
219.217	5.46009
222.11	6.4626
225.003	6.78448
227.895	6.05443
230.788	5.2999
233.681	6.92164
236.573	7.92458
239.466	13.0147
242.359	15.6603
245.252	22.6938
248.144	27.6997
251.037	27.466
253.93	28.2021
256.822	26.2847
259.715	19.9933
262.608	16.4553
265.5	13.46
268.393	8.38097
271.286	4.0452
274.179	3.55894
277.071	3.29789
279.964	0.214394
282.857	0.974495
285.75	0.152504
288.642	2.08073
291.535	1.35028
294.428	0.897255
297.32	0.364418
300.213	0.164978
303.106	2.87936
305.998	3.71424
308.891	4.69803
311.784	4.6468
314.676	6.68163
317.569	9.02235
320.462	8.88499
323.355	10.399
326.247	8.96838
329.14	10.7973
332.033	9.58339
334.925	8.47263
337.818	7.02182
340.711	7.55866
343.603	3.50613
346.496	2.6414
349.389	1.42197
352.281	2.065
355.174	2.77438
358.067	0.602959
360.96	1.36628
363.852	1.3099
366.745	1.42395
369.638	1.59979
372.53	2.86617
375.423	1.39387
378.316	0.45285
381.209	0.032684
384.101	0.655373
386.994	0.438843
389.887	0.182869
392.779	0.326614
395.672	0.195236
398.565	1.75652
401.457	0.87471
404.35	2.37754
407.243	2.67465
410.135	2.79227
413.028	2.96567
415.921	4.65783
418.814	3.82112
421.706	1.47902
424.599	1.81916
427.492	1.87205
430.384	2.25776
433.277	2.9876
436.17	0.74147
439.062	0.418327
441.955	3.09097
444.848	1.74034
447.741	6.28696
450.633	3.17072
453.526	4.72744
456.419	5.49015
459.311	4.89075
462.204	6.21148
465.097	6.46466
467.99	6.06067
470.882	7.26427
473.775	6.19222
476.668	7.4726
479.56	7.9363
482.453	9.13152
485.346	7.69358
488.238	7.55975
491.131	7.00158
494.024	5.59504
496.916	5.35128
499.809	5.18152
502.702	3.56326
505.595	3.48574
508.487	2.96901
511.38	3.90991
514.273	3.01528
517.165	3.25756
520.058	0.796574
522.951	0.809742
525.844	2.17048
528.736	3.42547
531.629	1.96394
534.522	3.07613
537.414	0.96524
540.307	1.61193
543.2	0.960445
546.092	0.485367
548.985	0.529018
551.878	0.554382
554.771	0.823978
557.663	1.58762
560.556	1.83568
563.449	2.21271
566.341	1.39006
569.234	0.528057
572.127	0.022072
575.019	1.93912
577.912	1.36585
580.805	3.30159
583.697	3.85321
586.59	4.80888
589.483	4.45502
592.376	5.2476
595.268	5.5565
598.161	6.446
601.054	7.25393
603.946	8.20355
606.839	11.8444
609.732	11.9895
612.625	12.7609
615.517	14.8378
618.41	18.1117
621.303	19.3713
624.195	26.4449
627.088	29.2931
629.981	33.9882
632.873	37.5264
635.766	39.7797
638.659	44.5864
641.552	42.9788
644.444	41.7295
647.337	38.1559
650.23	36.4098
653.122	30.1594
656.015	26.5317
658.908	21.5156
661.8	18.4178
664.693	16.5792
667.586	12.6235
670.479	11.5564
673.371	8.59101
676.264	6.34091
679.157	5.2141
682.049	5.63535
684.942	4.23057
687.835	3.90922
690.727	3.85488
693.62	0.764561
696.513	1.07975
699.405	1.37642
702.298	0.162716
705.191	1.42493
708.084	0.733528
710.976	1.27313
713.869	0.580139
716.762	1.67664
719.654	0.500885
722.547	1.03776
725.44	1.76766
728.332	0.692772
731.225	1.255
734.118	0.256474
737.011	0.606575
739.903	2.46046
742.796	4.01178
745.689	3.81624
748.581	3.79684
751.474	5.32634
754.367	6.00243
757.26	6.50319
760.152	7.37115
763.045	8.99246
765.938	11.6561
768.83	12.4908
771.723	14.4032
774.616	15.684
777.508	18.0594
780.401	19.8276
783.294	18.5114
786.187	18.3476
789.079	18.4621
791.972	17.9835
794.865	14.8811
797.757	14.4245
800.65	14.6764
803.543	13.1121
806.435	11.186
809.328	9.71038
812.221	10.0843
815.114	10.856
818.006	9.68046
820.899	8.50088
823.792	7.42113
826.684	7.07617
829.577	7.30165
832.47	7.16739
835.362	6.67933
838.255	5.79481
841.148	5.61632
844.04	4.3293
846.933	5.91816
849.826	5.48182
852.719	3.59099
855.611	5.22664
858.504	5.72304
861.397	3.49424
864.289	2.85192
867.182	2.03918
870.075	0.881359
872.967	3.40859
875.86	2.71309
878.753	2.61029
881.646	0.873814
884.538	0.535416
887.431	1.64119
890.324	0.303631
893.216	1.29433
896.109	0.820602
899.002	1.57797
901.894	1.07028
904.787	0.183704
907.68	0.452393
910.573	1.4989
913.465	0.772686
916.358	0.10582
919.251	2.05507
922.143	0.552315
925.036	0.893909
927.929	0.30146
930.822	0.089577
933.714	0.211643
936.607	1.74429
939.5	0.087219
942.392	0.258049
945.285	0.232494
948.178	0.879646
951.07	1.5435
953.963	1.54633
956.856	1.15295
959.749	2.60345
962.641	3.00707
965.534	2.18937
968.427	3.1941
971.319	2.87326
974.212	2.17673
977.105	2.2654
979.997	2.58432
982.89	2.31157
985.783	3.45583
988.676	1.73813
991.568	2.058
994.461	1.91342
997.354	0.588352
1000.25	2.37765
1003.14	2.03138
1006.03	1.55155
1008.92	1.5926
1011.82	1.81947
1014.71	1.80846
1017.6	1.36375
1020.5	1.02254
1023.39	0.733864
1026.28	2.01965
1029.17	0.755489
1032.07	0.580101
1034.96	0.507732
1037.85	3.12215
1040.74	1.78031
1043.64	0.49752
1046.53	1.32932
1049.42	1.06731
1052.32	2.32958
1055.21	2.15501
1058.1	1.53359
1060.99	4.09119
1063.89	1.93817
1066.78	0.166744
1069.67	2.45952
1072.56	2.19801
1075.46	1.54266
1078.35	1.93217
1081.24	1.93989
1084.13	1.36799
1087.03	1.67461
1089.92	0.662624
1092.81	0.928154
1095.7	2.05484
1098.6	1.16997
1101.49	2.76704
1104.38	0.137962
1107.28	1.82531
1110.17	1.84977
1113.06	1.50774
1115.95	1.9448
1118.85	0.488838
1121.74	0.477196
1124.63	2.01843
1127.53	0.771507
1130.42	0.104298
1133.31	1.07656
1136.2	0.261765
1139.1	2.77056
1141.99	1.49907
1144.88	0.623699
1147.77	0.203823
1150.67	0.838947
1153.56	0.925762
1156.45	0.150497
1159.35	0.808693
1162.24	1.33755
1165.13	1.65138
1168.02	0.322105
1170.92	0.068405
1173.81	1.56712
1176.7	1.41387
1179.59	1.77638
1182.49	1.89994
1185.38	1.30484
1188.27	1.74443
1191.16	0.468788
1194.06	0.953831
1196.95	1.76423
1199.84	1.41618
1202.73	1.4302
1205.63	0.358337
1208.52	1.10766
1211.41	0.344521
1214.31	1.9093
1217.2	2.75754
1220.09	0.96841
1222.98	0.802582
1225.88	3.84062
1228.77	0.656128
1231.66	2.2334
1234.56	2.16294
1237.45	2.48195
1240.34	1.36049
1243.23	0.972828
1246.13	1.44258
1249.02	1.80825
1251.91	1.24869
1254.8	1.13446
1257.7	1.10522
1260.59	2.13075
1263.48	0.767925
1266.38	1.64466
1269.27	1.33907
1272.16	1.58436
1275.05	1.09916
1277.95	1.09806
1280.84	0.475132
1283.73	1.8109
1286.62	0.723995
1289.52	1.68702
1292.41	2.08726
1295.3	2.80626
1298.19	0.701843
1301.09	0.259666
