Measurement: Raman, 532 nm, unoriented, Raman Data Processed
Mineral: Arrojadite-(KNa)
Rruff sample: R050107
Ideal chemistry: KNa_3_(CaNa_2_)Fe^2+^_13_Al(PO_4_)_11_(PO_3_OH)(OH)_2_
Locality: Big-Fish River, Yukon Territory, Canada
Source: Rock Currier
Description: Yellowish green tabular crystals
Raman shift (cm-1)	intensity
129.985	0
133.36	3.49019
136.735	12.4259
140.11	14.8698
143.484	10.7899
146.859	13.6626
150.234	16.4858
153.609	20.5698
156.984	23.3856
160.359	22.7115
163.733	21.5682
167.108	14.5436
170.483	7.62931
173.858	3.46648
177.233	0.823723
180.607	0.528008
183.982	2.40173
187.357	1.45954
190.732	0.91581
194.107	1.58404
197.482	0.392204
200.856	0.588013
204.231	1.47276
207.606	0.454681
210.981	0.575974
214.356	0.7556
217.73	1.97108
221.105	2.93008
224.48	3.83256
227.855	6.09818
231.23	9.51921
234.605	8.82869
237.979	12.1299
241.354	11.7456
244.729	11.671
248.104	12.1135
251.478	11.6654
254.853	9.87067
258.228	8.14328
261.603	7.29767
264.978	6.72195
268.353	6.66213
271.727	7.32555
275.102	4.4582
278.477	4.90682
281.852	3.66185
285.227	3.3443
288.601	2.68089
291.976	3.95101
295.351	5.48744
298.726	5.78502
302.101	5.7904
305.476	6.12728
308.85	5.34591
312.225	6.92603
315.6	5.13272
318.975	4.50809
322.35	2.93935
325.724	2.53128
329.099	0.458561
332.474	1.02636
335.849	0.029018
339.224	0.274387
342.599	0.372925
345.973	1.00117
349.348	0.386353
352.723	0.67144
356.098	0.154175
359.473	0.857567
362.847	1.95243
366.222	1.24545
369.597	0.58186
372.972	1.16537
376.347	2.14957
379.721	4.31004
383.096	8.07065
386.471	13.5875
389.846	19.3181
393.221	26.4943
396.596	33.4829
399.97	41.8781
403.345	50.0381
406.72	57.2702
410.095	65.5514
413.47	71.778
416.844	74.2568
420.219	73.9671
423.594	70.2902
426.969	62.1431
430.344	53.8501
433.719	43.2579
437.093	35.2521
440.468	30.2322
443.843	27.5824
447.218	26.1611
450.593	22.7538
453.967	21.2749
457.342	21.8551
460.717	21.5341
464.092	25.7739
467.467	27.0147
470.841	28.0718
474.216	26.3957
477.591	24.9896
480.966	23.3263
484.341	20.4422
487.716	16.9786
491.09	13.9727
494.465	11.2941
497.84	7.07582
501.215	6.40719
504.59	4.87422
507.964	5.73491
511.339	4.74815
514.714	1.28042
518.089	3.196
521.464	4.38907
524.839	3.28089
528.213	3.1078
531.588	13.5168
534.963	29.5438
538.338	47.5367
541.713	57.8361
545.087	64.2128
548.462	70.0902
551.837	66.1582
555.212	62.2099
558.587	58.9731
561.962	52.7625
565.336	48.2973
568.711	51.0359
572.086	56.3046
575.461	65.8226
578.836	72.1749
582.21	63.9153
585.585	49.2352
588.96	41.2265
592.335	33.8346
595.71	31.1977
599.085	30.6717
602.459	31.1716
605.834	29.3114
609.209	30.454
612.584	31.7899
615.959	30.4919
619.333	24.9894
622.708	23.5615
626.083	26.0884
629.458	31.3982
632.833	37.6898
636.207	40.3008
639.582	37.0999
642.957	28.2959
646.332	21.3297
649.707	14.8056
653.082	7.30876
656.456	2.54225
659.831	0.954376
663.206	0.231838
666.581	0.323217
669.956	0.100216
673.33	0.93676
676.705	0.604647
680.08	0.67503
683.455	0.026222
686.83	0.078133
690.205	0.318209
693.579	1.08524
696.954	1.70443
700.329	1.85648
703.704	1.63242
707.079	2.31381
710.453	3.0715
713.828	3.02496
717.203	4.06105
720.578	4.32812
723.953	4.47526
727.327	4.38917
730.702	3.94389
734.077	3.27338
737.452	3.74312
740.827	3.20487
744.202	3.02296
747.576	2.30888
750.951	2.05046
754.326	2.55072
757.701	2.14028
761.076	2.8605
764.45	2.07258
767.825	2.74489
771.2	1.84109
774.575	2.34373
777.95	1.94937
781.324	1.23252
784.699	0.684767
788.074	0.730812
791.449	0.278648
794.824	0.097298
798.199	0.473661
801.573	0.769272
804.948	0.547215
808.323	0.195827
811.698	0.23452
815.073	0.240688
818.447	0.323101
821.822	1.74432
825.197	4.62922
828.572	6.7255
831.947	6.78622
835.322	9.39343
838.696	9.64972
842.071	9.77245
845.446	10.1038
848.821	11.5664
852.196	10.6785
855.57	11.5435
858.945	11.5851
862.32	12.4802
865.695	12.6212
869.07	9.94096
872.444	6.55732
875.819	1.85661
879.194	0.08234
882.569	0.127708
885.944	3.27961
889.319	15.3343
892.693	33.4109
896.068	60.1208
899.443	93.1947
902.818	101.432
906.193	64.5666
909.567	22.2359
912.942	4.2886
916.317	3.38193
919.692	4.85835
923.067	3.61271
926.442	1.63574
929.816	14.9187
933.191	35.2001
936.566	65.6829
939.941	112.243
943.316	167.764
946.69	217.01
950.065	244.66
953.44	264.74
956.815	287.432
960.19	317.229
963.564	366.346
966.939	398.558
970.314	429.165
973.689	468.633
977.064	465.774
980.439	426.943
983.813	401.099
987.188	399.432
990.563	388.587
993.938	370.572
997.313	367.451
1000.69	372.413
1004.06	370.756
1007.44	342.267
1010.81	290.909
1014.19	232.526
1017.56	194.355
1020.94	168.173
1024.31	130.983
1027.69	89.4608
1031.06	54.8198
1034.44	28.9583
1037.81	13.0206
1041.18	4.65292
1044.56	1.14301
1047.93	0.882339
1051.31	2.65771
1054.68	3.19436
1058.06	0.365128
1061.43	0.408112
1064.81	0.679451
1068.18	0.043503
1071.56	0.230644
1074.93	0.489578
1078.31	1.02325
1081.68	2.28645
1085.06	2.24578
1088.43	2.09397
1091.81	1.87416
1095.18	1.13906
1098.56	0.440048
1101.93	0.953918
1105.31	0.034096
1108.68	2.25845
1112.06	3.63569
1115.43	4.82147
1118.81	6.09687
1122.18	7.28174
1125.56	8.87962
1128.93	8.39262
1132.31	8.71891
1135.68	10.7621
1139.06	11.5278
1142.43	14.2635
1145.81	14.3514
1149.18	13.4412
1152.55	11.4272
1155.93	9.72821
1159.3	8.27924
1162.68	5.67545
1166.05	3.63868
1169.43	1.47663
1172.8	1.08619
1176.18	0.827942
1179.55	0.573666
1182.93	1.14877
1186.3	1.72124
1189.68	1.97817
1193.05	2.08241
1196.43	1.58189
1199.8	1.66147
1203.18	1.85809
1206.55	0.759724
1209.93	0.973587
1213.3	0.993656
1216.68	1.34627
1220.05	0.516554
1223.42	1.47228
1226.8	1.63498
1230.17	1.84154
1233.55	1.75413
1236.92	1.63279
1240.3	1.46075
1243.67	2.42017
1247.05	1.87505
1250.42	1.48649
1253.8	1.26644
1257.17	1.44164
1260.55	1.15279
1263.92	1.11202
1267.3	1.54879
1270.67	0.323641
1274.05	0.626726
1277.42	0.904224
1280.8	0.318869
1284.17	0.90066
1287.55	0.11866
1290.92	0
