Measurement: Raman, 780 nm, unoriented, Raman Data Processed
Mineral: Arrojadite-(KNa)
Rruff sample: R050107
Ideal chemistry: KNa_3_(CaNa_2_)Fe^2+^_13_Al(PO_4_)_11_(PO_3_OH)(OH)_2_
Locality: Big-Fish River, Yukon Territory, Canada
Source: Rock Currier
Description: Yellowish green tabular crystals
Raman shift (cm-1)	intensity
114.349	0
117.724	1.45106
121.098	2.27247
124.473	5.77434
127.848	8.09568
131.223	7.6954
134.598	8.97998
137.972	10.4593
141.347	10.7754
144.722	10.8736
148.097	11.2228
151.472	11.9887
154.847	11.7263
158.221	10.7032
161.596	7.87294
164.971	5.07201
168.346	2.36267
171.721	0.160919
175.095	0.174809
178.47	0.335728
181.845	0.56649
185.22	0.072979
188.595	0.042305
191.97	0.063374
195.344	1.17735
198.719	1.36553
202.094	1.63145
205.469	1.11788
208.844	0.26012
212.218	1.03261
215.593	0.326424
218.968	0.325298
222.343	0.190987
225.718	0.814278
229.093	0.979008
232.467	1.3899
235.842	1.5935
239.217	2.55198
242.592	1.88752
245.967	2.36755
249.341	1.67228
252.716	1.64245
256.091	1.59959
259.466	1.31811
262.841	1.43823
266.216	1.83175
269.59	1.65307
272.965	1.56317
276.34	1.76041
279.715	1.4986
283.089	1.50538
286.464	2.5904
289.839	2.3751
293.214	2.84621
296.589	2.9594
299.964	3.34963
303.338	3.45321
306.713	2.84316
310.088	2.5364
313.463	2.01728
316.838	1.31908
320.212	0.919836
323.587	0.328623
326.962	0.164505
330.337	0.238382
333.712	0.074781
337.087	0.482073
340.461	0.127504
343.836	0.386696
347.211	6.3e-05
350.586	0.520851
353.961	0.358761
357.335	0.158743
360.71	0.080769
364.085	0.408401
367.46	0.835251
370.835	1.754
374.209	3.31521
377.584	4.34407
380.959	5.20909
384.334	7.04563
387.709	8.93214
391.084	10.9281
394.458	13.4385
397.833	14.894
401.208	17.191
404.583	16.991
407.958	18.1365
411.332	18.6647
414.707	17.6238
418.082	16.2721
421.457	13.9708
424.832	13.1391
428.207	10.5596
431.581	10.201
434.956	9.18564
438.331	9.09528
441.706	8.9983
445.081	8.9221
448.455	8.94301
451.83	8.66905
455.205	7.68121
458.58	8.82857
461.955	8.82338
465.329	8.71847
468.704	9.10565
472.079	8.66563
475.454	7.9871
478.829	7.18359
482.204	6.13954
485.578	5.54432
488.953	4.02512
492.328	3.37651
495.703	2.25389
499.078	1.31286
502.452	0.613333
505.827	0.238453
509.202	0.265995
512.577	0.93712
515.952	1.06664
519.327	0.302553
522.701	0.579479
526.076	2.62477
529.451	5.28335
532.826	8.83866
536.201	11.9411
539.575	15.2419
542.95	16.8127
546.325	17.9544
549.7	17.347
553.075	16.2848
556.449	14.935
559.824	14.1639
563.199	13.6344
566.574	13.7749
569.949	14.3766
573.323	14.4917
576.698	14.1033
580.073	12.903
583.448	11.3602
586.823	9.40698
590.198	9.17911
593.572	9.00864
596.947	8.91527
600.322	9.69279
603.697	9.69502
607.072	10.5015
610.447	10.9575
613.821	10.8816
617.196	10.0825
620.571	10.0489
623.946	10.8903
627.321	11.7382
630.695	12.125
634.07	11.2233
637.445	8.9375
640.82	6.32041
644.195	4.33865
647.569	2.60779
650.944	1.14444
654.319	0.737722
657.694	0.305217
661.069	0.020115
664.443	0.08716
667.818	0.233217
671.193	0.175621
674.568	0.273219
677.943	0.043818
681.318	0.037376
684.692	0.021208
688.067	0.003121
691.442	0.193522
694.817	0.082567
698.192	0.375149
701.567	0.319137
704.941	0.58764
708.316	0.767067
711.691	0.58087
715.066	0.756827
718.441	0.919738
721.815	0.965415
725.19	1.10304
728.565	0.960402
731.94	1.15471
735.315	0.829137
738.689	0.781723
742.064	0.311743
745.439	0.621625
748.814	0.809182
752.189	0.967578
755.563	0.394513
758.938	0.443615
762.313	0.196983
765.688	0.45642
769.063	0.248165
772.438	0.239362
775.812	0.165965
779.187	0.136849
782.562	0.120358
785.937	0.046161
789.312	0.003688
792.687	0.197132
796.061	0.092462
799.436	0.00422
802.811	0.119469
806.186	0.088301
809.561	0.384107
812.935	0.188001
816.31	0.467511
819.685	0.732895
823.06	0.574585
826.435	1.08578
829.809	0.751129
833.184	0.81279
836.559	0.868342
839.934	0.884448
843.309	1.03955
846.683	0.901944
850.058	0.947432
853.433	0.715878
856.808	0.773614
860.183	0.951012
863.558	0.487421
866.932	0.285143
870.307	0.21565
873.682	0.086224
877.057	0.075105
880.432	1.11776
883.807	2.56878
887.181	5.15073
890.556	7.6648
893.931	9.60762
897.306	10.9921
900.681	9.1797
904.055	5.02499
907.43	0.873893
910.805	0.253955
914.18	0.849775
917.555	0.574713
920.929	0.365667
924.304	1.59268
927.679	4.55057
931.054	8.77145
934.429	13.7163
937.803	20.2545
941.178	25.5227
944.553	30.4467
947.928	33.0483
951.303	35.5098
954.678	37.6999
958.052	40.8162
961.427	44.6564
964.802	48.4228
968.177	51.1143
971.552	52.9881
974.927	53.2833
978.301	50.5757
981.676	50.0239
985.051	51.8534
988.426	54.6325
991.801	55.188
995.175	55.7954
998.55	55.4781
1001.92	52.2543
1005.3	46.8192
1008.67	39.6838
1012.05	31.8835
1015.42	25.8865
1018.8	20.6024
1022.17	15.6939
1025.55	10.1061
1028.92	6.16532
1032.3	4.36692
1035.67	2.75466
1039.05	1.7101
1042.42	1.2073
1045.8	0.771776
1049.17	0.141706
1052.55	0.220574
1055.92	0.052509
1059.3	0.100096
1062.67	0.640862
1066.05	0.338305
1069.42	0.035202
1072.8	0.085209
1076.17	0.107991
1079.55	0.397547
1082.92	0.891328
1086.3	1.2795
1089.67	1.21334
1093.05	1.03771
1096.42	0.839941
1099.8	0.542645
1103.17	0.744296
1106.54	0.75161
1109.92	1.26955
1113.29	1.43889
1116.67	1.79918
1120.04	2.07389
1123.42	1.81204
1126.79	1.86886
1130.17	1.62911
1133.54	1.59188
1136.92	1.6791
1140.29	1.79326
1143.67	1.42868
1147.04	1.24956
1150.42	0.911776
1153.79	0.802826
1157.17	0.870859
1160.54	0.688193
1163.92	0.524887
1167.29	0.073111
1170.67	0.204841
1174.04	0.31026
1177.41	0.038627
1180.79	0.256888
1184.16	0.249655
1187.54	0.284475
1190.91	0.261041
1194.29	0.415507
1197.66	0.258875
1201.04	0.579943
1204.41	0.237587
1207.79	0.190811
1211.16	0.495103
1214.54	0.486656
1217.91	0.577667
1221.29	0.075799
1224.66	0.483857
1228.04	0.246922
1231.41	0.263468
1234.79	0.594446
1238.16	0.234363
1241.54	0.403287
1244.91	0.215429
1248.29	0.358327
1251.66	0.316623
1255.04	0.167997
1258.41	0.280813
1261.79	0.278326
1265.16	0.22085
1268.54	0.034486
1271.91	0.027142
