Measurement: Raman, 514 nm, unoriented, Raman Data Processed
Mineral: Arrojadite-(KNa)
Rruff sample: R050107
Ideal chemistry: KNa_3_(CaNa_2_)Fe^2+^_13_Al(PO_4_)_11_(PO_3_OH)(OH)_2_
Locality: Big-Fish River, Yukon Territory, Canada
Source: Rock Currier
Description: Yellowish green tabular crystals
Raman shift (cm-1)	intensity
94.768	0
98.947	23.114
103.124	171.249
107.3	963.268
111.473	2381.93
115.644	2301.34
119.813	1485.08
123.981	1680.53
128.146	2071.18
132.309	2018.74
136.47	2381.28
140.63	2527
144.787	2551.04
148.942	2661.27
153.096	2630.62
157.247	2958.39
161.396	3115.93
165.544	2246.45
169.689	1673.17
173.833	1234.34
177.974	1084.38
182.114	1033.52
186.251	1065.43
190.387	1040.34
194.52	1468.41
198.652	1540.47
202.782	1684.65
206.909	1757.52
211.035	918.274
215.159	553.574
219.281	446.656
223.4	392.531
227.518	324.61
231.634	403.994
235.748	412.487
239.86	463.936
243.97	523.257
248.079	496.484
252.185	510.466
256.289	372.361
260.391	243.257
264.492	85.151
268.59	40.333
272.687	93.747
276.781	18.406
280.874	125.688
284.964	128.604
289.053	61.381
293.14	107.997
297.225	272.506
301.308	344.062
305.389	307.607
309.468	252.052
313.545	139.315
317.62	28.393
321.693	33.219
325.765	140.326
329.834	196.434
333.902	133.215
337.967	112.636
342.031	96.636
346.093	64.883
350.153	59.129
354.21	8.463
358.267	95.104
362.321	93.895
366.373	174.629
370.423	248.52
374.471	391.166
378.518	585.873
382.563	742.553
386.605	861.827
390.646	1177.9
394.685	1537.88
398.722	1874.76
402.757	2067.55
406.79	2361.3
410.821	2574.02
414.851	2620.72
418.878	2264.34
422.904	1992.93
426.927	1707.51
430.949	1460.06
434.969	1547.45
438.987	1691.58
443.003	1531.53
447.018	1590.45
451.03	1515.82
455.041	1481.99
459.049	1442.17
463.056	1705.16
467.061	1628.92
471.064	1716.42
475.065	1497.63
479.064	1440.22
483.062	1204.49
487.057	1148.85
491.051	970.446
495.043	658.948
499.032	506.395
503.02	508.249
507.007	377.867
510.991	240.531
514.973	225.519
518.954	157.464
522.933	124.521
526.91	361.186
530.885	585.628
534.858	1228.75
538.829	1878.07
542.799	1984.45
546.766	2489.45
550.732	2253.65
554.696	2029.52
558.658	2130.32
562.618	1900.64
566.576	2043.53
570.533	2170.25
574.488	2374.88
578.44	2885.3
582.391	3044.23
586.341	2778.69
590.288	2704.02
594.233	2268.26
598.177	2423.17
602.119	2590.77
606.059	2894.76
609.997	3132.71
613.933	3364.94
617.868	3071.6
621.801	2637.28
625.731	2609.47
629.66	2698.14
633.588	3460.31
637.513	3435.76
641.437	2958.72
645.358	1912.55
649.278	1191.07
653.196	942.184
657.113	659.44
661.027	410.975
664.94	492.282
668.851	238.09
672.76	199.45
676.667	130.936
680.572	83.562
684.476	132.957
688.378	51.041
692.278	144.927
696.176	5.607
700.072	140.622
703.967	79.766
707.86	41.953
711.751	28.815
715.64	120.704
719.527	40.615
723.413	24.841
727.297	8.64
731.179	180.136
735.059	11.645
738.937	60.876
742.814	4.789
746.689	31.917
750.562	53.79
754.433	1.989
758.303	64.697
762.17	15.071
766.036	76.363
769.901	39.785
773.763	50.473
777.624	114.572
781.482	6.241
785.339	76.481
789.195	72.341
793.048	24.243
796.9	11.725
800.75	29.67
804.598	87.377
808.445	30.872
812.289	59.031
816.132	121.978
819.973	201.027
823.813	429.88
827.65	407.221
831.486	623.38
835.32	390.644
839.152	612.355
842.983	611.547
846.812	629.861
850.639	557.583
854.464	542.627
858.288	541.609
862.11	642.894
865.93	466.679
869.748	555.016
873.564	388.308
877.379	241.869
881.192	323.174
885.004	460.148
888.813	876.328
892.621	1797.98
896.427	3744.91
900.232	6608.57
904.034	6566.16
907.835	3590.84
911.634	1630.48
915.432	1273.76
919.227	1213.6
923.021	1110.07
926.813	1512.88
930.604	2034.07
934.393	2813.45
938.18	4921.02
941.965	8506.01
945.749	11592.6
949.53	13153.2
953.311	13825.2
957.089	14461.4
960.866	15842.5
964.641	17945
968.414	20129.7
972.185	22867.9
975.955	23930.7
979.723	21280.1
983.49	19842.2
987.254	20865
991.017	22466.5
994.779	22971.8
998.538	24515.7
1002.3	24897.3
1006.05	24656.6
1009.81	22083.7
1013.56	18160.7
1017.31	14850.3
1021.06	13023.6
1024.81	11072.9
1028.55	8094.08
1032.3	5879.91
1036.04	4398.32
1039.78	3978.76
1043.52	3705.01
1047.26	3063.8
1050.99	2470.94
1054.73	2274.76
1058.46	2141.13
1062.19	1932.29
1065.92	1773
1069.65	1562.9
1073.37	1581.76
1077.1	1433.67
1080.82	1505.97
1084.54	1775.78
1088.26	1797.16
1091.97	1788.04
1095.69	1950.81
1099.4	1624.87
1103.12	1337.01
1106.83	1146.15
1110.54	1087.52
1114.24	978.879
1117.95	1110.83
1121.65	1150.97
1125.35	1068.68
1129.06	1108.09
1132.75	959.18
1136.45	1168.69
1140.15	1336.88
1143.84	1124.39
1147.53	1140.25
1151.22	760.453
1154.91	504.457
1158.6	454.674
1162.28	478.615
1165.97	485.072
1169.65	110.291
1173.33	59.432
1177.01	22.023
1180.69	118.77
1184.36	106.973
1188.04	33.574
1191.71	64.887
1195.38	101.92
1199.05	105.906
1202.71	153.414
1206.38	40.199
1210.04	42.838
1213.71	58.482
1217.37	14.211
1221.03	2.031
1224.68	83.09
1228.34	78.914
1231.99	81.197
1235.65	55.977
1239.3	165.205
1242.95	89.881
1246.59	162.43
1250.24	195.451
1253.88	123.268
1257.53	108.395
1261.17	45.854
1264.81	88.709
1268.45	30.254
1272.08	82.824
1275.72	77.613
1279.35	81.277
1282.98	130.783
1286.61	133.887
1290.24	52.961
1293.87	32.988
1297.49	96.158
1301.11	90.529
1304.73	176.881
1308.36	261.305
1311.97	355.74
1315.59	203.234
1319.2	84.695
1322.82	205.938
1326.43	242.812
1330.04	70.096
1333.65	62.879
1337.26	24.123
1340.86	121.988
1344.47	0.641
1348.07	219.891
1351.67	251.281
1355.27	339.697
1358.87	244.223
1362.46	118.348
1366.06	189.262
1369.65	332.777
1373.24	296.713
1376.83	434.826
1380.42	375.291
1384	438.805
1387.59	663.342
1391.17	438.754
1394.75	495.676
1398.33	414.004
1401.91	499.041
1405.49	378.297
1409.06	334.461
1412.64	501.092
1416.21	271.266
1419.78	374.521
1423.35	226.797
1426.91	119.064
1430.48	134.793
1434.05	283.125
1437.61	386.205
1441.17	273.736
1444.73	366.215
1448.29	337.076
1451.84	468.723
1455.4	522.941
1458.95	422.586
1462.5	255.82
1466.05	257.898
1469.6	192.078
1473.15	94.113
1476.69	5.406
1480.24	76.578
1483.78	193.09
1487.32	39.848
1490.86	0
