Measurement: Raman, 785 nm, unoriented, Raman Data Processed
Mineral: Arsenohauchecornite
Rruff sample: R070347
Ideal chemistry: Ni_18_Bi_3_AsS_16_
Locality: Vermilion Mine, Denison Township, Sudbury District, Ontario, Canada
Source: Michael Scott
Description: Bright bronze massive with chonchoidal fracture
Raman shift (cm-1)	intensity
157.66	0
160.553	13.3333
163.446	28.7457
166.338	70.5407
169.231	98.7134
172.124	114.135
175.017	157.568
177.909	33.1002
180.802	6.50165
183.695	29.6298
186.587	124.325
189.48	89.5886
192.373	87.7949
195.265	42.465
198.158	24.4611
201.051	1.93304
203.944	11.8979
206.836	8.78073
209.729	6.92014
212.622	4.85709
215.514	4.7677
218.407	8.07889
221.3	35.7765
224.192	36.2244
227.085	43.0965
229.978	63.8419
232.87	93.8709
235.763	110.594
238.656	117.561
241.549	115.194
244.441	162.439
247.334	213.453
250.227	273.368
253.119	276.567
256.012	330.112
258.905	357.786
261.798	379.277
264.69	358.941
267.583	366.811
270.476	283.048
273.368	213.568
276.261	221.749
279.154	253.3
282.046	328.295
284.939	420.898
287.832	622.711
290.724	892.283
293.617	677.975
296.51	249.076
299.403	94.0092
302.295	51.2025
305.188	49.2101
308.081	63.9486
310.973	79.9439
313.866	124.706
316.759	206.847
319.651	239.044
322.544	163.929
325.437	84.1651
328.33	33.5982
331.222	9.51666
334.115	3.63513
337.008	16.7002
339.9	18.2999
342.793	24.2867
345.686	28.7736
348.579	72.9216
351.471	95.7675
354.364	51.402
357.257	21.9116
360.149	10.9274
363.042	18.1581
365.935	11.7419
368.827	11.7551
371.72	1.7175
374.613	8.05719
377.505	27.1862
380.398	19.4825
383.291	2.86801
386.184	5.6908
389.076	10.8627
391.969	3.27383
394.862	10.73
397.754	0.375183
400.647	5.59485
403.54	6.02292
406.433	3.40726
409.325	14.3542
412.218	33.6072
415.111	17.1592
418.003	26.9822
420.896	33.2071
423.789	33.9086
426.681	29.7261
429.574	43.594
432.467	28.2419
435.36	19.7269
438.252	35.8195
441.145	16.1738
444.038	37.3967
446.93	34.1776
449.823	19.6149
452.716	33.7503
455.608	14.4844
458.501	19.6553
461.394	18.469
464.286	34.6555
467.179	20.1873
470.072	15.0225
472.965	8.11633
475.857	32.9109
478.75	12.5571
481.643	17.1943
484.535	19.9552
487.428	16.6151
490.321	24.2736
493.214	12.1218
496.106	14.2629
498.999	11.6947
501.892	18.1388
504.784	1.97699
507.677	4.07985
510.57	8.18839
513.462	16.2489
516.355	25.2772
519.248	27.152
522.14	17.9119
525.033	13.7643
527.926	22.7864
530.819	31.4894
533.711	5.23929
536.604	15.5525
539.497	20.6939
542.389	19.459
545.282	8.72998
548.175	5.36697
551.067	6.05472
553.96	19.5245
556.853	16.9276
559.745	24.3198
562.638	18.4662
565.531	6.33667
568.424	32.2508
571.316	9.13803
574.209	4.5416
577.102	18.2488
579.994	12.6276
582.887	13.4653
585.78	7.73441
588.673	19.8515
591.565	27.8717
594.458	17.5622
597.351	9.84732
600.243	15.797
603.136	28.4804
606.029	8.30527
608.921	17.7924
611.814	15.0153
614.707	4.41019
617.6	6.68271
620.492	10.0963
623.385	8.65811
626.278	15.399
629.17	6.90802
632.063	2.30423
634.956	16.5217
637.848	12.9637
640.741	27.2672
643.634	19.9669
646.527	19.9189
649.419	34.8972
652.312	6.04394
655.205	22.5695
658.097	7.94254
660.99	8.89508
663.883	25.8411
666.775	0.808228
669.668	5.81412
672.561	12.7332
675.454	4.43881
678.346	1.02853
681.239	6.48257
684.132	3.07275
687.024	14.8333
689.917	8.54382
692.81	22.8274
695.702	6.99963
698.595	7.56424
701.488	16.5365
704.381	15.2786
707.273	14.0261
710.166	29.199
713.059	26.4083
715.951	26.9521
718.844	21.777
721.737	25.5245
724.63	31.6405
727.522	32.3892
730.415	4.43103
733.308	11.3672
736.2	27.2749
739.093	2.7757
741.986	9.98086
744.878	16.9942
747.771	8.93188
750.664	6.02689
753.557	18.0913
756.449	16.9727
759.342	1.6272
762.235	8.87686
765.127	11.0448
768.02	0.241699
770.913	16.0181
773.805	1.17157
776.698	19.8569
779.591	18.0648
782.484	16.5715
785.376	18.1249
788.269	0.022552
791.162	22.3105
794.054	8.99558
796.947	38.2246
799.84	4.49655
802.732	13.2497
805.625	17.0035
808.518	21.398
811.41	20.8686
814.303	27.912
817.196	12.0353
820.089	29.4447
822.981	17.192
825.874	8.8396
828.767	0.549164
831.659	21.0644
834.552	26.6268
837.445	20.9367
840.337	6.46289
843.23	14.3772
846.123	25.9397
849.016	10.2187
851.908	9.90674
854.801	19.3419
857.694	5.19083
860.586	13.2555
863.479	25.995
866.372	17.4353
869.264	15.6221
872.157	16.5295
875.05	18.6405
877.943	17.3705
880.835	11.6024
883.728	30.9044
886.621	17.6935
889.513	12.0216
892.406	18.1395
895.299	17.9796
898.192	12.4275
901.084	9.94443
903.977	11.0358
906.87	18.1816
909.762	15.9874
912.655	20.2515
915.548	19.8169
918.44	18.4462
921.333	12.2724
924.226	26.202
927.119	16.8226
930.011	10.3258
932.904	9.37589
935.797	8.633
938.689	20.8217
941.582	2.15625
944.475	26.3262
947.367	6.48505
950.26	25.4389
953.153	27.4668
956.045	20.4518
958.938	28.5287
961.831	6.32242
964.724	25.055
967.616	9.22818
970.509	21.5581
973.402	4.94769
976.294	12.3928
979.187	12.3572
982.08	6.00076
984.972	8.10819
987.865	10.4616
990.758	2.53708
993.651	24.7127
996.543	25.2339
999.436	9.01242
1002.33	13.4689
1005.22	27.5689
1008.11	0.273193
1011.01	15.2688
1013.9	17.545
1016.79	30.7436
1019.68	42.0953
1022.58	19.3617
1025.47	28.8302
1028.36	7.94342
1031.26	44.3133
1034.15	21.892
1037.04	28.8969
1039.93	6.27307
1042.83	11.6499
1045.72	3.24698
1048.61	6
1051.51	20.408
1054.4	20.3085
1057.29	20.2917
1060.18	16.3875
1063.08	6.09283
1065.97	40.2424
1068.86	1.34235
1071.75	29.2494
1074.65	4.66068
1077.54	25.004
1080.43	39.7907
1083.32	7.45526
1086.22	19.1633
1089.11	26.305
1092	5.64154
1094.89	15.0611
1097.79	33.5847
1100.68	10.5414
1103.57	9.77039
1106.47	25.8406
1109.36	21.3954
1112.25	2.13312
1115.14	11.7499
1118.04	7.65951
1120.93	24.0608
1123.82	18.9091
1126.71	11.9961
1129.61	8.57358
1132.5	14.0837
1135.39	1.33173
1138.29	12.1181
1141.18	15.814
1144.07	6.41281
1146.96	31.4203
1149.86	15.6818
1152.75	22.2673
1155.64	10.1117
1158.53	10.384
1161.43	23.4812
1164.32	11.807
1167.21	21.6703
1170.11	5.39426
1173	25.1008
1175.89	6.61847
1178.78	10.6392
1181.68	0.576111
1184.57	10.9299
1187.46	15.9091
1190.35	39.294
1193.25	28.9377
1196.14	2.61365
1199.03	13.406
1201.92	15.8026
1204.82	28.6461
1207.71	46.3947
1210.6	8.15509
1213.5	30.549
1216.39	8.1409
1219.28	27.2704
1222.17	36.1942
1225.07	26.5012
1227.96	19.9566
1230.85	16.6086
1233.74	37.6566
1236.64	1.31259
1239.53	2.66675
1242.42	1.56238
