Measurement: Raman, 532 nm, unoriented, Raman Data Processed
Mineral: Arsenopyrite
Rruff sample: R070585
Ideal chemistry: Fe^3+^(AsS)^3-^
Locality: Standard Consolidated mine, Sumpter District, Baker County, Oregon, USA
Source: James Shigley
Description: Tin-yellow, metallic striated crystal associated with calcite
Measured chemistry: Fe_1.00_As_1.00_S_1.00_
Raman shift (cm-1)	intensity
152.058	0
154.951	76.1291
157.844	77.8462
160.737	42.5372
163.629	89.5109
166.522	110.536
169.415	80.0903
172.307	144.143
175.2	98.3072
178.093	57.3052
180.985	89.1547
183.878	115.15
186.771	142.304
189.663	184.065
192.556	234.954
195.449	224.865
198.342	191.673
201.234	186.115
204.127	188.197
207.02	115.701
209.912	63.8721
212.805	60.6692
215.698	39.1119
218.59	21.0476
221.483	32.6737
224.376	4.87299
227.269	43.2604
230.161	28.5846
233.054	26.3657
235.947	24.9297
238.839	36.8378
241.732	58.2255
244.625	52.0938
247.518	34.9426
250.41	84.335
253.303	48.3583
256.196	80.4959
259.088	50.0117
261.981	79.3176
264.874	62.9536
267.766	113.389
270.659	147.542
273.552	121.282
276.445	155.843
279.337	175.112
282.23	169.319
285.123	161.958
288.015	145.048
290.908	135.861
293.801	125.011
296.693	145.318
299.586	138.772
302.479	132.692
305.371	150.403
308.264	156.217
311.157	190.003
314.05	200.107
316.942	256.671
319.835	314.129
322.728	319.25
325.62	327.828
328.513	331.758
331.406	272.768
334.298	276.169
337.191	222.325
340.084	219.493
342.976	165.767
345.869	171.133
348.762	164.799
351.655	134.083
354.547	130.39
357.44	114.579
360.333	86.4374
363.225	89.8574
366.118	62.0173
369.011	5.1604
371.904	11.0195
374.796	60.2013
377.689	8.29376
380.582	18.0477
383.474	19.0087
386.367	11.695
389.26	16.495
392.152	20.106
395.045	26.5112
397.938	33.1189
400.83	58.0315
403.723	43.2396
406.616	90.0166
409.509	71.6406
412.401	84.1737
415.294	84.5666
418.187	55.3808
421.079	88.2226
423.972	28.4658
426.865	16.2194
429.757	65.011
432.65	36.3739
435.543	2.61111
438.435	16.8318
441.328	27.6305
444.221	1.73444
447.114	22.7404
450.006	33.1574
452.899	24.6302
455.792	23.5703
458.684	6.24112
461.577	9.25818
464.47	33.1029
467.363	54.3766
470.255	50.0347
473.148	27.3685
476.041	12.9189
478.933	23.9941
481.826	29.4225
484.719	51.7309
487.611	41.8098
490.504	38.2923
493.397	7.09103
496.289	55.5764
499.182	33.4643
502.075	8.46582
504.968	24.442
507.86	47.3377
510.753	49.2899
513.646	24.4394
516.538	19.8707
519.431	14.9438
522.324	26.7629
525.216	8.29938
528.109	33.0549
531.002	21.0189
533.895	11.5479
536.787	24.6753
539.68	26.6457
542.573	32.0694
545.465	24.8041
548.358	37.17
551.251	17.0314
554.144	6.44961
557.036	4.5813
559.929	11.7651
562.822	55.5506
565.714	25.2393
568.607	40.2872
571.5	0.973572
574.392	21.2122
577.285	50.6355
580.178	25.2066
583.07	32.0382
585.963	19.7709
588.856	30.8063
591.749	5.30588
594.641	40.1741
597.534	12.1044
600.427	40.5807
603.319	46.3069
606.212	12.2923
609.105	9.16281
611.997	10.8521
614.89	12.8726
617.783	21.5226
620.676	22.8198
623.568	19.5856
626.461	44.7392
629.354	13.9344
632.246	24.5162
635.139	31.0683
638.032	19.6438
640.924	4.62634
643.817	44.0921
646.71	27.6951
649.602	33.7266
652.495	1.19016
655.388	33.0046
658.281	16.5533
661.173	15.0459
664.066	18.1068
666.959	29.2449
669.851	14.0189
672.744	13.3351
675.637	21.9559
678.529	35.8553
681.422	31.0521
684.315	15.926
687.208	14.4798
690.1	42.2294
692.993	28.4636
695.886	15.7366
698.778	34.7214
701.671	14.3058
704.564	35.0772
707.457	26.9341
710.349	37.5773
713.242	27.7712
716.135	50.5719
719.027	18.8666
721.92	33.5988
724.813	49.2032
727.705	52.9165
730.598	12.5294
733.491	19.0089
736.384	33.4232
739.276	24.481
742.169	17.4771
745.062	30.3091
747.954	28.348
750.847	34.7425
753.74	38.6867
756.632	19.5018
759.525	26.8105
762.418	10.014
765.31	43.2456
768.203	7.05432
771.096	25.6676
773.989	22.9206
776.881	29.088
779.774	40.7348
782.667	14.2203
785.559	34.3219
788.452	21.0713
791.345	56.992
794.237	6.29135
797.13	10.8562
800.023	2.96631
802.915	3.77924
805.808	27.5949
808.701	10.6936
811.594	21.9737
814.486	11.9357
817.379	18.657
820.272	54.1356
823.164	41.6445
826.057	30.3512
828.95	25.1039
831.842	40.2198
834.735	36.9744
837.628	57.1731
840.521	8.1268
843.413	0.457062
846.306	25.8554
849.199	2.0235
852.091	9.01236
854.984	27.3389
857.877	10.1376
860.769	31.5833
863.662	46.0981
866.555	17.5218
869.448	25.729
872.34	2.11548
875.233	0.585724
878.126	14.8185
881.018	48.4726
883.911	3.43381
886.804	44.8637
889.697	7.78317
892.589	42.9581
895.482	26.2109
898.375	10.4435
901.267	40.7638
904.16	12.8324
907.053	31.8866
909.945	29.5311
912.838	58.277
915.731	19.4412
918.624	27.4487
921.516	28.5069
924.409	31.2998
927.302	35.2581
930.194	49.5551
933.087	37.7587
935.98	21.81
938.872	54.4096
941.765	6.86804
944.658	72.6256
947.55	27.4923
950.443	8.7485
953.336	19.1671
956.229	51.6331
959.121	35.3206
962.014	21.2548
964.907	11.7016
967.799	39.8665
970.692	9.95017
973.585	22.856
976.477	14.542
979.37	2.82376
982.263	31.0338
985.155	27.664
988.048	19.4533
990.941	13.1158
993.834	36.0296
996.726	1.73273
999.619	14.7382
1002.51	45.6909
1005.4	30.3322
1008.3	32.3068
1011.19	27.8439
1014.08	47.5854
1016.98	38.1082
1019.87	69.6176
1022.76	25.4242
1025.65	28.8206
1028.55	48.7124
1031.44	52.871
1034.33	37.5067
1037.22	25.0075
1040.12	53.0615
1043.01	53.8369
1045.9	43.0701
1048.8	65.319
1051.69	41.0342
1054.58	36.7003
1057.47	33.1092
1060.37	43.2416
1063.26	24.7079
1066.15	46.636
1069.04	41.7762
1071.94	26.9062
1074.83	25.2881
1077.72	23.0254
1080.62	46.6125
1083.51	6.16788
1086.4	26.3566
1089.29	54.7787
1092.18	57.3335
1095.08	27.4363
1097.97	59.0438
1100.86	71.5672
1103.76	16.2513
1106.65	56.525
1109.54	34.3529
1112.43	20.7901
1115.33	34.1173
1118.22	45.3158
1121.11	12.294
1124.01	50.9032
1126.9	15.4329
1129.79	10.9984
1132.68	2.51923
1135.58	10.3101
1138.47	33.5464
1141.36	19.7107
1144.25	42.6777
1147.15	17.32
1150.04	2.19626
1152.93	17.0067
1155.83	8.21835
1158.72	11.8176
1161.61	21.8534
1164.5	29.2512
1167.4	28.3296
1170.29	24.2659
1173.18	25.6436
1176.07	35.3011
1178.97	21.5473
1181.86	32.9112
1184.75	45.2097
1187.64	19.5291
1190.54	43.6188
1193.43	39.8956
1196.32	15.7264
1199.21	26.9204
1202.11	33.9263
1205	3.22763
1207.89	33.4115
1210.79	28.5512
1213.68	23.4185
1216.57	48.4163
1219.46	58.3212
1222.36	20.961
1225.25	15.6887
1228.14	33.9404
1231.04	51.9882
1233.93	27.4925
1236.82	54.3221
1239.71	9.7681
1242.61	21.1981
1245.5	29.4088
1248.39	34.4304
1251.28	24.9942
1254.18	8.92282
1257.07	25.5311
1259.96	17.0255
1262.85	32.9851
1265.75	59.4783
1268.64	49.0155
1271.53	64.7361
1274.42	24.9397
1277.32	37.4812
1280.21	20.1787
1283.1	25.18
1286	54.2975
1288.89	30.1005
1291.78	11.0226
1294.67	19.3752
1297.57	4.69489
