Measurement: Raman, 780 nm, unoriented, Raman Data Processed
Mineral: Arsenic
Rruff sample: R050653
Ideal chemistry: As
Locality: Japan
Source: University of Arizona Mineral Museum
Description: Gray massive
Measured chemistry: As
Raman shift (cm-1)	intensity
153.736	0
156.629	0.032627
159.522	0.108704
162.414	0.624584
165.307	2.25788
168.2	4.96073
171.093	9.20621
173.985	14.5074
176.878	20.3995
179.771	26.0037
182.663	32.4918
185.556	38.0459
188.449	41.1218
191.341	42.1093
194.234	39.5579
197.127	33.422
200.019	27.5841
202.912	21.3964
205.805	17.4181
208.697	13.6664
211.59	11.3963
214.483	9.65343
217.376	8.67082
220.268	7.43455
223.161	7.50148
226.054	6.50042
228.946	6.80944
231.839	9.05642
234.732	11.0685
237.625	13.4997
240.517	17.1851
243.41	20.0344
246.303	25.0882
249.195	27.2206
252.088	25.4377
254.981	18.2835
257.873	10.8107
260.766	6.68932
263.659	3.3728
266.551	2.68187
269.444	0.875664
272.337	0.652424
275.23	0.019867
278.122	0.37925
281.015	0.785179
283.908	0.421284
286.8	0.355972
289.693	0.079365
292.586	0.324974
295.478	0.965652
298.371	0.420277
301.264	0.138786
304.157	0.405125
307.049	0.01886
309.942	0.43343
312.835	0.106739
315.727	0.155365
318.62	0.50491
321.513	0.826744
324.406	0.319183
327.298	1.05876
330.191	1.1472
333.084	1.27461
335.976	1.06289
338.869	0.635315
341.762	0.970741
344.654	1.36011
347.547	0.447933
350.44	1.00636
353.332	0.948364
356.225	0.80846
359.118	0.940826
362.01	1.05893
364.903	1.18185
367.796	1.30568
370.689	0.31427
373.581	1.4505
376.474	0.370575
379.367	1.01579
382.259	1.27417
385.152	0.424271
388.045	1.19862
390.938	0.906548
393.83	1.30378
396.723	0.430798
399.616	0.92313
402.508	0.787018
405.401	0.133469
408.294	1.18235
411.186	0.505077
414.079	0.616959
416.972	0.453613
419.865	0.108562
422.757	0.888992
425.65	0.833065
428.543	0.515163
431.435	1.02216
434.328	0.779633
437.221	0.967163
440.113	0.693016
443.006	0.971024
445.899	0.498104
448.791	0.329407
451.684	0.482628
454.577	0.639961
457.47	0.584045
460.362	0.461763
463.255	0.486309
466.148	0.163208
469.04	0.25692
471.933	0.721567
474.826	0.545641
477.719	0.811281
480.611	0.431067
483.504	1.00571
486.397	0.504604
489.289	1.18273
492.182	0.676125
495.075	0.60849
497.967	0.784107
500.86	0.602715
503.753	0.424669
506.645	0.231405
509.538	0.623137
512.431	0.279499
515.323	0.248323
518.216	0.492634
521.109	0.776634
524.002	0.161131
526.894	0.804939
529.787	0.659441
532.68	0.424913
535.572	0.705114
538.465	0.355114
541.358	0.526358
544.25	0.049541
547.143	0.572163
550.036	0.188068
552.929	0.411915
555.821	0.539295
558.714	0.836718
561.607	1.01978
564.499	0.296482
567.392	1.03035
570.285	0.163378
573.178	0.600105
576.07	0.874611
578.963	0.055304
581.856	0.271099
584.748	0.024353
587.641	1.004
590.534	0.193235
593.426	0.682089
596.319	0.055162
599.212	0.592796
602.105	0.429705
604.997	0.511211
607.89	0.340061
610.783	0.811897
613.675	0.631638
616.568	0.51795
619.461	0.616518
622.353	0.526356
625.246	0.274143
628.139	0.70351
631.031	0.541565
633.924	0.457022
636.817	0.44046
639.71	0.32193
642.602	0.812342
645.495	0.243923
648.388	0.711918
651.28	0.687496
654.173	0.354527
657.066	0.042891
659.958	0.194622
662.851	0.332169
665.744	0.060888
668.636	0.987877
671.529	0.192511
674.422	0.853575
677.315	0.209675
680.207	0.182981
683.1	0.978067
685.993	0.765615
688.885	0.332813
691.778	0.063507
694.671	1.00364
697.563	1.29051
700.456	0.659069
703.349	0.634085
706.242	0.43969
709.134	0.934679
712.027	0.737692
714.92	0.05702
717.812	1.32357
720.705	0.432758
723.598	0.860716
726.49	0.452541
729.383	0.799009
732.276	1.0923
735.169	0.930477
738.061	1.0049
740.954	0.744291
743.847	0.977747
746.739	0.403225
749.632	0.445196
752.525	0.640179
755.418	0.217123
758.31	0.852583
761.203	0.808029
764.096	0.627472
766.988	0.174522
769.881	0.448084
772.774	0.26663
775.666	0.421337
778.559	0.47822
781.452	0.54151
784.345	0.350819
787.237	0.527384
790.13	0.506376
793.023	0.33984
795.915	0.047258
798.808	0.389402
801.701	0.663643
804.593	0.853632
807.486	0.545238
810.379	0.870785
813.271	0.538809
816.164	0.099865
819.057	0.780844
821.949	0.828215
824.842	0.738941
827.735	0.963215
830.628	1.04423
833.52	0.896252
836.413	0.576666
839.306	0.828485
842.198	0.502903
845.091	0.880251
847.984	1.62877
850.876	1.08787
853.769	1.22393
856.662	1.19906
859.555	0.876883
862.447	0.832397
865.34	1.26944
868.233	0.421598
871.125	1.41415
874.018	0.876348
876.911	1.21707
879.803	0.611519
882.696	1.00427
885.589	0.606123
888.482	0.885336
891.374	0.575607
894.267	0.537706
897.16	0.611691
900.052	0.576696
902.945	1.21242
905.838	0.347519
908.731	0.620253
911.623	0.099667
914.516	0.129967
917.409	0.758839
920.301	0.026398
923.194	0.126369
926.087	0.027136
928.979	0.341141
931.872	0.390703
934.765	0.982967
937.658	0.67252
940.55	0.591143
943.443	0.374123
946.336	0.375912
949.228	0.402681
952.121	0.590141
955.014	0.75112
957.906	0.520048
960.799	1.23543
963.692	0.813604
966.584	0.735849
969.477	0.493038
972.37	0.694822
975.263	0.878586
978.155	0.704922
981.048	0.432768
983.941	0.332598
986.833	0.049532
989.726	0.473284
992.619	0.317341
995.511	0.90518
998.404	0.32222
1001.3	0.505894
1004.19	0.358927
1007.08	0.912848
1009.98	0.658955
1012.87	0.664587
1015.76	0.617529
1018.65	0.614357
1021.55	1.49277
1024.44	0.664984
1027.33	0.906981
1030.22	0.868807
1033.12	0.99929
1036.01	0.809429
1038.9	0.081247
1041.8	0.619804
1044.69	1.21505
1047.58	0.344013
1050.47	0.508846
1053.37	0.396515
1056.26	0.121464
1059.15	0.271128
1062.04	1.06122
1064.94	0.344254
1067.83	0.559132
1070.72	1.08765
1073.61	1.37976
1076.51	0.362963
1079.4	1.15072
1082.29	0.011806
1085.18	0.636488
1088.08	0.164433
1090.97	1.32231
1093.86	0.577686
1096.76	0.133917
1099.65	0.835484
1102.54	0.383295
1105.43	0.696667
1108.33	1.14907
1111.22	0.143961
1114.11	0.046513
1117.01	0.0466
1119.9	0.41078
1122.79	0.389456
1125.68	0.671286
1128.58	0.351755
1131.47	0.101727
1134.36	1.10414
1137.25	0.467358
1140.15	1.30159
1143.04	0.261803
1145.93	0.84462
1148.82	0.337006
1151.72	0.147335
1154.61	0.626263
1157.5	1.43986
1160.39	0.769264
1163.29	0.806545
1166.18	1.18226
1169.07	0.522354
1171.97	0.637348
1174.86	1.44345
1177.75	1.35334
1180.64	0.743519
1183.54	1.01227
1186.43	0.779377
1189.32	1.21857
1192.21	0.945686
1195.11	0.919792
1198	0.731354
1200.89	1.00843
1203.79	1.16348
1206.68	0.912464
1209.57	0.601929
1212.46	0.438053
1215.36	0.159462
1218.25	1.04781
1221.14	0.869621
1224.04	0.503357
1226.93	0.250992
1229.82	0.239716
1232.71	0.594337
1235.61	0.507664
1238.5	0.682678
1241.39	0.031395
1244.28	0.883411
1247.18	0.034668
1250.07	0.559998
1252.96	1.02383
1255.85	0.909241
1258.75	1.40787
1261.64	0.849979
1264.53	0.93853
1267.42	0.223373
1270.32	0.453362
1273.21	0.65836
1276.1	0.087944
