Measurement: Raman, 780 nm, unoriented, Raman Data Processed
Mineral: Arsenopyrite
Rruff sample: R070585
Ideal chemistry: Fe^3+^(AsS)^3-^
Locality: Standard Consolidated mine, Sumpter District, Baker County, Oregon, USA
Source: James Shigley
Description: Tin-yellow, metallic striated crystal associated with calcite
Measured chemistry: Fe_1.00_As_1.00_S_1.00_
Raman shift (cm-1)	intensity
144.942	0
147.834	18.6183
150.727	57.8478
153.62	145.818
156.512	131.606
159.405	159.281
162.298	165.233
165.19	187.44
168.083	124.245
170.976	102.401
173.869	2.453
176.761	46.1388
179.654	6.01965
182.547	29.1408
185.439	90.0418
188.332	94.5543
191.225	105.773
194.118	97.1637
197.01	92.2771
199.903	107.157
202.796	129.963
205.688	48.6905
208.581	64.8577
211.474	58.1758
214.366	29.7215
217.259	33.0235
220.152	14.936
223.044	18.9268
225.937	27.3058
228.83	4.84021
231.723	9.66785
234.615	4.71521
237.508	48.977
240.401	67.6578
243.293	2.10974
246.186	70.1902
249.079	81.1607
251.971	67.3368
254.864	93.2444
257.757	145.219
260.65	168.224
263.542	187.241
266.435	179.62
269.328	203.072
272.221	221.518
275.113	243.088
278.006	252.059
280.899	178.769
283.791	169.471
286.684	131.312
289.577	146.258
292.469	113.486
295.362	100.884
298.255	100.501
301.147	102.155
304.04	88.5229
306.933	112.512
309.826	124.157
312.718	167.316
315.611	194.053
318.504	203.702
321.396	196.784
324.289	195.408
327.182	192.538
330.075	184.672
332.967	141.203
335.86	177.792
338.753	157.716
341.645	164.336
344.538	127.116
347.431	171.066
350.323	125.071
353.216	128.704
356.109	133.75
359.002	79.5851
361.894	96.3998
364.787	74.8707
367.68	36.1101
370.572	18.4883
373.465	17.4037
376.358	1.42816
379.25	6.00848
382.143	9.69437
385.036	0.738464
387.928	0.250153
390.821	25.7171
393.714	15.7026
396.607	9.88867
399.499	6.32245
402.392	2.01306
405.285	21.564
408.177	26.0452
411.07	38.3655
413.963	43.5384
416.856	28.4078
419.748	47.4433
422.641	25.982
425.534	19.912
428.426	51.535
431.319	28.0807
434.212	6.3652
437.104	8.79596
439.997	28.1428
442.89	29.0729
445.783	20.9505
448.675	5.30185
451.568	19.9427
454.461	23.5664
457.353	41.5841
460.246	16.0952
463.139	17.9427
466.031	25.7147
468.924	52.3531
471.817	37.1166
474.709	1.72232
477.602	32.1164
480.495	23.6058
483.388	19.0405
486.28	50.7649
489.173	6.05457
492.066	19.9703
494.958	29.7112
497.851	14.6931
500.744	21.229
503.637	33.6471
506.529	39.6281
509.422	9.01767
512.315	27.3175
515.207	30.7094
518.1	33.9458
520.993	16.1228
523.885	43.4756
526.778	29.4467
529.671	40.3045
532.563	51.4943
535.456	25.9081
538.349	12.8114
541.242	49.87
544.134	69.8917
547.027	118.114
549.92	126.633
552.812	113.566
555.705	38.7419
558.598	7.70331
561.49	23.4831
564.383	6.47348
567.276	52.8067
570.169	10.8307
573.061	29.9857
575.954	8.8645
578.847	2.207
581.74	11.3514
584.632	7.07715
587.525	26.8233
590.418	3.90591
593.31	30.2434
596.203	2.70105
599.096	38.0849
601.988	23.7661
604.881	30.5476
607.774	28.3441
610.667	22.8677
613.559	1.23755
616.452	7.6752
619.345	23.081
622.237	22.2168
625.13	37.0695
628.023	34.2212
630.915	32.0068
633.808	29.1131
636.701	10.4102
639.593	21.7729
642.486	38.7438
645.379	4.18311
648.272	20.8515
651.164	26.4869
654.057	33.2085
656.95	11.1055
659.842	43.3169
662.735	19.6064
665.628	6.90826
668.52	5.89239
671.413	42.35
674.306	16.3368
677.199	27.6208
680.091	1.13791
682.984	59.3378
685.877	20.7878
688.769	23.776
691.662	38.542
694.555	27.1667
697.447	15.5623
700.34	30.8925
703.233	30.2625
706.126	34.516
709.018	37.6278
711.911	41.3125
714.804	18.3794
717.696	37.2913
720.589	19.4941
723.482	43.9579
726.375	52.6845
729.267	57.21
732.16	21.936
735.053	21.0347
737.945	30.1623
740.838	25.2491
743.731	2.02237
746.623	10.9866
749.516	13.1749
752.409	27.3497
755.302	23.4272
758.194	8.31552
761.087	14.3811
763.98	12.1299
766.872	30.2834
769.765	4.50464
772.658	11.1915
775.55	13.7343
778.443	47.7146
781.336	20.1364
784.229	10.6082
787.121	35.1878
790.014	19.7228
792.907	45.3008
795.799	14.1057
798.692	0.289429
801.585	0.898499
804.477	31.8707
807.37	8.12585
810.263	23.7498
813.156	31.4793
816.048	28.7431
818.941	17.9101
821.834	38.6356
824.726	57.8582
827.619	11.0952
830.512	30.8176
833.404	27.0417
836.297	30.9432
839.19	42.0809
842.083	13.8963
844.975	34.6487
847.868	16.6717
850.761	23.4748
853.653	32.1549
856.546	7.23328
859.439	23.4787
862.332	31.145
865.224	30.6763
868.117	23.6151
871.01	2.03183
873.902	3.86542
876.795	6.25623
879.688	40.9666
882.58	16.9868
885.473	30.4951
888.366	21.7306
891.259	13.2242
894.151	0.131439
897.044	15.4193
899.937	30.7158
902.829	17.1526
905.722	35.3268
908.615	16.9869
911.507	49.4931
914.4	23.242
917.293	11.746
920.186	38.5514
923.078	26.9224
925.971	25.9132
928.864	11.5359
931.756	46.6752
934.649	22.1311
937.542	27.5073
940.434	15.4772
943.327	17.3622
946.22	21.4048
949.112	32.5632
952.005	7.6293
954.898	39.5506
957.791	22.762
960.683	14.4158
963.576	13.2137
966.469	0.650574
969.361	13.19
972.254	32.7143
975.147	0.359161
978.04	20.8513
980.932	23.5633
983.825	1.9744
986.718	5.72492
989.61	29.151
992.503	9.65122
995.396	24.7077
998.288	25.8616
1001.18	25.4896
1004.07	23.2669
1006.97	42.2607
1009.86	21.7049
1012.75	47.5915
1015.64	22.7567
1018.54	39.9632
1021.43	19.3587
1024.32	24.0984
1027.21	33.3466
1030.11	14.9953
1033	4.92133
1035.89	27.8133
1038.79	52.9081
1041.68	20.2084
1044.57	44.344
1047.46	40.6823
1050.36	61.3546
1053.25	34.889
1056.14	14.8362
1059.04	54.2015
1061.93	45.2285
1064.82	24.3592
1067.71	21.5826
1070.61	54.005
1073.5	24.2029
1076.39	52.5168
1079.28	40.1913
1082.18	44.9618
1085.07	23.8783
1087.96	25.2091
1090.86	66.7326
1093.75	48.4958
1096.64	9.95337
1099.53	1.07233
1102.43	32.182
1105.32	35.8296
1108.21	47.021
1111.1	12.1459
1114	23.2568
1116.89	35.1007
1119.78	22.5848
1122.67	52.477
1125.57	29.1209
1128.46	35.0438
1131.35	21.8695
1134.24	22.1932
1137.14	12.7897
1140.03	29.5925
1142.92	32.4945
1145.82	14.0782
1148.71	27.8047
1151.6	2.94489
1154.49	43.8672
1157.39	34.4397
1160.28	47.4252
1163.17	30.9094
1166.07	31.0245
1168.96	33.915
1171.85	13.9441
1174.74	35.1293
1177.64	14.452
1180.53	14.5316
1183.42	36.847
1186.31	20.5587
1189.21	22.5757
1192.1	23.3911
1194.99	22.8892
1197.88	15.4187
1200.78	2.02759
1203.67	18.1182
1206.56	7.93927
1209.46	40.2716
1212.35	64.4123
1215.24	16.6583
1218.13	8.45465
1221.03	6.75568
1223.92	7.22626
1226.81	8.14777
1229.7	16.923
1232.6	17.1412
1235.49	21.8536
1238.38	9.633
1241.28	1.39343
1244.17	8.95575
1247.06	4.7088
1249.95	30.7394
1252.85	39.3415
1255.74	39.1272
1258.63	30.3298
1261.52	28.1473
1264.42	33.5242
1267.31	22.4731
1270.2	32.3865
1273.1	58.4999
1275.99	0.380676
1278.88	42.4987
1281.77	6.45435
1284.67	8.43066
