Measurement: Raman, 532 nm, unoriented, Raman Data Processed
Mineral: Arsenic
Rruff sample: R050653
Ideal chemistry: As
Locality: Japan
Source: University of Arizona Mineral Museum
Description: Gray massive
Measured chemistry: As
Raman shift (cm-1)	intensity
157.278	0
160.171	0.115009
163.063	0.552963
165.956	0.450485
168.849	2.62661
171.742	5.17633
174.634	8.83603
177.527	12.446
180.42	17.7157
183.312	23.9016
186.205	29.4154
189.098	34.6211
191.99	42.5978
194.883	45.2709
197.776	42.5237
200.668	35.9363
203.561	31.5013
206.454	29.8375
209.347	26.1893
212.239	25.8159
215.132	26.4596
218.025	24.2828
220.917	25.6023
223.81	23.3512
226.703	23.2969
229.596	23.7536
232.488	24.1088
235.381	27.8345
238.274	31.6153
241.166	34.9282
244.059	41.0759
246.952	47.9435
249.845	61.8428
252.737	77.2647
255.63	64.1578
258.523	42.8507
261.415	25.9909
264.308	20.0153
267.201	16.6544
270.093	8.41496
272.986	4.31298
275.879	3.12788
278.772	1.52324
281.664	0.607956
284.557	0.633141
287.45	0.524025
290.342	0.513657
293.235	0.809029
296.128	0.311729
299.021	0.289764
301.913	0.429279
304.806	0.483906
307.699	0.0462
310.591	0.018967
313.484	0.037037
316.377	0.817265
319.269	0.247978
322.162	0.186512
325.055	0.304928
327.947	0.759411
330.84	1.19947
333.733	1.4939
336.626	1.5607
339.518	1.10694
342.411	1.75971
345.304	0.886433
348.196	2.24202
351.089	2.01112
353.982	2.77214
356.875	2.80314
359.767	2.62457
362.66	3.75347
365.553	6.8392
368.445	8.73977
371.338	4.04661
374.231	1.90402
377.123	1.92034
380.016	1.56644
382.909	0.939369
385.802	0.295273
388.694	0.278473
391.587	0.95768
394.48	0.68721
397.372	0.665298
400.265	0.198997
403.158	1.0903
406.05	0.131943
408.943	0.843895
411.836	0.918839
414.729	0.305328
417.621	1.1973
420.514	1.26251
423.407	1.17369
426.299	1.08952
429.192	0.832825
432.085	1.35445
434.978	1.68098
437.87	1.53239
440.763	1.14516
443.656	1.35
446.548	1.51804
449.441	0.443932
452.334	1.47781
455.226	0.865509
458.119	0.882584
461.012	1.03071
463.905	1.13186
466.797	1.54157
469.69	1.46836
472.583	1.4459
475.475	0.543488
478.368	1.37829
481.261	0.905865
484.154	0.264313
487.046	2.16886
489.939	0.957905
492.832	0.740715
495.724	0.763584
498.617	1.15228
501.51	0.924858
504.402	1.11344
507.295	1.61614
510.188	1.46826
513.081	1.44315
515.973	0.330032
518.866	0.160709
521.759	0.308266
524.651	0.457882
527.544	0.360416
530.437	0.453434
533.33	0.451553
536.222	0.805908
539.115	0.13266
542.008	0.504608
544.9	0.233093
547.793	0.25378
550.686	0.680462
553.578	0.792095
556.471	0.613277
559.364	0.966152
562.256	1.37907
565.149	0.675735
568.042	0.98222
570.935	0.385635
573.827	0.300953
576.72	0.960464
579.613	1.02142
582.505	0.29047
585.398	0.200356
588.291	0.222332
591.184	0.682442
594.076	0.470104
596.969	1.08951
599.862	0.35944
602.754	1.1934
605.647	0.993084
608.54	0.055794
611.433	0.180401
614.325	0.170647
617.218	0.553123
620.111	0.939892
623.003	0.815331
625.896	0.286293
628.789	1.48584
631.682	0.395885
634.574	0.582489
637.467	0.470169
640.36	0.029236
643.252	1.33091
646.145	0.157856
649.038	0.88195
651.93	0.487656
654.823	0.070972
657.716	0.105206
660.609	1.20128
663.501	1.28546
666.394	0.922974
669.287	0.994205
672.179	0.689964
675.072	1.26391
677.965	1.48689
680.857	1.26068
683.75	0.975986
686.643	1.50076
689.535	1.5471
692.428	1.09455
695.321	0.523266
698.214	0.72538
701.106	1.05997
703.999	1.11528
706.892	1.72624
709.784	1.54632
712.677	0.853539
715.57	1.81625
718.462	1.81277
721.355	1.45029
724.248	1.46125
727.141	2.11833
730.033	0.57798
732.926	1.51168
735.819	0.807003
738.712	0.612785
741.604	1.04656
744.497	1.36187
747.39	0.979279
750.282	0.492905
753.175	1.21544
756.068	0.506351
758.96	1.01597
761.853	0.3969
764.746	1.1945
767.639	0.65863
770.531	1.2197
773.424	0.995396
776.317	1.22381
779.209	0.878075
782.102	1.19611
784.995	1.07064
787.888	0.806427
790.78	0.819847
793.673	0.528667
796.566	0.35788
799.458	0.062851
802.351	0.104179
805.244	0.605297
808.136	0.681156
811.029	0.837147
813.922	0.156586
816.814	0.948696
819.707	1.28919
822.6	1.21982
825.493	0.763939
828.385	0.796116
831.278	1.42219
834.171	1.65639
837.063	1.84386
839.956	1.70631
842.849	2.55669
845.741	3.54405
848.634	2.82633
851.527	2.89571
854.42	2.53194
857.312	3.52968
860.205	3.8992
863.098	3.43165
865.99	3.10894
868.883	3.36168
871.776	2.62478
874.669	2.51323
877.561	2.84279
880.454	2.25578
883.347	2.9701
886.239	1.74262
889.132	0.88641
892.025	0.998917
894.918	1.71124
897.81	0.633213
900.703	1.08502
903.596	1.031
906.488	0.2314
909.381	0.611095
912.274	0.109158
915.166	0.570068
918.059	0.076714
920.952	0.093918
923.845	1.01779
926.737	0.163422
929.63	0.127781
932.523	0.027241
935.415	1.00514
938.308	0.381527
941.201	1.25777
944.093	0.743984
946.986	0.923069
949.879	0.959618
952.771	0.561481
955.664	0.003944
958.557	0.244907
961.45	1.31968
964.342	0.578114
967.235	0.186558
970.128	1.06272
973.02	0.811493
975.913	0.166161
978.806	1.61982
981.699	0.282391
984.591	0.814068
987.484	0.996597
990.377	0.812904
993.269	0.788506
996.162	0.390045
999.055	0.102833
1001.95	1.07221
1004.84	0.566402
1007.73	0.314644
1010.63	0.436306
1013.52	1.20553
1016.41	0.591667
1019.3	0.755638
1022.2	0.302677
1025.09	1.11506
1027.98	0.556679
1030.88	0.852386
1033.77	1.1415
1036.66	0.786499
1039.55	0.267982
1042.44	0.912445
1045.34	1.14145
1048.23	0.44352
1051.12	0.696648
1054.02	1.19583
1056.91	0.606331
1059.8	1.15634
1062.69	2.05335
1065.59	0.395836
1068.48	0.790901
1071.37	1.6197
1074.27	0.15522
1077.16	1.09001
1080.05	1.02361
1082.94	0.344009
1085.84	0.627342
1088.73	1.08344
1091.62	0.921745
1094.51	0.478683
1097.41	0.941422
1100.3	0.737885
1103.19	1.38492
1106.09	0.79007
1108.98	0.678749
1111.87	0.39167
1114.76	1.16817
1117.66	1.36278
1120.55	0.29245
1123.44	0.491524
1126.33	0.907028
1129.23	0.199226
1132.12	0.486801
1135.01	0.654625
1137.9	0.465385
1140.8	1.03243
1143.69	0.532936
1146.58	1.72691
1149.47	1.14877
1152.37	1.29909
1155.26	0.609207
1158.15	1.5211
1161.05	0.883057
1163.94	0.600418
1166.83	1.5433
1169.72	0.755753
1172.62	1.33422
1175.51	1.99849
1178.4	1.16347
1181.3	0.690056
1184.19	0.923119
1187.08	1.33151
1189.97	0.420441
1192.87	0.391235
1195.76	1.08538
1198.65	0.787125
1201.54	1.28621
1204.44	1.26083
1207.33	1.44276
1210.22	0.753136
1213.12	1.78283
1216.01	0.691238
1218.9	0.218712
1221.79	0.498688
1224.69	0.622459
1227.58	1.13989
1230.47	1.50069
1233.36	0.92347
1236.26	0.049576
1239.15	1.03075
1242.04	0.093559
1244.93	0.051369
1247.83	0.417831
1250.72	0.482826
1253.61	0.408188
1256.51	0.214027
1259.4	0.643745
1262.29	0.008385
1265.18	0.820496
1268.08	1.27777
1270.97	1.13725
1273.86	1.61493
1276.75	0.7593
1279.65	0.828659
1282.54	1.63882
1285.43	0.862801
1288.33	1.18713
1291.22	1.20781
1294.11	1.15241
1297	1.73671
1299.9	0.580231
