Measurement: Raman, 780 nm, unoriented, Raman Data Processed
Mineral: Artinite
Rruff sample: R060234
Ideal chemistry: Mg_2_CO_3_(OH)_2_3H_2_O
Locality: southern San Benito County, California, USA
Source: Michael Scott
Description: Divergent sprays of clear colorless acicular crystals
Measured chemistry: Mg_2.00_(CO_3_)(OH)_2_Â·3H_2_O
Raman shift (cm-1)	intensity
133.317	0
136.209	0.375084
139.102	2.5528
141.995	0.560066
144.888	0.825764
147.78	1.89776
150.673	1.46301
153.566	3.04439
156.458	5.64706
159.351	6.61049
162.244	8.16484
165.137	11.0502
168.029	13.1653
170.922	15.1882
173.815	13.3842
176.707	6.79954
179.6	2.40856
182.493	0.658249
185.385	0.202907
188.278	0.160968
191.171	0.789591
194.064	0.399196
196.956	0.067916
199.849	0.634983
202.742	0.75822
205.634	1.42663
208.527	1.7047
211.42	2.09214
214.312	2.12909
217.205	1.85404
220.098	2.30011
222.991	2.89746
225.883	3.06256
228.776	3.67029
231.669	4.4889
234.561	4.60916
237.454	5.20536
240.347	5.77195
243.239	5.19791
246.132	4.99372
249.025	3.91244
251.918	3.21071
254.81	2.79992
257.703	2.94926
260.596	2.67187
263.488	2.67841
266.381	2.63164
269.274	2.40129
272.166	2.51247
275.059	2.64177
277.952	2.21001
280.845	1.8484
283.737	1.25814
286.63	1.23858
289.523	0.785894
292.415	0.833781
295.308	0.417062
298.201	0.538785
301.094	0.514785
303.986	0.111031
306.879	0.525082
309.772	0.569468
312.664	0.645857
315.557	0.613535
318.45	1.05541
321.342	0.818854
324.235	0.694393
327.128	0.535271
330.021	0.442451
332.913	0.215215
335.806	0.006798
338.699	0.10124
341.591	0.008675
344.484	0.109374
347.377	0.156383
350.269	0.00189
353.162	0.007556
356.055	0.038395
358.947	0.175904
361.84	0.014307
364.733	0.78978
367.626	0.50012
370.518	0.802526
373.411	0.893582
376.304	0.945165
379.197	0.94797
382.089	0.851028
384.982	0.452142
387.875	0.101579
390.767	0.188
393.66	0.124627
396.553	0.570478
399.445	0.244922
402.338	0.684618
405.231	0.28601
408.123	0.308429
411.016	0.015832
413.909	0.576463
416.802	0.724164
419.694	0.713584
422.587	0.674681
425.48	1.13902
428.372	1.17991
431.265	0.935342
434.158	0.963359
437.05	0.98055
439.943	1.46002
442.836	1.20704
445.729	1.26931
448.621	1.29736
451.514	1.18485
454.407	1.6548
457.299	1.54195
460.192	1.41197
463.085	2.06442
465.978	2.30055
468.87	2.08552
471.763	1.77046
474.656	1.57565
477.548	0.866074
480.441	0.563228
483.334	0.48306
486.226	0.341643
489.119	0.277555
492.012	0.118634
494.904	0.073758
497.797	0.251336
500.69	0.039243
503.583	0.17819
506.475	0.05078
509.368	0.291852
512.261	0.149577
515.153	0.35342
518.046	0.256684
520.939	0.159012
523.832	0.183572
526.724	0.2404
529.617	0.357137
532.51	0.57119
535.402	0.326451
538.295	0.402665
541.188	0.246307
544.081	0.496811
546.973	0.03138
549.866	0.66392
552.759	0.252433
555.651	0.514427
558.544	0.110232
561.437	0.227803
564.329	0.506586
567.222	0.35457
570.115	0.249153
573.008	0.166869
575.9	0.296531
578.793	0.021013
581.686	0.083068
584.578	0.200916
587.471	0.461749
590.364	0.633979
593.256	0.305859
596.149	0.276715
599.042	0.380208
601.934	0.161591
604.827	0.524063
607.72	0.235211
610.613	0.225057
613.505	0.17838
616.398	0.192935
619.291	0.264989
622.183	0.237003
625.076	0.476498
627.969	0.128688
630.861	0.177995
633.754	0.00886
636.647	0.14782
639.54	0.401835
642.432	0.140725
645.325	0.201425
648.218	0.46068
651.111	0.215023
654.003	0.181212
656.896	0.003205
659.789	0.207783
662.681	0.391062
665.574	0.527351
668.467	0.392352
671.359	0.438099
674.252	0.509758
677.145	0.416664
680.038	0.774962
682.93	0.725396
685.823	1.04058
688.716	1.35497
691.608	1.22642
694.501	1.3154
697.394	1.25858
700.286	1.43536
703.179	1.14003
706.072	1.23938
708.965	0.780628
711.857	0.484589
714.75	0.516749
717.643	0.317889
720.535	0.178072
723.428	0.386251
726.321	0.452346
729.213	0.320508
732.106	0.189336
734.999	0.08138
737.891	0.132926
740.784	0.018713
743.677	0.070016
746.57	0.219244
749.462	0.088894
752.355	0.160115
755.248	0.206077
758.14	0.152632
761.033	0.261424
763.926	0.343283
766.818	0.120028
769.711	0.213933
772.604	0.324239
775.497	0.2627
778.389	0.170551
781.282	0.503304
784.175	0.215317
787.067	0.57813
789.96	0.652091
792.853	0.815964
795.745	0.678552
798.638	0.554425
801.531	0.600164
804.424	0.403361
807.316	0.14047
810.209	0.163904
813.102	0.501204
815.994	0.006192
818.887	0.1675
821.78	0.457775
824.673	0.384938
827.565	0.285625
830.458	0.235217
833.351	0.362223
836.243	0.224979
839.136	0.061602
842.029	0.274938
844.922	0.055286
847.814	0.117805
850.707	0.075737
853.6	0.040517
856.492	0.056843
859.385	0.041435
862.278	0.056484
865.17	0.345809
868.063	0.346773
870.956	0.341576
873.848	0.069984
876.741	0.213718
879.634	0.289243
882.527	0.217799
885.419	0.324114
888.312	0.062829
891.205	0.184621
894.097	0.328846
896.99	0.207545
899.883	0.103874
902.775	0.299609
905.668	0.173707
908.561	0.091533
911.454	0.24608
914.346	0.382299
917.239	0.067469
920.132	0.19648
923.024	0.158503
925.917	0.159771
928.81	0.163996
931.703	0.345255
934.595	0.139624
937.488	0.387982
940.381	0.161189
943.273	0.14213
946.166	0.27378
949.059	0.268506
951.952	0.120319
954.844	0.242617
957.737	0.064742
960.63	0.062181
963.522	0.176661
966.415	0.116342
969.308	0.167252
972.2	0.27356
975.093	0.19214
977.986	0.144761
980.879	0.277208
983.771	0.314914
986.664	0.311971
989.557	0.016414
992.449	0.182892
995.342	0.072033
998.235	0.278274
1001.13	0.066692
1004.02	0.292058
1006.91	0.040012
1009.8	0.101501
1012.7	0.024472
1015.59	0.142458
1018.48	0.185063
1021.38	0.227825
1024.27	0.21228
1027.16	0.04711
1030.05	0.43093
1032.95	0.208107
1035.84	0.311553
1038.73	0.21108
1041.62	0.328045
1044.52	0.48037
1047.41	0.402701
1050.3	0.446976
1053.2	0.508996
1056.09	0.684216
1058.98	0.690567
1061.87	0.727337
1064.77	0.538527
1067.66	0.823742
1070.55	0.64198
1073.44	1.01218
1076.34	1.21772
1079.23	1.46954
1082.12	2.6713
1085.02	4.2585
1087.91	6.36868
1090.8	8.68812
1093.69	9.74309
1096.59	6.45739
1099.48	3.22445
1102.37	1.53751
1105.27	0.874208
1108.16	0.672723
1111.05	0.371407
1113.94	0.192578
1116.84	0.053539
1119.73	0.054991
1122.62	0.225321
1125.51	0.112055
1128.41	0.278334
1131.3	0.306816
1134.19	0.030255
1137.08	0.008339
1139.98	0.046475
1142.87	0.218594
1145.76	0.154255
1148.65	0.280115
1151.55	0.048799
1154.44	0.395427
1157.33	0.068538
1160.23	0.078269
1163.12	0.046183
1166.01	0.334577
1168.9	0.325128
1171.8	0.510074
1174.69	0.203422
1177.58	0.156708
1180.47	0.416519
1183.37	0.3011
1186.26	0.095106
1189.15	0.261692
1192.05	0.012944
1194.94	0.061925
1197.83	0.13383
1200.72	0.134945
1203.62	0.29419
1206.51	0.36217
1209.4	0.214424
1212.3	0.184271
1215.19	0.299348
1218.08	0.390402
1220.97	0.330395
1223.87	0.436444
1226.76	0.343542
1229.65	0.273701
1232.54	0.423953
1235.44	0.235291
1238.33	0.234656
1241.22	0.077708
1244.11	0.152839
1247.01	0.198316
1249.9	0.243167
1252.79	0.030796
1255.68	0.161477
1258.58	0.301378
1261.47	0.159219
1264.36	0.252808
1267.26	0.323786
1270.15	0.171548
1273.04	0.434343
1275.93	0.0218
1278.83	0.288112
1281.72	0.09552
