Measurement: Raman, 780 nm, unoriented, Raman Data Processed
Mineral: Ashburtonite
Rruff sample: R110003
Ideal chemistry: HPb^2+^_4_Cu^2+^_4_(Si_4_O_12_)(HCO_3_)_4_(OH)_4_Cl
Locality: Tonopah-Belmont mine, Maricopa County, Arizona, USA
Source: Bob Jenkins
Description: Blue prismatic crystals associated with calcite
Measured chemistry: Bright phase is cerrusite.
Raman shift (cm-1)	intensity
166.298	0
169.19	0.112861
172.083	0.227087
174.976	0.367551
177.869	0.898938
180.761	1.04428
183.654	1.20767
186.547	0.353276
189.439	0.24373
192.332	0.136311
195.225	0.642213
198.117	0.495937
201.01	0.474443
203.903	0.347012
206.796	0.70788
209.688	0.556535
212.581	0.557474
215.474	0.351177
218.366	0.132888
221.259	0.098411
224.152	0.122617
227.044	0.408076
229.937	0.854532
232.83	0.956451
235.722	0.936681
238.615	0.696157
241.508	0.499727
244.401	0.59451
247.293	0.372571
250.186	0.541445
253.079	0.468189
255.971	0.45459
258.864	0.696614
261.757	0.525257
264.649	0.607179
267.542	0.51487
270.435	0.343352
273.328	1.1035
276.22	0.897675
279.113	0.938107
282.006	0.502886
284.898	0.518903
287.791	0.520225
290.684	0.509894
293.576	0.156939
296.469	0.175259
299.362	0.076357
302.255	0.201245
305.147	0.078957
308.04	0.011267
310.933	0.021004
313.825	0.442469
316.718	0.111182
319.611	0.028217
322.503	0.088884
325.396	0.310064
328.289	0.076914
331.182	0.542887
334.074	0.353658
336.967	0.008702
339.86	0.178531
342.752	0.276781
345.645	0.553962
348.538	0.577224
351.43	0.597815
354.323	0.50911
357.216	0.634328
360.108	0.393627
363.001	0.963482
365.894	0.418223
368.787	0.527576
371.679	0.243203
374.572	0.393856
377.465	0.204037
380.357	0.229057
383.25	0.362016
386.143	0.541778
389.036	0.473852
391.928	0.491389
394.821	0.7713
397.714	0.676143
400.606	0.72083
403.499	0.814681
406.392	1.23675
409.284	0.854811
412.177	0.776695
415.07	0.629518
417.962	0.739541
420.855	0.276643
423.748	0.116686
426.641	0.468862
429.533	0.504837
432.426	0.002065
435.319	0.160004
438.211	0.299582
441.104	0.280952
443.997	0.210252
446.889	0.275472
449.782	0.177036
452.675	0.060063
455.567	0.038918
458.46	0.09873
461.353	0.253586
464.246	0.353912
467.138	0.178453
470.031	0.431445
472.924	0.175043
475.816	0.155069
478.709	0.080284
481.602	0.582569
484.495	0.221901
487.387	0.289093
490.28	0.200435
493.173	0.212838
496.065	0.065387
498.958	0.157651
501.851	0.047385
504.743	0.408955
507.636	0.254446
510.529	0.368148
513.422	0.6366
516.314	0.382322
519.207	0.238122
522.1	0.299776
524.992	0.181909
527.885	0.258002
530.778	0.126824
533.67	0.242923
536.563	0.421235
539.456	0.397933
542.348	0.421243
545.241	0.272551
548.134	0.135956
551.027	0.407114
553.919	0.123844
556.812	0.283841
559.705	0.325153
562.597	0.112707
565.49	0.241853
568.383	0.010029
571.275	0.49564
574.168	0.359698
577.061	0.325685
579.954	0.536818
582.846	0.476725
585.739	0.271551
588.632	0.145277
591.524	0.175716
594.417	0.435446
597.31	0.078936
600.202	0.664803
603.095	0.370302
605.988	0.548629
608.881	0.238678
611.773	0.241592
614.666	0.42377
617.559	0.55743
620.451	0.586937
623.344	0.215351
626.237	0.376726
629.129	0.504583
632.022	0.267953
634.915	0.07098
637.808	0.254111
640.7	0.124814
643.593	0.297311
646.486	0.48787
649.378	0.454526
652.271	0.289928
655.164	0.26866
658.056	0.192178
660.949	0.286698
663.842	0.446855
666.735	0.490947
669.627	0.623684
672.52	0.180925
675.413	0.243182
678.305	0.496105
681.198	0.35411
684.091	0.48328
686.983	0.514316
689.876	0.257475
692.769	0.668526
695.662	0.59065
698.554	0.421323
701.447	0.441426
704.34	0.363627
707.232	0.835708
710.125	0.53033
713.018	0.718278
715.91	0.655541
718.803	0.284507
721.696	0.163357
724.588	0.406738
727.481	0.190798
730.374	0.368612
733.266	0.136731
736.159	0.295251
739.052	0.299805
741.945	0.318359
744.837	0.163366
747.73	0.428876
750.623	0.29417
753.515	0.124088
756.408	0.079133
759.301	0.075276
762.193	0.311652
765.086	0.271137
767.979	0.010463
770.872	0.046212
773.764	0.324389
776.657	0.210638
779.55	0.257087
782.442	0.250388
785.335	0.338072
788.228	0.436464
791.12	0.050741
794.013	0.029548
796.906	0.268321
799.799	0.392337
802.691	0.01865
805.584	0.152319
808.477	0.398494
811.369	0.410116
814.262	0.271368
817.155	0.104476
820.048	0.453838
822.94	0.225699
825.833	0.037293
828.726	0.430951
831.618	0.232108
834.511	0.393292
837.404	0.354763
840.296	0.257767
843.189	0.161262
846.082	0.246841
848.975	0.260654
851.867	0.237791
854.76	0.274326
857.653	0.431249
860.545	0.003767
863.438	0.099626
866.331	0.380351
869.223	0.323364
872.116	0.080523
875.009	0.036665
877.901	0.355336
880.794	0.048532
883.687	0.038931
886.58	0.294102
889.472	0.321399
892.365	0.412689
895.258	0.309873
898.15	0.119035
901.043	0.138811
903.936	0.255823
906.828	0.167099
909.721	0.308573
912.614	0.279925
915.506	0.096948
918.399	0.121457
921.292	0.060267
924.185	0.121261
927.077	0.190417
929.97	0.470063
932.863	0.224674
935.755	0.605387
938.648	0.307392
941.541	0.140438
944.433	0.319696
947.326	0.292974
950.219	0.44196
953.112	0.837804
956.004	0.36783
958.897	0.606184
961.79	0.604661
964.682	0.636376
967.575	0.409123
970.468	0.284433
973.361	0.175841
976.253	0.2943
979.146	0.249557
982.039	0.046742
984.931	0.075247
987.824	0.575067
990.717	0.368877
993.609	0.206893
996.502	0.032072
999.395	0.078354
1002.29	0.225482
1005.18	0.105366
1008.07	0.223598
1010.97	0.152456
1013.86	0.075266
1016.75	0.468663
1019.64	0.419747
1022.54	0.760842
1025.43	1.57327
1028.32	3.27787
1031.21	5.1701
1034.11	7.02006
1037	9.18304
1039.89	10.7575
1042.79	9.66816
1045.68	5.83097
1048.57	4.55185
1051.46	2.19118
1054.36	2.08362
1057.25	0.802146
1060.14	0.80108
1063.03	0.133592
1065.93	0.36979
1068.82	0.288534
1071.71	0.045168
1074.61	0.358457
1077.5	0.578475
1080.39	0.105949
1083.28	0.037038
1086.18	0.149242
1089.07	0.16145
1091.96	0.309554
1094.85	0.12703
1097.75	0.460189
1100.64	0.234965
1103.53	0.064935
1106.42	0.050845
1109.32	0.356257
1112.21	0.0165
1115.1	0.063284
1117.99	0.564696
1120.89	0.001496
1123.78	0.18167
1126.67	0.288707
1129.57	0.335037
1132.46	0.006616
1135.35	0.331258
1138.24	0.239767
1141.14	0.087147
1144.03	0.228863
1146.92	0.290816
1149.82	0.580279
1152.71	0.276121
1155.6	0.344921
1158.49	0.352582
1161.39	0.641482
1164.28	0.522696
1167.17	0.113377
1170.06	0.39239
1172.96	0.130504
1175.85	0.384666
1178.74	0.452264
1181.63	0.368671
1184.53	0.569856
1187.42	0.272106
1190.31	0.303116
1193.21	0.551908
1196.1	0.063231
1198.99	0.101243
1201.88	0.258612
1204.78	0.784541
1207.67	0.66713
1210.56	0.192254
1213.45	0.39545
1216.35	0.24408
1219.24	0.680032
1222.13	0.336671
1225.03	0.376659
1227.92	0.117969
1230.81	0.407819
1233.7	0.26724
1236.6	0.46308
1239.49	0.402619
1242.38	0.52723
1245.27	0.286335
1248.17	0.213359
1251.06	0.423576
1253.95	0.317045
1256.85	0.071537
1259.74	0.368231
1262.63	0.184121
1265.52	0.491819
1268.42	0.400892
1271.31	0.01794
1274.2	0.298091
1277.09	0.426958
1279.99	0.267757
1282.88	0.028368
