Measurement: Raman, 780 nm, unoriented, Raman Data Processed
Mineral: Ashcroftine-(Y)
Rruff sample: R110189
Ideal chemistry: K_5_Na_5_Y_12_Si_28_O_70_(OH)_2_(CO_3_)_8_8H_2_O
Locality: Poudrette quarry, Mont Saint-Hilaire, Quebec, Canada
Source: Donald Doell
Description: Aggregate of pink fibrous crystals
Raman shift (cm-1)	intensity
195.741	0
198.633	2.7395
201.526	0.489166
204.419	6.39484
207.311	9.66071
210.204	13.7462
213.097	23.017
215.99	30.2801
218.882	36.489
221.775	44.8873
224.668	47.1667
227.56	50.622
230.453	51.5901
233.346	53.0984
236.238	52.4039
239.131	59.4443
242.024	62.2807
244.917	65.7805
247.809	64.2452
250.702	61.4487
253.595	54.7131
256.487	45.7565
259.38	41.8425
262.273	34.0884
265.166	26.1977
268.058	20.9726
270.951	15.9268
273.844	7.64056
276.736	2.93359
279.629	0.915649
282.522	2.27069
285.414	2.53296
288.307	4.58954
291.2	3.34522
294.092	1.33728
296.985	3.80365
299.878	2.11749
302.771	1.46741
305.663	6.01715
308.556	9.50769
311.449	10.7553
314.341	13.19
317.234	17.2289
320.127	15.56
323.019	23.8871
325.912	24.6161
328.805	31.7359
331.698	33.9653
334.59	35.2372
337.483	40.8159
340.376	42.0961
343.268	42.0526
346.161	44.607
349.054	43.0956
351.947	43.1351
354.839	40.2686
357.732	42.3498
360.625	42.6717
363.517	40.3719
366.41	41.1481
369.303	48.1895
372.195	46.7801
375.088	46.3537
377.981	48.5761
380.873	51.8591
383.766	52.1315
386.659	52.0869
389.552	56.1658
392.444	58.3078
395.337	56.6644
398.23	53.5011
401.122	55.4851
404.015	53.5088
406.908	52.2351
409.8	49.9734
412.693	47.8928
415.586	44.5023
418.479	43.0895
421.371	45.1886
424.264	39.6951
427.157	36.5302
430.049	35.4421
432.942	36.166
435.835	31.6305
438.728	29.928
441.62	26.4265
444.513	23.8679
447.406	22.5125
450.298	19.4573
453.191	20.0345
456.084	17.4483
458.976	14.4819
461.869	13.9916
464.762	12.6307
467.654	7.40332
470.547	8.54102
473.44	9.99103
476.333	8.44574
479.225	7.46118
482.118	7.26666
485.011	7.91016
487.903	5.94122
490.796	3.1405
493.689	0.245728
496.582	0.225403
499.474	2.68976
502.367	2.94977
505.26	3.65518
508.152	1.24695
511.045	2.07117
513.938	1.78101
516.83	2.50159
519.723	0.588348
522.616	0.646637
525.509	0.345703
528.401	0.680725
531.294	0.717621
534.187	0.520264
537.079	0.572571
539.972	0.171448
542.865	1.66443
545.757	0.154694
548.65	0.339172
551.543	0.012115
554.436	2.06042
557.328	3.24222
560.221	2.21005
563.114	0.664673
566.006	2.22516
568.899	2.77542
571.792	2.246
574.684	4.01102
577.577	5.15723
580.47	6.57582
583.362	8.50221
586.255	11.1436
589.148	13.1186
592.041	14.3661
594.933	17.8996
597.826	19.994
600.719	17.3743
603.611	18.4724
606.504	18.9245
609.397	18.5686
612.29	17.8694
615.182	20.0936
618.075	23.9021
620.968	26.4112
623.86	34.0648
626.753	43.0009
629.646	55.685
632.538	73.9236
635.431	101.013
638.324	127.227
641.217	124.379
644.109	93.8036
647.002	61.0844
649.895	39.3267
652.787	28.3424
655.68	20.1145
658.573	16.7931
661.466	14.662
664.358	14.8401
667.251	12.9805
670.144	11.5713
673.036	9.0484
675.929	6.8925
678.822	5.0136
681.714	3.35756
684.607	1.75702
687.5	1.55365
690.393	0.359421
693.285	1.05208
696.178	1.2169
699.071	2.69438
701.963	4.84053
704.856	6.28538
707.749	6.40176
710.641	5.26874
713.534	4.44193
716.427	3.45218
719.319	7.32906
722.212	8.41501
725.105	7.14273
727.998	8.55925
730.89	8.55463
733.783	6.37274
736.676	1.9121
739.568	0.436081
742.461	0.124207
745.354	0.768654
748.246	0.337814
751.139	0.322327
754.032	1.79352
756.925	0.771332
759.817	0.701759
762.71	2.25047
765.603	2.94131
768.495	6.90817
771.388	7.97812
774.281	8.99139
777.173	7.07912
780.066	4.75052
782.959	2.9931
785.852	1.84464
788.744	0.980431
791.637	1.78022
794.53	1.64101
797.422	0.775925
800.315	1.22241
803.208	1.23794
806.101	1.18243
808.993	0.531853
811.886	0.070351
814.779	0.463844
817.671	0.99733
820.564	0.913773
823.457	0.686451
826.349	0.882511
829.242	0.004116
832.135	0.339104
835.028	0.3111
837.92	0.169476
840.813	0.822311
843.706	1.25888
846.598	1.37163
849.491	1.69815
852.384	1.43591
855.276	1.70975
858.169	1.7037
861.062	1.91987
863.955	1.93548
866.847	3.5849
869.74	2.7893
872.633	2.57534
875.525	2.37425
878.418	3.18699
881.311	2.74062
884.203	2.24659
887.096	2.25304
889.989	2.29336
892.881	1.55316
895.774	1.59
898.667	1.37408
901.56	1.72704
904.452	1.04981
907.345	0.999763
910.238	0.100395
913.13	0.827503
916.023	0.531963
918.916	0.499119
921.808	0.487228
924.701	0.195522
927.594	0.053623
930.487	0.142792
933.379	0.314026
936.272	0.39183
939.165	1.9254
942.057	0.527931
944.95	0.8689
947.843	2.2091
950.736	2.3441
953.628	3.07362
956.521	3.68849
959.414	2.89884
962.306	2.63361
965.199	2.80732
968.092	2.82187
970.984	3.66069
973.877	5.46647
976.77	5.88629
979.663	6.75104
982.555	5.90376
985.448	5.44572
988.341	5.40437
991.233	5.87204
994.126	5.76141
997.019	4.96969
999.911	4.96101
1002.8	5.36663
1005.7	5.64451
1008.59	5.82789
1011.48	6.45215
1014.38	6.6623
1017.27	7.20279
1020.16	7.49343
1023.05	5.38693
1025.95	4.57991
1028.84	2.25115
1031.73	2.19688
1034.62	0.228035
1037.52	0.376534
1040.41	0.318859
1043.3	0.946289
1046.19	0.732958
1049.09	0.279621
1051.98	0.122105
1054.87	1.34616
1057.77	4.48894
1060.66	13.1952
1063.55	35.4132
1066.44	80.6904
1069.34	129.096
1072.23	135.557
1075.12	90.5185
1078.01	40.7559
1080.91	19.7128
1083.8	15.4599
1086.69	17.835
1089.59	20.9442
1092.48	23.8672
1095.37	27.7592
1098.26	28.5303
1101.16	28.9747
1104.05	28.727
1106.94	25.8622
1109.83	21.9144
1112.73	15.3619
1115.62	12.0475
1118.51	8.28572
1121.4	5.58126
1124.3	4.78969
1127.19	2.54878
1130.08	2.97176
1132.98	1.60789
1135.87	1.91165
1138.76	1.46304
1141.65	2.21542
1144.55	1.54499
1147.44	1.05328
1150.33	1.04086
1153.22	0.678421
1156.12	0.896793
1159.01	0.784531
1161.9	0.756737
1164.8	0.800255
1167.69	0.853596
1170.58	1.87313
1173.47	2.11122
1176.37	2.65005
1179.26	3.28043
1182.15	3.45131
1185.04	3.14045
1187.94	3.28318
1190.83	3.87319
1193.72	2.98487
1196.62	3.42318
1199.51	4.03165
1202.4	4.33573
1205.29	3.13257
1208.19	2.19536
1211.08	2.61047
1213.97	2.36246
1216.86	1.51956
1219.76	1.41447
1222.65	0.058098
1225.54	0.45573
1228.43	0.172924
1231.33	0.93428
1234.22	0.267597
1237.11	0.958199
1240.01	1.68652
1242.9	2.20389
1245.79	2.76037
1248.68	2.90106
1251.58	5.37733
1254.47	4.15714
1257.36	4.1274
1260.25	5.07779
1263.15	2.30974
1266.04	3.30878
1268.93	1.78495
1271.83	1.82494
1274.72	1.78419
1277.61	1.56003
1280.5	1.39198
1283.4	0.00795
