Measurement: Raman, 785 nm, unoriented, Raman Data Processed
Mineral: Attikaite
Rruff sample: R070217
Ideal chemistry: Ca_3_Cu^2+^_2_Al_2_(As^5+^O_4_)_4_(OH)_4_2H_2_O
Locality: Christiana Mine,  Kamareza Mines,  Agios Konstantinos [St Constantine] (Kamareza; Kamariza),  Lavrion District Mines,  Lavrion District,  Attik√≠ (Attica; Attika) Prefecture,  Greece
Source: Michael Scott
Description: Aggregate of pale bluish-green microcrystals
Raman shift (cm-1)	intensity
164.892	0
167.785	40.4266
170.677	22.489
173.57	13.8442
176.463	22.9205
179.356	5.31128
182.248	7.37915
185.141	16.5839
188.034	41.6952
190.926	27.47
193.819	50.4733
196.712	60.2324
199.604	33.2687
202.497	56.3398
205.39	75.3308
208.282	78.5253
211.175	100.459
214.068	117.595
216.961	128.998
219.853	129.715
222.746	136.867
225.639	119.409
228.531	97.6068
231.424	99.348
234.317	82.4597
237.209	108.765
240.102	64.7079
242.995	68.4368
245.888	61.2726
248.78	67.0223
251.673	31.1176
254.566	1.49072
257.458	14.3758
260.351	0.404663
263.244	9.33313
266.137	1.89307
269.029	26.6677
271.922	7.05823
274.815	9.11194
277.707	20.1796
280.6	14.9784
283.493	34.735
286.385	43.6125
289.278	42.8332
292.171	67.2567
295.063	92.5569
297.956	103.678
300.849	108.712
303.742	82.2424
306.634	101.974
309.527	119.115
312.42	97.7026
315.312	85.8608
318.205	69.9377
321.098	40.9388
323.99	44.7715
326.883	60.1926
329.776	56.7357
332.669	57.6248
335.561	47.8674
338.454	39.8879
341.347	68.8424
344.239	61.886
347.132	81.2647
350.025	66.4032
352.918	96.2116
355.81	57.9003
358.703	78.4563
361.596	73.0762
364.488	60.9994
367.381	39.9741
370.274	22.4449
373.166	38.5926
376.059	71.5035
378.952	89.5775
381.844	111.453
384.737	123.662
387.63	169.178
390.523	176.18
393.415	193.858
396.308	169.197
399.201	175.097
402.093	150.302
404.986	179.452
407.879	191.954
410.772	173.974
413.664	182.176
416.557	206.188
419.45	194.464
422.342	210.934
425.235	210.141
428.128	189.628
431.02	188.272
433.913	203.169
436.806	184.522
439.699	206.672
442.591	200.188
445.484	177.177
448.377	107.175
451.269	101.346
454.162	49.6907
457.055	3.45459
459.947	10.2739
462.84	6.93286
465.733	20.3512
468.625	16.5572
471.518	5.88769
474.411	16.0193
477.304	5.1134
480.196	2.62158
483.089	24.8099
485.982	28.8785
488.874	73.8436
491.767	81.4557
494.66	96.2456
497.553	114.129
500.445	187.219
503.338	173.911
506.231	228.728
509.123	266.894
512.016	292.452
514.909	295.459
517.802	353.54
520.694	350.62
523.587	311.703
526.48	327.808
529.372	289.986
532.265	239.708
535.158	165.66
538.05	137.675
540.943	107.146
543.836	97.6806
546.729	55.2548
549.621	43.0728
552.514	15.6992
555.407	21.8664
558.299	29.7502
561.192	21.3622
564.085	31.5071
566.977	22.8003
569.87	20.3054
572.763	11.5952
575.655	8.49878
578.548	9.51691
581.441	21.2431
584.333	8.20453
587.226	28.9046
590.119	29.3936
593.012	13.1923
595.904	24.9752
598.797	48.6039
601.69	28.9311
604.582	49.3574
607.475	35.0908
610.368	85.6301
613.26	40.0295
616.153	29.0143
619.046	50.1923
621.939	51.5116
624.831	21.5807
627.724	21.9503
630.617	22.5579
633.509	32.3875
636.402	23.4898
639.295	39.5336
642.188	24.6105
645.08	36.7355
647.973	29.402
650.866	27.3332
653.758	10.5163
656.651	33.256
659.544	37.0504
662.436	38.5434
665.329	27.8641
668.222	35.0986
671.115	22.3987
674.007	26.3008
676.9	27.1811
679.793	59.9179
682.685	43.6632
685.578	43.6316
688.471	24.2376
691.363	41.2402
694.256	37.2837
697.149	19.3676
700.042	36.4952
702.934	33.0848
705.827	22.8556
708.72	37.8041
711.612	17.491
714.505	15.0493
717.398	53.3714
720.29	38.314
723.183	33.4735
726.076	27.6215
728.968	14.3441
731.861	20.6031
734.754	16.3205
737.647	32.5586
740.539	0.841675
743.432	17.4343
746.325	20.7714
749.217	14.5211
752.11	4.3269
755.003	1.81433
757.895	11.6656
760.788	2.74182
763.681	16.8779
766.574	12.7727
769.466	0.348328
772.359	19.6763
775.252	37.3988
778.144	77.6396
781.037	60.5031
783.93	154.405
786.822	198.931
789.715	252.772
792.608	278.62
795.501	351.493
798.393	414.99
801.286	423.43
804.179	470.022
807.071	476.936
809.964	513.353
812.857	518.705
815.75	594.85
818.642	637.119
821.535	684.257
824.428	723.584
827.32	763.355
830.213	773.562
833.106	765.581
835.998	773.979
838.891	736.463
841.784	763.762
844.677	802.925
847.569	878.756
850.462	942.832
853.355	1016.67
856.247	1081.53
859.14	1133.48
862.033	1104.29
864.925	1106.88
867.818	938.005
870.711	814.139
873.604	704.785
876.496	529.038
879.389	451.152
882.282	355.71
885.174	319.768
888.067	260.259
890.96	245.958
893.852	170.402
896.745	151.529
899.638	123.995
902.53	118.384
905.423	103.865
908.316	89.5593
911.209	66.4226
914.101	34.9892
916.994	36.7851
919.887	32.9714
922.779	10.1005
925.672	28.1202
928.565	3.48071
931.457	4.96973
934.35	1.65521
937.243	6.69061
940.136	0.400452
943.028	4.90717
945.921	7.62146
948.814	12.8136
951.706	16.8362
954.599	22.1203
957.492	35.3598
960.385	33.344
963.277	30.7418
966.17	32.3312
969.063	47.3487
971.955	34.5682
974.848	71.9106
977.741	71.7241
980.633	65.1407
983.526	40.2018
986.419	58.2448
989.312	66.576
992.204	54.819
995.097	80.7255
997.99	73.2452
1000.88	51.4871
1003.77	63.9305
1006.67	28.6827
1009.56	17.675
1012.45	25.2553
1015.35	32.6287
1018.24	9.74524
1021.13	17.5587
1024.02	17.3829
1026.92	27.9824
1029.81	22.9821
1032.7	47.4481
1035.6	51.8558
1038.49	22.6977
1041.38	15.9457
1044.27	13.9785
1047.17	16.0612
1050.06	16.0193
1052.95	22.1633
1055.84	16.3896
1058.74	13.007
1061.63	8.68103
1064.52	22.0729
1067.41	17.9193
1070.31	19.3278
1073.2	9.45386
1076.09	25.7947
1078.98	35.7807
1081.88	30.8711
1084.77	32.2145
1087.66	18.275
1090.56	18.7925
1093.45	11.4614
1096.34	29.579
1099.23	16.0463
1102.13	13.8675
1105.02	29.742
1107.91	22.3378
1110.81	16.0173
1113.7	31.6916
1116.59	12.8492
1119.48	0.26355
1122.38	27.6798
1125.27	1.57114
1128.16	1.83948
1131.05	22.2005
1133.95	19.1055
1136.84	18.8292
1139.73	43.8305
1142.62	25.9279
1145.52	31.7472
1148.41	22.3225
1151.3	23.7751
1154.19	16.7377
1157.09	6.25247
1159.98	13.2346
1162.87	34.2634
1165.77	22.2348
1168.66	31.6012
1171.55	21.9387
1174.44	43.0613
1177.34	25.232
1180.23	31.4025
1183.12	9.20108
1186.02	23.8818
1188.91	19.2406
1191.8	36.9594
1194.69	26.2368
1197.59	4.87274
1200.48	9.26309
1203.37	9.52487
1206.26	14.4014
1209.16	3.64636
1212.05	11.7953
1214.94	19.997
1217.84	12.8817
1220.73	5.02445
1223.62	15.8218
1226.51	8.45435
1229.41	27.6533
