Measurement: Raman, 532 nm, unoriented, Raman Data Processed
Mineral: Attikaite
Rruff sample: R070217
Ideal chemistry: Ca_3_Cu^2+^_2_Al_2_(As^5+^O_4_)_4_(OH)_4_2H_2_O
Locality: Christiana Mine,  Kamareza Mines,  Agios Konstantinos [St Constantine] (Kamareza; Kamariza),  Lavrion District Mines,  Lavrion District,  Attik√≠ (Attica; Attika) Prefecture,  Greece
Source: Michael Scott
Description: Aggregate of pale bluish-green microcrystals
Raman shift (cm-1)	intensity
185.821	0
188.713	33.0527
191.606	16.0781
194.499	229.553
197.391	265.484
200.284	172.514
203.177	111.268
206.07	259.9
208.962	212.764
211.855	200.799
214.748	227.424
217.64	186.19
220.533	170.978
223.426	319.56
226.318	258.139
229.211	428.34
232.104	357.535
234.996	271.723
237.889	269
240.782	334.34
243.675	162.57
246.567	220.381
249.46	187.711
252.353	190.684
255.245	130.234
258.138	173.625
261.031	22.4766
263.923	54.4902
266.816	44.0234
269.709	81.8457
272.602	180.42
275.494	8.83008
278.387	55.2207
281.28	124.769
284.173	149.006
287.065	78.6992
289.958	71.2188
292.851	186.418
295.743	108.856
298.636	112.781
301.529	147.184
304.421	102.211
307.314	158.551
310.207	154.703
313.099	173.418
315.992	26.4141
318.885	62.8555
321.778	94.4453
324.67	102.34
327.563	186.242
330.456	150.633
333.348	112.231
336.241	117.371
339.134	53.6875
342.026	241.039
344.919	37.3984
347.812	33.6289
350.705	65.7305
353.597	18.7734
356.49	35.207
359.383	139.465
362.275	99.3945
365.168	72.2852
368.061	70.4023
370.954	20.4648
373.846	31.4805
376.739	118.555
379.632	235.898
382.524	165.441
385.417	79.4414
388.31	121.676
391.202	244.019
394.095	229.457
396.988	448.812
399.88	407.973
402.773	83.6758
405.666	354.543
408.559	166.359
411.451	239.918
414.344	308.598
417.237	316.973
420.129	324.715
423.022	282.234
425.915	333.141
428.808	367.055
431.7	221.949
434.593	308.461
437.486	289.543
440.378	220.738
443.271	255.191
446.164	219.644
449.056	351.82
451.949	316.926
454.842	224.438
457.735	1.1875
460.627	86.0391
463.52	138.309
466.413	151.356
469.305	166.547
472.198	94.1289
475.091	0.808594
477.983	102.738
480.876	109.941
483.769	79.5703
486.661	224.672
489.554	239.637
492.447	85.2109
495.34	77.8789
498.232	263.801
501.125	327.141
504.018	360.695
506.911	303.652
509.803	369.316
512.696	383.125
515.589	433.172
518.481	340.5
521.374	626.062
524.267	396.168
527.159	373.715
530.052	330.606
532.945	224.676
535.837	326.121
538.73	117.016
541.623	186.309
544.516	149.398
547.408	281.465
550.301	121.941
553.194	89.9492
556.086	5.60156
558.979	68.5273
561.872	89.0859
564.764	67.6875
567.657	117.133
570.55	12.9727
573.443	24.3789
576.335	27.1641
579.228	138.086
582.121	71.293
585.013	70.5742
587.906	254.93
590.799	68.9961
593.692	3.12109
596.584	221.344
599.477	155.309
602.37	295.398
605.262	130.106
608.155	255.457
611.048	187.621
613.94	355.215
616.833	354.398
619.726	509.945
622.619	344.738
625.511	228.637
628.404	336.828
631.297	484.832
634.189	318.445
637.082	363.133
639.975	471.992
642.867	437.449
645.76	347.598
648.653	712.469
651.545	433.965
654.438	511.934
657.331	378.004
660.224	436.32
663.116	390.871
666.009	373.672
668.902	430.363
671.794	305.328
674.687	217.602
677.58	224.086
680.472	294.945
683.365	318.055
686.258	370.316
689.151	83.5703
692.043	230.008
694.936	181.207
697.829	275.379
700.721	116.34
703.614	262.25
706.507	321.441
709.399	35.6719
712.292	150.477
715.185	227.977
718.078	120.34
720.97	289.039
723.863	72
726.756	42.1367
729.648	221.594
732.541	307.785
735.434	13.6445
738.327	63.332
741.219	187.793
744.112	39.6875
747.005	165.266
749.897	136.062
752.79	90.4023
755.683	7.29297
758.576	0.433594
761.468	64.6953
764.361	96.0312
767.254	8.03125
770.146	107.91
773.039	26.9609
775.932	12.6914
778.824	44.1523
781.717	200.477
784.61	166.367
787.503	336.055
790.395	312.465
793.288	400.75
796.181	435.906
799.073	541.207
801.966	524.918
804.859	553.727
807.751	639.703
810.644	606.434
813.537	831.656
816.429	838.144
819.322	996.254
822.215	979.367
825.108	1002.44
828	1055.33
830.893	981.406
833.786	1108.13
836.678	1095.22
839.571	868.07
842.464	817.961
845.356	992.512
848.249	1171.41
851.142	1226.44
854.035	1670.47
856.927	1553.36
859.82	1631.76
862.713	1778.36
865.605	1696.73
868.498	1418.51
871.391	1239.83
874.284	978.477
877.176	982.941
880.069	715.973
882.962	531.832
885.854	526.289
888.747	428.625
891.64	370.891
894.533	232.644
897.425	173.32
900.318	364.695
903.211	293.215
906.103	228.473
908.996	137.984
911.889	141.609
914.781	211.277
917.674	5.82422
920.567	47.0898
923.46	61.2617
926.352	63.6562
929.245	131.894
932.138	47.3359
935.03	104.184
937.923	9.15234
940.816	113.144
943.708	3.99609
946.601	158.438
949.494	11.9648
952.386	110.356
955.279	48.25
958.172	10.6289
961.065	181.754
963.957	191.859
966.85	63.4023
969.743	4.17188
972.635	170.824
975.528	229.027
978.421	462.949
981.313	130.16
984.206	121.609
987.099	40
989.992	453.062
992.884	247.332
995.777	316.106
998.67	39.6055
1001.56	196.844
1004.46	90.6836
1007.35	229.266
1010.24	19.7031
1013.13	226.156
1016.03	249.875
1018.92	141.871
1021.81	96.1172
1024.7	42.7969
1027.6	120.332
1030.49	134.91
1033.38	103.203
1036.28	89.3867
1039.17	58.6406
1042.06	180.047
1044.95	150.344
1047.85	144.082
1050.74	75.8047
1053.63	33.8906
1056.52	141.258
1059.42	21.8359
1062.31	282.477
1065.2	86.0273
1068.09	27.6797
1070.99	187.988
1073.88	49.8516
1076.77	54.168
1079.66	44.6992
1082.56	231.231
1085.45	110.508
1088.34	104.191
1091.24	146.609
1094.13	27.4766
1097.02	151.797
1099.91	66.1562
1102.81	24.6523
1105.7	233.531
1108.59	105.285
1111.48	130.113
1114.38	52.0156
1117.27	137.406
1120.16	19.8633
1123.06	188.324
1125.95	262.406
1128.84	40.2461
1131.73	125.664
1134.63	116.816
1137.52	138.938
1140.41	187.41
1143.31	229.633
1146.2	8.07031
1149.09	148.125
1151.98	81.1211
1154.88	184.703
1157.77	194.613
1160.66	306.758
1163.55	266.535
1166.45	139.883
1169.34	137.281
1172.23	132.82
1175.12	158.492
1178.02	102.082
1180.91	168.734
1183.8	75.0703
1186.69	153.043
1189.59	161.418
1192.48	170.742
1195.37	198.391
1198.27	94.8906
1201.16	259.453
1204.05	158.82
1206.94	208.078
1209.84	218.156
1212.73	174.246
1215.62	229.824
1218.52	94.6016
1221.41	163.473
1224.3	39.2266
1227.19	138.348
1230.09	100.512
1232.98	98.4883
1235.87	280.648
1238.76	22.0977
1241.66	256.188
1244.55	164.918
1247.44	147.891
1250.34	203.039
1253.23	119.848
1256.12	256.938
1259.01	126.328
1261.91	229.492
1264.8	78.5039
1267.69	161.816
1270.58	179.852
1273.48	180.223
1276.37	303.231
1279.26	117.512
1282.15	109.195
1285.05	286.512
1287.94	207.004
1290.83	58.8984
1293.72	94.457
1296.62	70.3086
1299.51	129.852
1302.4	188.07
1305.3	0
