Measurement: Raman, 780 nm, unoriented, Raman Data Processed
Mineral: Aurichalcite
Rruff sample: R060426
Ideal chemistry: Zn^2+^_5_(CO_3_)_2_(OH)_6_
Locality: Bisbee, Cochise County, Arizona, USA
Source: Michael Scott
Description: Divergent sprays of light blue lathlike crystals
Measured chemistry: (Zn_3.61_Cu_1.33_Fe^2+^_0.06_)_Î£=5_(CO_3_)_2_(OH)_6_
Raman shift (cm-1)	intensity
172.083	0
174.976	1.8133
177.869	1.27416
180.761	2.58403
183.654	1.48876
186.547	1.2453
189.439	1.49391
192.332	1.95505
195.225	1.75342
198.117	0.887321
201.01	2.75547
203.903	2.41528
206.796	3.96584
209.688	4.67011
212.581	1.90038
215.474	1.78794
218.366	1.03402
221.259	2.75831
224.152	3.41071
227.044	2.71002
229.937	1.38748
232.83	2.25243
235.722	2.80693
238.615	1.61067
241.508	4.92009
244.401	3.35081
247.293	1.23356
250.186	2.02438
253.079	0.159229
255.971	0.464275
258.864	0.418013
261.757	2.48446
264.649	0.439564
267.542	0.520164
270.435	2.6109
273.328	2.17236
276.22	2.14073
279.113	3.61359
282.006	4.60267
284.898	4.01588
287.791	1.95704
290.684	2.64816
293.576	4.5256
296.469	6.65739
299.362	1.75634
302.255	4.06315
305.147	4.95523
308.04	7.44799
310.933	4.82569
313.825	7.98828
316.718	5.23631
319.611	3.67051
322.503	4.74233
325.396	3.41004
328.289	2.94217
331.182	1.78376
334.074	2.93012
336.967	0.552532
339.86	0.954451
342.752	3.1201
345.645	0.917463
348.538	2.16493
351.43	0.222067
354.323	1.92087
357.216	0.919201
360.108	0.792269
363.001	0.957109
365.894	2.67061
368.787	2.79425
371.679	1.23517
374.572	2.59076
377.465	4.38069
380.357	2.78369
383.25	5.2429
386.143	3.89149
389.036	3.34085
391.928	3.50904
394.821	2.58263
397.714	1.94434
400.606	0.774651
403.499	1.2789
406.392	3.20127
409.284	1.66982
412.177	2.77613
415.07	0.863888
417.962	0.803942
420.855	0.790798
423.748	3.29881
426.641	2.06087
429.533	1.03178
432.426	2.56542
435.319	0.827931
438.211	4.44177
441.104	2.14635
443.997	3.69058
446.889	3.71146
449.782	3.55649
452.675	2.15255
455.567	5.11223
458.46	3.49471
461.353	2.5753
464.246	1.96238
467.138	2.95437
470.031	0.446171
472.924	2.74299
475.816	2.81729
478.709	2.91126
481.602	1.1429
484.495	1.02096
487.387	2.99357
490.28	2.53977
493.173	2.89682
496.065	2.83394
498.958	2.94766
501.851	3.75152
504.743	4.90527
507.636	3.47326
510.529	2.37567
513.422	2.39172
516.314	1.57309
519.207	2.53632
522.1	0.092075
524.992	2.30819
527.885	0.940959
530.778	2.12248
533.67	0.924987
536.563	2.74534
539.456	1.96814
542.348	1.92203
545.241	1.19113
548.134	0.330092
551.027	2.99663
553.919	2.72355
556.812	2.31589
559.705	1.29269
562.597	1.27743
565.49	1.63143
568.383	2.59467
571.275	5.18952
574.168	2.20969
577.061	2.9458
579.954	1.52429
582.846	4.40555
585.739	1.06488
588.632	0.074566
591.524	2.50327
594.417	2.73179
597.31	0.14145
600.202	2.13535
603.095	2.15346
605.988	4.17907
608.881	2.35678
611.773	1.97677
614.666	2.53277
617.559	4.76913
620.451	2.64556
623.344	3.09671
626.237	1.39712
629.129	1.54937
632.022	0.882777
634.915	1.93544
637.808	3.84069
640.7	1.2697
643.593	1.50897
646.486	2.5608
649.378	2.31614
652.271	2.44173
655.164	2.26047
658.056	0.273141
660.949	0.505267
663.842	0.31634
666.735	1.58999
669.627	0.157169
672.52	1.093
675.413	3.18153
678.305	0.790157
681.198	2.20036
684.091	4.78937
686.983	1.42437
689.876	2.38212
692.769	3.52077
695.662	5.28984
698.554	4.4676
701.447	5.3367
704.34	6.33719
707.232	7.14294
710.125	2.38252
713.018	3.20248
715.91	5.93877
718.803	3.48996
721.696	5.68068
724.588	5.79027
727.481	8.33099
730.374	7.84615
733.266	6.31512
736.159	6.70426
739.052	6.32595
741.945	2.07142
744.837	3.25971
747.73	4.11533
750.623	3.01671
753.515	0.921979
756.408	2.40485
759.301	1.35858
762.193	3.02936
765.086	0.041844
767.979	2.10819
770.872	2.0933
773.764	0.021852
776.657	1.6363
779.55	2.42405
782.442	2.32641
785.335	0.517171
788.228	2.5044
791.12	1.12151
794.013	0.680294
796.906	0.359586
799.799	1.11702
802.691	2.10789
805.584	2.90959
808.477	3.26725
811.369	3.15622
814.262	3.90598
817.155	4.37622
820.048	4.4023
822.94	3.35963
825.833	4.04581
828.726	2.18646
831.618	3.45189
834.511	3.80727
837.404	1.86241
840.296	1.93867
843.189	2.7493
846.082	2.67407
848.975	2.49739
851.867	1.73293
854.76	4.22998
857.653	3.74766
860.545	0.375763
863.438	4.3471
866.331	3.17903
869.223	1.80392
872.116	2.34089
875.009	4.49048
877.901	3.516
880.794	2.03485
883.687	2.9306
886.58	2.52444
889.472	0.689418
892.365	3.25436
895.258	3.98649
898.15	2.8079
901.043	2.57162
903.936	1.82729
906.828	0.647266
909.721	2.42636
912.614	2.48431
915.506	1.19008
918.399	2.55449
921.292	1.79114
924.185	0.46302
927.077	2.41889
929.97	0.435175
932.863	3.20839
935.755	2.60735
938.648	2.53427
941.541	1.19052
944.433	2.41357
947.326	0.194528
950.219	1.11869
953.112	2.98101
956.004	2.19319
958.897	3.78813
961.79	0.650159
964.682	5.43397
967.575	3.0143
970.468	1.38848
973.361	2.60119
976.253	1.05765
979.146	2.57609
982.039	2.74934
984.931	2.26487
987.824	0.981034
990.717	0.752977
993.609	1.70067
996.502	1.03141
999.395	2.3307
1002.29	0.130886
1005.18	0.723906
1008.07	2.60723
1010.97	1.11505
1013.86	3.45134
1016.75	0.54804
1019.64	2.32633
1022.54	1.36693
1025.43	2.2281
1028.32	1.55165
1031.21	0.314833
1034.11	2.55251
1037	0.238017
1039.89	3.36759
1042.79	3.40807
1045.68	4.20132
1048.57	6.70699
1051.46	9.79447
1054.36	11.0448
1057.25	16.1824
1060.14	23.5389
1063.03	23.8838
1065.93	22.2961
1068.82	19.9592
1071.71	15.1045
1074.61	5.99782
1077.5	3.6401
1080.39	1.65736
1083.28	2.87656
1086.18	2.45924
1089.07	0.729665
1091.96	2.86855
1094.85	1.59586
1097.75	3.35156
1100.64	0.164894
1103.53	0.29359
1106.42	2.4326
1109.32	0.770928
1112.21	1.40853
1115.1	1.72864
1117.99	2.87738
1120.89	5.44972
1123.78	2.48004
1126.67	0.801766
1129.57	3.75859
1132.46	3.67089
1135.35	1.77217
1138.24	0.329944
1141.14	3.14048
1144.03	0.976557
1146.92	2.58418
1149.82	0.688438
1152.71	3.54827
1155.6	0.304949
1158.49	1.84673
1161.39	3.03138
1164.28	3.32445
1167.17	0.248422
1170.06	2.81315
1172.96	1.43548
1175.85	1.7603
1178.74	3.28133
1181.63	1.74681
1184.53	3.51574
1187.42	4.14626
1190.31	5.16171
1193.21	2.86024
1196.1	0.186293
1198.99	3.43386
1201.88	1.06637
1204.78	0.359051
1207.67	4.58188
1210.56	3.29083
1213.45	3.63127
1216.35	3.88935
1219.24	3.71696
1222.13	2.22123
1225.03	0.329438
1227.92	3.1012
1230.81	0.479877
1233.7	0.54452
1236.6	1.80197
1239.49	3.34548
1242.38	1.49738
1245.27	2.40728
1248.17	2.32915
1251.06	1.96878
1253.95	1.69548
1256.85	3.0071
1259.74	2.60537
1262.63	1.87543
1265.52	0.713071
1268.42	1.62304
1271.31	2.94356
1274.2	1.90327
1277.09	1.56123
1279.99	2.55113
1282.88	2.32272
