Measurement: Raman, 785 nm, unoriented, Raman Data Processed
Mineral: Aurorite
Rruff sample: R061037
Ideal chemistry: Mn^2+^Mn^4+^_3_O_7_3H_2_O
Locality: Aurora mine, Treasure Hill, Hamilton, White Pine County, Nevada, USA
Source: Michael Scott
Description: Black metallic grains in calcite
Raman shift (cm-1)	intensity
126.349	0
129.242	389.296
132.134	662.453
135.027	374.824
137.92	2.54858
140.812	2.50635
143.705	266.098
146.598	576.392
149.49	847.034
152.383	835.004
155.276	674.054
158.169	587.266
161.061	491.225
163.954	524.859
166.847	562.129
169.739	553.008
172.632	522.566
175.525	427.701
178.417	360.993
181.31	355.701
184.203	339.448
187.096	331.549
189.988	263.884
192.881	235.582
195.774	185.769
198.666	164.044
201.559	175.115
204.452	121.393
207.345	140.392
210.237	75.2786
213.13	91.5408
216.023	45.9608
218.915	50.0724
221.808	90.709
224.701	70.9
227.593	49.9874
230.486	24.9131
233.379	7.31445
236.272	19.9976
239.164	7.31775
242.057	11.0467
244.95	26.3791
247.842	19.7644
250.735	21.15
253.628	0.265747
256.52	40.2454
259.413	10.6435
262.306	37.0612
265.199	47.3687
268.091	36.6327
270.984	47.328
273.877	14.8461
276.769	3.95996
279.662	32.5303
282.555	39.8684
285.447	72.0743
288.34	3.36523
291.233	53.2524
294.125	71.7617
297.018	21.5272
299.911	15.2086
302.804	63.6354
305.696	45.0739
308.589	70.7262
311.482	87.7827
314.374	11.765
317.267	31.6
320.16	19.668
323.053	11.0294
325.945	32.1208
328.838	59.447
331.731	17.0461
334.623	24.4026
337.516	27.2443
340.409	30.5207
343.301	45.2213
346.194	23.4144
349.087	39.0809
351.979	3.10315
354.872	70.0881
357.765	69.0181
360.658	44.5604
363.55	43.8912
366.443	77.9164
369.336	13.781
372.228	72.4674
375.121	33.9689
378.014	49.5279
380.906	97.8953
383.799	81.4106
386.692	51.3977
389.584	32.012
392.477	34.9385
395.37	108.721
398.263	86.8088
401.155	58.0154
404.048	24.5817
406.941	80.8378
409.833	39.7047
412.726	41.8475
415.619	54.1261
418.512	1.28333
421.404	40.9318
424.297	5.56628
427.19	37.3676
430.082	23.3337
432.975	45.4014
435.868	23.002
438.76	21.8337
441.653	13.9601
444.546	51.5668
447.438	40.8073
450.331	71.8813
453.224	47.3597
456.117	62.2156
459.009	44.5656
461.902	39.7395
464.795	35.2415
467.687	16.5143
470.58	75.4182
473.473	47.7893
476.365	86.0204
479.258	83.772
482.151	91.4653
485.044	44.1483
487.936	53.814
490.829	92.4655
493.722	101.448
496.614	39.7022
499.507	96.5336
502.4	80.3379
505.293	69.5072
508.185	69.3422
511.078	55.8766
513.971	65.4341
516.863	73.6287
519.756	67.0386
522.649	43.0485
525.541	11.6585
528.434	47.5782
531.327	1.6958
534.22	21.0137
537.112	0.980347
540.005	5.86096
542.898	27.9541
545.79	16.9697
548.683	87.1141
551.576	51.4998
554.468	79.2983
557.361	86.3762
560.254	123.126
563.146	163.452
566.039	139.317
568.932	166.798
571.825	233.39
574.717	217.192
577.61	263.629
580.503	262.559
583.395	253.555
586.288	245.882
589.181	193.997
592.073	142.053
594.966	180.353
597.859	138.266
600.751	165.942
603.644	138.014
606.537	159.076
609.43	156.557
612.322	167.953
615.215	183.483
618.108	184.895
621	197.324
623.893	173.596
626.786	198.128
629.678	153.52
632.571	150.687
635.464	210.42
638.357	127.662
641.249	126.978
644.142	114.796
647.035	76.6266
649.927	72.5514
652.82	88.1971
655.713	84.9468
658.606	44.2111
661.498	21.4269
664.391	10.9995
667.284	76.3671
670.176	11.999
673.069	17.2445
675.962	26.3182
678.854	33.6794
681.747	0.473511
684.64	51.0603
687.533	22.9673
690.425	8.54334
693.318	10.0599
696.211	16.0403
699.103	12.6969
701.996	18.9775
704.889	18.8341
707.781	37.9522
710.674	27.585
713.567	18.3408
716.46	59.8175
719.352	72.2271
722.245	48.9082
725.138	53.069
728.03	10.6585
730.923	37.4187
733.816	39.2809
736.708	31.1394
739.601	62.6404
742.494	57.3444
745.386	56.8468
748.279	61.6327
751.172	37.8535
754.065	50.4517
756.957	21.3051
759.85	25.9752
762.743	3.42798
765.635	5.07031
768.528	32.609
771.421	43.3213
774.313	36.0122
777.206	2.07581
780.099	62.2373
782.992	38.8489
785.884	54.9417
788.777	45.1248
791.67	53.6152
794.562	43.1114
797.455	11.7302
800.348	21.3635
803.24	12.4115
806.133	16.0544
809.026	71.6991
811.919	29.1628
814.811	69.2052
817.704	64.8885
820.597	86.3781
823.489	69.0637
826.382	61.859
829.275	61.439
832.168	93.1325
835.06	15.2334
837.953	64.6573
840.846	22.4006
843.738	70.9397
846.631	20.9707
849.524	61.8051
852.416	43.0619
855.309	51.7994
858.202	51.9816
861.095	32.2809
863.987	44.2695
866.88	30.6645
869.773	47.7216
872.665	64.9344
875.558	36.032
878.451	62.4772
881.343	0.144531
884.236	63.2865
887.129	68.7108
890.021	0.063843
892.914	45.5364
895.807	71.2039
898.699	0.397705
901.592	45.4357
904.485	3.68237
907.378	44.7426
910.27	59.807
913.163	11.0192
916.056	45.956
918.948	35.1977
921.841	36.1063
924.734	83.8361
927.626	15.7655
930.519	42.8199
933.412	69.2759
936.305	52.8779
939.197	27.1039
942.09	20.1184
944.983	26.7958
947.875	24.1457
950.768	72.2024
953.661	52.3519
956.553	31.2806
959.446	57.0057
962.339	40.6685
965.232	63.9017
968.124	49.3438
971.017	39.5472
973.91	75.0781
976.802	50.1034
979.695	55.444
982.588	69.8335
985.481	52.0751
988.373	53.9435
991.266	9.94995
994.159	15.6694
997.051	56.4213
999.944	33.6296
1002.84	67.0593
1005.73	41.1986
1008.62	31.9783
1011.51	47.8386
1014.41	52.7849
1017.3	56.8929
1020.19	38.4581
1023.09	4.0094
1025.98	3.84241
1028.87	63.2776
1031.76	67.1071
1034.66	42.51
1037.55	44.9435
1040.44	41.0847
1043.33	28.2872
1046.23	61.4911
1049.12	12.5605
1052.01	48.1708
1054.9	38.0872
1057.8	42.7952
1060.69	38.8795
1063.58	84.8136
1066.48	38.3596
1069.37	94.0073
1072.26	121.139
1075.15	73.9778
1078.05	28.899
1080.94	135.409
1083.83	34.0977
1086.72	70.9933
1089.62	48.9667
1092.51	27.7156
1095.4	65.1671
1098.3	46.5582
1101.19	63.3468
1104.08	31.5076
1106.97	80.681
1109.87	18.3375
1112.76	30.6073
1115.65	30.6726
1118.55	74.1051
1121.44	59.8845
1124.33	83.9617
1127.22	26.9558
1130.12	32.2734
1133.01	67.1532
1135.9	61.7969
1138.79	30.5944
1141.69	20.7826
1144.58	33.6962
1147.47	60.6245
1150.36	35.3865
1153.26	13.5016
1156.15	21.9854
1159.04	16.3226
1161.93	58.4062
1164.83	35.9883
1167.72	46.3935
1170.61	80.6331
1173.51	14.2026
1176.4	94.3946
1179.29	87.2084
1182.18	34.5391
1185.08	37.3853
1187.97	41.2415
1190.86	85.5705
1193.76	60.7664
1196.65	60.4739
1199.54	34.9915
1202.43	44.478
1205.33	15.9529
1208.22	45.4576
1211.11	47.6763
1214	94.2972
1216.9	87.2728
1219.79	23.538
1222.68	84.4811
1225.57	72.4355
1228.47	93.2119
1231.36	98.8568
1234.25	33.0824
1237.14	21.2693
1240.04	14.6733
1242.93	71.3394
1245.82	54.0667
1248.72	72.9828
1251.61	10.6504
1254.5	9.96137
