Measurement: Raman, 532 nm, unoriented, Raman Data Processed
Mineral: Aurorite
Rruff sample: R061037
Ideal chemistry: Mn^2+^Mn^4+^_3_O_7_3H_2_O
Locality: Aurora mine, Treasure Hill, Hamilton, White Pine County, Nevada, USA
Source: Michael Scott
Description: Black metallic grains in calcite
Raman shift (cm-1)	intensity
138.396	0
141.289	3.85449
144.182	43.3025
147.074	96.35
149.967	45.2617
152.86	34.3658
155.752	80.7881
158.645	41.0239
161.538	71.5764
164.43	124.4
167.323	143.881
170.216	162.896
173.109	130.286
176.001	130.42
178.894	191.165
181.787	133.831
184.679	158.035
187.572	97.9869
190.465	165.292
193.357	169.629
196.25	155.477
199.143	124.081
202.036	133.852
204.928	152.184
207.821	141.191
210.714	137.306
213.606	79.8467
216.499	52.0068
219.392	65.6954
222.285	23.2919
225.177	37.1592
228.07	15.1056
230.963	33.007
233.855	8.07019
236.748	36.3706
239.641	27.603
242.533	74.9448
245.426	27.3723
248.319	75.0762
251.212	33.5331
254.104	24.3751
256.997	27.308
259.89	50.0095
262.782	24.3644
265.675	45.7351
268.568	49.0803
271.46	47.0922
274.353	61.2916
277.246	64.5736
280.139	34.0806
283.031	62.3957
285.924	43.6956
288.817	66.8062
291.709	51.4235
294.602	49.9069
297.495	57.554
300.387	60.7108
303.28	45.8516
306.173	61.6935
309.065	86.6252
311.958	49.0008
314.851	2.98718
317.743	7.85852
320.636	0.977661
323.529	16.6419
326.422	31.524
329.314	33.3268
332.207	25.0636
335.1	27.8063
337.992	2.16321
340.885	46.4143
343.778	2.95593
346.671	44.2792
349.563	25.4982
352.456	54.7194
355.349	19.3956
358.241	39.8899
361.134	60.8895
364.027	7.36304
366.919	43.7487
369.812	63.5435
372.705	46.267
375.598	52.697
378.49	92.3415
381.383	131.297
384.276	56.9913
387.168	77.3065
390.061	103.476
392.954	85.9249
395.846	41.0714
398.739	76.7242
401.632	26.6575
404.524	41.3219
407.417	60.2281
410.31	48.5953
413.203	20.0541
416.095	32.1207
418.988	14.887
421.881	11.5349
424.773	10.7798
427.666	17.7056
430.559	8.4895
433.452	35.9542
436.344	10.5256
439.237	29.3356
442.13	45.9779
445.022	4.97339
447.915	41.1459
450.808	47.1914
453.7	52.7437
456.593	79.3446
459.486	57.4783
462.378	73.1493
465.271	49.0453
468.164	53.9056
471.057	70.1779
473.949	19.6741
476.842	62.7427
479.735	74.0852
482.627	71.4021
485.52	92.6674
488.413	99.879
491.305	90.8665
494.198	123.485
497.091	48.7614
499.984	113.094
502.876	135.549
505.769	60.7527
508.662	68.5376
511.554	61.5304
514.447	49.9204
517.34	45.9491
520.232	61.262
523.125	10.0161
526.018	9.73303
528.91	13.7275
531.803	32.5881
534.696	28.0018
537.589	7.04785
540.481	39.7103
543.374	21.8644
546.267	53.2457
549.159	66.9353
552.052	79.9375
554.945	95.9371
557.837	118.336
560.73	142.346
563.623	204.682
566.516	245.613
569.408	277.218
572.301	326.523
575.194	361.199
578.086	358.819
580.979	342.007
583.872	373.431
586.764	344.349
589.657	305.768
592.55	268.044
595.443	185.972
598.335	232.768
601.228	217.154
604.121	221.147
607.013	188.386
609.906	193.052
612.799	194.129
615.692	245.008
618.584	261.089
621.477	212.471
624.37	243.948
627.262	263.96
630.155	228.606
633.048	222.645
635.94	185.242
638.833	129.894
641.726	182.528
644.619	163.47
647.511	135.258
650.404	127.129
653.297	101.368
656.189	86.3448
659.082	67.1182
661.975	57.7253
664.867	52.4989
667.76	40.9302
670.653	39.1423
673.545	42.2542
676.438	0.647217
679.331	6.5481
682.224	58.4529
685.116	78.1513
688.009	47.3097
690.902	21.7386
693.794	45.7789
696.687	13.3928
699.58	27.4857
702.472	9.26318
705.365	24.2581
708.258	10.974
711.151	21.3888
714.043	12.806
716.936	63.3156
719.829	13.5116
722.721	61.0907
725.614	26.3688
728.507	46.1963
731.399	31.1024
734.292	74.6099
737.185	67.8203
740.078	36.7082
742.97	9.50122
745.863	83.4119
748.756	57.8197
751.648	0.434448
754.541	3.68005
757.434	45.2415
760.327	12.1818
763.219	70.7308
766.112	35.3272
769.005	2.75562
771.897	21.5874
774.79	24.1266
777.683	51.8862
780.575	37.6355
783.468	5.90125
786.361	36.6086
789.253	63.8337
792.146	75.3352
795.039	41.8577
797.932	50.4058
800.824	69.9595
803.717	59.9275
806.61	38.9968
809.502	86.5969
812.395	126.595
815.288	106.689
818.18	106.417
821.073	105.553
823.966	61.0656
826.859	73.1469
829.751	72.6919
832.644	75.6641
835.537	27.1963
838.429	78.0099
841.322	80.2643
844.215	65.8744
847.107	34.6941
850	57.0452
852.893	46.2943
855.785	51.156
858.678	42.8865
861.571	36.3265
864.464	39.9862
867.356	33.0193
870.249	12.7645
873.142	31.5834
876.034	3.18359
878.927	23.7138
881.82	43.2428
884.712	54.5609
887.605	18.2933
890.498	33.1125
893.391	13.516
896.283	32.8059
899.176	16.5814
902.069	42.1239
904.961	28.4115
907.854	9.88062
910.747	36.3656
913.639	10.6831
916.532	32.3502
919.425	51.6228
922.318	62.0643
925.21	66.1757
928.103	56.7482
930.996	53.9376
933.888	53.3309
936.781	26.3959
939.674	60.084
942.567	39.219
945.459	61.9456
948.352	54.4111
951.245	63.5239
954.137	34.7162
957.03	27.4955
959.923	25.7546
962.815	4.20789
965.708	34.3987
968.601	37
971.494	4.80676
974.386	73.011
977.279	34.7961
980.172	38.0087
983.064	46.7765
985.957	15.5098
988.85	25.6383
991.742	99.4413
994.635	16.0809
997.528	43.2131
1000.42	51.9559
1003.31	12.2662
1006.21	22.0099
1009.1	56.2537
1011.99	54.4543
1014.88	76.897
1017.78	45.8503
1020.67	71.7787
1023.56	40.2544
1026.45	49.9401
1029.35	44.7375
1032.24	22.5287
1035.13	26.6768
1038.03	75.5433
1040.92	49.5946
1043.81	28.3224
1046.7	72.0496
1049.6	45.9744
1052.49	68.7158
1055.38	45.4102
1058.27	2.94653
1061.17	46.8486
1064.06	23.9506
1066.95	11.8704
1069.85	5.32056
1072.74	28.1995
1075.63	36.4983
1078.52	35.8451
1081.42	46.1376
1084.31	138.417
1087.2	40.1135
1090.09	59.3543
1092.99	32.9619
1095.88	78.239
1098.77	47.0739
1101.66	62.2788
1104.56	92.755
1107.45	82.7643
1110.34	52.3923
1113.24	36.4142
1116.13	64.5939
1119.02	32.7058
1121.91	23.1958
1124.81	35.4196
1127.7	76.7168
1130.59	59.8744
1133.48	65.7505
1136.38	60.6997
1139.27	46.0964
1142.16	58.8336
1145.06	39.1168
1147.95	6.26099
1150.84	29.3024
1153.73	42.7886
1156.63	50.4764
1159.52	94.28
1162.41	44.5754
1165.3	38.1128
1168.2	20.7561
1171.09	67.6816
1173.98	50.1481
1176.88	25.1446
1179.77	29.6638
1182.66	26.974
1185.55	67.7854
1188.45	20.3292
1191.34	39.6277
1194.23	78.1773
1197.12	54.9187
1200.02	56.2357
1202.91	29.7841
1205.8	13.695
1208.69	30.3856
1211.59	36.7076
1214.48	58.818
1217.37	45.9676
1220.27	67.4679
1223.16	11.0605
1226.05	56.4403
1228.94	26.5219
1231.84	68.6807
1234.73	27.1001
1237.62	23.202
1240.51	31.2549
1243.41	58.2258
1246.3	32.1858
1249.19	48.301
1252.09	0
