Measurement: Raman, 785 nm, unoriented, Raman Data Processed
Mineral: Avdoninite
Rruff sample: R061024
Ideal chemistry: K_2_Cu^2+^_5_Cl_8_(OH)_4_2H_2_O
Locality: Blyava Cu mine, Sakmara, Orenburgskaya, Ural Mountains, Russia
Source: Michael Scott
Description: Green fine-grained crust
Raman shift (cm-1)	intensity
137.438	0
140.33	7.28024
143.223	25.7855
146.116	44.1607
149.008	28.9267
151.901	36.7497
154.794	29.3641
157.686	10.8537
160.579	6.32885
163.472	13.6262
166.365	4.45711
169.257	0.79628
172.15	37.8028
175.043	51.17
177.935	66.9197
180.828	70.7866
183.721	55.8112
186.613	53.2993
189.506	44.6007
192.399	55.8588
195.292	41.0518
198.184	43.8414
201.077	18.4457
203.97	30.8083
206.862	37.6659
209.755	38.225
212.648	27.4612
215.541	30.335
218.433	6.79322
221.326	6.02567
224.219	0.198036
227.111	8.8265
230.004	15.0379
232.897	1.20345
235.789	23.7197
238.682	34.5388
241.575	43.6118
244.468	60.9502
247.36	68.8798
250.253	45.3162
253.146	32.86
256.038	32.6637
258.931	45.6528
261.824	19.4578
264.716	6.77118
267.609	26.6794
270.502	3.33621
273.394	9.83106
276.287	4.59573
279.18	20.1763
282.073	16.8829
284.965	21.6796
287.858	0.713539
290.751	9.23419
293.643	3.61436
296.536	19.6572
299.429	10.4911
302.321	10.6467
305.214	2.02996
308.107	0.939178
311	16.2686
313.892	18.8349
316.785	34.2431
319.678	80.2364
322.57	85.9193
325.463	96.0961
328.356	100.496
331.248	83.1656
334.141	55.0227
337.034	30.9726
339.926	21.1481
342.819	20.8577
345.712	8.43815
348.605	17.3551
351.497	29.6868
354.39	16.9889
357.283	18.3883
360.175	1.71536
363.068	17.646
365.961	3.89312
368.853	10.319
371.746	5.28181
374.639	16.7817
377.532	4.61357
380.424	10.4469
383.317	22.4143
386.21	4.53355
389.102	5.92279
391.995	19.9549
394.888	3.75669
397.781	2.24089
400.673	18.9214
403.566	15.4832
406.459	2.98483
409.351	25.3054
412.244	26.5409
415.137	26.8785
418.029	19.6139
420.922	32.1337
423.815	14.919
426.707	36.7666
429.6	29.0285
432.493	24.3909
435.386	31.6297
438.278	21.1123
441.171	11.1793
444.064	19.3122
446.956	15.1319
449.849	13.0236
452.742	5.69692
455.635	8.46232
458.527	5.73106
461.42	21.8608
464.313	9.00955
467.205	5.0428
470.098	8.624
472.991	0.224342
475.883	11.7264
478.776	22.8405
481.669	16.054
484.562	15.2163
487.454	8.18437
490.347	4.86873
493.24	24.6667
496.132	21.7614
499.025	15.0827
501.918	25.8653
504.81	10.9582
507.703	12.2395
510.596	17.334
513.489	8.74879
516.381	10.5233
519.274	4.12637
522.167	17.226
525.059	32.4894
527.952	9.33889
530.845	11.473
533.737	22.8321
536.63	0.674271
539.523	29.1554
542.415	6.69624
545.308	7.93389
548.201	0.553844
551.094	18.8318
553.986	3.68634
556.879	9.88086
559.772	11.5113
562.664	10.8803
565.557	1.43552
568.45	4.78931
571.342	22.1805
574.235	17.8903
577.128	10.8198
580.021	16.3674
582.913	4.03545
585.806	6.08594
588.699	14.651
591.591	20.9773
594.484	15.8017
597.377	0.293091
600.269	14.9802
603.162	11.5388
606.055	1.42066
608.948	6.32263
611.84	11.6869
614.733	0.976952
617.626	15.1534
620.518	34.9305
623.411	6.53884
626.304	9.19265
629.197	16.9491
632.089	12.35
634.982	13.1381
637.875	30.3607
640.767	20.373
643.66	23.1725
646.553	8.45025
649.445	22.9027
652.338	17.3491
655.231	17.2596
658.124	14.1452
661.016	24.456
663.909	17.77
666.802	4.23995
669.694	16.0979
672.587	2.98143
675.48	4.59046
678.372	13.965
681.265	11.6353
684.158	8.79715
687.05	14.7087
689.943	7.48515
692.836	22.1981
695.729	15.0641
698.621	19.6243
701.514	13.568
704.407	11.3755
707.299	7.92511
710.192	14.9124
713.085	18.1859
715.977	11.4025
718.87	11.243
721.763	19.4675
724.655	16.0005
727.548	25.9551
730.441	20.5816
733.334	0.355152
736.226	12.3015
739.119	22.6381
742.012	23.7151
744.904	17.2441
747.797	28.419
750.69	16.4012
753.582	24.2005
756.475	11.1471
759.368	2.88669
762.261	7.48696
765.153	2.9069
768.046	4.19092
770.939	18.2085
773.831	25.0153
776.724	3.75706
779.617	1.34961
782.51	0.932564
785.402	13.462
788.295	9.15986
791.188	12.595
794.08	7.54177
796.973	9.86415
799.866	15.0381
802.758	2.33397
805.651	0.991909
808.544	14.8657
811.437	1.49603
814.329	16.3143
817.222	6.71852
820.115	6.23013
823.007	18.6171
825.9	22.6275
828.793	30.0994
831.685	36.059
834.578	15.6797
837.471	6.34963
840.364	19.1705
843.256	15.17
846.149	3.67158
849.042	11.5211
851.934	23.0727
854.827	20.985
857.72	8.94272
860.612	12.8099
863.505	11.9643
866.398	5.61579
869.29	14.0869
872.183	1.77221
875.076	9.50493
877.969	10.9309
880.861	9.37466
883.754	8.11909
886.647	8.51323
889.539	10.5489
892.432	3.06917
895.325	12.5288
898.217	15.9375
901.11	12.6953
904.003	12.9616
906.896	1.0542
909.788	11.4183
912.681	2.78375
915.574	9.70678
918.466	4.43493
921.359	11.8286
924.252	18.2851
927.144	14.7884
930.037	9.82867
932.93	16.2417
935.823	17.2984
938.715	35.1344
941.608	12.5454
944.501	30.1121
947.393	22.3656
950.286	29.1716
953.179	7.30002
956.072	22.4578
958.964	7.78157
961.857	8.19566
964.75	14.4966
967.642	41.2629
970.535	3.33195
973.428	19.5636
976.32	11.7653
979.213	6.54364
982.106	4.94656
984.999	5.48171
987.891	0.454964
990.784	0.818653
993.677	6.51025
996.569	4.91512
999.462	12.4788
1002.36	22.4413
1005.25	8.65584
1008.14	7.63682
1011.03	26.1023
1013.92	17.0368
1016.82	10.9602
1019.71	8.95375
1022.6	1.64225
1025.5	0.086946
1028.39	9.26895
1031.28	13.6329
1034.17	20.0259
1037.07	17.5512
1039.96	16.8808
1042.85	11.7333
1045.74	16.0313
1048.64	31.2411
1051.53	32.9693
1054.42	22.0977
1057.32	14.1584
1060.21	10.1845
1063.1	20.3667
1065.99	10.807
1068.89	21.319
1071.78	22.5929
1074.67	24.4915
1077.57	12.3655
1080.46	24.4184
1083.35	24.2426
1086.24	19.2899
1089.14	25.3009
1092.03	15.7511
1094.92	2.17094
1097.81	1.0348
1100.71	18.0559
1103.6	12.5242
1106.49	25.1987
1109.38	26.8636
1112.28	3.63413
1115.17	1.25392
1118.06	13.8703
1120.95	11.7748
1123.85	13.5859
1126.74	18.8993
1129.63	25.9566
1132.53	26.1022
1135.42	16.1068
1138.31	25.7302
1141.2	14.9105
1144.1	20.9619
1146.99	18.4558
1149.88	2.99388
1152.78	22.5556
1155.67	12.1688
1158.56	24.3548
1161.45	2.34976
1164.35	13.7627
1167.24	16.3631
1170.13	11.0489
1173.02	16.4899
1175.92	28.7045
1178.81	25.2579
1181.7	5.68382
1184.6	12.1046
1187.49	31.943
1190.38	7.59951
1193.27	0.192747
1196.17	20.8628
1199.06	28.4099
1201.95	15.1257
1204.84	13.6363
1207.74	18.4187
1210.63	17.5634
1213.52	29.2145
1216.41	20.8546
1219.31	30.1258
1222.2	3.3266
1225.09	2.55683
1227.98	26.1368
1230.88	11.8489
1233.77	11.6859
1236.66	26.6165
1239.56	3.43797
1242.45	22.2855
1245.34	22.4328
1248.23	10.0299
1251.13	22.5563
1254.02	32.1107
1256.91	19.1576
1259.81	26.6015
1262.7	11.4782
1265.59	21.7143
1268.48	0.784487
1271.38	6.21651
