Measurement: Raman, 532 nm, unoriented, Raman Data Processed
Mineral: Avicennite
Rruff sample: R070262
Ideal chemistry: Tl^3+^_2_O_3_
Locality: Thallium Prospect, Little Valley, Tooele County, Utah, USA
Source: Michael Scott
Description: Grayish black polished crystals on microprobe sample mount.
Raman shift (cm-1)	intensity
158.822	0
161.715	12.4142
164.607	6.21771
167.5	20.9141
170.393	39.1007
173.286	10.0143
176.178	11.4692
179.071	19.6279
181.964	1.47467
184.856	4.24835
187.749	27.6285
190.642	24.1303
193.535	36.6586
196.427	36.4553
199.32	103.432
202.213	143.946
205.105	196.848
207.998	212.824
210.891	267.426
213.783	329.054
216.676	386.174
219.569	449.117
222.462	475.025
225.354	488.481
228.247	490.225
231.14	480.712
234.032	443.341
236.925	458.566
239.818	424.269
242.71	403.492
245.603	374.387
248.496	370.05
251.388	352.221
254.281	319.247
257.174	309.594
260.067	263.159
262.959	252.341
265.852	214.379
268.745	246.237
271.637	236.166
274.53	218.433
277.423	216.152
280.315	200.891
283.208	190.311
286.101	176.977
288.994	177.162
291.886	172.07
294.779	181.646
297.672	171.164
300.564	181.13
303.457	202.909
306.35	265.91
309.243	241.924
312.135	243.133
315.028	239.773
317.921	257.216
320.813	261.018
323.706	240.987
326.599	201.972
329.491	179.745
332.384	127.448
335.277	116.278
338.17	70.3718
341.062	33.7427
343.955	16.9548
346.848	11.7206
349.74	1.57446
352.633	11.7198
355.526	12.8767
358.418	0.519379
361.311	11.4361
364.204	16.9261
367.097	8.11478
369.989	6.45932
372.882	5.06107
375.775	6.11725
378.667	9.41528
381.56	12.9456
384.453	8.67136
387.346	24.7172
390.238	31.5534
393.131	20.658
396.024	25.5166
398.916	22.8373
401.809	23.2572
404.702	26.9191
407.594	32.0304
410.487	52.7865
413.38	57.7463
416.272	53.0353
419.165	37.7612
422.058	26.4769
424.951	33.2048
427.843	21.213
430.736	7.89426
433.629	10.714
436.521	17.2012
439.414	26.8827
442.307	13.638
445.2	26.1496
448.092	32.2568
450.985	32.6374
453.878	32.0288
456.77	35.9044
459.663	30.4664
462.556	17.0312
465.448	23.5695
468.341	15.961
471.234	10.6482
474.127	6.3746
477.019	19.0035
479.912	9.66214
482.805	24.0856
485.697	4.71875
488.59	31.9003
491.483	5.17279
494.375	22.2205
497.268	21.7036
500.161	24.6388
503.053	17.2948
505.946	7.88767
508.839	11.0974
511.732	5.36487
514.624	1.72623
517.517	13.2245
520.41	18.979
523.302	6.51764
526.195	6.05719
529.088	13.3377
531.981	10.1193
534.873	20.8919
537.766	26.3464
540.659	29.0066
543.551	22.5902
546.444	24.1443
549.337	10.3178
552.229	19.5269
555.122	2.99268
558.015	36.9339
560.908	8.94547
563.8	7.43158
566.693	11.2055
569.586	15.4275
572.478	17.5093
575.371	15.7035
578.264	27.9074
581.156	20.4473
584.049	14.4951
586.942	1.20047
589.835	2.76746
592.727	9.40506
595.62	1.31735
598.513	9.18146
601.405	12.357
604.298	1.37244
607.191	4.86984
610.083	29.0808
612.976	8.16675
615.869	12.0563
618.762	23.7471
621.654	22.0482
624.547	13.7361
627.44	26.5653
630.332	7.65721
633.225	2.12669
636.118	0.351944
639.01	15.8913
641.903	13.4084
644.796	0.181396
647.689	2.48262
650.581	15.6324
653.474	1.86468
656.367	18.8152
659.259	12.1169
662.152	4.25882
665.045	22.8403
667.938	18.554
670.83	22.7617
673.723	5.10783
676.616	2.5918
679.508	3.62851
682.401	17.8201
685.294	16.8385
688.186	10.1396
691.079	1.81081
693.972	18.2457
696.865	16.7312
699.757	5.27043
702.65	12.256
705.543	14.8385
708.435	4.79237
711.328	26.5433
714.221	10.5543
717.113	30.933
720.006	10.6397
722.899	16.4653
725.792	13.3721
728.684	7.30093
731.577	2.69936
734.47	30.5302
737.362	15.5653
740.255	11.9443
743.148	14.3794
746.04	20.2076
748.933	11.4718
751.826	5.25931
754.719	16.7615
757.611	22.2521
760.504	18.4589
763.397	14.0601
766.289	7.80043
769.182	23.0276
772.075	10.0114
774.967	5.98831
777.86	15.8359
780.753	18.4484
783.646	15.5539
786.538	12.6537
789.431	16.0193
792.324	1.46538
795.216	12.4333
798.109	2.54227
801.002	18.6231
803.894	7.83575
806.787	0.876724
809.68	12.0051
812.573	12.91
815.465	2.44885
818.358	15.4632
821.251	18.9572
824.143	21.1515
827.036	20.3208
829.929	8.49291
832.822	14.8689
835.714	24.8229
838.607	12.2187
841.5	18.5334
844.392	5.08791
847.285	25.2769
850.178	8.39647
853.07	14.3101
855.963	6.1819
858.856	17.7977
861.749	13.4496
864.641	10.4892
867.534	27.6543
870.427	5.7417
873.319	12.0678
876.212	23.8527
879.105	22.4291
881.997	9.45378
884.89	9.52303
887.783	5.64117
890.676	3.87883
893.568	7.44632
896.461	9.55135
899.354	5.38953
902.246	15.7751
905.139	11.4487
908.032	18.3822
910.924	14.4738
913.817	29.6861
916.71	19.5431
919.602	10.9246
922.495	14.2509
925.388	8.75891
928.281	12.359
931.173	6.06271
934.066	7.18546
936.959	8.41911
939.851	13.6725
942.744	18.7897
945.637	15.5053
948.529	9.67667
951.422	0.670441
954.315	15.3538
957.208	11.6061
960.1	8.30617
962.993	9.53102
965.886	20.7222
968.778	6.29312
971.671	4.79234
974.564	5.41591
977.457	5.50835
980.349	6.21936
983.242	5.93465
986.135	19.9189
989.027	10.1034
991.92	7.4362
994.813	5.50511
997.705	6.56271
1000.6	8.55519
1003.49	2.95901
1006.38	7.59334
1009.28	5.80633
1012.17	7.13792
1015.06	10.6321
1017.95	23.5196
1020.85	16.924
1023.74	13.3927
1026.63	15.0046
1029.53	19.2029
1032.42	17.7813
1035.31	7.99718
1038.2	8.60803
1041.1	15.4004
1043.99	0.833618
1046.88	10.0624
1049.77	10.2171
1052.67	11.945
1055.56	9.16594
1058.45	2.00697
1061.35	18.8824
1064.24	3.82179
1067.13	9.92435
1070.02	14.4087
1072.92	13.7084
1075.81	13.2134
1078.7	8.72153
1081.59	10.3378
1084.49	21.7966
1087.38	14.6093
1090.27	18.5513
1093.16	13.651
1096.06	18.0533
1098.95	10.9004
1101.84	9.99718
1104.73	19.9998
1107.63	13.1532
1110.52	11.4224
1113.41	2.62575
1116.31	17.6609
1119.2	6.56485
1122.09	4.4725
1124.98	0.695908
1127.88	8.29105
1130.77	1.64889
1133.66	10.8049
1136.56	7.30606
1139.45	5.63326
1142.34	6.56722
1145.23	14.2031
1148.13	12.1824
1151.02	7.01577
1153.91	4.82404
1156.8	21.4559
1159.7	22.2815
1162.59	13.8987
1165.48	1.43086
1168.38	20.9338
1171.27	2.41876
1174.16	10.9574
1177.05	11.562
1179.95	14.5973
1182.84	8.93481
1185.73	14.5757
1188.62	17.4497
1191.52	5.17519
1194.41	9.43733
1197.3	6.80093
1200.19	13.8704
1203.09	9.56953
1205.98	7.54852
1208.87	29.0709
1211.77	23.0793
1214.66	7.14328
1217.55	19.003
1220.44	13.9992
1223.34	27.1504
1226.23	13.8299
1229.12	14.8034
1232.01	19.7218
1234.91	17.9232
1237.8	5.35115
1240.69	8.80037
1243.59	16.8766
1246.48	16.6199
1249.37	14.8586
1252.26	15.0406
1255.16	27.4106
1258.05	29.4437
1260.94	14.2026
1263.83	13.2238
1266.73	11.5107
1269.62	33.0851
1272.51	23.4019
1275.4	10.8512
1278.3	11.4587
1281.19	27.4227
1284.08	7.97591
1286.98	17.1837
1289.87	26.0081
1292.76	23.4529
1295.65	29.4106
1298.55	16.7381
1301.44	11.4798
1304.33	13.7284
1307.22	13.1761
1310.12	5.8459
1313.01	2.84984
