Measurement: Raman, 780 nm, unoriented, Raman Data Processed
Mineral: Awaruite
Rruff sample: R070671
Ideal chemistry: Ni_3_Fe
Locality: Heazlewood District, Tasmania, Australia
Source: James Shigley
Description: Silver-white metallic massive nodules
Raman shift (cm-1)	intensity
206.047	0
208.94	21.5255
211.832	71.5173
214.725	143.787
217.618	239.493
220.511	302.583
223.403	296.247
226.296	219.296
229.189	87.6222
232.081	29.608
234.974	8.80664
237.867	95.6824
240.759	71.8149
243.652	9.15808
246.545	88.5157
249.438	22.5725
252.33	2.80176
255.223	80.6061
258.116	1.03686
261.008	80.205
263.901	7.83936
266.794	64.0818
269.687	35.7495
272.579	51.7495
275.472	10.8291
278.365	134.605
281.257	120.654
284.15	157.966
287.043	188.392
289.935	221.419
292.828	259.404
295.721	315.695
298.613	432.994
301.506	411.138
304.399	378.812
307.292	291.765
310.184	190.741
313.077	147.94
315.97	219.768
318.862	131.644
321.755	171.708
324.648	156.948
327.541	117.215
330.433	103.602
333.326	124.772
336.219	191.309
339.111	210.617
342.004	164.068
344.897	180.167
347.789	241.606
350.682	210.677
353.575	139.338
356.467	147.078
359.36	110.05
362.253	67.6813
365.146	71.521
368.038	106.44
370.931	49.2698
373.824	0.187744
376.716	53.9075
379.609	71.2606
382.502	28.0096
385.394	64.9249
388.287	66.818
391.18	23.5714
394.073	43.8789
396.965	29.0564
399.858	36.4644
402.751	8.57568
405.643	50.536
408.536	56.794
411.429	34.8987
414.322	15.5527
417.214	10.0548
420.107	24.0133
423	37.7972
425.892	74.2643
428.785	62.8799
431.678	7.15857
434.57	65.8691
437.463	65.689
440.356	49.135
443.248	15.1249
446.141	36.9874
449.034	9.40967
451.927	42.1471
454.819	68.3044
457.712	21.523
460.605	63.2439
463.497	57.2301
466.39	47.2777
469.283	88.4663
472.175	6.84399
475.068	94.7425
477.961	12.0595
480.854	60.0936
483.746	47.9496
486.639	5.32007
489.532	4.18579
492.424	5.65222
495.317	49.6896
498.21	58.2369
501.103	40.7281
503.995	58.0355
506.888	81.442
509.781	76.2054
512.673	32.4879
515.566	64.5388
518.459	57.8691
521.351	67.0673
524.244	60.9449
527.137	55.3033
530.029	64.1919
532.922	0.188965
535.815	47.9705
538.708	47.7107
541.6	14.2588
544.493	52.0712
547.386	2.73132
550.278	96.0278
553.171	29.6749
556.064	8.40088
558.957	93.2327
561.849	76.653
564.742	111.972
567.635	96.1973
570.527	54.3916
573.42	16.4947
576.313	15.465
579.205	83.1009
582.098	90.9352
584.991	96.2267
587.884	69.6969
590.776	59.848
593.669	78.7777
596.562	40.3439
599.454	44.0617
602.347	41.8878
605.24	43.963
608.133	65.2068
611.025	15.3348
613.918	65.7188
616.811	5.87854
619.703	113.156
622.596	52.6529
625.489	94.9376
628.381	43.4619
631.274	7.19311
634.167	51.1469
637.059	14.9868
639.952	60.0309
642.845	78.692
645.738	55.4275
648.63	20.8884
651.523	90.9116
654.416	63.5868
657.308	49.5245
660.201	82.8944
663.094	63.6001
665.986	49.4725
668.879	70.5692
671.772	21.1855
674.665	107.677
677.557	15.8427
680.45	43.4026
683.343	114.38
686.235	51.3976
689.128	70.2573
692.021	53.6133
694.913	38.6616
697.806	99.9959
700.699	46.6653
703.592	46.5447
706.484	8.98755
709.377	24.6885
712.27	37.0999
715.162	29.3694
718.055	8.01587
720.948	79.5021
723.841	26.014
726.733	94.9188
729.626	39.1516
732.519	5.82477
735.411	99.2123
738.304	49.4039
741.197	133.724
744.089	64.5584
746.982	35.0424
749.875	26.1726
752.768	39.9484
755.66	25.2867
758.553	18.6229
761.446	88.8798
764.338	126.552
767.231	46.5485
770.124	0.217285
773.016	92.0054
775.909	80.4024
778.802	73.5573
781.695	18.2283
784.587	34.4086
787.48	21.5075
790.373	25.5953
793.265	89.6952
796.158	79.3065
799.051	55.5787
801.943	35.5313
804.836	94.0337
807.729	108.467
810.622	9.78979
813.514	71.398
816.407	64.9487
819.3	48.8429
822.192	17.5783
825.085	63.8383
827.978	70.1669
830.87	89.7922
833.763	42.8342
836.656	70.7465
839.549	51.1053
842.441	70.4165
845.334	81.5687
848.227	82.6013
851.119	81.3765
854.012	13.6632
856.905	85.7637
859.798	44.239
862.69	3.13049
865.583	62.6152
868.476	29.7783
871.368	13.9371
874.261	55.9869
877.154	43.4113
880.046	49.0538
882.939	38.0762
885.832	88.1484
888.725	70.3728
891.617	49.5648
894.51	25.9793
897.403	55.3043
900.295	109.5
903.188	43.8828
906.081	69.2394
908.973	54.3372
911.866	50.0441
914.759	52.9739
917.652	63.5485
920.544	26.9123
923.437	49.4037
926.33	49.2283
929.222	7.92706
932.115	106.274
935.008	68.1322
937.9	88.1397
940.793	23.6105
943.686	45.4367
946.578	29.9512
949.471	19.3883
952.364	7.15076
955.257	38.352
958.149	67.1497
961.042	20.7584
963.935	70.4806
966.827	66.9623
969.72	35.5823
972.613	25.4387
975.505	21.0228
978.398	16.9591
981.291	43.9291
984.184	70.6055
987.076	55.0311
989.969	33.01
992.862	2.4491
995.755	75.3743
998.647	86.4093
1001.54	77.9367
1004.43	43.9084
1007.33	53.9889
1010.22	12.5229
1013.11	91.8752
1016	40.5838
1018.9	9.53412
1021.79	51.5081
1024.68	69.1873
1027.57	62.3848
1030.47	33.47
1033.36	92.7869
1036.25	20.1603
1039.14	48.7633
1042.04	95.9799
1044.93	75.4446
1047.82	27.4562
1050.72	70.2784
1053.61	69.3664
1056.5	51.3027
1059.39	131.041
1062.29	82.5365
1065.18	102.579
1068.07	59.8561
1070.96	78.4922
1073.86	83.181
1076.75	55.2737
1079.64	44.1334
1082.54	76.6012
1085.43	49.66
1088.32	75.2196
1091.21	72.4209
1094.11	61.2811
1097	29.0985
1099.89	114.403
1102.78	86.9109
1105.68	10.5293
1108.57	76.229
1111.46	76.1125
1114.36	50.2032
1117.25	33.0754
1120.14	66.6407
1123.03	14.4139
1125.93	88.0839
1128.82	5.8501
1131.71	44.2617
1134.6	67.9696
1137.5	37.9878
1140.39	72.7854
1143.28	14.1466
1146.17	6.65418
1149.07	118.093
1151.96	32.0895
1154.85	25.3009
1157.75	68.6906
1160.64	33.1426
1163.53	107.209
1166.42	52.1326
1169.32	10.9501
1172.21	95.3424
1175.1	32.2424
1177.99	85.756
1180.89	31.5404
1183.78	20.7897
1186.67	77.1904
1189.57	2.78235
1192.46	30.4091
1195.35	18.6346
1198.24	39.9443
1201.14	49.4631
1204.03	7.89978
1206.92	63.4342
1209.81	58.9562
1212.71	16.8513
1215.6	75.2281
1218.49	34.9403
1221.38	33.3677
1224.28	38.4558
1227.17	64.6935
1230.06	53.9341
1232.96	102.041
1235.85	55.1537
1238.74	73.0396
1241.63	58.3661
1244.53	25.869
1247.42	86.2537
1250.31	67.5731
1253.2	9.53931
1256.1	65.1024
1258.99	0.068481
