Measurement: Raman, 532 nm, unoriented, Raman Data Processed
Mineral: Awaruite
Rruff sample: R070671
Ideal chemistry: Ni_3_Fe
Locality: Heazlewood District, Tasmania, Australia
Source: James Shigley
Description: Silver-white metallic massive nodules
Raman shift (cm-1)	intensity
174.439	0
177.332	46.512
180.224	117.689
183.117	83.3903
186.01	134.5
188.903	67.4172
191.795	156.381
194.688	138.421
197.581	208.19
200.473	212.394
203.366	114.907
206.259	84.8062
209.151	60.7953
212.044	106.648
214.937	134.952
217.829	172.975
220.722	164.755
223.615	92.9092
226.508	117.048
229.4	29.0949
232.293	22.989
235.186	44.1362
238.078	35.1478
240.971	8.32532
243.864	111.437
246.756	38.8605
249.649	49.2981
252.542	23.506
255.435	7.25244
258.327	10.3185
261.22	30.1329
264.113	7.39307
267.005	74.2874
269.898	58.1632
272.791	40.9137
275.683	84.3149
278.576	48.1895
281.469	79.3958
284.361	120.096
287.254	177.487
290.147	153.79
293.04	189.377
295.932	265.826
298.825	269.688
301.718	276.381
304.61	375.425
307.503	277.863
310.396	279.405
313.288	336.462
316.181	357.443
319.074	349.752
321.967	365.341
324.859	416.267
327.752	378.011
330.645	337.726
333.537	264.148
336.43	401.18
339.323	399.607
342.216	458.51
345.108	571.773
348.001	638.432
350.894	590.321
353.786	418.08
356.679	210.786
359.572	139.905
362.464	3.60571
365.357	68.3284
368.25	32.0283
371.142	8.3667
374.035	41.0156
376.928	48.1614
379.821	14.4536
382.713	29.2045
385.606	25.24
388.499	12.4058
391.391	7.32764
394.284	4.5968
397.177	20.6768
400.07	26.1079
402.962	24.7803
405.855	21.8571
408.748	20.1992
411.64	33.678
414.533	67.0609
417.426	50.6661
420.318	16.637
423.211	6.74609
426.104	12.5814
428.997	84.2401
431.889	47.2639
434.782	71.2862
437.675	3.63318
440.567	21.8976
443.46	44.8195
446.353	56.9425
449.245	52.3479
452.138	37.2305
455.031	63.0426
457.923	105.502
460.816	103.183
463.709	12.7994
466.601	35.9367
469.494	33.1873
472.387	69.1732
475.28	62.9895
478.172	17.5114
481.065	35.0659
483.958	60.227
486.85	59.4686
489.743	108.105
492.636	52.9183
495.529	62.0938
498.421	49.8231
501.314	78.4335
504.207	10.9221
507.099	51.9973
509.992	80.9391
512.885	113.954
515.777	103.016
518.67	78.9488
521.563	95.406
524.456	48.8916
527.348	116.082
530.241	71.8522
533.134	62.9613
536.026	104.589
538.919	16.3418
541.812	107.724
544.704	22.1561
547.597	27.3279
550.49	111.967
553.383	55.0754
556.275	133.099
559.168	102.01
562.061	51.9758
564.953	100.674
567.846	24.9315
570.739	78.635
573.631	94.0022
576.524	117.308
579.417	64.4371
582.309	30.2946
585.202	30.7067
588.095	35.0704
590.987	23.2335
593.88	84.0256
596.773	69.2167
599.666	66.3023
602.558	81.854
605.451	102.718
608.344	18.2574
611.236	89.3413
614.129	75.3024
617.022	58.0262
619.915	28.3693
622.807	68.0727
625.7	71.3279
628.593	41.575
631.485	27.9371
634.378	11.7396
637.271	74.8675
640.163	87.5035
643.056	58.3738
645.949	103.846
648.842	57.928
651.734	29.5387
654.627	80.2876
657.52	92.7909
660.412	9.19373
663.305	44.9034
666.198	50.0024
669.09	120.283
671.983	55.6279
674.876	37.6191
677.769	149.298
680.661	122.274
683.554	56.1536
686.447	41.9067
689.339	51.5292
692.232	84.3336
695.125	25.1622
698.017	58.1029
700.91	16.0424
703.803	18.5546
706.696	38.0912
709.588	69.3298
712.481	52.1459
715.374	63.1044
718.266	49.6669
721.159	91.7181
724.052	73.125
726.944	23.3771
729.837	71.7649
732.73	45.1367
735.622	118.864
738.515	89.6326
741.408	34.1228
744.301	22.2512
747.193	64.9368
750.086	38.559
752.979	16.494
755.871	119.066
758.764	46.5264
761.657	24.8356
764.549	26.7559
767.442	28.89
770.335	65.8507
773.227	52.2004
776.12	94.8242
779.013	22.5464
781.906	1.63745
784.798	97.0853
787.691	42.9489
790.584	1.63355
793.476	6.90796
796.369	38.6382
799.262	5.09607
802.154	70.9191
805.047	39.1728
807.94	41.71
810.833	45.3236
813.725	58.2648
816.618	44.0684
819.511	33.1427
822.403	43.0005
825.296	32.9019
828.189	70.6024
831.082	61.3715
833.974	100.133
836.867	60.1245
839.76	45.09
842.652	51.2419
845.545	47.4581
848.438	88.8358
851.33	34.7183
854.223	77.384
857.116	34.6379
860.009	28.5741
862.901	52.6151
865.794	23.895
868.687	17.5272
871.579	38.4287
874.472	41.8088
877.365	4.75928
880.257	20.7479
883.15	51.6212
886.043	40.7601
888.936	58.7767
891.828	56.4114
894.721	81.0265
897.614	60.1619
900.506	105.697
903.399	92.3324
906.292	26.6039
909.184	69.5078
912.077	30.7139
914.97	48.422
917.862	87.6773
920.755	86.7578
923.648	61.821
926.541	55.6321
929.433	15.1043
932.326	38.0818
935.219	57.9874
938.111	86.7631
941.004	15.919
943.897	49.9479
946.789	29.6322
949.682	25.7059
952.575	10.2533
955.467	27.6621
958.36	19.2216
961.253	6.48206
964.146	74.0471
967.038	59.5153
969.931	24.8514
972.824	37.4327
975.716	8.23377
978.609	24.4537
981.502	31.5892
984.394	1.31445
987.287	44.0278
990.18	63.9383
993.073	1.07715
995.965	67.167
998.858	93.7826
1001.75	67.1704
1004.64	102.589
1007.54	59.1239
1010.43	68.2766
1013.32	90.8972
1016.21	29.9791
1019.11	127.588
1022	9.13086
1024.89	10.5102
1027.79	65.0072
1030.68	11.6239
1033.57	57.2824
1036.46	40.2433
1039.36	32.7302
1042.25	75.889
1045.14	21.5523
1048.03	88.4069
1050.93	37.209
1053.82	66.0623
1056.71	70.4896
1059.61	21.9131
1062.5	96.1421
1065.39	70.4828
1068.28	108.484
1071.17	65.3718
1074.07	13.0054
1076.96	94.2111
1079.85	74.4353
1082.75	16.7831
1085.64	50.0265
1088.53	60.7548
1091.42	36.179
1094.32	52.7634
1097.21	70.3452
1100.1	58.8088
1102.99	85.1017
1105.89	93.4613
1108.78	9.64722
1111.67	72.462
1114.57	54.1908
1117.46	14.8829
1120.35	34.1902
1123.24	15.8628
1126.14	57.3614
1129.03	26.4423
1131.92	116.044
1134.82	5.8197
1137.71	68.5184
1140.6	107.875
1143.49	21.6941
1146.39	52.4816
1149.28	27.7694
1152.17	55.7001
1155.06	112.317
1157.96	72.8438
1160.85	59.6759
1163.74	41.6804
1166.63	30.8784
1169.53	93.2439
1172.42	50.3539
1175.31	0.61499
1178.2	71.5096
1181.1	40.2628
1183.99	60.8689
1186.88	46.148
1189.78	30.833
1192.67	47.4175
1195.56	96.9047
1198.45	57.0693
1201.35	67.2289
1204.24	116.496
1207.13	78.2157
1210.03	69.6813
1212.92	17.8682
1215.81	5.48096
1218.7	40.9004
1221.6	116.483
1224.49	89.7729
1227.38	39.5894
1230.27	60.2424
1233.17	9.64075
1236.06	44.8477
1238.95	44.4846
1241.85	29.8065
1244.74	54.6245
1247.63	34.6505
1250.52	62.2343
1253.41	25.2241
1256.31	87.9801
1259.2	47.4049
1262.09	2.21423
1264.99	46.9587
1267.88	53.571
1270.77	13.2952
1273.66	79.9947
1276.56	65.3252
1279.45	77.0181
1282.34	44.0179
1285.23	67.4595
1288.13	11.3987
1291.02	41.8529
1293.91	40.4336
1296.81	15.2135
