Measurement: Raman, 532 nm, unoriented, Raman Data Processed
Mineral: Axinite-(Mg)
Rruff sample: R070133
Ideal chemistry: Ca_4_Mg_2_Al_4_[B_2_Si_8_O_30_](OH)_2_
Locality: Merelani, Tanzania
Source: Michael Gray
Description: Pale brown cut gem stone
Measured chemistry: Ca_4.00_(Mg_1.86_Al_0.08_Mn_0.06_)_Σ=2_Al_4.00_[B_2_(Si_7.92_Al_0.08_)_Σ=8_O_30_](OH)_2_; B and OH not measured but assumed by stoichiometry
Raman shift (cm-1)	intensity
142.95	0
145.843	84.7142
148.735	472.072
151.628	818.676
154.521	523.466
157.413	469.82
160.306	569.816
163.199	784.219
166.091	384.663
168.984	231.342
171.877	147.145
174.77	135.091
177.662	113.401
180.555	28.0439
183.448	1.72656
186.34	75.8542
189.233	143.746
192.126	168.021
195.018	273.483
197.911	295.304
200.804	39.0359
203.697	36.1434
206.589	7.62564
209.482	24.7535
212.375	238.86
215.268	248.67
218.16	132.076
221.053	289.747
223.946	366.594
226.838	187.318
229.731	120.525
232.624	48.1811
235.516	38.6798
238.409	3.04612
241.302	58.6106
244.195	21.7689
247.087	84.2415
249.98	120.432
252.873	49.6868
255.765	131.914
258.658	113.024
261.551	346.563
264.443	680.48
267.336	1088.58
270.229	1597.83
273.122	1287.8
276.014	1022.6
278.907	473.885
281.8	161.95
284.692	162.593
287.585	141.878
290.478	140.576
293.37	209.632
296.263	325.867
299.156	652.366
302.048	906.59
304.941	545.673
307.834	79.1007
310.727	139.278
313.619	150.816
316.512	207.932
319.405	396.5
322.297	499.52
325.19	329.671
328.083	195.041
330.976	42.9474
333.868	11.7553
336.761	8.69437
339.654	215.441
342.546	353.927
345.439	508.992
348.332	853.049
351.224	950.754
354.117	811.677
357.01	601.687
359.902	396.086
362.795	136.335
365.688	24.9216
368.581	18.7195
371.473	9.65199
374.366	19.3172
377.259	11.3097
380.151	2.35934
383.044	142.758
385.937	89.6638
388.83	144.719
391.722	293.958
394.615	410.884
397.508	250.131
400.4	215.692
403.293	368.608
406.186	363.848
409.079	441.328
411.971	391.353
414.864	526.093
417.757	725.354
420.649	754.022
423.542	574.74
426.435	456.364
429.327	394.409
432.22	526.912
435.113	680.486
438.005	550.095
440.898	349.798
443.791	336.036
446.684	374.403
449.576	397.464
452.469	175.441
455.362	113.01
458.254	0.945377
461.147	23.712
464.04	8.46609
466.933	16.2633
469.825	85.3762
472.718	162.207
475.611	161.227
478.503	105.23
481.396	175.994
484.289	279.117
487.181	489.24
490.074	621.729
492.967	432.839
495.86	231.753
498.752	187.546
501.645	316.25
504.538	302.956
507.43	325.918
510.323	267.788
513.216	459.561
516.108	214.435
519.001	115.647
521.894	95.4806
524.787	126.35
527.679	25.4728
530.572	129.214
533.465	6.3745
536.357	50.0443
539.25	28.0923
542.143	11.6961
545.035	129.905
547.928	219.176
550.821	170.33
553.714	127.888
556.606	61.8544
559.499	66.9294
562.392	58.6251
565.284	18.4231
568.177	150.382
571.07	127.879
573.962	119.167
576.855	159.246
579.748	201.96
582.641	207.122
585.533	218.368
588.426	317.473
591.319	280.051
594.211	224.038
597.104	114.224
599.997	34.1216
602.889	88.627
605.782	9.95186
608.675	109.728
611.568	55.1017
614.46	84.3727
617.353	32.974
620.246	88.3714
623.138	69.2718
626.031	8.71238
628.924	47.7991
631.817	17.5615
634.709	91.4227
637.602	60.1255
640.495	99.7313
643.387	75.1994
646.28	192.768
649.173	158.236
652.065	143.546
654.958	71.2403
657.851	75.5521
660.744	15.0109
663.636	51.3747
666.529	66.3445
669.422	120.368
672.314	199.061
675.207	240.107
678.1	144.372
680.992	129.029
683.885	18.5396
686.778	10.7877
689.67	21.5674
692.563	3.76082
695.456	138.016
698.349	260.377
701.241	328.663
704.134	703.186
707.027	747.332
709.919	1041.62
712.812	1614.03
715.705	1627.71
718.597	1391.95
721.49	885.479
724.383	509.668
727.276	234.027
730.168	262.663
733.061	87.712
735.954	116.34
738.846	62.4468
741.739	48.4989
744.632	56.9231
747.524	38.1942
750.417	103.504
753.31	82.7197
756.203	36.3018
759.095	3.23764
761.988	24.3368
764.881	166.236
767.773	261.182
770.666	347.135
773.559	193.817
776.452	305.782
779.344	90.5219
782.237	365.098
785.13	52.3108
788.022	68.7699
790.915	21.062
793.808	132.779
796.701	140.607
799.593	258.438
802.486	222.443
805.379	120.427
808.271	193.422
811.164	159.854
814.057	125.823
816.949	416.254
819.842	199.675
822.735	98.2742
825.628	46.6854
828.52	100.203
831.413	65.0056
834.306	54.6018
837.198	27.3759
840.091	32.841
842.984	146.363
845.876	266.178
848.769	226.957
851.662	257.143
854.554	48.3467
857.447	156.061
860.34	73.7341
863.233	32.8952
866.125	79.5452
869.018	46.6956
871.911	124.433
874.803	65.2328
877.696	300.912
880.589	234.367
883.481	49.0637
886.374	209.29
889.267	232.189
892.16	294.585
895.052	221.846
897.945	455.099
900.838	574.573
903.731	684.597
906.623	719.104
909.516	542.933
912.409	646.162
915.301	312.276
918.194	165.635
921.087	141.916
923.979	137.945
926.872	0.282604
929.765	18.982
932.658	3.31441
935.55	297.799
938.443	50.0236
941.336	243.588
944.228	208.367
947.121	154.11
950.014	184.59
952.906	230.673
955.799	237.641
958.692	310.611
961.585	375.404
964.477	633.237
967.37	528.715
970.263	585.702
973.155	556.779
976.048	858.053
978.941	1198.16
981.833	887.702
984.726	808.992
987.619	925.874
990.511	858.27
993.404	612.275
996.297	751.751
999.19	494.646
1002.08	730.678
1004.98	649.655
1007.87	900.827
1010.76	562.458
1013.65	339.473
1016.55	479.604
1019.44	145.446
1022.33	185.601
1025.22	296.535
1028.12	6.11379
1031.01	36.3982
1033.9	223.641
1036.8	2.74645
1039.69	388.878
1042.58	60.6374
1045.47	159.133
1048.37	192.326
1051.26	196.947
1054.15	78.0481
1057.04	228.708
1059.94	10.4724
1062.83	485.343
1065.72	184.586
1068.61	465.093
1071.51	292.16
1074.4	553.7
1077.29	253.502
1080.18	538.05
1083.08	230.747
1085.97	427.274
1088.86	279.558
1091.76	251.399
1094.65	295.695
1097.54	137.476
1100.43	280.517
1103.33	307.603
1106.22	182.669
1109.11	280.416
1112.01	71.8203
1114.9	213.392
1117.79	15.0199
1120.68	140.84
1123.58	7.53214
1126.47	25.2425
1129.36	212.753
1132.25	13.9206
1135.15	48.5131
1138.04	37.5232
1140.93	256.139
1143.83	528.143
1146.72	509.472
1149.61	137.474
1152.5	101.392
1155.4	318.303
1158.29	343.959
1161.18	323.904
1164.07	120.213
1166.97	361.461
1169.86	261.678
1172.75	41.7741
1175.64	33.7744
1178.54	160.708
1181.43	171.85
1184.32	99.6993
1187.21	235.455
1190.11	35.0601
1193	382.257
1195.89	623.844
1198.79	183.072
1201.68	473.487
1204.57	352.14
1207.46	183.861
1210.36	332.906
1213.25	116.275
1216.14	254.279
1219.04	548.666
1221.93	317.934
1224.82	453.065
1227.71	448.061
1230.61	125.062
1233.5	88.1314
