Measurement: Raman, 780 nm, unoriented, Raman Data Processed
Mineral: Azurite
Rruff sample: R050497
Ideal chemistry: Cu^2+^_3_(CO_3_)_2_(OH)_2_
Locality: Tsumeb mine, Tsumeb, Otavi District, Oshikoto, Namibia
Source: Marcus Origlieri
Description: Blue prismatic single crystal
Measured chemistry: Cu_3.00_(CO_3_)_2_(OH)_2_
Raman shift (cm-1)	intensity
114.032	0
117.407	0.999847
120.782	2.45675
124.157	2.45252
127.531	1.03848
130.906	1.81753
134.281	0.202303
137.656	2.75017
141.031	2.12967
144.405	0.907965
147.78	0.877377
151.155	1.93528
154.53	3.59206
157.905	0.631334
161.28	3.43824
164.654	6.12075
168.029	5.93931
171.404	3.85839
174.779	1.79894
178.154	2.33218
181.529	2.16579
184.903	1.04741
188.278	1.95344
191.653	1.38322
195.028	0.694534
198.403	1.61589
201.777	0.749996
205.152	2.64912
208.527	1.08042
211.902	1.44428
215.277	2.34774
218.651	1.67018
222.026	1.87003
225.401	2.94301
228.776	7.03469
232.151	6.92899
235.526	9.93663
238.9	11.5635
242.275	11.6366
245.65	12.3842
249.025	7.40833
252.4	5.76401
255.774	4.71536
259.149	2.991
262.524	3.69421
265.899	4.22917
269.274	3.18216
272.649	4.41412
276.023	4.53695
279.398	2.60761
282.773	2.12897
286.148	1.7647
289.523	0.96439
292.897	0.049247
296.272	0.932755
299.647	1.05304
303.022	1.187
306.397	0.403469
309.772	2.26061
313.146	0.205746
316.521	2.71841
319.896	0.108643
323.271	1.48443
326.646	2.48564
330.021	0.152369
333.395	1.52076
336.77	0.260564
340.145	1.3096
343.52	0.692629
346.895	1.68559
350.269	1.2756
353.644	2.79417
357.019	1.65647
360.394	2.14789
363.769	2.59657
367.144	2.35659
370.518	4.25139
373.893	3.48876
377.268	6.64787
380.643	8.49462
384.018	10.8367
387.392	15.4552
390.767	16.5548
394.142	18.2775
397.517	17.3747
400.892	15.529
404.267	11.5993
407.641	8.02894
411.016	5.34234
414.391	5.42555
417.766	3.05607
421.141	0.617392
424.515	1.0367
427.89	0.650391
431.265	2.19032
434.64	1.93683
438.015	0.16212
441.389	1.85991
444.764	0.590533
448.139	0.010618
451.514	1.77926
454.889	0.033158
458.264	0.813364
461.639	0.214398
465.013	1.27873
468.388	0.73438
471.763	0.974716
475.138	1.69539
478.512	1.96581
481.887	2.01372
485.262	2.15935
488.637	0.157671
492.012	1.42781
495.387	1.86333
498.761	0.101947
502.136	2.90485
505.511	1.63447
508.886	1.53421
512.261	0.679605
515.636	2.0258
519.01	2.09641
522.385	0.747801
525.76	1.8224
529.135	2.22335
532.51	3.61832
535.885	2.25016
539.259	2.36949
542.634	0.99847
546.009	1.32158
549.384	0.57953
552.759	1.95835
556.133	2.55191
559.508	1.91539
562.883	3.49348
566.258	2.72142
569.633	1.43306
573.007	0.14475
576.382	0.051941
579.757	2.59815
583.132	1.40332
586.507	1.58158
589.882	0.587698
593.256	1.24929
596.631	1.81047
600.006	0.660048
603.381	1.08306
606.756	0.732056
610.13	0.537604
613.505	1.0471
616.88	0.338041
620.255	0.47548
623.63	1.45508
627.005	2.24248
630.379	0.943508
633.754	1.98099
637.129	1.25048
640.504	0.461439
643.879	1.73309
647.254	2.15963
650.628	1.95689
654.003	1.52374
657.378	2.1118
660.753	3.49733
664.128	1.99971
667.502	1.01161
670.877	1.57388
674.252	2.02979
677.627	0.909471
681.002	1.68799
684.376	0.523663
687.751	0.722465
691.126	2.10246
694.501	1.43335
697.876	0.872946
701.251	1.33753
704.625	1.05915
708	1.37011
711.375	1.36672
714.75	0.506247
718.125	2.20528
721.5	2.2561
724.874	1.61289
728.249	2.24772
731.624	3.96833
734.999	2.09426
738.374	3.34802
741.748	1.08271
745.123	2.33513
748.498	1.7523
751.873	1.19901
755.248	3.61364
758.622	3.68149
761.997	4.80319
765.372	4.07209
768.747	2.83811
772.122	1.20752
775.497	0.959213
778.871	0.378779
782.246	0.760432
785.621	0.50035
788.996	0.133381
792.371	1.61766
795.745	1.08315
799.12	2.46157
802.495	2.8331
805.87	1.73871
809.245	3.69091
812.62	3.84292
815.994	1.3409
819.369	1.62799
822.744	2.33742
826.119	3.12669
829.494	4.18276
832.869	4.76612
836.243	5.14892
839.618	2.24492
842.993	2.70612
846.368	3.07653
849.743	0.732054
853.117	3.06191
856.492	1.60939
859.867	2.32563
863.242	1.75823
866.617	2.74669
869.991	0.062606
873.366	2.19682
876.741	1.80502
880.116	1.74763
883.491	2.52847
886.866	2.72774
890.24	2.08899
893.615	1.95868
896.99	0.825812
900.365	0.46178
903.74	1.12703
907.115	1.30264
910.489	0.248227
913.864	0.729398
917.239	1.58799
920.614	0.124427
923.989	0.616069
927.364	1.43088
930.738	1.33058
934.113	2.29115
937.488	1.9757
940.863	1.55711
944.237	0.428576
947.612	1.34468
950.987	1.21366
954.362	0.210628
957.737	1.39619
961.112	0.863844
964.486	1.08431
967.861	1.65619
971.236	1.98657
974.611	1.80008
977.986	2.10781
981.361	0.646312
984.735	0.534905
988.11	0.61578
991.485	0.015468
994.86	1.13174
998.235	1.41819
1001.61	2.99101
1004.98	0.067626
1008.36	0.149076
1011.73	1.62681
1015.11	3.01363
1018.48	1.22109
1021.86	1.07516
1025.23	0.17835
1028.61	1.0492
1031.98	1.82202
1035.36	0.79496
1038.73	0.290473
1042.11	1.15786
1045.48	1.81362
1048.86	1.6537
1052.23	1.64852
1055.61	2.08041
1058.98	0.505734
1062.36	1.7864
1065.73	0.992781
1069.11	1.52813
1072.48	2.29024
1075.86	2.48941
1079.23	2.2456
1082.61	3.8841
1085.98	6.67457
1089.36	6.38807
1092.73	9.26834
1096.1	7.24633
1099.48	3.97896
1102.85	2.59322
1106.23	1.5439
1109.6	2.43962
1112.98	2.28547
1116.35	0.848198
1119.73	0.86761
1123.1	1.31655
1126.48	1.78186
1129.85	2.51626
1133.23	0.392712
1136.6	2.03862
1139.98	1.38579
1143.35	1.36693
1146.73	0.094456
1150.1	1.87258
1153.48	0.643216
1156.85	1.22849
1160.23	1.60478
1163.6	1.21218
1166.98	1.77717
1170.35	1.73676
1173.72	2.49149
1177.1	1.4391
1180.47	2.61509
1183.85	0.857741
1187.22	0.879257
1190.6	1.64073
1193.97	0.285678
1197.35	0.969148
1200.72	2.36772
1204.1	1.1824
1207.47	1.48202
1210.85	2.34275
1214.22	1.8709
1217.6	0.765998
1220.97	0.864782
1224.35	0.762065
1227.72	2.26262
1231.1	1.19827
1234.47	2.23998
1237.85	2.5093
1241.22	1.14904
1244.6	2.28804
1247.97	2.80346
1251.35	2.43215
1254.72	2.77599
1258.1	0.704832
1261.47	0.891149
1264.85	1.34086
1268.22	1.80431
1271.6	1.80793
1274.97	2.05001
1278.35	1.97143
1281.72	2.38621
1285.09	1.36505
