Measurement: Raman, 780 nm, unoriented, Raman Data Processed
Mineral: Azurite
Rruff sample: R050638
Ideal chemistry: Cu^2+^_3_(CO_3_)_2_(OH)_2_
Locality: Zacatecas, Mexico
Source: University of Arizona Mineral Museum
Description: Blue bladed crystals
Measured chemistry: Cu_3.00_(CO_3_)_2_(OH)_2_
Raman shift (cm-1)	intensity
118.542	0
121.917	2.01452
125.291	3.3299
128.666	14.8916
132.041	12.1949
135.416	8.88789
138.791	13.1278
142.166	13.0052
145.54	2.28087
148.915	3.85106
152.29	8.70463
155.665	0.39389
159.04	0.881989
162.414	2.966
165.789	6.08537
169.164	6.9629
172.539	10.245
175.914	6.51125
179.288	10.2526
182.663	17.186
186.038	19.2842
189.413	19.4555
192.788	16.1064
196.162	8.3036
199.537	3.58564
202.912	1.9167
206.287	0.555275
209.662	1.85763
213.037	0.276695
216.411	2.47293
219.786	7.63447
223.161	5.77879
226.536	16.2303
229.911	29.0438
233.286	38.1586
236.66	48.1403
240.035	63.9269
243.41	76.0506
246.785	68.5018
250.16	33.7073
253.534	13.9489
256.909	7.75148
260.284	12.7594
263.659	12.4943
267.034	9.92331
270.408	15.2348
273.783	18.3885
277.158	15.0102
280.533	14.5869
283.908	6.14696
287.283	6.52445
290.657	1.31547
294.032	1.89829
297.407	0.44434
300.782	2.56703
304.157	2.7623
307.531	1.54227
310.906	2.32666
314.281	2.08641
317.656	4.69915
321.031	1.97393
324.406	1.64095
327.78	0.515869
331.155	0.195911
334.53	0.615971
337.905	0.551262
341.279	1.65919
344.654	1.56538
348.029	3.76311
351.404	0.698212
354.779	6.40802
358.154	8.60466
361.528	8.77286
364.903	7.66409
368.278	11.6022
371.653	13.4174
375.028	17.2243
378.402	24.3463
381.777	28.1727
385.152	36.3877
388.527	41.8106
391.902	43.1129
395.277	54.0975
398.651	46.9393
402.026	34.1248
405.401	19.5224
408.776	14.2492
412.151	10.7462
415.526	10.8959
418.9	4.94212
422.275	6.35178
425.65	0.491375
429.025	1.444
432.399	4.57856
435.774	4.25252
439.149	0.654415
442.524	3.42824
445.899	1.32973
449.274	3.99466
452.648	0.348034
456.023	2.73023
459.398	1.1719
462.773	1.6653
466.148	2.61357
469.522	3.78649
472.897	0.816067
476.272	3.27471
479.647	1.76009
483.022	4.79853
486.397	1.7259
489.771	0.247704
493.146	5.68203
496.521	4.99636
499.896	4.74458
503.271	2.51033
506.645	0.25481
510.02	5.08325
513.395	3.71342
516.77	1.22033
520.145	3.12998
523.519	3.33324
526.894	2.8422
530.269	3.33452
533.644	4.65635
537.019	3.47372
540.394	3.66551
543.768	0.729683
547.143	1.74168
550.518	1.87918
553.893	3.69357
557.268	3.33433
560.643	4.37811
564.017	3.96085
567.392	5.45846
570.767	0.665161
574.142	2.23559
577.516	4.1051
580.891	2.13605
584.266	1.85383
587.641	6.31164
591.016	5.61335
594.391	3.65791
597.765	4.49567
601.14	6.14819
604.515	2.25721
607.89	2.77933
611.265	2.01348
614.639	0.009941
618.014	1.98035
621.389	0.351677
624.764	4.85605
628.139	5.5643
631.514	1.17118
634.888	1.03757
638.263	1.87488
641.638	3.99633
645.013	3.54744
648.388	3.12544
651.763	4.09149
655.137	1.96069
658.512	4.96248
661.887	3.1352
665.262	1.66242
668.636	4.11402
672.011	4.18284
675.386	4.86626
678.761	1.24579
682.136	1.23163
685.511	4.49136
688.885	0.563021
692.26	1.61299
695.635	5.4365
699.01	3.46928
702.385	1.07354
705.76	3.12289
709.134	2.56914
712.509	1.03586
715.884	1.41761
719.259	1.66702
722.634	0.122135
726.008	2.26869
729.383	1.56286
732.758	3.07987
736.133	2.08859
739.508	0.659035
742.882	4.8586
746.257	4.83688
749.632	4.84367
753.007	7.11251
756.382	7.18164
759.756	15.1275
763.131	13.2371
766.506	8.83997
769.881	3.57855
773.256	5.37737
776.631	3.50271
780.005	0.519199
783.38	1.86646
786.755	2.81192
790.13	1.14979
793.505	4.0755
796.88	0.120171
800.254	1.7906
803.629	1.33864
807.004	2.12946
810.379	3.1487
813.754	3.00935
817.128	5.9968
820.503	2.20391
823.878	7.1302
827.253	9.47403
830.628	5.46171
834.002	7.91822
837.377	6.25017
840.752	7.49686
844.127	2.19966
847.502	4.39995
850.876	4.46615
854.251	5.34079
857.626	3.76483
861.001	1.68058
864.376	0.332844
867.751	4.60619
871.125	3.52273
874.5	2.13414
877.875	2.54074
881.25	2.26617
884.625	1.5504
888	3.88472
891.374	1.28792
894.749	0.81002
898.124	0.493652
901.499	0.040102
904.874	0.22044
908.248	2.49931
911.623	3.94133
914.998	5.35278
918.373	3.34093
921.748	7.71944
925.122	9.66853
928.497	12.733
931.872	11.3832
935.247	10.1645
938.622	9.58875
941.996	6.95049
945.371	7.28163
948.746	7.61018
952.121	4.68787
955.496	1.27013
958.87	0.687546
962.245	0.136372
965.62	1.69772
968.995	1.98315
972.37	0.195353
975.745	0.920912
979.119	4.4744
982.494	2.39989
985.869	0.382627
989.244	4.0507
992.619	2.78648
995.994	1.70995
999.368	1.24065
1002.74	4.31268
1006.12	5.33572
1009.49	1.76657
1012.87	4.41866
1016.24	0.374765
1019.62	2.28615
1022.99	1.34245
1026.37	3.06675
1029.74	2.55988
1033.12	0.559011
1036.49	6.43882
1039.87	5.07129
1043.24	2.79098
1046.62	3.50244
1049.99	2.92896
1053.37	0.654076
1056.74	2.05155
1060.12	0.949322
1063.49	1.64059
1066.87	3.97393
1070.24	2.87459
1073.61	2.6195
1076.99	6.21725
1080.36	11.489
1083.74	15.3752
1087.11	23.5723
1090.49	26.1669
1093.86	34.4866
1097.24	24.9904
1100.61	11.8444
1103.99	5.42148
1107.36	7.44713
1110.74	3.6612
1114.11	1.62211
1117.49	4.19482
1120.86	3.94965
1124.24	3.21733
1127.61	4.13455
1130.99	3.24628
1134.36	1.21554
1137.74	1.87385
1141.11	3.99435
1144.48	3.87333
1147.86	2.02942
1151.23	2.11306
1154.61	4.15909
1157.98	0.406345
1161.36	2.60205
1164.73	1.8528
1168.11	4.72173
1171.48	5.27221
1174.86	3.09486
1178.23	2.92461
1181.61	1.60292
1184.98	6.6738
1188.36	3.40612
1191.73	4.69187
1195.11	4.04391
1198.48	5.89344
1201.86	7.23741
1205.23	2.23459
1208.61	3.35799
1211.98	6.58667
1215.36	1.35069
1218.73	2.86618
1222.11	4.62978
1225.48	3.27289
1228.86	0.644531
1232.23	2.80399
1235.61	0.536633
1238.98	5.60605
1242.36	4.67978
1245.73	3.10394
1249.11	7.81473
1252.48	0.495993
1255.85	2.05053
1259.23	1.98681
1262.6	2.70382
1265.98	5.68208
1269.35	0.829939
1272.73	4.45335
1276.1	4.22804
1279.48	2.40385
1282.85	2.27678
1286.23	0
