Measurement: Raman, 780 nm, unoriented, Raman Data Processed
Mineral: Bakerite
Rruff sample: R050423
Ideal chemistry: Ca_4_B_5_(SiO_4_)_3_(O_3_(OH)_5_)
Locality: Corkscrew Canyon, Death Valley, California, USA
Source: Marcus Origlieri
Description: White fine-grained aggregate
Measured chemistry: Ca_4.00_(B_4.99_S_0.01_)_Σ=5_(Si_2.97_Al_0.03_)_Σ=3_O_15_(OH)_5_
Raman shift (cm-1)	intensity
145.37	0
148.262	0.039536
151.155	0.725563
154.048	1.78203
156.94	1.45156
159.833	1.56848
162.726	2.4988
165.619	1.9301
168.511	1.95897
171.404	2.51433
174.297	2.71757
177.189	1.90862
180.082	1.54434
182.975	1.36027
185.868	0.571253
188.76	0.19105
191.653	0.333992
194.546	0.151524
197.438	0.263714
200.331	0.095839
203.224	0.314537
206.117	0.442833
209.009	0.168686
211.902	0.09927
214.795	1.88403
217.687	0.866014
220.58	1.68535
223.473	1.00658
226.365	1.1458
229.258	0.362345
232.151	1.43493
235.043	0.902571
237.936	1.74803
240.829	1.62248
243.722	0.016003
246.614	1.53299
249.507	0.624784
252.4	0.775614
255.292	0.303127
258.185	0.103516
261.078	0.519449
263.971	0.067938
266.863	0.081543
269.756	0.27807
272.649	1.29186
275.541	0.297979
278.434	0.594902
281.327	1.23694
284.219	0.610441
287.112	0.928373
290.005	1.6736
292.897	0.912748
295.79	0.952736
298.683	0.093588
301.576	0.662775
304.468	0.758661
307.361	0.345131
310.254	0.390591
313.146	0.152214
316.039	0.498583
318.932	0.688763
321.825	0.737373
324.717	0.513754
327.61	1.13286
330.503	0.75843
333.395	0.239025
336.288	0.452297
339.181	0.197634
342.074	0.43317
344.966	0.644726
347.859	0.383905
350.752	0.258112
353.644	1.00676
356.537	1.21536
359.43	1.31986
362.322	1.14086
365.215	1.57593
368.108	2.00976
371	1.97805
373.893	2.34959
376.786	2.75375
379.679	2.76195
382.571	2.76155
385.464	3.19684
388.357	3.19717
391.249	3.45666
394.142	3.73569
397.035	4.05383
399.928	4.13199
402.82	2.66802
405.713	2.41568
408.606	2.15233
411.498	0.84594
414.391	0.397194
417.284	0.698162
420.176	0.032198
423.069	0.649061
425.962	0.359381
428.854	0.06538
431.747	0.415493
434.64	0.651363
437.533	0.91758
440.425	0.001629
443.318	0.485115
446.211	0.715288
449.103	0.5306
451.996	0.415365
454.889	0.536341
457.781	0.525158
460.674	0.529589
463.567	1.40768
466.46	0.429092
469.352	0.445829
472.245	0.199081
475.138	0.259771
478.03	0.420933
480.923	0.513065
483.816	0.622805
486.709	0.034756
489.601	0.613956
492.494	0.557381
495.387	0.67248
498.279	0.279205
501.172	0.06321
504.065	0.116533
506.957	0.369968
509.85	0.58791
512.743	0.181328
515.636	0.719591
518.528	0.77914
521.421	0.042547
524.314	0.241547
527.206	0.091009
530.099	0.201157
532.992	0.220251
535.885	0.50001
538.777	0.833927
541.67	0.212099
544.563	0.986197
547.455	1.77355
550.348	1.74487
553.241	2.31896
556.133	1.60145
559.026	1.35748
561.919	0.716095
564.812	0.441629
567.704	0.584005
570.597	0.685688
573.49	0.431204
576.382	0.520182
579.275	0.79637
582.168	0.770111
585.06	0.596966
587.953	0.740602
590.846	1.3254
593.739	1.19965
596.631	1.37373
599.524	1.63829
602.417	1.08876
605.309	1.15172
608.202	0.949726
611.095	0.69285
613.987	0.220325
616.88	0.273607
619.773	0.506907
622.665	0.45458
625.558	0.404268
628.451	0.076326
631.344	0.559214
634.236	0.0541
637.129	0.588539
640.022	0.226631
642.914	0.288013
645.807	0.756094
648.7	0.830643
651.592	0.867256
654.485	1.69552
657.378	1.18758
660.271	1.9215
663.163	2.06704
666.056	2.73613
668.949	2.80553
671.841	3.26562
674.734	3.97637
677.627	5.2001
680.519	7.30495
683.412	8.27086
686.305	10.3081
689.198	13.6088
692.09	15.7346
694.983	16.7422
697.876	18.1583
700.769	18.4296
703.661	16.5449
706.554	13.2139
709.447	10.1452
712.339	7.27976
715.232	5.29883
718.125	3.26879
721.017	2.7574
723.91	1.777
726.803	1.21288
729.696	0.932556
732.588	0.996794
735.481	1.02117
738.374	0.608685
741.266	0.284519
744.159	0.46722
747.052	0.705547
749.944	0.018084
752.837	0.028616
755.73	0.3417
758.622	0.497532
761.515	0.181358
764.408	0.252165
767.301	0.508373
770.193	0.295376
773.086	0.082785
775.979	0.106916
778.871	0.192579
781.764	0.234303
784.657	0.252516
787.549	0.170534
790.442	0.432304
793.335	0.295719
796.228	0.235975
799.12	0.464676
802.013	0.514355
804.906	0.250065
807.798	0.861217
810.691	0.760582
813.584	0.442879
816.477	0.373249
819.369	0.852854
822.262	0.688433
825.155	1.05021
828.047	1.33117
830.94	1.47158
833.833	2.03661
836.726	2.16999
839.618	1.43013
842.511	1.57302
845.404	1.67696
848.296	1.58143
851.189	1.95796
854.082	1.75882
856.974	1.4248
859.867	1.52879
862.76	1.37992
865.653	1.50736
868.545	1.2384
871.438	1.21115
874.331	1.33204
877.223	0.505352
880.116	1.31254
883.009	0.968971
885.901	0.477413
888.794	0.133028
891.687	0.824961
894.58	0.481842
897.472	0.340353
900.365	0.416765
903.258	0.138849
906.15	0.061926
909.043	0.172461
911.936	0.325308
914.828	1.22268
917.721	1.28427
920.614	1.53443
923.506	0.794207
926.399	1.49972
929.292	0.76622
932.185	0.742689
935.077	1.06212
937.97	0.440184
940.863	0.340384
943.755	0.85022
946.648	0.370117
949.541	0.382111
952.433	0.006573
955.326	0.010225
958.219	0.245945
961.112	0.258036
964.004	0.706331
966.897	0.75208
969.79	0.949846
972.682	1.14299
975.575	1.1029
978.468	1.41922
981.361	1.42339
984.253	1.58934
987.146	1.28638
990.039	1.00416
992.931	1.17083
995.824	0.225689
998.717	0.365109
1001.61	0.528837
1004.5	1.05655
1007.39	0.655007
1010.29	0.404164
1013.18	0.293396
1016.07	0.114659
1018.97	0.165682
1021.86	0.337116
1024.75	0.03723
1027.64	0.220558
1030.54	0.074152
1033.43	0.920361
1036.32	1.0247
1039.21	0.78861
1042.11	1.00338
1045	1.01774
1047.89	0.90251
1050.79	0.963214
1053.68	0.734451
1056.57	1.69404
1059.46	1.16598
1062.36	1.6884
1065.25	2.30127
1068.14	2.23558
1071.03	2.27262
1073.93	2.49745
1076.82	2.83972
1079.71	3.11343
1082.61	2.65401
1085.5	2.17758
1088.39	1.62926
1091.28	1.17054
1094.18	0.769745
1097.07	0.267059
1099.96	0.549942
1102.85	1.07939
1105.75	0.011446
1108.64	0.369591
1111.53	0.139017
1114.42	0.011778
1117.32	0.464462
1120.21	0.599352
1123.1	0.603838
1126	0.027992
1128.89	0.254202
1131.78	0.527077
1134.67	0.318321
1137.57	0.041948
1140.46	0.09322
1143.35	0.085121
1146.24	0.435896
1149.14	0.748627
1152.03	0.228319
1154.92	0.313482
1157.82	0.607452
1160.71	0.655823
1163.6	1.1451
1166.49	0.890762
1169.39	0.901442
1172.28	1.40991
1175.17	2.02844
1178.06	1.63714
1180.96	1.83935
1183.85	1.80014
1186.74	2.14485
1189.63	1.96157
1192.53	1.46184
1195.42	1.40619
1198.31	1.49856
1201.21	1.22511
1204.1	0.669737
1206.99	1.02702
1209.88	0.948347
1212.78	0.746698
1215.67	0.914818
1218.56	1.0011
1221.45	0.542585
1224.35	0.703936
1227.24	0.561218
1230.13	0.414619
1233.03	0.731012
1235.92	0.599663
1238.81	0.816441
1241.7	0.605152
1244.6	0.347549
1247.49	0.127296
1250.38	0.547598
1253.28	0.632273
1256.17	0.58691
1259.06	0.566345
1261.95	0.839039
1264.85	0.161247
1267.74	0.008675
1270.63	0.431761
1273.52	0.878145
1276.42	0.566862
1279.31	1.39142
1282.2	0.290937
1285.09	0.721994
