Measurement: Raman, 532 nm, unoriented, Raman Data Processed
Mineral: Balangeroite
Rruff sample: R060244
Ideal chemistry: Mg_21_Si_8_O_27_(OH)_20_
Locality: San Vittore mine, Balangero Serpentinite, Lanzo Valley, Piedmont, Italy
Source: Michael Scott
Description: Brown fibers, asbestiform
Raman shift (cm-1)	intensity
171.488	0
174.381	2.89087
177.273	2.44495
180.166	4.36169
183.059	8.1748
185.951	14.4802
188.844	23.0877
191.737	20.5656
194.629	12.497
197.522	11.5157
200.415	19.9795
203.308	17.1957
206.2	16.3616
209.093	17.3502
211.986	11.8862
214.878	18.3744
217.771	14.9103
220.664	24.5193
223.556	31.37
226.449	31.9872
229.342	45.0969
232.234	55.6329
235.127	53.9069
238.02	36.814
240.913	31.8869
243.805	23.7412
246.698	12.7908
249.591	8.33679
252.483	12.8043
255.376	7.28827
258.269	4.45654
261.161	2.17999
264.054	5.0932
266.947	3.42169
269.84	5.02142
272.732	3.4007
275.625	1.54492
278.518	1.34833
281.41	4.75702
284.303	1.68079
287.196	5.09467
290.089	12.1013
292.981	4.18066
295.874	2.55695
298.767	6.31488
301.659	11.9615
304.552	7.45032
307.445	3.88263
310.337	2.24457
313.23	6.8316
316.123	7.97296
319.015	10.6864
321.908	6.87176
324.801	5.74957
327.694	1.91199
330.586	2.49493
333.479	3.34998
336.372	1.65778
339.264	7.9079
342.157	4.77881
345.05	11.6733
347.942	3.78033
350.835	7.71503
353.728	9.27643
356.621	10.8037
359.513	11.3497
362.406	15.9335
365.299	21.5113
368.191	14.9657
371.084	29.6036
373.977	26.7413
376.87	39.4556
379.762	36.5143
382.655	46.4105
385.548	41.3324
388.44	42.3285
391.333	37.3671
394.226	32.441
397.118	9.23852
400.011	11.7964
402.904	15.6348
405.796	14.7795
408.689	4.44153
411.582	10.5207
414.475	5.04474
417.367	6.35242
420.26	4.86658
423.153	4.68414
426.045	2.30701
428.938	11.7309
431.831	3.90454
434.724	5.23071
437.616	8.49463
440.509	2.79468
443.402	3.29449
446.294	0.919495
449.187	8.89258
452.08	0.30481
454.972	4.77588
457.865	3.73547
460.758	6.72705
463.651	4.29346
466.543	7.01294
469.436	11.5663
472.329	11.5936
475.221	0.305298
478.114	6.28784
481.007	11.5464
483.899	6.78723
486.792	2.80127
489.685	12.4503
492.577	2.3385
495.47	2.2146
498.363	9.01306
501.256	11.7009
504.148	8.36218
507.041	5.45447
509.934	7.79993
512.826	4.12146
515.719	4.79834
518.612	6.9541
521.505	1.00293
524.397	8.15613
527.29	3.16089
530.183	2.37805
533.075	5.20056
535.968	8.30603
538.861	5.13464
541.753	3.85925
544.646	6.40564
547.539	9.58972
550.432	5.2262
553.324	12.1562
556.217	5.68164
559.11	5.88904
562.002	4.28491
564.895	9.8623
567.788	7.39197
570.68	0.550781
573.573	7.41516
576.466	2.00903
579.359	0.578247
582.251	1.88806
585.144	6.28394
588.037	8.45984
590.929	2.92102
593.822	6.90515
596.715	5.04504
599.607	11.0516
602.5	3.63367
605.393	5.1272
608.285	7.7312
611.178	8.1438
614.071	13.5532
616.964	11.7831
619.856	13.7811
622.749	10.9303
625.642	9.02185
628.534	7.97852
631.427	9.20874
634.32	7.22632
637.212	10.2672
640.105	7.01392
642.998	2.16577
645.891	1.26502
648.783	1.84827
651.676	3.09082
654.569	4.89075
657.461	13.5548
660.354	8.84143
663.247	6.19653
666.139	13.6567
669.032	12.7528
671.925	20.3705
674.818	32.0356
677.71	34.3201
680.603	37.7434
683.496	45.8077
686.388	43.4581
689.281	51.2452
692.174	44.6201
695.067	41.6086
697.959	30.6121
700.852	23.7977
703.745	16.5727
706.637	14.5458
709.53	10.449
712.423	13.5489
715.315	10.8553
718.208	1.05762
721.101	5.2721
723.994	4.6825
726.886	2.3844
729.779	2.38684
732.672	8.42896
735.564	2.27527
738.457	9.64282
741.35	1.6604
744.242	1.20422
747.135	5.42615
750.028	7.354
752.92	2.12903
755.813	4.91553
758.706	0.657471
761.599	1.05945
764.491	10.4635
767.384	2.3446
770.277	5.46594
773.169	4.17993
776.062	13.5416
778.955	3.55286
781.847	8.72192
784.74	0.391968
787.633	3.52466
790.526	8.05505
793.418	11.6047
796.311	8.23584
799.204	7.89282
802.096	6.53455
804.989	5.64294
807.882	2.18835
810.774	6.12964
813.667	1.97791
816.56	10.4303
819.453	11.3251
822.345	6.25049
825.238	9.30066
828.131	5.01111
831.023	10.21
833.916	1.83557
836.809	4.66479
839.702	0.120605
842.594	8.34412
845.487	1.67395
848.38	13.445
851.272	9.00867
854.165	5.55139
857.058	6.49768
859.95	6.00073
862.843	2.4635
865.736	5.81409
868.629	3.87305
871.521	5.71045
874.414	9.08765
877.307	8.70068
880.199	2.71924
883.092	6.95618
885.985	4.30078
888.877	0.491577
891.77	0.334351
894.663	0.843506
897.556	12.9552
900.448	3.88892
903.341	7.92041
906.234	12.1134
909.126	3.7229
912.019	6.54993
914.912	9.01453
917.804	10.3131
920.697	12.8143
923.59	1.74731
926.482	2.26062
929.375	10.5671
932.268	1.18787
935.161	4.25354
938.053	3.99573
940.946	3.276
943.839	10.8981
946.731	6.08899
949.624	9.02637
952.517	7.0686
955.409	8.86975
958.302	13.4404
961.195	9.71863
964.088	4.43616
966.98	8.06506
969.873	6.19775
972.766	8.11499
975.658	8.27624
978.551	14.8066
981.444	21.6506
984.337	8.43909
987.229	12.3971
990.122	12.0807
993.015	12.3088
995.907	1.82617
998.8	6.43201
1001.69	0.680176
1004.59	7.99951
1007.48	5.87195
1010.37	5.51721
1013.26	7.53821
1016.16	11.8586
1019.05	5.12
1021.94	4.07544
1024.83	3.08435
1027.73	1.05261
1030.62	6.7063
1033.51	10.9067
1036.4	7.89807
1039.3	6.8916
1042.19	3.13123
1045.08	5.1936
1047.98	7.79761
1050.87	6.32129
1053.76	3.85059
1056.65	10.4021
1059.55	9.17932
1062.44	4.34814
1065.33	5.99316
1068.22	4.2135
1071.12	2.44287
1074.01	4.47974
1076.9	6.79883
1079.8	9.34302
1082.69	14.629
1085.58	13.1788
1088.47	6.97693
1091.37	14.0017
1094.26	14.0149
1097.15	15.3772
1100.04	4.78259
1102.94	8.84827
1105.83	6.80701
1108.72	5.51196
1111.62	7.7323
1114.51	6.67017
1117.4	12.5647
1120.29	6.94812
1123.19	11.4678
1126.08	8.76416
1128.97	2.28784
1131.86	5.94665
1134.76	3.14758
1137.65	4.29773
1140.54	8.24841
1143.43	5.7533
1146.33	16.4462
1149.22	9.00525
1152.11	5.526
1155.01	9.60266
1157.9	11.762
1160.79	11.4504
1163.68	7.35803
1166.58	6.20019
1169.47	5.07361
1172.36	5.47229
1175.26	3.22546
1178.15	1.44031
1181.04	0.96814
1183.93	0.589233
1186.83	2.48669
1189.72	0.81604
1192.61	1.00891
1195.5	3.33423
1198.4	14.0149
1201.29	1.00281
1204.18	3.26575
1207.07	6.7865
1209.97	5.36536
1212.86	6.57947
1215.75	4.69604
1218.64	6.71924
1221.54	5.71655
1224.43	7.53662
1227.32	6.30798
1230.22	12.3332
1233.11	10.5519
1236	2.08679
1238.89	3.65503
1241.79	3.95483
1244.68	6.04004
1247.57	3.60315
1250.46	19.2622
1253.36	14.0632
1256.25	9.92871
1259.14	11.629
1262.04	15.5562
1264.93	5.83765
1267.82	17.2885
1270.71	18.6709
1273.61	1.03113
1276.5	6.17664
1279.39	8.24048
1282.29	5.86499
1285.18	11.3195
1288.07	3.81433
1290.96	7.42358
1293.86	24.2389
1296.75	10.61
1299.64	12.6287
1302.53	0.924683
