Measurement: Raman, 780 nm, unoriented, Raman Data Processed
Mineral: Baotite
Rruff sample: R060414
Ideal chemistry: Ba_4_(Ti^4+^,Nb^5+^,W^6+^)_8_O_16_(SiO_3_)_4_Cl
Locality: Zagi Mountain, near Hammedabad, Khaffor Dehri, North-West Frontier Province, Pakistan
Source: Herb Obodda
Description: Dark brown vitreous fragment
Measured chemistry: Ba_4.00_(Ti_6.54_Nb^5+^_1.23_Fe^3+^_0.23_)_Î£=8_O_16_(Si_1.00_O_3_)_4_Cl_1.00_
Raman shift (cm-1)	intensity
160.994	0
163.887	41.416
166.78	108.651
169.673	187.792
172.565	267.953
175.458	342.714
178.351	433.764
181.243	402.18
184.136	277.764
187.029	197.47
189.921	103.691
192.814	32.8931
195.707	2.89356
198.6	10.7607
201.492	9.00049
204.385	4.29688
207.278	25.0064
210.17	20.0093
213.063	1.43506
215.956	4.87256
218.848	16.0566
221.741	40.4082
224.634	85.4204
227.526	128.217
230.419	186.278
233.312	260.624
236.205	392.171
239.097	595
241.99	764.567
244.883	677.469
247.775	464.799
250.668	314.927
253.561	244.733
256.454	225.259
259.346	246.642
262.239	288.973
265.132	355.162
268.024	438.027
270.917	459.666
273.81	349.069
276.702	306.698
279.595	272.865
282.488	224.46
285.38	158.18
288.273	116.508
291.166	115.07
294.059	112.248
296.951	122.441
299.844	84.5864
302.737	36.1709
305.629	15.7529
308.522	16.2334
311.415	3.46777
314.308	15.581
317.2	28.6582
320.093	61.4224
322.986	84.228
325.878	104.095
328.771	132.401
331.664	163.035
334.556	175.318
337.449	186.001
340.342	138.651
343.234	91.0527
346.127	49.5122
349.02	9.03516
351.913	14.3193
354.805	16.9365
357.698	7.52246
360.591	25.1895
363.483	49.1987
366.376	76.1543
369.269	187.57
372.161	242.963
375.054	252.384
377.947	195.167
380.839	140.752
383.732	117.514
386.625	126.187
389.518	124.33
392.41	118.399
395.303	142.876
398.196	113.227
401.088	86.9058
403.981	49.1138
406.874	20.5083
409.767	0.112305
412.659	1.60254
415.552	2.66406
418.445	4.29199
421.337	40.4219
424.23	53.3735
427.123	44.3892
430.015	38.4556
432.908	53.6455
435.801	53.311
438.693	52.9849
441.586	40.644
444.479	32.7593
447.372	50.769
450.264	48.6977
453.157	61.6265
456.05	54.8037
458.942	58.7964
461.835	58.2285
464.728	50.0459
467.62	56.4014
470.513	49.8296
473.406	78.21
476.299	46.3706
479.191	42.1162
482.084	55.8774
484.977	33.2925
487.869	26.8057
490.762	19.2695
493.655	35.355
496.547	30.3379
499.44	9.30957
502.333	29.1738
505.226	17.6592
508.118	14.7085
511.011	12.0391
513.904	21.5938
516.796	6.89795
519.689	0.974609
522.582	2.34228
525.474	11.7329
528.367	12.2651
531.26	7.32519
534.153	8.50732
537.045	26.5684
539.938	36.3267
542.831	26.9121
545.723	65.4766
548.616	72.8755
551.509	108.691
554.401	138.374
557.294	131.356
560.187	144.698
563.08	119.856
565.972	114.41
568.865	119.52
571.758	122.114
574.65	135.082
577.543	148.3
580.436	155.324
583.328	109.52
586.221	96.1567
589.114	66.1997
592.006	73.7114
594.899	65.2158
597.792	76.0898
600.685	48.2227
603.577	30.0303
606.47	18.8965
609.363	19.877
612.255	17.3477
615.148	3.89453
618.041	3.96484
620.933	2.09668
623.826	14.0557
626.719	13.2598
629.611	48.8887
632.504	40.5693
635.397	41.0225
638.29	58.0215
641.182	57.5185
644.075	62.959
646.968	93.3144
649.86	122.423
652.753	128.155
655.646	131.185
658.538	157.068
661.431	152.661
664.324	131.411
667.217	134.959
670.109	98.2881
673.002	89.3242
675.895	79.6436
678.787	80.4228
681.68	43.916
684.573	32.1582
687.466	45.3838
690.358	13.7217
693.251	3.60449
696.144	4.79004
699.036	28.5283
701.929	19.8857
704.822	6.32715
707.714	32.9551
710.607	38.3643
713.5	15.793
716.393	5.80762
719.285	9.91016
722.178	11.5771
725.071	6.26172
727.963	14.9844
730.856	59.0049
733.749	3.74707
736.641	12.374
739.534	7.57617
742.427	13.5928
745.319	27.3721
748.212	24.6172
751.105	9.60156
753.998	0.262695
756.89	3.8125
759.783	15.6797
762.676	19.5967
765.568	43.4121
768.461	60.7334
771.354	67.8594
774.246	54.6299
777.139	60.7178
780.032	80.9297
782.925	54.0869
785.817	61.1777
788.71	63.9014
791.603	82.0508
794.495	97.7158
797.388	23.3389
800.281	19.6025
803.173	11.7578
806.066	42.8516
808.959	27.0723
811.851	20.3799
814.744	9.3877
817.637	41.5967
820.53	53.3037
823.422	40.0977
826.315	14.1113
829.208	10.2627
832.1	9.84375
834.993	22.6543
837.886	0.342773
840.779	1
843.671	31.6953
846.564	25.5742
849.457	14.498
852.349	20.1523
855.242	25.9297
858.135	30.4609
861.027	37.5176
863.92	44.2334
866.813	36.1065
869.706	46.0029
872.598	52.958
875.491	64.4336
878.384	36.5
881.276	54.1387
884.169	85.9043
887.062	84.6816
889.954	77.7168
892.847	85.499
895.74	46.3174
898.632	36.7188
901.525	1.62793
904.418	11.4375
907.311	45.1387
910.203	6.81543
913.096	23.0742
915.989	16.6211
918.881	28.2012
921.774	6.41992
924.667	11.8223
927.559	19.8281
930.452	28.8145
933.345	27.0713
936.237	26.7207
939.13	11.832
942.023	32.6533
944.916	27.9238
947.808	36.668
950.701	22.3652
953.594	16.3145
956.486	7.19824
959.379	42.7451
962.272	16.584
965.164	2.73242
968.057	10.7051
970.95	10.6182
973.843	7.77832
976.735	9.1123
979.628	36.251
982.521	38.9473
985.413	40.624
988.306	33.998
991.199	2.87793
994.091	27.4863
996.984	16.0391
999.877	37.9482
1002.77	3.94434
1005.66	17.3652
1008.55	12.8613
1011.45	20.4053
1014.34	17.9805
1017.23	15.6133
1020.13	2.66602
1023.02	2.73144
1025.91	11.667
1028.8	13.123
1031.7	59.9453
1034.59	31.8652
1037.48	77.0127
1040.38	54.5156
1043.27	71.374
1046.16	46.0449
1049.05	61.6211
1051.94	22.7646
1054.84	30.3115
1057.73	55.4775
1060.62	38.7793
1063.52	51.1357
1066.41	83.5068
1069.3	49.002
1072.19	29.9873
1075.09	39.7393
1077.98	24.1943
1080.87	29.8398
1083.77	38.9727
1086.66	34.0273
1089.55	67.8428
1092.44	89.0322
1095.34	27.3633
1098.23	12.6572
1101.12	22.335
1104.01	8.6709
1106.91	41.041
1109.8	65.6289
1112.69	8.46484
1115.59	14.1416
1118.48	5.79199
1121.37	7.75195
1124.26	6.11523
1127.16	2.80664
1130.05	19.9697
1132.94	4.09668
1135.83	14.5947
1138.73	35.0391
1141.62	37.957
1144.51	24.792
1147.4	39.5732
1150.3	12.4727
1153.19	74.0518
1156.08	43.5068
1158.97	56.3965
1161.87	53.8867
1164.76	30.2744
1167.65	43.2647
1170.55	32.5713
1173.44	67.5371
1176.33	64.3555
1179.22	111.224
1182.12	69.3555
1185.01	26.1025
1187.9	28.1768
1190.8	58.4775
1193.69	81.5547
1196.58	120.612
1199.47	49.9375
1202.37	25.3311
1205.26	38.4727
1208.15	47.7988
1211.04	47.5293
1213.94	17.8115
1216.83	21.8857
1219.72	44.001
1222.62	79.0576
1225.51	73.4551
1228.4	9.40137
1231.29	12.4727
1234.18	32.9785
1237.08	41.7861
1239.97	8.04492
1242.86	35.2988
1245.76	32.1758
1248.65	16.7598
1251.54	17.2471
1254.43	2.41211
1257.33	16.9131
1260.22	74.1621
1263.11	38.79
1266.01	13.2676
1268.9	17.6826
1271.79	21.6133
1274.68	0.375
1277.58	29.8379
1280.47	1.08887
1283.36	7.78809
