Measurement: Raman, 532 nm, unoriented, Raman Data Processed
Mineral: Bario-olgite
Rruff sample: R060614
Ideal chemistry: Na(Na,Sr,Ce)_2_Ba(PO_4_)_2_
Locality: Palitra pegmatite, Kedykverpakhk Mountain, Lovozero massif, Kola Peninsula, Russia
Source: Michael Scott
Description: Grayish-green grains associated with brown manaksite R060693, and purple ussingite
Raman shift (cm-1)	intensity
121.603	0
124.978	27.208
128.352	25.041
131.727	43.624
135.102	13.8389
138.477	18.4219
141.852	57.8545
145.227	51.1123
148.601	23.6475
151.976	26.2188
155.351	31.04
158.726	5.18848
162.101	14.0684
165.476	46.1885
168.85	31.2168
172.225	21.749
175.6	36.4277
178.975	11.8438
182.35	2.55273
185.724	26.4092
189.099	46.4863
192.474	57.2197
195.849	32.3057
199.224	36.2871
202.599	38.957
205.973	12.8008
209.348	5.45215
212.723	26.0811
216.098	27.9229
219.473	25.0146
222.847	26.293
226.222	21.5186
229.597	28.7266
232.972	0.013672
236.347	29.8301
239.721	52.7412
243.096	72.1807
246.471	73.8613
249.846	32.9688
253.221	29.9033
256.596	35.0029
259.97	73.5615
263.345	61.1982
266.72	35.3818
270.095	39.7529
273.47	87.792
276.844	87.6426
280.219	69
283.594	52.7129
286.969	48.3623
290.344	55.6367
293.719	46.502
297.093	26.6387
300.468	9.62109
303.843	2.61621
307.218	39.2139
310.593	21.4668
313.967	40.2578
317.342	25.1729
320.717	2.26367
324.092	28.6748
327.467	70.9541
330.842	23.8818
334.216	30.79
337.591	51.373
340.966	60.874
344.341	59.4043
347.716	35.9131
351.091	1.77344
354.465	24.2275
357.84	27.9707
361.215	38.0869
364.59	30.6924
367.964	42.5986
371.339	5.68164
374.714	3.54883
378.089	4.37109
381.464	13.2852
384.839	21.0566
388.213	49.7588
391.588	0.97168
394.963	6.52344
398.338	76.4609
401.713	194.023
405.087	265.951
408.462	327.221
411.837	409.506
415.212	584.203
418.587	715.893
421.962	777.557
425.336	789.703
428.711	715.326
432.086	591.561
435.461	485.518
438.836	360.332
442.211	323.184
445.585	205.223
448.96	117.305
452.335	65.8496
455.71	65.8711
459.085	75.7012
462.459	72.6543
465.834	67.3711
469.209	93.6953
472.584	81.1856
475.959	16.4883
479.334	8.19727
482.708	23.6211
486.083	69.4453
489.458	116.35
492.833	91.3164
496.208	33.0625
499.582	1.41211
502.957	9.94531
506.332	24.8223
509.707	15.3906
513.082	78.3809
516.457	3.09375
519.831	34.5977
523.206	18.2773
526.581	35.0723
529.956	0.111328
533.331	27.6797
536.705	7.12109
540.08	16.6836
543.455	16.8867
546.83	89.9238
550.205	125.832
553.58	93.3789
556.954	106.533
560.329	176.769
563.704	257.162
567.079	264.627
570.454	325.721
573.828	336.666
577.203	274.031
580.578	189.254
583.953	129.147
587.328	146.477
590.702	127.387
594.077	77.2285
597.452	57.7617
600.827	71.5644
604.202	88.5078
607.577	108.939
610.951	143.795
614.326	139.824
617.701	70.2617
621.076	36.4141
624.451	47.5059
627.825	22.1133
631.2	0.361328
634.575	38.2441
637.95	20.7871
641.325	12.2305
644.699	35.9375
648.074	30.8516
651.449	56.1055
654.824	20.8008
658.199	13.541
661.574	14.5195
664.948	57.3242
668.323	119.076
671.698	24.9883
675.073	12.6289
678.448	39.6738
681.822	52.0605
685.197	0.693359
688.572	68.4219
691.947	91.6406
695.322	6.73047
698.697	8.64062
702.071	5.12891
705.446	66.2383
708.821	152.43
712.196	134.023
715.571	162.988
718.946	176.035
722.32	199.914
725.695	218.203
729.07	235.441
732.445	221.758
735.82	161.613
739.194	254.914
742.569	212.195
745.944	275.465
749.319	265.449
752.694	268.527
756.068	160.91
759.443	165.312
762.818	198.504
766.193	144.703
769.568	112.883
772.943	142.125
776.317	109.566
779.692	92.6133
783.067	120.211
786.442	114.742
789.817	102.731
793.192	58.7031
796.566	3.40625
799.941	48.0547
803.316	61.7695
806.691	132.539
810.066	117.371
813.44	162.688
816.815	151.656
820.19	207.625
823.565	106.781
826.94	37.5938
830.314	55.9219
833.689	39.1406
837.064	7.08594
840.439	75.6914
843.814	179.981
847.188	103.309
850.563	58.2148
853.938	19.6406
857.313	71.5781
860.688	155.902
864.063	77.8594
867.437	34.4766
870.812	99.75
874.187	53.5312
877.562	31.9062
880.937	13.7969
884.312	29.6992
887.686	35.4609
891.061	52.6758
894.436	159.949
897.811	85.7188
901.186	78.3555
904.56	107.312
907.935	68.1289
911.31	7.11328
914.685	37.4609
918.06	27.543
921.434	64.4492
924.809	156.793
928.184	234.531
931.559	364.812
934.934	566.543
938.309	994.07
941.683	1749.52
945.058	2818.05
948.433	3927.5
951.808	5115.7
955.183	5687.2
958.558	5044.26
961.932	3358.3
965.307	1799.59
968.682	811.715
972.057	359.598
975.432	211.754
978.806	219.363
982.181	197.797
985.556	283.566
988.931	258.699
992.306	196.492
995.681	180.352
999.055	250.481
1002.43	208.391
1005.8	224.324
1009.18	257.988
1012.55	218.469
1015.93	297.246
1019.3	198.273
1022.68	132.125
1026.05	167.906
1029.43	138.199
1032.8	35.5742
1036.18	146.426
1039.55	163.027
1042.93	176.379
1046.3	71.9961
1049.68	126.578
1053.05	135.758
1056.43	83.8906
1059.8	108.984
1063.18	4.92578
1066.55	89.7812
1069.93	81.9648
1073.3	35.9609
1076.68	23.8008
1080.05	9.66797
1083.43	78.8594
1086.8	44.707
1090.17	58.957
1093.55	61.1523
1096.92	40.4648
1100.3	158.691
1103.67	56.9688
1107.05	52.4258
1110.42	149.43
1113.8	153.801
1117.17	123.457
1120.55	192.016
1123.92	91.9492
1127.3	92.9492
1130.67	56.7422
1134.05	18.8828
1137.42	114.68
1140.8	172.738
1144.17	146.301
1147.55	125.125
1150.92	137.637
1154.3	329.644
1157.67	336.578
1161.05	165.801
1164.42	174.785
1167.8	208.379
1171.17	259.062
1174.55	266.144
1177.92	275.34
1181.3	322.391
1184.67	358.922
1188.05	418.891
1191.42	409.328
1194.8	320.531
1198.17	361.609
1201.54	190.773
1204.92	317.906
1208.29	262.68
1211.67	285.898
1215.04	207.922
1218.42	261
1221.79	258.953
1225.17	88.3125
1228.54	9.32812
1231.92	85.0391
1235.29	80.1562
1238.67	43.8828
1242.04	158.586
1245.42	126.195
1248.79	175.555
1252.17	211.539
1255.54	170.508
1258.92	187.609
1262.29	211.227
1265.67	18.1641
1269.04	73.9219
1272.42	15.5547
1275.79	82.3125
1279.16	57.8438
1282.54	66.2969
1285.91	76.7109
1289.29	70.8359
1292.66	69.5469
1296.04	87.4453
1299.41	65.4219
