Measurement: Raman, 532 nm, unoriented, Raman Data Processed
Mineral: Bariopharmacosiderite
Rruff sample: R060571
Ideal chemistry: Ba_0.5_Fe^3+^_4_(As^5+^O_4_)_3_(OH)_4_5H_2_O
Locality: Barrus mine, Pyramid District, Washoe County, Nevada, USA
Source: Michael Scott
Description: Colorless transparent distorted cubes.
Raman shift (cm-1)	intensity
176.082	0
178.975	8.09424
181.868	9.01318
184.76	2.70703
187.653	9.40527
190.546	19.8408
193.438	64.3438
196.331	152.296
199.224	150.865
202.116	62.1343
205.009	18.0142
207.902	2.27881
210.794	1.16553
213.687	3.15137
216.58	24.5142
219.473	21.8589
222.365	33.5737
225.258	42.668
228.151	23.7314
231.043	0.996094
233.936	3.05713
236.829	2.07031
239.721	15.5342
242.614	32.7251
245.507	38.4766
248.4	22.7153
251.292	25.9678
254.185	35.6699
257.078	53.9819
259.97	58.3345
262.863	61.8721
265.756	49.3408
268.649	67.4761
271.541	60.3496
274.434	74.8613
277.327	73.0225
280.219	92.5327
283.112	60.0093
286.005	92.1196
288.897	97.8281
291.79	133.71
294.683	131.23
297.575	154.73
300.468	146.618
303.361	163.444
306.254	188.793
309.146	194.152
312.039	207.858
314.932	163.032
317.824	136.865
320.717	99.0898
323.61	82.9619
326.502	59.4199
329.395	39.7144
332.288	20.6011
335.181	20.4311
338.073	14.3657
340.966	19.0303
343.859	18.4033
346.751	4.38721
349.644	1.66455
352.537	18.707
355.43	5.37207
358.322	18.5698
361.215	15.915
364.108	34.8628
367	53.7334
369.893	66.6162
372.786	89.4146
375.678	131.452
378.571	196.79
381.464	258.784
384.356	307.122
387.249	376.554
390.142	437.638
393.035	453.915
395.927	453.919
398.82	451.373
401.713	393.601
404.605	325.108
407.498	241.575
410.391	162.617
413.284	130.791
416.176	99.75
419.069	81.6523
421.962	85.5132
424.854	57.919
427.747	23.7148
430.64	23.5
433.532	10.9482
436.425	9.34815
439.318	0.924805
442.211	3.02881
445.103	8.30273
447.996	9.00391
450.889	11.3613
453.781	1.83057
456.674	29.6123
459.567	61.9898
462.459	87.2065
465.352	133.411
468.245	194.607
471.137	278.043
474.03	362.759
476.923	434.661
479.816	486.967
482.708	530.804
485.601	510.953
488.494	503.979
491.386	504.778
494.279	492.247
497.172	488.661
500.065	497.826
502.957	511.797
505.85	531.403
508.743	544.094
511.635	560.803
514.528	533.571
517.421	469.606
520.313	426.901
523.206	392.334
526.099	369.737
528.991	323.668
531.884	307.411
534.777	300.332
537.67	304.957
540.562	293.433
543.455	328.804
546.348	322.567
549.24	291.883
552.133	183.965
555.026	79.5923
557.918	56.0688
560.811	43.4575
563.704	36.6728
566.597	31.6738
569.489	25.3857
572.382	23.8345
575.275	5.49463
578.167	9.08984
581.06	5.49561
583.953	21.0356
586.846	5.40332
589.738	6.59082
592.631	7.49512
595.524	1.60644
598.416	0.721191
601.309	5.40332
604.202	21.4902
607.094	47.0327
609.987	106.947
612.88	169.905
615.773	228.449
618.665	302.431
621.558	408.637
624.451	533.278
627.343	648.649
630.236	752.037
633.129	861.432
636.021	899.581
638.914	873.951
641.807	786.165
644.699	674.419
647.592	535.375
650.485	425.214
653.378	340.995
656.27	253.891
659.163	205.746
662.056	174.321
664.948	134.027
667.841	116.836
670.734	104.583
673.626	83.7437
676.519	49.0894
679.412	52.0601
682.305	39.7676
685.197	27.5864
688.09	24.5112
690.983	22.5532
693.875	15.5894
696.768	1.30908
699.661	6.44824
702.553	2.51367
705.446	13.9551
708.339	16.4321
711.232	2.27441
714.124	9.44043
717.017	15.3018
719.91	14.2212
722.802	5.146
725.695	13.1113
728.588	13.2808
731.481	2.16699
734.373	11.4341
737.266	9.71777
740.159	2.34717
743.051	11.4976
745.944	29.2368
748.837	11.4858
751.729	15.2207
754.622	16.5337
757.515	7.97021
760.408	7.11426
763.3	8.47119
766.193	6.07422
769.086	6.36475
771.978	16.7046
774.871	42.79
777.764	64.5527
780.656	113.116
783.549	153.914
786.442	218.939
789.335	277.835
792.227	340.537
795.12	333.133
798.013	369.37
800.905	370.394
803.798	357.448
806.691	366.806
809.583	365.887
812.476	314.235
815.369	296.894
818.261	294.946
821.154	269.824
824.047	226.075
826.94	200.643
829.832	162.019
832.725	119.968
835.618	84.0112
838.51	61.019
841.403	59.0327
844.296	38.0356
847.188	45.895
850.081	49.669
852.974	50.6265
855.867	50.4253
858.759	79.27
861.652	97.5288
864.545	91.1489
867.437	103.463
870.33	130.154
873.223	166.998
876.115	172.791
879.008	207.748
881.901	219.218
884.794	241.898
887.686	249.394
890.579	261.122
893.472	278.967
896.364	236.949
899.257	203.128
902.15	200.695
905.043	165.844
907.935	158.94
910.828	142.59
913.721	130.56
916.613	127.475
919.506	105.936
922.399	108.31
925.291	87.4302
928.184	75.6455
931.077	62.9634
933.97	45.4517
936.862	20.3896
939.755	8.7041
942.648	0.321289
945.54	13.5078
948.433	5.29492
951.326	5.65723
954.218	19.6641
957.111	5.15674
960.004	5.39209
962.896	15.4741
965.789	9.79785
968.682	7.18311
971.575	14.9233
974.467	4.09668
977.36	19.2969
980.253	7.92285
983.145	23.9873
986.038	24.2446
988.931	25.8789
991.823	59.6074
994.716	45.2817
997.609	63.1724
1000.5	137.413
1003.39	196.173
1006.29	131.635
1009.18	70.5957
1012.07	49.9277
1014.97	45.7593
1017.86	37.7398
1020.75	36.7734
1023.64	23.898
1026.54	56.5312
1029.43	48.4585
1032.32	69.4082
1035.21	64.2324
1038.11	62.9111
1041	48.6782
1043.89	59.6079
1046.79	32.4507
1049.68	43.8203
1052.57	45.8916
1055.46	38.1065
1058.36	19.1523
1061.25	30.5981
1064.14	43.0117
1067.03	61.5332
1069.93	65.6597
1072.82	42.3872
1075.71	59.9541
1078.6	73.1562
1081.5	86.1919
1084.39	77.1802
1087.28	87.0352
1090.17	86.5889
1093.07	101.652
1095.96	101.577
1098.85	76.4263
1101.75	66.2647
1104.64	56.5566
1107.53	56.9355
1110.42	55.52
1113.32	60.0478
1116.21	61.2695
1119.1	36.0669
1121.99	77.2163
1124.89	68.0737
1127.78	64.5796
1130.67	19.082
1133.57	42.3355
1136.46	5.81836
1139.35	6.25
1142.24	9.9751
1145.14	11.2222
1148.03	3.74707
1150.92	17.6792
1153.82	8.69141
1156.71	27.4233
1159.6	15.3413
1162.49	16.6572
1165.38	4.25049
1168.28	6.625
1171.17	11.9717
1174.06	34.9819
1176.96	8.69336
1179.85	7.93066
1182.74	2.146
1185.63	25.0308
1188.53	30.4634
1191.42	28.186
1194.31	35.0342
1197.2	36.1099
1200.1	46.7095
1202.99	43.0469
1205.88	68.6079
1208.78	39.5405
1211.67	52.7432
1214.56	37.4805
1217.45	32.0732
1220.35	42.2461
1223.24	36.7197
1226.13	22.0664
1229.03	37.7666
1231.92	40.1865
1234.81	36.4028
1237.7	40.2432
1240.6	60.25
1243.49	29.4121
1246.38	45.2988
1249.27	61.7578
1252.17	48.3603
1255.06	37.0312
1257.95	44.5244
1260.85	30.5693
1263.74	14.9292
1266.63	6.87549
1269.52	13.5903
1272.42	14.9365
1275.31	16.7905
1278.2	15.7632
1281.09	16.5366
1283.99	11.4141
1286.88	10.0396
1289.77	20.8809
1292.66	8.31299
1295.56	8.27881
1298.45	9.43359
1301.34	2.28711
