Measurement: Raman, 532 nm, unoriented, Raman Data Processed
Mineral: Barlowite
Rruff sample: R110007
Ideal chemistry: Cu^2+^_4_BrF(OH)_6_
Locality: Southwest mine, Bisbee, Cochise County, Arizona, USA
Source: Marcus Origlieri
Description: Blue platy crystals associated with cuprite and brochantite
Raman shift (cm-1)	intensity
186.012	0
188.905	6.68201
191.798	3.99414
194.69	8.22681
197.583	7.82434
200.476	3.81158
203.369	6.32404
206.261	11.9841
209.154	12.2081
212.047	14.2345
214.939	7.75092
217.832	9.88824
220.725	5.53424
223.617	9.54236
226.51	22.6823
229.403	12.0134
232.296	11.7776
235.188	8.55749
238.081	3.69342
240.974	7.61822
243.866	12.1368
246.759	14.4286
249.652	22.8544
252.544	16.8322
255.437	33.3641
258.33	36.0913
261.223	29.5556
264.115	8.89911
267.008	12.5853
269.901	16.0189
272.793	9.9245
275.686	6.54968
278.579	4.17835
281.471	5.60266
284.364	2.3606
287.257	5.74139
290.15	11.6262
293.042	11.553
295.935	9.44275
298.828	1.60236
301.72	6.9787
304.613	1.22266
307.506	0.727112
310.399	4.86169
313.291	0.955261
316.184	5.05457
319.077	9.22418
321.969	3.18347
324.862	2.10852
327.755	9.2641
330.647	0.641541
333.54	7.27814
336.433	4.01654
339.325	5.98718
342.218	5.93933
345.111	12.5426
348.004	14.9888
350.896	18.0368
353.789	5.50183
356.682	9.41895
359.574	14.6506
362.467	14.6332
365.36	12.033
368.253	14.7305
371.145	17.0476
374.038	19.6785
376.931	14.8467
379.823	18.7554
382.716	21.5112
385.609	20.8748
388.502	7.75067
391.394	12.8369
394.287	9.09961
397.18	6.50757
400.072	7.94665
402.965	4.07636
405.858	3.44861
408.75	0.14856
411.643	3.61377
414.536	6.04157
417.428	3.93555
420.321	3.07135
423.214	8.27118
426.107	11.6143
428.999	28.649
431.892	39.6945
434.785	55.387
437.677	72.85
440.57	85.6131
443.463	92.163
446.356	84.3322
449.248	69.0053
452.141	49.5144
455.034	38.626
457.926	29.0538
460.819	19.8949
463.712	16.8651
466.604	16.7006
469.497	20.7116
472.39	22.5751
475.283	17.6105
478.175	29.374
481.068	22.0295
483.961	23.689
486.853	17.2173
489.746	25.9353
492.639	14.6118
495.531	18.4999
498.424	10.0671
501.317	23.0952
504.21	31.7221
507.102	47.5732
509.995	77.0854
512.888	102.074
515.78	136.691
518.673	156.213
521.566	173.046
524.458	176.988
527.351	154.445
530.244	130.407
533.137	109.199
536.029	95.0707
538.922	80.8916
541.815	81.8516
544.707	70.1967
547.6	56.5698
550.493	57.9573
553.386	52.3079
556.278	38.0067
559.171	30.4834
562.064	24.1691
564.956	24.8624
567.849	18.3253
570.742	14.825
573.635	6.33008
576.527	8.24707
579.42	2.07544
582.313	3.9397
585.205	4.18671
588.098	1.59436
590.991	1.90057
593.883	0.240112
596.776	0.169617
599.669	8.80707
602.562	1.28632
605.454	1.63611
608.347	10.6165
611.24	2.42908
614.132	8.07459
617.025	6.06824
619.918	12.517
622.81	5.04627
625.703	12.7939
628.596	2.63464
631.489	7.39532
634.381	7.73553
637.274	8.35968
640.167	12.1729
643.059	10.2938
645.952	9.24304
648.845	5.08936
651.737	6.22424
654.63	6.46387
657.523	13.0543
660.416	9.35352
663.308	7.89593
666.201	5.0318
669.094	2.17407
671.986	1.13055
674.879	1.01526
677.772	7.07965
680.664	2.25159
683.557	6.33612
686.45	9.22479
689.343	1.94287
692.235	6.08588
695.128	8.54547
698.021	5.50104
700.913	12.1942
703.806	3.99304
706.699	9.24176
709.592	15.1556
712.484	13.3667
715.377	13.4202
718.27	11.7398
721.162	13.4819
724.055	7.6684
726.948	3.64838
729.841	2.89697
732.733	0.75
735.626	2.96381
738.519	13.9789
741.411	0.578186
744.304	1.52631
747.197	0.417847
750.089	0.996826
752.982	1.5575
755.875	4.94775
758.768	2.91711
761.66	2.94135
764.553	2.6449
767.446	10.1338
770.338	5.36743
773.231	5.48425
776.124	10.1374
779.016	9.78107
781.909	8.51855
784.802	7.03699
787.694	4.33093
790.587	3.33624
793.48	4.21948
796.373	5.54169
799.265	11.6311
802.158	5.73273
805.051	1.68964
807.943	9.91565
810.836	7.72375
813.729	7.65076
816.621	9.4516
819.514	6.2995
822.407	10.0236
825.3	10.9161
828.192	9.263
831.085	9.06818
833.978	7.92847
836.87	13.5102
839.763	4.27667
842.656	9.61646
845.549	12.8248
848.441	8.46088
851.334	9.07696
854.227	16.7242
857.119	9.94318
860.012	7.61194
862.905	6.17908
865.798	8.29413
868.69	9.76123
871.583	3.51221
874.476	7.62665
877.368	4.53198
880.261	6.33429
883.154	3.81665
886.046	5.10284
888.939	0.834106
891.832	0.892212
894.725	6.43561
897.617	4.396
900.51	7.97382
903.403	14.9038
906.295	9.5545
909.188	1.29706
912.081	1.43286
914.973	4.61615
917.866	2.61072
920.759	7.47321
923.652	1.01489
926.544	4.69733
929.437	7.59039
932.33	3.26581
935.222	3.23016
938.115	3.86627
941.008	4.56928
943.9	5.29706
946.793	0.029602
949.686	2.43414
952.579	0.500916
955.471	1.89551
958.364	1.73315
961.257	0.22522
964.149	2.71619
967.042	4.31513
969.935	6.69604
972.827	4.02814
975.72	14.3373
978.613	13.5962
981.506	9.17023
984.398	13.7908
987.291	12.3856
990.184	17.1331
993.077	23.2375
995.969	45.5541
998.862	50.0022
1001.75	72.6686
1004.65	61.0105
1007.54	33.6996
1010.43	19.1958
1013.33	12.4177
1016.22	12.8276
1019.11	4.64191
1022	10.0736
1024.9	5.12347
1027.79	14.7464
1030.68	11.4334
1033.57	9.87958
1036.47	18.2306
1039.36	12.7399
1042.25	11.9966
1045.14	17.5109
1048.04	8.42664
1050.93	4.16125
1053.82	5.77112
1056.72	9.61432
1059.61	4.5575
1062.5	0.627136
1065.39	2.87616
1068.29	7.12671
1071.18	5.61554
1074.07	13.8911
1076.96	2.13342
1079.86	0.787231
1082.75	4.84747
1085.64	7.81757
1088.54	1.45105
1091.43	0.651367
1094.32	2.78479
1097.21	4.37677
1100.11	0.240295
1103	0.554565
1105.89	8.41486
1108.79	2.8233
1111.68	5.5556
1114.57	3.76538
1117.46	7.94421
1120.36	4.74329
1123.25	4.83911
1126.14	1.31891
1129.03	1.5816
1131.93	4.41534
1134.82	4.02814
1137.71	6.59351
1140.6	1.60034
1143.5	2.89209
1146.39	4.56635
1149.28	10.7025
1152.17	3.42297
1155.07	5.43811
1157.96	7.67682
1160.85	10.9572
1163.75	3.60693
1166.64	6.50128
1169.53	4.98413
1172.42	4.34332
1175.32	9.49554
1178.21	0.60199
1181.1	16.5754
1183.99	10.3375
1186.89	10.6521
1189.78	9.71686
1192.67	16.5863
1195.57	9.02185
1198.46	15.4708
1201.35	11.8303
1204.24	5.60974
1207.14	6.91229
1210.03	5.91425
1212.92	14.9365
1215.82	4.15106
1218.71	9.20654
1221.6	8.73621
1224.49	7.18085
1227.38	8.37707
1230.28	8.87225
1233.17	12.0215
1236.06	7.29486
1238.96	13.0164
1241.85	9.09656
1244.74	6.08838
1247.63	4.12219
1250.53	3.03644
1253.42	7.62738
1256.31	3.06458
1259.2	12.3621
1262.1	2.4154
1264.99	11.4497
1267.88	5.78296
1270.78	14.0605
1273.67	9.44745
1276.56	8.56757
1279.45	15.285
1282.35	11.434
1285.24	17.4141
1288.13	23.6568
1291.03	11.3155
1293.92	12.4383
1296.81	4.36383
1299.7	1.26679
1302.6	0
