Measurement: Raman, 785 nm, unoriented, Raman Data Processed
Mineral: Barnesite
Rruff sample: R060883
Ideal chemistry: Na_2_V^5+^_6_O_16_3H_2_O
Locality: Cactus Rat mine, Grand County, Utah, USA
Source: Bob Jenkins
Description: Radiating aggregate of red fibrous crystals on gypsum
Raman shift (cm-1)	intensity
210.238	0
213.13	50.7993
216.023	37.7895
218.916	90.1968
221.808	130.893
224.701	177.601
227.594	304.397
230.486	390.901
233.379	483.482
236.272	688.014
239.165	785.751
242.057	1008.39
244.95	1201.23
247.843	1460.92
250.735	1738.47
253.628	2080.84
256.521	2520.38
259.413	2857.11
262.306	3085.42
265.199	2942.9
268.091	2619.07
270.984	2542.39
273.877	2517.9
276.77	2804.68
279.662	3236.63
282.555	3456.79
285.448	3746.24
288.34	3707.82
291.233	3469.83
294.126	3019.08
297.019	2598.47
299.911	2185.52
302.804	1857.21
305.697	1543.58
308.589	1295.37
311.482	1029.45
314.375	841.816
317.267	692.38
320.16	525.813
323.053	368.352
325.945	374.169
328.838	442.023
331.731	521.475
334.624	627.932
337.516	690.659
340.409	774.064
343.302	702.539
346.194	495.38
349.087	372.194
351.98	316.472
354.872	217.536
357.765	122.853
360.658	95.9165
363.55	28.5908
366.443	28.0513
369.336	49.477
372.229	58.9712
375.121	17.9136
378.014	8.70972
380.907	19.6548
383.799	6.23047
386.692	74.5835
389.585	36.0999
392.478	96.2141
395.37	46.1775
398.263	2.89502
401.156	22.1668
404.048	75.9473
406.941	57.2273
409.834	82.9426
412.726	24.9673
415.619	13.9363
418.512	15.7649
421.404	89.7551
424.297	161.248
427.19	305.67
430.083	428.861
432.975	498.507
435.868	505.513
438.761	469.594
441.653	383.184
444.546	324.979
447.439	300.593
450.332	301.63
453.224	292.298
456.117	296.631
459.01	336.484
461.902	361.238
464.795	417.927
467.688	475.995
470.58	530.464
473.473	515.043
476.366	541.169
479.259	571.799
482.151	585.384
485.044	635.013
487.937	680.445
490.829	680.655
493.722	737.525
496.615	825.564
499.507	844.053
502.4	910.498
505.293	969.775
508.185	1000.63
511.078	1073.57
513.971	1208.45
516.864	1283.58
519.756	1429.5
522.649	1498
525.542	1572.12
528.434	1621.08
531.327	1532.75
534.22	1509.97
537.112	1401.84
540.005	1238.56
542.898	1148.92
545.791	1039.47
548.683	900.085
551.576	852.799
554.469	800.945
557.361	695.417
560.254	603.125
563.147	550.38
566.039	467.297
568.932	349.177
571.825	348.146
574.718	250.333
577.61	199.597
580.503	131.368
583.396	81.897
586.288	87.8926
589.181	11.2043
592.074	40.0276
594.966	0.138184
597.859	20.4521
600.752	21.7329
603.644	15.6431
606.537	57.239
609.43	78.8186
612.323	35.748
615.215	19.0173
618.108	40.3582
621.001	24.8142
623.893	36.1487
626.786	58.3784
629.679	89.8298
632.572	207.018
635.464	225.545
638.357	263.778
641.25	311.321
644.142	381.281
647.035	424.152
649.928	489.484
652.82	570.429
655.713	613.934
658.606	666.875
661.499	691.037
664.391	744.761
667.284	792.331
670.177	915.662
673.069	945.207
675.962	1057.68
678.855	1071.89
681.747	1060.66
684.64	966.654
687.533	878.938
690.426	748.851
693.318	606.881
696.211	508.719
699.104	371.532
701.996	313.124
704.889	222.3
707.782	295.736
710.674	343.957
713.567	365.41
716.46	494.619
719.352	552.157
722.245	612.052
725.138	567.763
728.031	520.473
730.923	447.118
733.816	483.284
736.709	449.988
739.601	526.59
742.494	614.261
745.387	590.48
748.279	754.424
751.172	849.536
754.065	880.485
756.958	878.206
759.85	872.621
762.743	843.442
765.636	793.013
768.528	679.538
771.421	652.39
774.314	599.191
777.207	458.654
780.099	457.633
782.992	348.511
785.885	304.694
788.777	243.482
791.67	170.681
794.563	124.015
797.455	33.3806
800.348	4.10205
803.241	28.1248
806.134	19.009
809.026	10.3474
811.919	24.832
814.812	47.689
817.704	18.509
820.597	1.8772
823.49	3.24902
826.382	48.891
829.275	0.697998
832.168	19.5771
835.061	41.1343
837.953	67.5866
840.846	21.144
843.739	85.375
846.631	84.5196
849.524	113.658
852.417	107.332
855.309	130.414
858.202	122.335
861.095	109.442
863.987	138.742
866.88	113.135
869.773	87.3911
872.665	105.185
875.558	46.1744
878.451	60.2717
881.344	77.8273
884.236	61.5981
887.129	19.6057
890.022	35.8163
892.914	25.6903
895.807	49.6537
898.7	1.85059
901.592	34.3031
904.485	53.8059
907.378	34.4161
910.271	40.8193
913.163	48.7229
916.056	9.28918
918.949	25.6971
921.841	40.4001
924.734	40.6354
927.627	40.3904
930.519	1.56811
933.412	59.0715
936.305	24.5469
939.198	49.8511
942.09	64.0332
944.983	59.0691
947.876	81.6941
950.768	82.6894
953.661	100.778
956.554	156.32
959.447	238.579
962.339	320.744
965.232	258.341
968.125	172.56
971.017	142.446
973.91	199.21
976.803	275.163
979.695	383.084
982.588	516.328
985.481	497.009
988.374	417.085
991.266	512.597
994.159	634.752
997.052	787.743
999.944	513.676
1002.84	313.125
1005.73	188.708
1008.62	125.138
1011.51	126.902
1014.41	86.5061
1017.3	56.0707
1020.19	11.7582
1023.09	7.08044
1025.98	5.49414
1028.87	4.48792
1031.76	44.8328
1034.66	3.73901
1037.55	17.0117
1040.44	26.7858
1043.34	36.8654
1046.23	30.0454
1049.12	35.3854
1052.01	8.34729
1054.91	0.18335
1057.8	34.5604
1060.69	33.6685
1063.58	15.6905
1066.48	66.8225
1069.37	28.8671
1072.26	6.51355
1075.15	36.0951
1078.05	26.4825
1080.94	27.1362
1083.83	11.8169
1086.72	44.8439
1089.62	14.9493
1092.51	23.8741
1095.4	11.7606
1098.3	49.2618
1101.19	29.8974
1104.08	51.5972
1106.97	11.7781
1109.87	19.1783
1112.76	18.0135
1115.65	33.1109
1118.55	30.6683
1121.44	1.66681
1124.33	10.6254
1127.22	35.9257
1130.12	12.2279
1133.01	0.454163
1135.9	8.43152
1138.79	34.2983
1141.69	32.5417
1144.58	32.906
1147.47	34.5599
1150.37	11.3221
1153.26	27.0642
1156.15	26.2223
1159.04	47.4416
1161.93	48.393
1164.83	49.83
1167.72	34.4804
1170.61	31.2441
1173.51	44.3439
1176.4	51.0541
1179.29	45.1842
1182.18	47.3358
1185.08	51.5964
1187.97	50.3425
1190.86	35.4118
1193.76	47.7808
1196.65	67.7455
1199.54	40.1052
1202.43	14.3419
1205.33	19.0299
1208.22	2.07886
1211.11	22.2006
1214	40.4821
1216.9	53.5801
1219.79	37.2952
1222.68	51.733
1225.58	31.6778
1228.47	19.8697
1231.36	37.9926
1234.25	6.27808
1237.15	1.34076
1240.04	49.3198
1242.93	54.3307
1245.82	47.022
1248.72	37.464
1251.61	39.3333
1254.5	41.6444
1257.39	27.5235
1260.29	11.7767
