Measurement: Raman, 780 nm, unoriented, Raman Data Processed
Mineral: Barysilite
Rruff sample: R070651
Ideal chemistry: Pb^2+^_8_Mn^2+^(Si_2_O_7_)_3_
Locality: Kombat mine, Kombat, Grootfontein District, Otjozondjupa Region, Namibia
Source: William W. Pinch
Description: Colorless lamellar aggregate associated with colorless kombatite, R070720, and black jacobsite, R070719
Raman shift (cm-1)	intensity
154.236	12.7266
157.129	34.9463
160.021	0.444336
162.914	113.266
165.807	370.937
168.699	944.915
171.592	1681.55
174.485	2903.84
177.377	4138.4
180.27	5513.62
183.163	7382.67
186.055	8531.94
188.948	7305.49
191.841	4961.09
194.734	3153.97
197.626	1882.47
200.519	1231.32
203.412	831.521
206.304	566.114
209.197	371.85
212.09	263.84
214.982	219.827
217.875	238.257
220.768	276.772
223.661	261.858
226.553	403.339
229.446	380.205
232.339	422.371
235.231	434.192
238.124	418.043
241.017	479.707
243.91	348.898
246.802	341.904
249.695	335.014
252.588	326.295
255.48	363.728
258.373	353.713
261.266	342.965
264.158	121.781
267.051	32.8457
269.944	175.412
272.837	248.902
275.729	203.69
278.622	204.065
281.515	22.0312
284.407	141.027
287.3	526.084
290.193	737.633
293.085	1018.5
295.978	1523.43
298.871	1965.08
301.764	2331.89
304.656	2847.32
307.549	3229.97
310.442	3448.34
313.334	3721.32
316.227	3757.58
319.12	3901.99
322.012	3713.51
324.905	3743.77
327.798	3564.07
330.69	3172.05
333.583	3033.3
336.476	2647.81
339.369	2508.28
342.261	2308.1
345.154	2034.77
348.047	1882.41
350.939	1852.65
353.832	1793.19
356.725	1740.06
359.618	1668.6
362.51	1623.4
365.403	1492.19
368.296	1449.82
371.188	1429.15
374.081	1485.52
376.974	1787.8
379.866	1760.08
382.759	1733.24
385.652	1672.3
388.545	1828.01
391.437	1697.26
394.33	1718.51
397.223	1729.78
400.115	1816.25
403.008	1783.63
405.901	1946.6
408.793	2076.39
411.686	2230.81
414.579	2357.98
417.471	2486.2
420.364	2436.45
423.257	2451.91
426.15	2338.05
429.042	2272.75
431.935	2142.25
434.828	2040.87
437.72	1737.5
440.613	1522.45
443.506	1203.94
446.399	871.098
449.291	540.428
452.184	427.148
455.077	179.576
457.969	11.9434
460.862	59.1973
463.755	137.85
466.647	271.223
469.54	139.885
472.433	113.232
475.325	38.9824
478.218	9.35938
481.111	107.693
484.004	99.6231
486.896	85.5273
489.789	220.566
492.682	470.93
495.574	913.098
498.467	1226.9
501.36	1787.37
504.252	2151.61
507.145	2412.31
510.038	2234.44
512.931	1726.35
515.823	1388.69
518.716	1086.99
521.609	1006.73
524.501	858.455
527.394	835
530.287	709.816
533.179	622.707
536.072	746.775
538.965	498.279
541.858	597.232
544.75	347.728
547.643	564.356
550.536	527.443
553.428	436.836
556.321	543.906
559.214	486.269
562.106	532.879
564.999	567.527
567.892	414.607
570.785	417.787
573.677	476.549
576.57	452.728
579.463	457.172
582.355	451.656
585.248	451.678
588.141	424.334
591.034	295.508
593.926	308.815
596.819	232.061
599.712	287.222
602.604	116.744
605.497	137.273
608.39	72.4258
611.282	196.13
614.175	124.144
617.068	82.1152
619.961	62.7832
622.853	64.3301
625.746	47.5752
628.639	25.708
631.531	30.9502
634.424	86.1143
637.317	19.251
640.209	37
643.102	46.1377
645.995	63.1397
648.888	15.794
651.78	109.506
654.673	138.482
657.566	190.528
660.458	184.167
663.351	304.489
666.244	267.257
669.136	329.017
672.029	238.321
674.922	231.068
677.814	270.788
680.707	211.763
683.6	211.502
686.493	200.266
689.385	207.241
692.278	88.9248
695.171	126.789
698.063	119.568
700.956	270.67
703.849	435.55
706.741	498.935
709.634	405.239
712.527	231.932
715.42	208.323
718.312	147.472
721.205	81.1533
724.098	171.802
726.99	119.485
729.883	107.434
732.776	85.085
735.668	108.93
738.561	208.472
741.454	116.684
744.347	76.9951
747.239	81.1816
750.132	113.967
753.025	76.4639
755.917	62.2432
758.81	63.7441
761.703	33.7842
764.596	93.2051
767.488	70.29
770.381	5.79688
773.274	13.8721
776.166	34.4033
779.059	106.689
781.952	8.11719
784.844	17.5
787.737	65.0117
790.63	94.8272
793.523	36.9111
796.415	112.829
799.308	87.4785
802.201	84.6484
805.093	87.2432
807.986	99.6592
810.879	187.31
813.771	290.273
816.664	236.583
819.557	198.028
822.449	201.828
825.342	313.618
828.235	222.145
831.128	171.775
834.02	109.963
836.913	5.91113
839.806	31.9971
842.698	10.2715
845.591	5.26953
848.484	36.9961
851.376	9.45117
854.269	6.41211
857.162	2.53906
860.055	2.62988
862.947	33.6035
865.84	10.251
868.733	95.666
871.625	39.3975
874.518	19.3242
877.411	145.852
880.303	215.981
883.196	434.252
886.089	647.56
888.982	760.929
891.874	707.96
894.767	448.366
897.66	407.483
900.552	515.182
903.445	429.441
906.338	522.609
909.231	484.24
912.123	484.089
915.016	506.562
917.909	555.372
920.801	540.61
923.694	376.106
926.587	239.227
929.479	180.395
932.372	112.466
935.265	129.984
938.158	41.2129
941.05	65.4551
943.943	61.916
946.836	6.70801
949.728	22.0088
952.621	11.6338
955.514	31.8877
958.406	12.8975
961.299	59.7168
964.192	54.8496
967.085	1.83106
969.977	32.1065
972.87	83.7197
975.763	24.9736
978.655	28.2236
981.548	16.9033
984.441	32.2412
987.333	13.7598
990.226	45.8193
993.119	60.8018
996.011	22.7031
998.904	56.4316
1001.8	108.852
1004.69	71.7764
1007.58	49.2842
1010.48	120.941
1013.37	138.378
1016.26	149.156
1019.15	103.075
1022.05	200.764
1024.94	179.27
1027.83	207.728
1030.72	152.137
1033.62	101.221
1036.51	213.012
1039.4	173.528
1042.3	153.082
1045.19	242.576
1048.08	206.301
1050.97	199.88
1053.87	237.732
1056.76	218.826
1059.65	257.506
1062.54	256.329
1065.44	283.483
1068.33	241.824
1071.22	257.086
1074.11	291.725
1077.01	269.771
1079.9	232.892
1082.79	203.389
1085.68	205.357
1088.58	194.606
1091.47	188.733
1094.36	134.163
1097.26	110.195
1100.15	132.324
1103.04	29.4404
1105.93	141.383
1108.83	39.3779
1111.72	59.8545
1114.61	27.7236
1117.51	78.5449
1120.4	39.583
1123.29	10.1201
1126.18	30.5811
1129.08	132.019
1131.97	75.2695
1134.86	156.3
1137.75	180.576
1140.65	219.857
1143.54	254.027
1146.43	123.756
1149.33	132.741
1152.22	107.305
1155.11	142.017
1158	175.244
1160.89	140.844
1163.79	116.908
1166.68	55.0645
1169.57	145.649
1172.47	2.04688
