Measurement: Raman, 532 nm, unoriented, Raman Data Processed
Mineral: Baumhauerite
Rruff sample: R050429
Ideal chemistry: Pb^2+^_12_As^3+^_16_S^2-^_36_
Locality: Binntal, Valais, Switzerland
Source: University of Arizona Mineral Museum
Description: Lead gray metallic with iridescent tarnish and conchoidal fracture
Raman shift (cm-1)	intensity
182.128	0
185.021	2.16626
187.913	1.30974
190.806	0.212437
193.699	0.204159
196.591	0.487411
199.484	1.37736
202.377	0.898922
205.269	0.460114
208.162	1.91642
211.055	1.73048
213.948	1.70847
216.84	2.75349
219.733	3.16769
222.626	0.276367
225.518	1.93701
228.411	0.252651
231.304	1.99345
234.196	0.813854
237.089	1.18567
239.982	1.33032
242.875	1.11693
245.767	1.3235
248.66	2.14555
251.553	1.91249
254.445	1.02298
257.338	2.52181
260.231	2.44896
263.123	3.31744
266.016	5.13634
268.909	5.2615
271.802	4.91332
274.694	6.21479
277.587	6.31084
280.48	8.68356
283.372	9.5762
286.265	11.1913
289.158	11.4806
292.05	13.3113
294.943	12.0305
297.836	13.3499
300.729	13.4914
303.621	14.3671
306.514	13.1099
309.407	12.0708
312.299	12.0291
315.192	9.8961
318.085	8.59723
320.978	6.9108
323.87	5.75585
326.763	4.01903
329.656	4.78025
332.548	2.38514
335.441	2.08352
338.334	0.642208
341.226	1.66778
344.119	2.0075
347.012	2.87718
349.904	4.52646
352.797	6.89647
355.69	8.48668
358.583	11.1672
361.475	13.7898
364.368	13.1543
367.261	12.484
370.153	13.0196
373.046	11.6356
375.939	10.5159
378.832	7.67371
381.724	6.49313
384.617	3.92586
387.51	1.41333
390.402	0.481018
393.295	0.071869
396.188	2.22536
399.08	0.199228
401.973	0.277765
404.866	0.644606
407.759	0.262117
410.651	1.41674
413.544	0.593893
416.437	0.351286
419.329	0.891079
422.222	0.199135
425.115	1.2564
428.007	1.60029
430.9	1.97334
433.793	2.62927
436.685	2.0144
439.578	1.71422
442.471	2.67819
445.364	1.63274
448.256	3.38806
451.149	3.1858
454.042	3.11049
456.934	2.10739
459.827	2.19379
462.72	2.05355
465.613	3.04196
468.505	2.31903
471.398	1.76205
474.291	0.607964
477.183	2.24068
480.076	1.22077
482.969	2.08403
485.861	1.45528
488.754	1.68165
491.647	1.23208
494.539	1.32909
497.432	1.71548
500.325	1.11804
503.218	1.74046
506.11	0.281733
509.003	1.035
511.896	1.21602
514.788	0.060383
517.681	0.458797
520.574	0.69788
523.466	1.32776
526.359	0.021521
529.252	0.778601
532.145	1.72896
535.037	0.390055
537.93	0.051067
540.823	0.551943
543.715	1.13963
546.608	1.31949
549.501	0.316826
552.394	1.12765
555.286	0.944323
558.179	1.13482
561.072	1.00188
563.964	0.321976
566.857	1.43726
569.75	0.76708
572.642	0.953192
575.535	1.83538
578.428	1.01006
581.321	0.582251
584.213	0.308416
587.106	1.1738
589.999	1.06831
592.891	0.988508
595.784	0.172049
598.677	0.00049
601.569	0.852182
604.462	1.09746
607.355	1.49207
610.247	1.31802
613.14	0.350195
616.033	0.818031
618.926	0.425875
621.818	0.929737
624.711	0.979361
627.604	1.28862
630.496	1.15538
633.389	0.226151
636.282	1.24496
639.174	1.63767
642.067	0.031713
644.96	1.34162
647.852	0.401512
650.745	0.510366
653.638	1.44429
656.531	1.33002
659.423	1.90983
662.316	0.799107
665.209	0.247746
668.101	0.30287
670.994	2.01442
673.887	0.330099
676.779	0.940117
679.672	0.373739
682.565	0.940008
685.458	1.99132
688.35	0.513966
691.243	0.683857
694.136	0.192476
697.028	1.57484
699.921	1.19327
702.814	0.161644
705.707	1.35823
708.599	1.22549
711.492	0.419241
714.385	2.08079
717.277	0.519897
720.17	0.099085
723.063	0.211195
725.955	0.999352
728.848	0.261351
731.741	0.484579
734.634	1.20761
737.526	0.691763
740.419	0.625013
743.312	0.64992
746.204	0.411087
749.097	1.35836
751.99	1.03595
754.882	1.4706
757.775	0.619179
760.668	0.490503
763.561	0.875013
766.453	1.42502
769.346	0.816448
772.239	0.595579
775.131	1.12294
778.024	0.533108
780.917	0.534048
783.809	1.66282
786.702	1.23482
789.595	0.732727
792.487	0.04038
795.38	0.133564
798.273	0.786755
801.166	1.14424
804.058	0.610764
806.951	1.58629
809.844	1.3786
812.736	0.140825
815.629	1.9679
818.522	0.333136
821.415	2.43634
824.307	0.875942
827.2	1.45824
830.093	0.142586
832.985	0.84444
835.878	0.871941
838.771	0.175684
841.663	0.428444
844.556	1.83204
847.449	0.707069
850.342	0.716061
853.234	0.312191
856.127	1.18172
859.02	0.930021
861.912	0.778925
864.805	0.927412
867.698	0.614027
870.591	1.05887
873.483	1.47143
876.376	1.02039
879.269	0.232386
882.161	1.45845
885.054	1.19547
887.947	1.03486
890.839	0.379993
893.732	0.871876
896.625	0.996445
899.518	0.623749
902.41	0.945755
905.303	1.39851
908.196	0.661434
911.088	1.03567
913.981	1.01899
916.874	0.251959
919.766	0.584307
922.659	1.74068
925.552	0.203917
928.444	1.13705
931.337	0.373478
934.23	0.640045
937.123	0.292936
940.015	0.525597
942.908	0.998665
945.801	0.278507
948.693	0.597506
951.586	1.10705
954.479	0.911474
957.371	0.782803
960.264	0.322201
963.157	0.750566
966.05	0.914654
968.942	0.156378
971.835	1.20205
974.728	0.972198
977.62	0.947895
980.513	0.291456
983.406	0.781988
986.298	0.788221
989.191	0.484671
992.084	0.47998
994.977	0.400114
997.869	0.690617
1000.76	1.01321
1003.65	0.466881
1006.55	0.099844
1009.44	0.986769
1012.33	0.842686
1015.23	0.282921
1018.12	0.432966
1021.01	0.030458
1023.9	1.46063
1026.8	0.353497
1029.69	1.23788
1032.58	0.879757
1035.47	0.994942
1038.37	0.346922
1041.26	0.721869
1044.15	0.28861
1047.05	1.02983
1049.94	0.331196
1052.83	0.447992
1055.72	0.568338
1058.62	0.331118
1061.51	0.959394
1064.4	0.531549
1067.29	0.595318
1070.19	0.323542
1073.08	0.85445
1075.97	0.813383
1078.87	1.05483
1081.76	0.257238
1084.65	1.63854
1087.54	1.19183
1090.44	0.466511
1093.33	1.07362
1096.22	1.10292
1099.11	0.411793
1102.01	1.32941
1104.9	0.269352
1107.79	1.22026
1110.68	1.25594
1113.58	0.195391
1116.47	1.23524
1119.36	0.358334
1122.26	0.858351
1125.15	0.041765
1128.04	0.16543
1130.93	1.5798
1133.83	0.722982
1136.72	1.2549
1139.61	0.627947
1142.5	1.04867
1145.4	1.39202
1148.29	0.938284
1151.18	0.442764
1154.08	1.20029
1156.97	0.363237
1159.86	0.44079
1162.75	0.294216
1165.65	1.08336
1168.54	1.10176
1171.43	0.949558
1174.32	1.18889
1177.22	0.478926
1180.11	0.426598
1183	2.16982
1185.89	0.915369
1188.79	0.682467
1191.68	0.712358
1194.57	0.657873
1197.47	0.024702
1200.36	1.42416
1203.25	1.51227
1206.14	0.999094
1209.04	0.906332
1211.93	0.921902
1214.82	2.00248
1217.71	0.761162
1220.61	1.17904
1223.5	1.12497
1226.39	1.43117
1229.29	0.979939
1232.18	1.19443
1235.07	0.235809
1237.96	0.512707
1240.86	1.27884
1243.75	0.099688
1246.64	0.704714
1249.53	1.23069
1252.43	0.785753
1255.32	0.97419
1258.21	1.49983
1261.11	1.67938
1264	0.636269
1266.89	0.371901
1269.78	0.89327
1272.68	0.900614
1275.57	0.136248
1278.46	0.628658
1281.35	1.13726
