Measurement: Raman, 532 nm, unoriented, Raman Data Processed
Mineral: Bavenite
Rruff sample: R060790
Ideal chemistry: Ca_4_Be_2+x_Al_2-x_Si_9_O_26-x_(OH)_2+x_ (x = 0 to 1)
Locality: Londonderry, West Australia, Australia
Source: Michael Scott
Description: Colorless platy aggregate with a hexagonal outline associated with quartz
Measured chemistry: Ca_3.96_Be_2.00_(Al_1.10_Be_0.90_)_Î£=2_Si_9.00_O_25.1_(OH)_2.90_
Raman shift (cm-1)	intensity
155.271	0
158.164	8.39941
161.057	3.21777
163.949	113.148
166.842	251.595
169.735	289.537
172.627	378.057
175.52	384.05
178.413	159.886
181.305	344.596
184.198	442.831
187.091	372.737
189.983	118.022
192.876	119.268
195.769	87.9502
198.662	23.9854
201.554	93.7324
204.447	146.16
207.34	282.034
210.232	218.738
213.125	290.593
216.018	302.074
218.911	349.18
221.803	375.513
224.696	326.806
227.589	341.152
230.481	477.381
233.374	415.573
236.267	321.751
239.159	317.763
242.052	289.568
244.945	262.513
247.838	273.072
250.73	223.215
253.623	188.512
256.516	93.7334
259.408	162.79
262.301	101.52
265.194	237.893
268.086	72.3633
270.979	100.397
273.872	163.007
276.764	200.454
279.657	245.023
282.55	270.246
285.442	307.922
288.335	317.916
291.228	243.856
294.121	70.0557
297.013	33.6738
299.906	26.4307
302.799	1.25684
305.691	123.918
308.584	75.5264
311.477	63.3857
314.37	96.1865
317.262	60.9531
320.155	57.7383
323.048	35.5615
325.94	103.628
328.833	79.5234
331.726	179.177
334.618	111.218
337.511	311.009
340.404	328.406
343.296	450.815
346.189	651.608
349.082	565.569
351.975	306.992
354.867	226.027
357.76	90.0147
360.653	230.135
363.545	129.083
366.438	152.614
369.331	56.5293
372.224	129.125
375.116	31.248
378.009	28.6406
380.902	39.2207
383.794	20.3105
386.687	89.0772
389.58	214.133
392.472	225.289
395.365	278.209
398.258	403.462
401.151	485.722
404.043	404.883
406.936	193.227
409.829	207.705
412.721	142.351
415.614	144.892
418.507	84.5586
421.399	190.615
424.292	193.046
427.185	232.964
430.077	264.945
432.97	393.509
435.863	578.161
438.755	860.731
441.648	1270.54
444.541	1632.47
447.434	1870.97
450.326	1369.25
453.219	589.301
456.112	169.409
459.004	92.7285
461.897	153.058
464.79	21.3867
467.683	63.8935
470.575	139.065
473.468	41.334
476.361	18.3555
479.253	34.0928
482.146	60.8867
485.039	132.475
487.931	392.378
490.824	413.714
493.717	575.727
496.61	769.698
499.502	1125.22
502.395	1215.75
505.288	1204.26
508.18	899.516
511.073	564.695
513.966	258.069
516.858	167.603
519.751	153.624
522.644	215.158
525.536	128.873
528.429	129.805
531.322	142.363
534.215	293.367
537.107	443.344
540	331.287
542.893	309.17
545.785	193.643
548.678	124.502
551.571	102.539
554.463	88.5566
557.356	6.08203
560.249	18.4316
563.141	148.381
566.034	64.9004
568.927	133.432
571.82	25.2617
574.712	110.644
577.605	88.0898
580.498	6.57227
583.39	14.0391
586.283	58.7539
589.176	18.8828
592.068	22.5273
594.961	3.00781
597.854	40.1992
600.747	138.84
603.639	0.058594
606.532	30.7344
609.425	119.426
612.317	169.363
615.21	184.584
618.103	96.1836
620.995	91.9707
623.888	306.012
626.781	195.965
629.673	269.812
632.566	205.084
635.459	237.935
638.352	39.3496
641.244	127.221
644.137	148.158
647.03	261.853
649.922	274.465
652.815	344.973
655.708	293.393
658.601	283.582
661.493	362.018
664.386	413.332
667.279	645.203
670.171	739.879
673.064	856.363
675.957	996.887
678.849	834.529
681.742	612.248
684.635	476.553
687.528	401.947
690.42	214.641
693.313	265.519
696.206	229.342
699.098	115.182
701.991	77.4981
704.884	65.4531
707.776	110.668
710.669	53.0176
713.562	132.147
716.455	175.086
719.347	189.141
722.24	47.6582
725.133	182.217
728.025	147.018
730.918	102.543
733.811	49.9883
736.703	182.07
739.596	258.481
742.489	111.512
745.381	203.801
748.274	484.941
751.167	207.893
754.059	39.9004
756.952	367.789
759.845	76.2305
762.738	15.7969
765.63	25.2812
768.523	162.299
771.416	136.84
774.308	91.582
777.201	6.34766
780.094	64.625
782.986	113.615
785.879	121.822
788.772	58.502
791.665	115.314
794.557	152.762
797.45	145.498
800.343	126.951
803.235	196.008
806.128	108.019
809.021	78.2402
811.913	3.96484
814.806	132.549
817.699	2.6875
820.592	1.07227
823.484	40.4512
826.377	49.695
829.27	137.508
832.162	4.20117
835.055	18.9785
837.948	93.1328
840.841	11.4863
843.733	44.9434
846.626	76.5371
849.519	44.5215
852.411	28.6191
855.304	70.9922
858.197	90.709
861.089	246.764
863.982	208.301
866.875	166.664
869.767	19.1074
872.66	143.223
875.553	26.5723
878.446	107.143
881.338	75.7285
884.231	137.211
887.124	67.4492
890.016	146.606
892.909	77.918
895.802	273.832
898.694	163.582
901.587	92.75
904.48	38.3789
907.372	55.8105
910.265	13.5645
913.158	50.3848
916.051	37.2305
918.943	62.3066
921.836	139.859
924.729	331.535
927.621	372.764
930.514	393.492
933.407	207.578
936.299	232.963
939.192	471.406
942.085	367.795
944.977	475.94
947.87	263.211
950.763	269.725
953.656	185.652
956.548	160.973
959.441	170.853
962.334	113.184
965.226	85.3086
968.119	49.293
971.012	102.703
973.904	40.625
976.797	107.822
979.69	120.606
982.583	107.346
985.475	5.49219
988.368	48.2246
991.261	7.50391
994.153	114.627
997.046	257.713
999.939	342.299
1002.83	536.596
1005.72	579.586
1008.62	371.623
1011.51	308.91
1014.4	271.625
1017.29	238.168
1020.19	238.545
1023.08	289.738
1025.97	356.125
1028.87	243.9
1031.76	240.822
1034.65	187.307
1037.54	42.2109
1040.44	202.9
1043.33	114.869
1046.22	60.8086
1049.12	87.1934
1052.01	18.1367
1054.9	169.348
1057.79	155.125
1060.68	111.932
1063.58	0.302734
1066.47	35.5684
1069.36	49.5254
1072.26	58.8047
1075.15	36.4609
1078.04	15.998
1080.93	67.9707
1083.83	26.7773
1086.72	185.191
1089.61	156.346
1092.51	168.102
1095.4	229.166
1098.29	377.754
1101.18	266.803
1104.08	188.691
1106.97	298.609
1109.86	164.029
1112.75	45.4609
1115.65	177.432
1118.54	25.0156
1121.43	47.5469
1124.33	68.6406
1127.22	105.769
1130.11	254.824
1133	358.43
1135.9	289.85
1138.79	158.74
1141.68	275.332
1144.57	172.791
1147.47	218.106
1150.36	134.562
1153.25	226.258
1156.14	199.039
1159.04	273.924
1161.93	165.475
1164.82	87.2773
1167.71	6.85392
1170.61	55.8926
1173.5	195.992
1176.39	195.244
1179.29	201.598
1182.18	224.336
1185.07	183.379
1187.96	112.842
1190.86	109.975
1193.75	109.662
1196.64	77.5625
1199.54	58.3691
1202.43	109.047
1205.32	121.227
1208.21	165.363
1211.11	204.75
1214	315.867
1216.89	209.416
1219.78	53.2773
1222.68	180.19
1225.57	56.041
1228.46	124.641
1231.36	203.441
1234.25	223.941
1237.14	440.062
1240.03	234.766
1242.92	210.088
1245.82	312.941
1248.71	360.871
1251.6	214.715
1254.5	114.434
1257.39	274.254
1260.28	182.199
1263.17	63.2734
1266.07	22.043
1268.96	257.644
1271.85	466.728
1274.74	390.719
1277.64	351.846
1280.53	151.06
1283.42	125.672
1286.32	63.6895
1289.21	72.2012
