Measurement: Raman, 780 nm, unoriented, Raman Data Processed
Mineral: Bavenite
Rruff sample: R060128
Ideal chemistry: Ca_4_Be_2+x_Al_2-x_Si_9_O_26-x_(OH)_2+x_ (x = 0 to 1)
Locality: Foot mine, Kings Mountain, Cleveland County, North Carolina, USA
Source: University of Arizona Mineral Museum
Description: White bladed radial aggregate
Measured chemistry: Ca_4.00_Be_2.00_(Al_1.98_Fe^3+^_0.02_)_Î£=2_Si_9.00_O_26_(OH)_2_
Raman shift (cm-1)	intensity
149.879	0
152.772	0.421303
155.665	0.423191
158.557	0.056431
161.45	0.445007
164.343	0.799034
167.236	1.37685
170.128	2.50102
173.021	2.96106
175.914	2.02949
178.806	1.60401
181.699	1.30643
184.592	0.974316
187.484	0.043919
190.377	0.094215
193.27	0.80674
196.162	2.21313
199.055	2.96975
201.948	3.001
204.841	3.18056
207.733	5.41261
210.626	9.31789
213.519	14.2002
216.411	12.9377
219.304	6.74773
222.197	4.75606
225.089	4.03589
227.982	4.47724
230.875	5.30525
233.768	5.44459
236.66	3.86536
239.553	7.01731
242.446	5.48996
245.338	7.51544
248.231	7.62476
251.124	4.43679
254.017	2.86102
256.909	2.02614
259.802	1.86014
262.695	2.068
265.587	1.96355
268.48	1.4368
271.373	1.78399
274.265	2.20349
277.158	2.87547
280.051	3.60854
282.943	4.34959
285.836	2.03115
288.729	2.53371
291.622	0.769062
294.514	0.555313
297.407	0.005558
300.3	0.218372
303.192	0.153587
306.085	0.47084
308.978	0.026741
311.87	0.605461
314.763	0.186382
317.656	0.349327
320.548	0.673965
323.441	0.419647
326.334	1.13334
329.227	1.1654
332.119	1.43723
335.012	2.64076
337.905	3.99284
340.797	4.86883
343.69	7.02429
346.583	7.73939
349.476	6.46672
352.368	2.41439
355.261	0.619453
358.154	0.478245
361.046	0.52993
363.939	0.658287
366.832	0.665085
369.724	2.1713
372.617	1.70467
375.51	0.01899
378.402	0.416897
381.295	0.357319
384.188	0.157993
387.081	0.873665
389.973	1.01674
392.866	1.22874
395.759	1.83637
398.651	2.38248
401.544	3.30733
404.437	5.23006
407.329	6.17948
410.222	2.84667
413.115	0.938625
416.008	0.197792
418.9	0.006458
421.793	0.541164
424.686	0.313343
427.578	2.27948
430.471	3.34579
433.364	4.56922
436.257	5.1868
439.149	7.54913
442.042	10.138
444.935	15.3505
447.827	17.8547
450.72	9.61254
453.613	3.19059
456.505	0.755867
459.398	0.36628
462.291	0.17231
465.183	0.255283
468.076	0.196873
470.969	0.438232
473.861	1.00627
476.754	1.91718
479.647	2.67607
482.54	4.21693
485.432	7.09804
488.325	11.5745
491.218	13.6049
494.11	15.8931
497.003	13.1799
499.896	12.705
502.788	10.739
505.681	9.7094
508.574	7.59929
511.467	5.14087
514.359	2.89521
517.252	2.68736
520.145	2.18249
523.037	3.05856
525.93	3.21138
528.823	3.58597
531.716	6.71905
534.608	8.29866
537.501	5.71827
540.394	3.04849
543.286	2.12237
546.179	1.18943
549.072	0.490875
551.964	1.10365
554.857	1.12362
557.75	1.21902
560.643	0.703094
563.535	0.731682
566.428	0.551708
569.321	0.716683
572.213	0.629476
575.106	0.758195
577.999	0.72592
580.891	0.758976
583.784	0.450811
586.677	0.266272
589.569	0.254555
592.462	0.0113431
595.355	0.135019
598.248	0.11187
601.14	-0.0375187
604.033	0.243755
606.926	0.019287
609.818	0.332811
612.711	0.138329
615.604	0.199488
618.496	0.286482
621.389	0.225723
624.282	0.140917
627.174	0.231563
630.067	0.387543
632.96	0.570208
635.853	0.274799
638.745	0.953543
641.638	1.24827
644.531	1.45146
647.423	1.72932
650.316	2.82335
653.209	3.29691
656.101	3.63309
658.994	4.22149
661.887	6.16964
664.78	7.42663
667.672	10.4298
670.565	10.8973
673.458	9.45929
676.35	6.25627
679.243	3.8902
682.136	2.73023
685.029	0.952074
687.921	1.22074
690.814	0.754515
693.707	0.365215
696.599	0.639006
699.492	0.66083
702.385	0.168772
705.277	0.337355
708.17	0.650381
711.063	0.835457
713.955	1.69985
716.848	1.70372
719.741	2.46826
722.634	2.79079
725.526	4.83765
728.419	4.57617
731.312	4.42541
734.204	3.58289
737.097	2.60489
739.99	2.04949
742.882	2.15515
745.775	3.625
748.668	3.84935
751.561	4.13881
754.453	2.56723
757.346	0.926788
760.239	0.319031
763.131	0.181922
766.024	0.074162
768.917	0.166548
771.809	0.304148
774.702	0.280568
777.595	0.32665
780.487	0.103424
783.38	0.027826
786.273	0.841162
789.166	0.016792
792.058	0.287172
794.951	0.029833
797.844	0.149727
800.736	1.0384
803.629	0.481173
806.522	1.15892
809.414	0.006344
812.307	0.197203
815.2	0.635235
818.093	0.763718
820.985	0.035957
823.878	1.50805
826.771	1.05644
829.663	1.4278
832.556	0.239895
835.449	0.348755
838.341	0.675941
841.234	1.03036
844.127	1.01486
847.02	1.63294
849.912	1.46948
852.805	1.2568
855.698	2.03583
858.59	1.64981
861.483	1.31738
864.376	1.04917
867.269	1.27879
870.161	0.866339
873.054	1.22532
875.947	0.759596
878.839	0.510557
881.732	0.618023
884.625	1.03344
887.517	0.065458
890.41	0.833385
893.303	0.696207
896.195	0.526518
899.088	0.079023
901.981	0.166924
904.874	0.563007
907.766	1.06123
910.659	0.414129
913.552	0.722714
916.444	0.131836
919.337	0.890434
922.23	0.020161
925.122	0.69853
928.015	0.758131
930.908	0.654194
933.801	1.19014
936.693	1.34467
939.586	1.57329
942.479	1.40807
945.371	1.62555
948.264	2.11768
951.157	2.21728
954.049	1.59537
956.942	1.5181
959.835	0.8605
962.727	0.52504
965.62	0.392139
968.513	1.17955
971.406	0.87616
974.298	0.75708
977.191	1.43889
980.084	2.31649
982.976	3.36734
985.869	5.22827
988.762	5.48697
991.654	5.28216
994.547	6.31223
997.44	9.05388
1000.33	8.98654
1003.23	5.99442
1006.12	3.94947
1009.01	1.93545
1011.9	1.25733
1014.8	1.24009
1017.69	0.614925
1020.58	0.398365
1023.47	0.567307
1026.37	0.626574
1029.26	0.137844
1032.15	0.011429
1035.05	1.08261
1037.94	0.704569
1040.83	0.061396
1043.72	0.488609
1046.62	0.306604
1049.51	0.615982
1052.4	1.64199
1055.29	1.09339
1058.19	0.807514
1061.08	0.333933
1063.97	0.875095
1066.87	0.879282
1069.76	1.03724
1072.65	0.437622
1075.54	0.663565
1078.43	0.725835
1081.33	0.536896
1084.22	0.391268
1087.11	0.860706
1090.01	0.325613
1092.9	0.883751
1095.79	1.32666
1098.68	1.00221
1101.58	1.22425
1104.47	0.797285
1107.36	0.03956
1110.26	0.909678
1113.15	0.23609
1116.04	0.316986
1118.93	0.866596
1121.83	1.03985
1124.72	0.403873
1127.61	0.712383
1130.5	0.693998
1133.4	0.910933
1136.29	1.4808
1139.18	1.45152
1142.08	1.37058
1144.97	0.314369
1147.86	1.49283
1150.75	0.728752
1153.65	0.721714
1156.54	1.26006
1159.43	0.013071
1162.32	0.017096
1165.22	0.148232
1168.11	1.06112
1171	1.29881
1173.89	0.888563
1176.79	0.60677
1179.68	1.1259
1182.57	0.364033
1185.46	0.931469
1188.36	1.31742
1191.25	0.776957
1194.14	0.958298
1197.04	1.25988
1199.93	0.686977
1202.82	0.757338
1205.71	0.972044
1208.61	0.270857
1211.5	0.895506
1214.39	0.941895
1217.29	0.837103
1220.18	1.38792
1223.07	0.922789
1225.96	1.08063
1228.86	1.50071
1231.75	0.181143
1234.64	0.012871
1237.53	0.368137
1240.43	0.269667
1243.32	0.379093
1246.21	0.533039
1249.11	0.386005
1252	0.422461
1254.89	0.640768
1257.78	1.54196
1260.67	0.748011
1263.57	0.507105
1266.46	1.47779
1269.35	0.270914
1272.25	1.02232
1275.14	0.95154
1278.03	0.564053
1280.92	0.268757
1283.82	0.297091
