Measurement: Raman, 780 nm, unoriented, Raman Data Processed
Mineral: Bayldonite
Rruff sample: R110033
Ideal chemistry: Cu^2+^_3_Pb^2+^O(As^5+^O_3_OH)_2_(OH)_2_
Locality: Tsumeb, Namibia
Source: William W Pinch
Description: Bright green tabular crystals associated with azurite, conichalcite, and wulfenite
Raman shift (cm-1)	intensity
136.923	0
139.815	3.04456
142.708	1.91549
145.601	5.09133
148.493	3.30849
151.386	2.69595
154.279	11.3816
157.171	9.69496
160.064	15.46
162.957	13.2638
165.85	18.1337
168.742	33.351
171.635	33.7385
174.528	30.9716
177.42	24.3168
180.313	20.6837
183.206	12.587
186.098	4.53392
188.991	7.33811
191.884	2.58837
194.776	0.366609
197.669	1.81021
200.562	0.451815
203.455	1.85867
206.347	0.229833
209.24	2.40792
212.133	0.420948
215.025	4.13967
217.918	2.58307
220.811	7.79814
223.703	6.61686
226.596	16.0611
229.489	9.2207
232.382	11.4025
235.274	11.4973
238.167	8.26193
241.06	8.4923
243.952	3.64446
246.845	2.44982
249.738	8.16342
252.631	7.04871
255.523	9.08357
258.416	1.63787
261.309	2.90065
264.201	0.020723
267.094	0.76667
269.987	0.193705
272.879	9.63419
275.772	2.07435
278.665	1.46409
281.558	3.88266
284.45	6.98714
287.343	13.6896
290.236	13.1159
293.128	17.0943
296.021	19.7507
298.914	30.9515
301.806	43.5546
304.699	46.0192
307.592	53.5112
310.485	61.6293
313.377	66.3662
316.27	65.9149
319.163	54.7491
322.055	49.7194
324.948	45.4537
327.841	36.98
330.733	39.0541
333.626	24.6346
336.519	21.1687
339.411	6.32141
342.304	16.004
345.197	5.05351
348.09	8.72916
350.982	1.24983
353.875	1.34112
356.768	0.77664
359.66	0.546242
362.553	4.44161
365.446	0.779699
368.339	6.93721
371.231	4.86733
374.124	1.88878
377.017	5.17781
379.909	0.861212
382.802	8.11123
385.695	4.41671
388.587	7.59808
391.48	4.20316
394.373	0.696474
397.265	10.4461
400.158	7.6974
403.051	7.2156
405.944	8.00557
408.836	5.95617
411.729	12.0472
414.622	15.6158
417.514	15.596
420.407	24.9613
423.3	41.8123
426.192	47.8452
429.085	50.1263
431.978	28.8055
434.871	13.0086
437.763	5.48277
440.656	5.25084
443.549	3.47398
446.441	0.719216
449.334	0.940851
452.227	1.56997
455.12	2.99392
458.012	1.75239
460.905	2.78704
463.798	0.12608
466.69	3.42835
469.583	1.98724
472.476	0.380181
475.368	4.86557
478.261	10.0679
481.154	9.12209
484.046	8.20506
486.939	11.0397
489.832	8.60469
492.725	4.06411
495.617	5.5324
498.51	7.89257
501.403	3.90339
504.295	0.520395
507.188	6.86411
510.081	3.30673
512.973	5.98927
515.866	1.33508
518.759	4.48197
521.652	0.154189
524.544	0.067394
527.437	6.27538
530.33	2.07088
533.222	2.35949
536.115	9.17961
539.008	2.52979
541.9	5.2611
544.793	5.14067
547.686	2.60319
550.579	0.590218
553.471	5.42916
556.364	8.13206
559.257	4.76606
562.149	5.14863
565.042	7.46174
567.935	3.36706
570.827	4.92658
573.72	6.07744
576.613	0.631287
579.506	1.31599
582.398	0.304853
585.291	0.570572
588.184	1.84176
591.076	4.31916
593.969	0.626348
596.862	2.63796
599.755	1.04248
602.647	5.24666
605.54	1.69236
608.433	4.88188
611.325	2.61595
614.218	3.43895
617.111	0.895838
620.003	6.55504
622.896	8.62563
625.789	4.40007
628.682	3.73062
631.574	1.43673
634.467	5.51075
637.36	7.06175
640.252	3.30375
643.145	10.2415
646.038	5.47323
648.93	10.7502
651.823	7.35706
654.716	8.72549
657.609	2.68359
660.501	3.33162
663.394	0.251702
666.287	0.213238
669.179	6.55531
672.072	5.93454
674.965	7.49206
677.857	0.25223
680.75	4.93326
683.643	4.67528
686.535	1.5861
689.428	3.37739
692.321	2.50634
695.214	1.08299
698.106	1.03998
700.999	4.80233
703.892	1.9601
706.784	0.26839
709.677	2.35423
712.57	3.12904
715.462	8.56747
718.355	2.36614
721.248	6.87272
724.141	6.51338
727.033	3.93097
729.926	0.687377
732.819	5.2346
735.711	9.3418
738.604	5.74946
741.497	12.2067
744.389	11.9452
747.282	18.7825
750.175	26.999
753.068	40.5086
755.96	44.8355
758.853	44.2448
761.746	31.0448
764.638	23.8381
767.531	11.2179
770.424	9.57422
773.317	6.38938
776.209	1.8264
779.102	0.69122
781.995	0.296511
784.887	4.3346
787.78	5.3117
790.673	15.146
793.565	25.206
796.458	58.0437
799.351	98.2054
802.244	147.215
805.136	155.194
808.029	109.209
810.922	67.3285
813.814	45.628
816.707	37.668
819.6	25.8439
822.492	37.005
825.385	38.7072
828.278	53.5543
831.17	72.8074
834.063	103.99
836.956	121.833
839.849	99.9401
842.741	54.3587
845.634	27.5325
848.527	18.9312
851.419	9.88621
854.312	9.58174
857.205	1.05269
860.097	6.09963
862.99	0.322543
865.883	1.1635
868.776	0.481686
871.668	0.513433
874.561	1.46683
877.454	0.335765
880.346	3.37167
883.239	0.01614
886.132	6.15748
889.024	5.81487
891.917	11.7223
894.81	10.8176
897.703	0.331729
900.595	0.18995
903.488	0.651832
906.381	0.362003
909.273	0.718579
912.166	4.43546
915.059	7.4242
917.952	1.52992
920.844	3.3752
923.737	3.65271
926.63	2.06323
929.522	0.018037
932.415	9.09701
935.308	5.5708
938.2	7.85424
941.093	6.65532
943.986	6.37338
946.879	6.96175
949.771	2.03323
952.664	3.68011
955.557	7.77254
958.449	3.78252
961.342	4.61298
964.235	3.7596
967.127	5.32336
970.02	6.72041
972.913	7.95379
975.806	3.75415
978.698	4.60747
981.591	2.20065
984.484	2.66603
987.376	4.96212
990.269	0.628865
993.162	6.94259
996.054	0.70699
998.947	3.36929
1001.84	2.19741
1004.73	5.22928
1007.62	6.82081
1010.52	6.1901
1013.41	8.64382
1016.3	4.29643
1019.2	0.287567
1022.09	5.72981
1024.98	1.27033
1027.87	2.2758
1030.77	6.65231
1033.66	2.44868
1036.55	1.50892
1039.44	3.196
1042.34	1.83145
1045.23	5.84304
1048.12	8.70851
1051.02	3.95738
1053.91	9.5675
1056.8	2.97287
1059.69	10.1659
1062.59	4.16348
1065.48	5.59612
1068.37	8.32964
1071.27	8.01508
1074.16	4.87144
1077.05	1.21094
1079.94	5.6146
1082.84	7.88101
1085.73	2.04402
1088.62	3.84539
1091.51	9.46757
1094.41	6.32548
1097.3	7.30275
1100.19	8.30373
1103.08	5.76211
1105.98	3.75922
1108.87	4.82693
1111.76	2.16455
1114.65	6.68355
1117.55	4.0262
1120.44	7.09413
1123.33	1.05547
1126.23	0.146264
1129.12	5.57591
1132.01	4.9871
1134.9	0.49169
1137.8	5.60867
1140.69	7.05322
1143.58	6.40407
1146.47	0.235916
1149.37	2.39473
1152.26	2.3721
1155.15	2.6067
1158.05	5.88843
1160.94	7.4143
1163.83	6.37901
1166.72	0.115197
1169.62	5.79971
1172.51	1.36667
1175.4	9.39564
1178.3	6.38283
1181.19	1.08952
1184.08	6.24468
1186.97	7.36907
1189.87	10.3763
1192.76	3.16867
1195.65	7.12018
1198.54	5.42194
1201.44	0.223233
1204.33	7.79698
1207.22	0.554597
1210.11	6.97133
1213.01	4.80775
1215.9	3.42258
1218.79	4.66648
1221.68	3.59475
1224.58	1.72763
1227.47	2.22275
1230.36	10.0107
1233.26	0.906916
1236.15	6.32103
1239.04	7.4328
1241.93	6.68165
1244.83	6.0563
1247.72	11.7034
1250.61	4.39011
1253.51	2.71445
1256.4	3.28447
1259.29	6.04936
1262.18	1.8889
1265.08	3.16775
1267.97	7.14175
1270.86	1.38041
1273.75	1.5093
1276.65	0.05074
1279.54	4.67231
1282.43	3.16378
1285.32	0
