Measurement: Raman, 532 nm, unoriented, Raman Data Processed
Mineral: Bayleyite
Rruff sample: R070458
Ideal chemistry: Mg_2_(U^6+^O_2_)(CO_3_)_3_18H_2_O
Locality: Hideout mine (Hideout No. 1 mine), Deer Flats, White Canyon, White Canyon District, San Juan County, Utah, USA
Source: Michael Scott
Description: Sprays of well-formed yellow to white acicular crystals
Raman shift (cm-1)	intensity
162.197	0
165.09	24.7969
167.982	2.99023
170.875	185.65
173.768	275.166
176.66	339.709
179.553	554.545
182.446	625.551
185.339	879.439
188.231	985.012
191.124	1130.92
194.017	1202.78
196.909	1134.69
199.802	879.488
202.695	593.875
205.587	330.856
208.48	376.404
211.373	400.461
214.266	330.893
217.158	453.584
220.051	565.453
222.944	723.391
225.836	900.146
228.729	1160
231.622	1273.48
234.514	1164.66
237.407	1217.01
240.3	1062.43
243.192	888.514
246.085	779.148
248.978	697.758
251.871	596.266
254.763	538.391
257.656	484.057
260.549	499.242
263.441	465.871
266.334	416.478
269.227	391.352
272.12	324.381
275.012	169.416
277.905	5.68945
280.798	150.992
283.69	41.3418
286.583	9.71875
289.476	10.2852
292.368	5.04688
295.261	96.2539
298.154	2.78516
301.046	26.7637
303.939	78.6621
306.832	60.5195
309.725	44.8535
312.617	1.16406
315.51	64.5371
318.403	42.7051
321.295	13.6328
324.188	65.3945
327.081	6.40234
329.974	17.1875
332.866	62.3945
335.759	53.9961
338.652	137.291
341.544	127.041
344.437	191.441
347.33	46.791
350.223	92.6074
353.115	150.367
356.008	184.731
358.901	189.019
361.793	119.779
364.686	140.332
367.579	184.297
370.471	123.932
373.364	203.863
376.257	112.289
379.149	94.8984
382.042	233.836
384.935	124.83
387.828	132.17
390.72	32.9102
393.613	131.57
396.506	142.125
399.398	71.875
402.291	82.7812
405.184	68.9981
408.077	168.172
410.969	97.5684
413.862	35.2773
416.755	169.731
419.647	84.0254
422.54	125.422
425.433	109.898
428.325	134.815
431.218	135.301
434.111	121.887
437.003	65.0156
439.896	125.236
442.789	75.1211
445.682	177.301
448.574	98.6152
451.467	273.508
454.36	287.103
457.252	289.631
460.145	331.674
463.038	411.393
465.93	350.717
468.823	191.275
471.716	69.6328
474.609	246.731
477.501	60.7578
480.394	70.793
483.287	60.0879
486.179	115.84
489.072	192.269
491.965	110.408
494.858	158.572
497.75	199.676
500.643	47.3672
503.536	108.047
506.428	169.135
509.321	162.217
512.214	162.266
515.106	167.219
517.999	36.7773
520.892	145.674
523.784	55.2656
526.677	111.732
529.57	74.1934
532.463	91.918
535.355	97.0254
538.248	249.166
541.141	17.418
544.033	6.54297
546.926	148.57
549.819	144.887
552.712	140.613
555.604	42.6406
558.497	62.8555
561.39	102.312
564.282	71.5195
567.175	92.3906
570.068	87.1484
572.96	51.4766
575.853	148.574
578.746	112.934
581.639	124.977
584.531	45.7969
587.424	26.5469
590.317	50.5117
593.209	75.0938
596.102	54.6562
598.995	23.8203
601.888	204.734
604.78	67.9336
607.673	82.7109
610.566	165.422
613.458	163.434
616.351	156.211
619.244	237.957
622.136	180.891
625.029	98.4023
627.922	202.66
630.814	227.973
633.707	273.711
636.6	173.211
639.493	227.078
642.385	285.504
645.278	191.055
648.171	323.941
651.063	287.144
653.956	241.676
656.849	302.91
659.741	247.262
662.634	208.207
665.527	301.066
668.42	202.496
671.312	212.715
674.205	147.359
677.098	81.8164
679.99	30.5469
682.883	130.734
685.776	101.43
688.668	16.8516
691.561	285.844
694.454	91.9336
697.347	126.566
700.239	56.8711
703.132	132.953
706.025	108.09
708.917	123.586
711.81	167.586
714.703	136.164
717.596	132.039
720.488	121.996
723.381	193.219
726.274	212.309
729.166	126.559
732.059	102.684
734.952	0.453125
737.844	210.941
740.737	135.867
743.63	232.289
746.523	74.1172
749.415	343.18
752.308	229.055
755.201	369.82
758.093	185.062
760.986	170.231
763.879	275.047
766.771	141.688
769.664	31.0977
772.557	187.816
775.45	96.1484
778.342	48.5117
781.235	100.285
784.128	59.9922
787.02	154.59
789.913	194.531
792.806	356.336
795.698	347.215
798.591	388.152
801.484	397.738
804.377	457.672
807.269	644.891
810.162	582.59
813.055	631.391
815.947	637.535
818.84	472.738
821.733	359.004
824.625	211.488
827.518	268.883
830.411	252.957
833.304	286.715
836.196	219.871
839.089	183.746
841.982	160.703
844.874	80.2734
847.767	22.6719
850.66	93.375
853.553	116.25
856.445	79.5
859.338	17.7891
862.231	33.9805
865.123	71.5352
868.016	5.78516
870.909	7.02344
873.801	88.2773
876.694	55.6328
879.587	86.707
882.48	29.6523
885.372	66.7891
888.265	99.3477
891.158	89.2812
894.05	55.9062
896.943	58.1328
899.836	90.4609
902.729	192.582
905.621	209.074
908.514	193.281
911.407	208.754
914.299	232.672
917.192	179.457
920.085	347.672
922.977	191.332
925.87	191.887
928.763	223.492
931.655	222.059
934.548	322.312
937.441	313.356
940.334	391.812
943.226	273.398
946.119	245.684
949.012	244.359
951.904	262.285
954.797	58.4922
957.69	52.3438
960.582	141.613
963.475	87.1836
966.368	16.9219
969.261	13.1953
972.153	16.0039
975.046	302.578
977.939	44.3281
980.831	204.426
983.724	138.867
986.617	129.523
989.51	253.82
992.402	172.848
995.295	214.043
998.188	206.262
1001.08	180.211
1003.97	242.691
1006.87	472.312
1009.76	169.184
1012.65	175.781
1015.54	279.582
1018.44	168.543
1021.33	92.1992
1024.22	161.644
1027.12	77.8242
1030.01	66.125
1032.9	47.7734
1035.79	56.8672
1038.68	16.2891
1041.58	62.8906
1044.47	205.234
1047.36	155.375
1050.26	227.797
1053.15	162.094
1056.04	107.293
1058.93	178.293
1061.83	142.426
1064.72	70.1758
1067.61	122.258
1070.51	117.297
1073.4	199.484
1076.29	455.41
1079.18	422.394
1082.08	287.035
1084.97	135.641
1087.86	312.281
1090.75	104.352
1093.65	288.773
1096.54	177.481
1099.43	305.445
1102.33	234.07
1105.22	395.43
1108.11	604.586
1111	665.574
1113.9	987.926
1116.79	1606.79
1119.68	2178.5
1122.57	2656.38
1125.47	2733.87
1128.36	2080.79
1131.25	1413.46
1134.14	834.887
1137.04	356.41
1139.93	298.387
1142.82	254.59
1145.71	11.375
1148.61	20.2031
1151.5	169.523
1154.39	106.621
1157.29	106.09
1160.18	81.2422
1163.07	130.477
1165.96	157.062
1168.86	142.594
1171.75	9.30859
1174.64	62.375
1177.54	68.7227
1180.43	216.641
1183.32	137.766
1186.21	68.6016
1189.11	269.16
1192	148.016
1194.89	255.043
1197.78	196.898
1200.68	64.2734
1203.57	24.2148
1206.46	83.1016
1209.36	72.3047
1212.25	19.4141
1215.14	169.594
1218.03	149.211
1220.93	54.4141
1223.82	100.949
1226.71	34.2891
1229.6	179.016
1232.5	176.723
1235.39	246.09
1238.28	203.723
1241.17	43.6094
1244.07	178.277
1246.96	225.043
1249.85	95.7344
1252.74	220.113
1255.64	182.527
1258.53	200.137
1261.42	122.613
1264.32	262.887
1267.21	134.074
1270.1	174.461
1272.99	78.4023
1275.89	343.438
1278.78	98.9922
1281.67	84.168
1284.57	89.918
1287.46	140.762
1290.35	18.1836
1293.24	112.418
1296.14	145.426
1299.03	134.652
1301.92	6.94922
1304.81	0.175781
