Measurement: Raman, 780 nm, unoriented, Raman Data Processed
Mineral: Beaverite-(Cu)
Rruff sample: R060400
Ideal chemistry: Pb^2+^Cu^2+^Fe^3+^_2_(S^6+^O_4_)_2_(OH)_6_
Locality: Utah, USA
Source: American Museum of Natural History
Description: Brownish yellow earthy mass
Raman shift (cm-1)	intensity
174.494	0
177.386	2.30081
180.279	4.18539
183.172	12.743
186.065	22.8318
188.957	37.6501
191.85	47.2621
194.743	56.7176
197.635	61.8598
200.528	62.6741
203.421	61.4905
206.313	57.0972
209.206	54.1873
212.099	49.83
214.992	44.0437
217.884	36.4309
220.777	35.1316
223.67	22.3591
226.562	17.9614
229.455	13.7527
232.348	4.27325
235.24	5.36163
238.133	6.09723
241.026	1.77673
243.918	1.31238
246.811	0.236786
249.704	0.566193
252.597	0.432281
255.489	0.27832
258.382	2.90317
261.275	1.76898
264.167	3.47855
267.06	3.08734
269.953	4.31918
272.846	2.43811
275.738	1.13867
278.631	0.784302
281.524	1.43451
284.416	1.13718
287.309	2.71774
290.202	2.40366
293.094	4.82733
295.987	5.97723
298.88	8.70071
301.772	13.0005
304.665	12.6079
307.558	13.1242
310.45	15.616
313.343	14.2455
316.236	13.1975
319.129	12.0234
322.021	10.2687
324.914	9.38876
327.807	12.317
330.699	6.16623
333.592	8.1407
336.485	3.67543
339.377	7.01283
342.27	2.64577
345.163	4.03233
348.056	1.44104
350.948	2.84049
353.841	0.571854
356.734	1.93149
359.626	3.71645
362.519	3.06555
365.412	1.07144
368.305	1.55092
371.197	0.343353
374.09	1.2337
376.983	1.18489
379.875	0.882874
382.768	0.732544
385.661	0.628265
388.553	0.809265
391.446	1.3905
394.339	3.2444
397.231	3.9919
400.124	7.57335
403.017	7.57108
405.909	11.4968
408.802	14.7199
411.695	21.3413
414.588	28.7294
417.48	30.7141
420.373	45.5634
423.266	55.9934
426.158	69.4136
429.051	82.9494
431.944	91.9868
434.837	102.372
437.729	110.07
440.622	108.286
443.515	101.448
446.407	90.3576
449.3	69.59
452.193	54.7918
455.085	36.9033
457.978	29.3662
460.871	24.7756
463.764	18.5853
466.656	17.3937
469.549	10.1885
472.442	7.88548
475.334	5.98824
478.227	5.0576
481.12	3.98799
484.012	1.53731
486.905	1.13097
489.798	0.144791
492.69	1.61629
495.583	0.750427
498.476	3.5211
501.369	1.37805
504.261	2.24109
507.154	0.959457
510.047	3.82935
512.939	5.30693
515.832	6.8199
518.725	7.92004
521.617	11.9672
524.51	14.4086
527.403	14.3301
530.296	14.1281
533.188	16.3356
536.081	21.6941
538.974	20.909
541.866	24.9447
544.759	27.4795
547.652	30.1674
550.544	24.8058
553.437	24.9066
556.33	22.7923
559.222	24.576
562.115	15.4972
565.008	16.3584
567.901	17.3664
570.793	17.9244
573.686	9.94269
576.579	13.8292
579.471	5.90213
582.364	6.38487
585.257	2.8022
588.149	8.40401
591.042	5.6575
593.935	8.8399
596.828	13.2745
599.72	18.3177
602.613	22.9237
605.506	29.5654
608.398	33.4744
611.291	37.3008
614.184	46.2261
617.077	48.9897
619.969	36.1588
622.862	30.1796
625.755	22.4253
628.647	11.9335
631.54	9.2115
634.433	7.94182
637.325	2.38455
640.218	4.72263
643.111	2.71732
646.004	0.688599
648.896	1.50999
651.789	0.23291
654.682	4.31152
657.574	1.78766
660.467	4.34651
663.36	0.33284
666.252	5.03892
669.145	0.694534
672.038	0.725006
674.931	0.557602
677.823	1.24181
680.716	2.77872
683.609	3.08475
686.501	0.952667
689.394	2.82512
692.287	2.8284
695.179	2.53433
698.072	0.947067
700.965	1.59056
703.857	0.386627
706.75	1.30379
709.643	4.74135
712.535	3.19176
715.428	2.01735
718.321	6.86742
721.214	5.18121
724.106	4.43597
726.999	4.33333
729.892	2.31735
732.784	3.47588
735.677	2.33066
738.57	5.85347
741.462	2.5339
744.355	3.44722
747.248	0.420975
750.141	0.15152
753.033	4.45938
755.926	3.58104
758.819	2.72504
761.711	4.59549
764.604	3.21896
767.497	6.60666
770.389	0.583435
773.282	2.88629
776.175	1.26177
779.068	5.37982
781.96	3.6967
784.853	5.79864
787.746	1.40012
790.638	1.95952
793.531	0.111282
796.424	3.34459
799.317	3.13615
802.209	2.47293
805.102	4.06648
807.995	0.016342
810.887	1.1315
813.78	5.68278
816.673	2.61961
819.565	7.05476
822.458	4.11127
825.351	1.97287
828.244	6.48727
831.136	5.17012
834.029	4.86272
836.922	0.144241
839.814	7.22395
842.707	4.04063
845.6	4.49025
848.492	3.34212
851.385	7.67307
854.278	0.105499
857.17	5.10678
860.063	4.88292
862.956	6.81453
865.849	3.72404
868.741	2.85959
871.634	5.64134
874.527	9.97285
877.419	0.90979
880.312	2.90923
883.205	7.97523
886.097	1.36388
888.99	5.56599
891.883	2.39249
894.775	4.89717
897.668	3.5014
900.561	2.11778
903.454	3.14522
906.346	1.61449
909.239	5.06874
912.132	3.75449
915.024	4.03107
917.917	2.94551
920.81	0.451691
923.702	0.229111
926.595	2.21892
929.488	2.21049
932.381	0.867249
935.273	3.10081
938.166	0.866058
941.059	1.02661
943.951	1.25795
946.844	0.406128
949.737	1.35542
952.63	1.20448
955.522	2.57263
958.415	4.77801
961.308	1.72765
964.2	5.20705
967.093	9.7518
969.986	10.5143
972.878	16.202
975.771	22.8773
978.664	33.4433
981.557	38.5554
984.449	48.2542
987.342	53.2652
990.235	64.657
993.127	66.1046
996.02	64.8153
998.913	58.9021
1001.8	48.0715
1004.7	35.4311
1007.59	23.4888
1010.48	20.3761
1013.38	13.6324
1016.27	10.7903
1019.16	6.4016
1022.05	10.1075
1024.95	7.74448
1027.84	3.59828
1030.73	5.9147
1033.62	3.70912
1036.52	8.66727
1039.41	3.79877
1042.3	2.59854
1045.2	3.65633
1048.09	7.99055
1050.98	1.50734
1053.87	2.55504
1056.77	3.39188
1059.66	1.21619
1062.55	1.44865
1065.44	2.07495
1068.34	3.81665
1071.23	8.21284
1074.12	6.46558
1077.02	4.60316
1079.91	11.3078
1082.8	9.60901
1085.69	10.6885
1088.59	19.1507
1091.48	18.9327
1094.37	20.9811
1097.26	17.9343
1100.16	19.5247
1103.05	16.8239
1105.94	18.7607
1108.84	13.6802
1111.73	13.4598
1114.62	8.03348
1117.51	8.13109
1120.41	5.86787
1123.3	2.32066
1126.19	3.55966
1129.08	3.31686
1131.98	2.06709
1134.87	0.428818
1137.76	2.45058
1140.65	2.51193
1143.55	0.039612
1146.44	1.44505
1149.33	4.50566
1152.23	4.69615
1155.12	7.75903
1158.01	9.55475
1160.9	4.34973
1163.8	7.82689
1166.69	8.39391
1169.58	6.66724
1172.47	5.08113
1175.37	4.07182
1178.26	3.77985
1181.15	4.17708
1184.05	4.47957
1186.94	5.9153
1189.83	8.13788
1192.72	4.15379
1195.62	2.68076
1198.51	6.40546
1201.4	4.02614
1204.29	1.33588
1207.19	0.638672
1210.08	5.94479
1212.97	4.62509
1215.87	2.27728
1218.76	0.459305
1221.65	2.12016
1224.54	0.101288
1227.44	2.49942
1230.33	1.91913
1233.22	5.91505
1236.11	2.00105
1239.01	3.77571
1241.9	5.94827
1244.79	2.20483
1247.68	7.38513
1250.58	5.26698
1253.47	3.35068
1256.36	3.70505
1259.26	0.905884
1262.15	5.09444
1265.04	7.70456
1267.93	3.75197
1270.83	2.04359
1273.72	4.5562
1276.61	1.6487
1279.5	3.05443
1282.4	3.83499
