Measurement: Raman, 532 nm, unoriented, Raman Data Processed
Mineral: Belendorffite
Rruff sample: R070346
Ideal chemistry: Cu_7_Hg_6_
Locality: Landsberg Mountain (Moschellandsberg Mountain), Obermoschel, Rhineland-Palatinate, Germany
Source: Michael Scott
Description: Fragment of a yellowish-brown hexagonal crystal, co-type specimen
Raman shift (cm-1)	intensity
143.394	0
146.769	40.3717
150.144	4.37787
153.519	38.9828
156.894	53.7353
160.268	69.3696
163.643	55.1573
167.018	42.4092
170.393	42.9284
173.768	68.7044
177.143	58.6938
180.517	74.1665
183.892	89.0431
187.267	94.7842
190.642	70.8865
194.017	79.8597
197.391	100.644
200.766	83.0112
204.141	76.9368
207.516	83.6008
210.891	92.8221
214.266	34.3656
217.64	44.4287
221.015	24.4831
224.39	37.4797
227.765	26.2778
231.14	3.53803
234.514	12.223
237.889	11.1472
241.264	1.46625
244.639	19.1525
248.014	16.9681
251.388	24.8433
254.763	12.9522
258.138	19.8337
261.513	25.5665
264.888	16.2292
268.263	4.30994
271.637	17.3379
275.012	9.47461
278.387	22.3797
281.762	33.2959
285.137	31.7024
288.512	26.8766
291.886	34.0085
295.261	33.6586
298.636	37.3099
302.011	4.79248
305.386	15.0477
308.76	20.0803
312.135	11.9569
315.51	11.2266
318.885	30.6242
322.26	13.8582
325.635	20.0045
329.009	15.9432
332.384	15.38
335.759	24.3026
339.134	40.6686
342.509	38.4781
345.883	37.8035
349.258	33.1702
352.633	10.2883
356.008	12.1498
359.383	21.7931
362.757	14.5981
366.132	40.4073
369.507	7.04535
372.882	25.1587
376.257	5.89825
379.632	2.44586
383.006	28.6946
386.381	24.247
389.756	25.7533
393.131	1.31824
396.506	15.1779
399.88	6.39362
403.255	28.6715
406.63	25.5199
410.005	27.5244
413.38	54.5365
416.755	56.5763
420.129	78.0761
423.504	80.5548
426.879	134.482
430.254	149.57
433.629	188.262
437.003	213.769
440.378	240.588
443.753	252.554
447.128	231.477
450.503	222.063
453.878	169.112
457.252	133.884
460.627	113.043
464.002	115.658
467.377	66.5602
470.752	80.2335
474.127	74.1491
477.501	38.685
480.876	38.0397
484.251	4.07373
487.626	19.1719
491.001	22.1576
494.375	36.9092
497.75	46.8473
501.125	9.55981
504.5	4.86121
507.875	0.489929
511.25	30.8727
514.624	6.6579
517.999	0.918213
521.374	9.2887
524.749	1.26257
528.124	15.2837
531.498	11.301
534.873	20.4847
538.248	6.9397
541.623	25.3668
544.998	29.9707
548.372	31.939
551.747	27.3725
555.122	4.4129
558.497	9.48181
561.872	17.0975
565.247	16.6843
568.621	9.12158
571.996	25.2169
575.371	11.4781
578.746	16.6735
582.121	1.97107
585.495	17.0064
588.87	15.5378
592.245	15.6274
595.62	24.4096
598.995	27.8187
602.37	0.385315
605.744	28.2105
609.119	30.6225
612.494	55.496
615.869	38.6932
619.244	46.7764
622.619	49.7981
625.993	31.3283
629.368	44.4762
632.743	45.6077
636.118	47.3583
639.493	39.3919
642.867	37.0883
646.242	23.0767
649.617	10.4691
652.992	36.4371
656.367	5.315
659.741	13.7282
663.116	15.6552
666.491	9.36224
669.866	0.215515
673.241	8.4527
676.616	33.6585
679.99	43.8143
683.365	26.0093
686.74	23.8976
690.115	29.9971
693.49	21.4913
696.865	10.8087
700.239	48.7993
703.614	20.4475
706.989	6.21698
710.364	21.8326
713.739	22.12
717.113	14.0787
720.488	25.8503
723.863	33.1221
727.238	23.2824
730.613	42.9333
733.987	10.4463
737.362	23.9974
740.737	32.1958
744.112	24.2499
747.487	37.3325
750.862	13.9279
754.236	4.78412
757.611	11.5241
760.986	28.4229
764.361	20.7072
767.736	13.7972
771.111	26.9182
774.485	26.1375
777.86	11.6348
781.235	14.9074
784.61	22.8887
787.985	10.457
791.359	6.84479
794.734	4.4093
798.109	10.5654
801.484	25.0487
804.859	23.8805
808.234	1.57367
811.608	49.4832
814.983	26.4415
818.358	18.1411
821.733	9.83295
825.108	6.15259
828.482	2.28888
831.857	18.275
835.232	29.0784
838.607	19.1163
841.982	25.0918
845.356	24.7362
848.731	0.555847
852.106	1.38489
855.481	17.0236
858.856	10.0503
862.231	20.0257
865.605	30.4414
868.98	13.9752
872.355	25.4801
875.73	10.4604
879.105	26.6075
882.48	14.0533
885.854	17.0594
889.229	16.7977
892.604	22.8483
895.979	21.481
899.354	4.77264
902.729	13.956
906.103	20.4808
909.478	14.8661
912.853	6.6142
916.228	0.004822
919.602	34.5006
922.977	19.1325
926.352	31.0922
929.727	25.8126
933.102	4.07001
936.477	31.4821
939.851	1.73523
943.226	0.288757
946.601	15.4527
949.976	12.8265
953.351	20.2932
956.726	10.4163
960.1	30.1188
963.475	4.61127
966.85	25.0924
970.225	27.1163
973.6	24.0938
976.974	6.21234
980.349	13.44
983.724	2.02405
987.099	20.0939
990.474	44.5047
993.848	27.2749
997.223	45.5806
1000.6	64.636
1003.97	55.2584
1007.35	23.4155
1010.72	22.4481
1014.1	19.5155
1017.47	26.0549
1020.85	31.7807
1024.22	16.9419
1027.6	32.7537
1030.97	35.396
1034.35	41.7551
1037.72	18.7941
1041.1	46.057
1044.47	36.0395
1047.85	20.5976
1051.22	27.7905
1054.6	13.8725
1057.97	23.1912
1061.35	25.0198
1064.72	42.6937
1068.09	21.6569
1071.47	33.6429
1074.84	47.5638
1078.22	30.2906
1081.59	60.2051
1084.97	58.886
1088.34	46.5433
1091.72	33.2042
1095.09	29.599
1098.47	25.8743
1101.84	33.0458
1105.22	2.69812
1108.59	2.24146
1111.97	30.6159
1115.34	12.7208
1118.72	41.9703
1122.09	6.3548
1125.47	25.1868
1128.84	26.849
1132.22	32.3649
1135.59	0.824219
1138.97	23.0849
1142.34	12.6528
1145.71	33.1562
1149.09	9.18066
1152.46	32.7704
1155.84	51.7498
1159.21	15.0339
1162.59	13.2054
1165.96	12.9369
1169.34	7.46777
1172.71	26.8525
1176.09	23.9428
1179.46	15.8586
1182.84	23.4625
1186.21	34.9554
1189.59	35.9457
1192.96	15.8951
1196.34	6.62451
1199.71	30.1581
1203.09	19.3765
1206.46	27.8005
1209.84	32.676
1213.21	4.46332
1216.59	60.6153
1219.96	8.28247
1223.34	4.59363
1226.71	20.1109
1230.09	26.8342
1233.46	19.1119
1236.84	12.1805
1240.21	33.3737
1243.59	44.9116
1246.96	30.7794
1250.34	26.8538
1253.71	48.738
1257.08	19.7941
1260.46	35.0927
1263.83	44.8799
1267.21	8.10443
1270.58	30.2808
1273.96	5.7254
1277.33	18.8399
1280.71	3.77649
1284.08	12.1122
1287.46	27.9492
1290.83	13.0008
1294.21	22.8674
1297.58	48.5519
1300.96	55.7698
1304.33	32.3752
1307.71	22.2958
1311.08	1.45325
1314.46	4.82208
