Measurement: Raman, 785 nm, unoriented, Raman Data Processed
Mineral: Belendorffite
Rruff sample: R070346
Ideal chemistry: Cu_7_Hg_6_
Locality: Landsberg Mountain (Moschellandsberg Mountain), Obermoschel, Rhineland-Palatinate, Germany
Source: Michael Scott
Description: Fragment of a yellowish-brown hexagonal crystal, co-type specimen
Raman shift (cm-1)	intensity
156.214	0
159.107	-2.25272
161.999	4.6669
164.892	12.3898
167.785	10.3621
170.677	8.12238
173.57	3.27606
176.463	14.9824
179.356	6.87024
182.248	0.824097
185.141	4.14691
188.034	29.9304
190.926	32.3575
193.819	42.7913
196.712	34.9723
199.604	29.0661
202.497	34.6563
205.39	44.5494
208.282	21.7467
211.175	2.44495
214.068	20.6946
216.961	24.8084
219.853	0.353333
222.746	25.5349
225.639	23.332
228.531	27.8171
231.424	24.8276
234.317	14.6364
237.209	38.3099
240.102	15.9756
242.995	30.0005
245.888	18.5389
248.78	40.7377
251.673	37.4789
254.566	28.8923
257.458	36.6879
260.351	24.3955
263.244	38.9747
266.137	50.2358
269.029	24.3842
271.922	28.1648
274.815	34.1295
277.707	14.5969
280.6	34.4328
283.493	25.7511
286.385	5.88403
289.278	6.71692
292.171	37.8436
295.063	21.3799
297.956	18.2694
300.849	10.0317
303.742	8.67151
306.634	7.36969
309.527	25.5047
312.42	22.5112
315.312	16.2958
318.205	18.3389
321.098	8.87988
323.99	17.0592
326.883	25.5636
329.776	7.1474
332.669	29.5003
335.561	31.0852
338.454	25.0463
341.347	18.1361
344.239	10.1943
347.132	22.9899
350.025	28.2571
352.918	43.4208
355.81	14.752
358.703	19.503
361.596	3.71405
364.488	2.68579
367.381	10.5222
370.274	5.46033
373.166	27.3822
376.059	13.9959
378.952	7.54504
381.844	15.976
384.737	25.5821
387.63	4.07867
390.523	27.4335
393.415	2.70044
396.308	9.57501
399.201	30.6963
402.093	18.7127
404.986	19.3769
407.879	10.2606
410.772	14.8325
413.664	24.774
416.557	32.5495
419.45	42.0429
422.342	21.8007
425.235	26.6342
428.128	43.6209
431.02	32.1685
433.913	14.6657
436.806	56.8171
439.699	54.9091
442.591	59.8643
445.484	57.825
448.377	58.4075
451.269	51.504
454.162	54.8856
457.055	53.9559
459.947	71.6587
462.84	54.4583
465.733	41.9697
468.625	34.2338
471.518	36.3565
474.411	24.1577
477.304	33.934
480.196	14.7561
483.089	18.6115
485.982	20.0605
488.874	28.8231
491.767	15.4878
494.66	14.1065
497.553	15.2036
500.445	18.0497
503.338	16.5353
506.231	14.6741
509.123	23.2541
512.016	21.8317
514.909	28.4595
517.802	12.3763
520.694	19.2732
523.587	3.97858
526.48	14.0659
529.372	19.6887
532.265	12.7112
535.158	16.2707
538.05	18.4812
540.943	21.0707
543.836	17.6275
546.729	13.5206
549.621	18.1842
552.514	35.6226
555.407	31.1781
558.299	14.3594
561.192	3.31488
564.085	25.1493
566.977	36.1326
569.87	43.4052
572.763	7.49359
575.655	15.6323
578.548	12.2033
581.441	31.3524
584.333	37.598
587.226	15.7947
590.119	40.9257
593.012	22.4844
595.904	15.1724
598.797	15.7023
601.69	26.8818
604.582	25.1986
607.475	28.0695
610.368	14.1195
613.26	9.76276
616.153	16.7081
619.046	9.40301
621.939	10.0308
624.831	39.6696
627.724	11.2311
630.617	10.0003
633.509	5.65588
636.402	24.6232
639.295	13.4299
642.188	9.78516
645.08	22.8976
647.973	9.93317
650.866	22.2639
653.758	17.4646
656.651	14.8513
659.544	18.4006
662.436	5.03998
665.329	18.7306
668.222	12.1852
671.115	18.4631
674.007	19.777
676.9	23.3718
679.793	13.7662
682.685	20.661
685.578	24.1921
688.471	10.8208
691.363	10.0924
694.256	2.8161
697.149	21.0192
700.042	12.4446
702.934	20.9474
705.827	41.3819
708.72	41.6959
711.612	24.5803
714.505	18.1805
717.398	21.6139
720.29	8.14764
723.183	25.3732
726.076	18.2931
728.968	5.10596
731.861	31.6827
734.754	8.7594
737.647	32.275
740.539	2.86774
743.432	35.3773
746.325	9.12103
749.217	25.3576
752.11	18.7191
755.003	21.7744
757.895	31.2132
760.788	16.4442
763.681	16.1477
766.574	12.0406
769.466	42.9625
772.359	4.43091
775.252	35.4382
778.144	26.993
781.037	20.9141
783.93	9.15118
786.822	29.0015
789.715	24.1606
792.608	14.4307
795.501	36.2974
798.393	31.0595
801.286	9.49207
804.179	31.9983
807.071	24.8492
809.964	8.9635
812.857	9.53766
815.75	21.0085
818.642	25.4167
821.535	24.5692
824.428	20.3571
827.32	20.4891
830.213	34.1322
833.106	41.8392
835.998	29.7706
838.891	30.5836
841.784	31.3229
844.677	18.6711
847.569	15.1421
850.462	35.6476
853.355	26.92
856.247	0.791077
859.14	30.9681
862.033	47.4009
864.925	29.9756
867.818	22.0905
870.711	12.342
873.604	21.171
876.496	6.71161
879.389	4.98975
882.282	10.9659
885.174	17.691
888.067	23.0134
890.96	21.8333
893.852	15.4074
896.745	28.2499
899.638	47.3156
902.53	18.0989
905.423	38.7064
908.316	32.7445
911.209	24.9644
914.101	14.0836
916.994	29.6988
919.887	44.8484
922.779	6.01605
925.672	30.1205
928.565	21.657
931.457	30.0162
934.35	6.61835
937.243	7.52399
940.136	31.2307
943.028	23.6689
945.921	8.487
948.814	36.1019
951.706	8.04596
954.599	48.9857
957.492	21.5969
960.385	3.83594
963.277	1.99829
966.17	31.1553
969.063	28.4002
971.955	6.25024
974.848	46.4238
977.741	33.701
980.633	23.262
983.526	26.8431
986.419	17.5429
989.312	11.0845
992.204	25.3834
995.097	22.2747
997.99	27.9706
1000.88	28.0035
1003.77	12.5271
1006.67	41.6171
1009.56	29.9757
1012.45	19.1906
1015.35	9.82324
1018.24	3.4032
1021.13	18.5071
1024.02	43.8776
1026.92	17.5781
1029.81	27.0783
1032.7	19.0814
1035.6	43.9952
1038.49	11.7289
1041.38	3.47705
1044.27	49.9241
1047.17	9.23199
1050.06	10.5239
1052.95	11.7954
1055.84	11.9808
1058.74	21.3032
1061.63	27.3297
1064.52	17.6894
1067.41	32.9371
1070.31	5.76733
1073.2	15.7792
1076.09	25.8884
1078.98	9.53516
1081.88	36.0635
1084.77	25.8522
1087.66	14.6691
1090.56	23.9233
1093.45	5.46918
1096.34	21.1641
1099.23	20.4366
1102.13	23.0884
1105.02	29.3583
1107.91	12.4767
1110.81	10.2672
1113.7	12.6181
1116.59	23.0545
1119.48	54.5496
1122.38	41.3083
1125.27	35.9691
1128.16	19.245
1131.05	24.7689
1133.95	19.1685
1136.84	22.0601
1139.73	19.5823
1142.62	5.09229
1145.52	21.3724
1148.41	19.8092
1151.3	14.0494
1154.19	31.0465
1157.09	21.788
1159.98	33.2128
1162.87	11.3898
1165.77	2.64447
1168.66	10.1287
1171.55	51.5957
1174.44	15.1639
1177.34	30.4598
1180.23	17.9371
1183.12	22.9496
1186.02	19.5011
1188.91	40.046
1191.8	5.15362
1194.69	18.8944
1197.59	34.1258
1200.48	14.811
1203.37	18.0644
1206.26	24.0418
1209.16	9.00299
1212.05	9.47223
1214.94	15.613
1217.84	6.17377
1220.73	7.10168
1223.62	30.4256
1226.51	30.0456
1229.41	27.6929
1232.3	11.8002
1235.19	15.118
1238.08	22.618
1240.98	8.086
