Measurement: Raman, 532 nm, unoriented, Raman Data Processed
Mineral: Bellbergite
Rruff sample: R100201
Ideal chemistry: (K,Ba,Sr)_2_Sr_2_Ca_2_(Ca,Na)_4_(Si,Al)_36_O_72_30H_2_O
Locality: Caspar quarry, Bellerberg volcano, Ettringen, Mayen, Eifel Mts, Rhineland-Palatinate, Germany
Source: JÃ¼rgen Wachsmuth, Ulm, Germany
Description: Transparent colorless hexagonal dipyramidal crystals
Raman shift (cm-1)	intensity
170.102	0
172.995	6.31952
175.888	4.99203
178.78	8.45023
181.673	0.267242
184.566	2.78604
187.459	10.4712
190.351	16.4939
193.244	11.786
196.137	19.7172
199.029	17.9397
201.922	15.454
204.815	18.8695
207.708	16.6001
210.6	14.7194
213.493	7.17395
216.386	13.2589
219.278	12.4264
222.171	9.54111
225.064	11.8775
227.956	5.98911
230.849	11.6768
233.742	3.40213
236.635	3.13934
239.527	1.82135
242.42	4.15637
245.313	5.35834
248.205	3.35086
251.098	8.90732
253.991	3.14413
256.884	5.66513
259.776	6.72321
262.669	11.4031
265.562	9.81506
268.454	22.6802
271.347	16.0352
274.24	16.8041
277.132	11.0965
280.025	18.9229
282.918	14.5463
285.81	16.425
288.703	9.52072
291.596	3.60864
294.489	2.66815
297.381	10.1326
300.274	2.14871
303.167	4.20764
306.059	0.650696
308.952	1.50964
311.845	7.14645
314.738	9.27005
317.63	7.91068
320.523	7.11697
323.416	9.6886
326.308	4.86688
329.201	5.13342
332.094	9.87286
334.986	9.427
337.879	2.91626
340.772	13.187
343.665	8.24258
346.557	10.0306
349.45	1.25263
352.343	4.39447
355.235	7.08652
358.128	1.86258
361.021	5.73514
363.913	1.16116
366.806	6.34244
369.699	5.65601
372.592	0.822266
375.484	4.94537
378.377	5.60339
381.27	1.89917
384.162	7.16669
387.055	0.786316
389.948	5.75879
392.841	8.6384
395.733	0.154694
398.626	6.08487
401.519	9.58142
404.411	6.98889
407.304	0.711823
410.197	5.35248
413.089	2.3436
415.982	0.744049
418.875	0.369507
421.767	1.43539
424.66	2.02463
427.553	0.639923
430.446	0.857086
433.338	8.31033
436.231	6.60992
439.124	14.2305
442.017	20.2045
444.909	24.9467
447.802	35.5971
450.695	38.6513
453.587	48.2913
456.48	58.1224
459.373	67.7427
462.265	73.6362
465.158	86.9551
468.051	89.9941
470.943	96.5561
473.836	108.546
476.729	108.711
479.622	112.734
482.514	109.103
485.407	108.07
488.3	101.222
491.192	79.0043
494.085	61.7945
496.978	43.3777
499.87	33.8343
502.763	27.6443
505.656	22.1258
508.549	14.9281
511.441	10.7951
514.334	3.15271
517.227	0.543732
520.119	1.30362
523.012	4.87936
525.905	8.15527
528.798	2.83371
531.69	2.87399
534.583	4.46762
537.476	0.141693
540.368	7.53522
543.261	4.25714
546.154	5.65176
549.047	8.19556
551.939	5.15222
554.832	3.20105
557.725	6.20468
560.617	3.39462
563.51	5.14926
566.403	2.70071
569.295	1.53079
572.188	6.44604
575.081	0.18161
577.973	2.81183
580.866	5.92865
583.759	2.19428
586.652	1.89883
589.544	1.22171
592.437	6.3797
595.33	5.30231
598.222	0.018982
601.115	0.134186
604.008	3.23593
606.901	1.88452
609.793	0.269928
612.686	7.05197
615.579	5.89322
618.471	0.462372
621.364	11.0116
624.257	0.484528
627.149	7.45798
630.042	2.00162
632.935	10.76
635.828	3.92285
638.72	7.98685
641.613	11.696
644.506	5.2197
647.398	3.53442
650.291	2.61005
653.184	6.24362
656.077	6.84854
658.969	4.97809
661.862	7.20532
664.755	7.15515
667.647	5.35382
670.54	6.685
673.433	6.83569
676.325	5.9577
679.218	5.46649
682.111	5.09103
685.004	0.876251
687.896	3.41998
690.789	2.55631
693.682	1.54288
696.574	0.772614
699.467	2.60739
702.36	0.254547
705.253	2.32495
708.145	4.01193
711.038	1.56103
713.931	1.39145
716.823	4.32996
719.716	1.97076
722.609	1.00989
725.501	2.73523
728.394	1.56744
731.287	7.71002
734.179	5.0762
737.072	5.12231
739.965	8.87173
742.858	2.21085
745.75	5.4104
748.643	4.21314
751.536	6.19403
754.428	5.34317
757.321	11.2833
760.214	11.2935
763.107	12.6291
765.999	12.4488
768.892	9.81293
771.785	12.0143
774.677	8.60147
777.57	11.3569
780.463	5.1471
783.356	7.3129
786.248	12.0606
789.141	5.81561
792.034	2.23486
794.926	9.32727
797.819	0.383575
800.712	10.7662
803.604	5.17096
806.497	0.3526
809.39	8.84326
812.283	2.47153
815.175	6.59235
818.068	6.29947
820.961	3.46863
823.853	6.96356
826.746	5.70203
829.639	2.33997
832.531	6.60956
835.424	6.56659
838.317	3.21176
841.21	2.76382
844.102	3.37888
846.995	8.80905
849.888	0.028748
852.78	6.65799
855.673	1.74323
858.566	0.52533
861.458	6.91483
864.351	1.9924
867.244	4.96555
870.136	2.29468
873.029	4.82047
875.922	11.1346
878.815	6.1636
881.707	8.57596
884.6	4.32977
887.493	4.05585
890.385	6.03882
893.278	0.687286
896.171	2.47653
899.064	0.213348
901.956	5.93863
904.849	1.40295
907.742	2.6416
910.634	6.53485
913.527	0.198364
916.42	2.46301
919.312	0.751251
922.205	1.99808
925.098	2.55072
927.991	0.375397
930.883	2.85733
933.776	4.31735
936.669	3.78198
939.562	0.073761
942.454	3.15362
945.347	5.40613
948.24	1.13922
951.132	8.54953
954.025	8.36527
956.918	14.5102
959.81	14.1058
962.703	14.5241
965.596	23.0425
968.489	20.2598
971.381	20.9204
974.274	22.1806
977.167	25.2256
980.059	22.6956
982.952	25.4266
985.845	24.1692
988.737	23.8655
991.63	17.8563
994.523	18.6402
997.415	15.3809
1000.31	16.5167
1003.2	5.90894
1006.09	6.09317
1008.99	3.91305
1011.88	6.01608
1014.77	10.0747
1017.66	5.41504
1020.56	7.99735
1023.45	0.299713
1026.34	0.334351
1029.23	5.87009
1032.13	4.97806
1035.02	2.08707
1037.91	9.12506
1040.81	13.5096
1043.7	11.7247
1046.59	8.91904
1049.48	5.87396
1052.38	4.85019
1055.27	0.862823
1058.16	6.74597
1061.06	0.203735
1063.95	6.93039
1066.84	3.63254
1069.73	4.72946
1072.63	3.84747
1075.52	3.56863
1078.41	0.883606
1081.3	0.69577
1084.2	9.57773
1087.09	2.21234
1089.98	4.29889
1092.88	2.78296
1095.77	0.227112
1098.66	2.39966
1101.55	1.55142
1104.45	3.20526
1107.34	3.61826
1110.23	3.60443
1113.12	4.31546
1116.02	5.41519
1118.91	3.07001
1121.8	4.84079
1124.69	2.06293
1127.59	5.02844
1130.48	6.13086
1133.37	3.57696
1136.27	3.28235
1139.16	2.86893
1142.05	5.33441
1144.94	3.00372
1147.84	6.23892
1150.73	1.50073
1153.62	2.0068
1156.51	1.53458
1159.41	3.57092
1162.3	6.61267
1165.19	6.42636
1168.09	5.30383
1170.98	6.90042
1173.87	5.5592
1176.76	0.188324
1179.66	3.72836
1182.55	8.74533
1185.44	10.1802
1188.33	5.42746
1191.23	4.40857
1194.12	9.72446
1197.01	8.42075
1199.9	7.65326
1202.8	7.05279
1205.69	7.92722
1208.58	1.1062
1211.48	7.0047
1214.37	5.90494
1217.26	7.68378
1220.15	1.02396
1223.05	6.36072
1225.94	9.28781
1228.83	5.37845
1231.72	5.14703
1234.62	9.34253
1237.51	2.77106
1240.4	5.26495
1243.3	3.43689
1246.19	5.11859
1249.08	2.21722
1251.97	6.09879
1254.87	7.47333
1257.76	11.3078
1260.65	7.66818
1263.54	7.68112
1266.44	3.54627
1269.33	4.38733
1272.22	5.39362
1275.12	4.22864
1278.01	7.51965
1280.9	6.5144
1283.79	2.73932
1286.69	7.94104
1289.58	1.82819
1292.47	2.82153
1295.36	4.5918
1298.26	2.37351
1301.15	2.66577
