Measurement: Raman, 780 nm, unoriented, Raman Data Processed
Mineral: Bellbergite
Rruff sample: R100201
Ideal chemistry: (K,Ba,Sr)_2_Sr_2_Ca_2_(Ca,Na)_4_(Si,Al)_36_O_72_30H_2_O
Locality: Caspar quarry, Bellerberg volcano, Ettringen, Mayen, Eifel Mts, Rhineland-Palatinate, Germany
Source: JÃ¼rgen Wachsmuth, Ulm, Germany
Description: Transparent colorless hexagonal dipyramidal crystals
Raman shift (cm-1)	intensity
180.279	0
183.172	1.43577
186.065	2.41149
188.957	0.102905
191.85	0.853111
194.743	1.26017
197.635	3.5369
200.528	3.5142
203.421	1.4514
206.313	1.63496
209.206	1.91671
212.099	1.83062
214.992	1.86514
217.884	1.74993
220.777	1.47593
223.67	1.21501
226.562	1.60254
229.455	1.44505
232.348	0.948013
235.24	0.518684
238.133	0.719425
241.026	0.65793
243.918	0.88434
246.811	1.84999
249.704	1.50413
252.597	2.37793
255.489	2.98314
258.382	2.78795
261.275	3.26815
264.167	3.30937
267.06	4.69095
269.953	4.83219
272.846	4.42737
275.738	4.97561
278.631	2.28708
281.524	3.32305
284.416	3.06524
287.309	3.24413
290.202	1.20469
293.094	0.076855
295.987	0.31097
298.88	0.249527
301.772	1.02564
304.665	1.50625
307.558	2.43361
310.45	0.826313
313.343	1.80428
316.236	1.69295
319.129	2.93216
322.021	2.95506
324.914	1.73602
327.807	3.4426
330.699	1.75084
333.592	2.02588
336.485	1.2984
339.377	2.26546
342.27	2.43712
345.163	0.938728
348.056	0.001001
350.948	1.31934
353.841	0.524185
356.734	0.747257
359.626	2.48317
362.519	0.552771
365.412	0.52763
368.305	0.182882
371.197	0.271927
374.09	0.243242
376.983	1.06552
379.875	0.430861
382.768	0.750235
385.661	1.38723
388.553	1.5255
391.446	0.781488
394.339	1.14257
397.231	0.720814
400.124	1.46415
403.017	2.25698
405.909	0.798738
408.802	1.99287
411.695	1.07974
414.588	1.11076
417.48	0.662155
420.373	0.684135
423.266	0.595589
426.158	0.441975
429.051	0.577427
431.944	2.21024
434.837	1.52256
437.729	2.84552
440.622	5.83892
443.515	6.87835
446.407	10.504
449.3	9.87072
452.193	12.3098
455.085	14.7098
457.978	15.5917
460.871	17.2564
463.764	20.3367
466.656	19.8947
469.549	22.5751
472.442	23.4189
475.334	23.7653
478.227	22.6372
481.12	21.7908
484.012	20.7094
486.905	18.542
489.798	14.7254
492.69	11.8245
495.583	7.77598
498.476	6.00806
501.369	4.57085
504.261	3.85293
507.154	3.62505
510.047	2.16217
512.939	0.977617
515.832	0.05624
518.725	0.773008
521.617	1.07593
524.51	2.12991
527.403	1.05913
530.296	0.952387
533.188	1.39511
536.081	0.282837
538.974	2.19887
541.866	0.853922
544.759	1.36733
547.652	2.32774
550.544	1.63146
553.437	0.19034
556.33	1.52296
559.222	1.30337
562.115	1.30548
565.008	0.909047
567.901	0.461542
570.793	2.41471
573.686	0.48953
576.579	0.968451
579.471	1.29232
582.364	0.419309
585.257	0.852453
588.149	0.419876
591.042	1.03553
593.935	1.46467
596.828	0.40171
599.72	0.062461
602.613	1.40584
605.506	1.11213
608.398	0.711769
611.291	1.72958
614.184	1.90342
617.077	0.547285
619.969	1.49448
622.862	1.10055
625.755	1.26505
628.647	1.10376
631.54	1.92452
634.433	2.17763
637.325	2.41268
640.218	2.47817
643.111	2.59597
646.004	2.76609
648.896	2.63598
651.789	2.41494
654.682	0.770793
657.574	1.58364
660.467	2.85708
663.36	1.142
666.252	1.17382
669.145	1.60464
672.038	1.28368
674.931	1.88164
677.823	1.73957
680.716	1.6501
683.609	0.912951
686.501	0.902341
689.394	0.679924
692.287	1.09244
695.179	1.18577
698.072	1.54587
700.965	0.013771
703.857	1.6435
706.75	0.720257
709.643	0.934966
712.535	1.15027
715.428	0.948864
718.321	0.974512
721.214	1.18339
724.106	0.709826
726.999	2.47205
729.892	2.08765
732.784	1.16089
735.677	2.20858
738.57	0.048816
741.462	1.53396
744.355	1.76078
747.248	1.40902
750.141	0.809177
753.033	3.08048
755.926	2.72663
758.819	2.4928
761.711	2.68154
764.604	1.8892
767.497	2.94469
770.389	1.21588
773.282	2.09874
776.175	2.19699
779.068	0.897059
781.96	2.20365
784.853	0.576535
787.746	0.279048
790.638	2.55442
793.531	0.019444
796.424	2.03481
799.317	0.956944
802.209	0.815661
805.102	1.6638
807.995	2.58054
810.887	1.531
813.78	1.15325
816.673	0.513647
819.565	0.155687
822.458	0.347206
825.351	0.752951
828.244	0.241996
831.136	0.357127
834.029	0.40245
836.922	2.01216
839.814	2.38988
842.707	0.402729
845.6	0.013637
848.492	0.76075
851.385	1.01616
854.278	2.44127
857.17	0.60796
860.063	2.26512
862.956	1.31645
865.849	0.025908
868.741	2.22696
871.634	0.478426
874.527	1.54642
877.419	1.43999
880.312	1.59687
883.205	1.20212
886.097	1.03683
888.99	1.143
891.883	0.042415
894.775	1.26561
897.668	0.081076
900.561	0.868196
903.454	1.9544
906.346	0.235001
909.239	0.778838
912.132	0.389565
915.024	1.03323
917.917	0.1414
920.81	3.00197
923.702	0.95315
926.595	0.694081
929.488	2.04854
932.381	0.376553
935.273	1.5578
938.166	0.103638
941.059	1.60143
943.951	1.3092
946.844	1.8774
949.737	2.16983
952.63	3.58605
955.522	3.4765
958.415	3.97913
961.308	3.4074
964.2	4.49163
967.093	5.97605
969.986	7.21085
972.878	6.85564
975.771	5.09915
978.664	5.00599
981.557	3.58496
984.449	4.15276
987.342	4.25134
990.235	4.71402
993.127	2.38003
996.02	2.66682
998.913	2.28501
1001.8	1.78086
1004.7	3.02818
1007.59	2.08997
1010.48	2.05539
1013.38	0.216096
1016.27	0.187957
1019.16	1.04707
1022.05	1.63144
1024.95	0.641796
1027.84	1.69231
1030.73	1.45166
1033.62	2.41152
1036.52	1.28354
1039.41	1.61512
1042.3	2.3146
1045.2	0.897232
1048.09	2.33048
1050.98	1.23538
1053.87	0.806527
1056.77	2.71852
1059.66	0.313096
1062.55	1.58579
1065.44	0.231141
1068.34	1.25492
1071.23	0.843714
1074.12	0.229827
1077.02	0.326865
1079.91	1.68663
1082.8	0.751169
1085.69	2.26633
1088.59	1.4082
1091.48	0.138466
1094.37	0.518377
1097.26	1.01867
1100.16	1.36822
1103.05	1.80964
1105.94	1.13821
1108.84	1.89687
1111.73	0.389882
1114.62	1.54725
1117.51	1.6027
1120.41	1.70164
1123.3	1.79969
1126.19	1.42535
1129.08	1.79726
1131.98	1.06868
1134.87	2.57818
1137.76	0.667288
1140.65	1.17923
1143.55	0.44011
1146.44	2.27929
1149.33	1.68738
1152.23	1.17179
1155.12	0.761229
1158.01	1.05173
1160.9	2.6339
1163.8	2.01393
1166.69	2.47499
1169.58	0.373969
1172.47	1.86043
1175.37	1.6727
1178.26	1.17445
1181.15	1.2511
1184.05	1.34334
1186.94	2.91607
1189.83	1.54224
1192.72	0.268602
1195.62	1.47293
1198.51	1.75293
1201.4	1.38795
1204.29	0.609668
1207.19	1.10601
1210.08	0.912107
1212.97	1.98154
1215.87	1.29499
1218.76	1.94263
1221.65	1.7826
1224.54	2.55866
1227.44	2.23345
1230.33	0.2018
1233.22	1.1197
1236.11	1.95412
1239.01	0.629296
1241.9	2.81432
1244.79	1.06145
1247.68	1.58733
1250.58	1.87218
1253.47	1.21002
1256.36	2.22253
1259.26	1.63639
1262.15	1.60247
1265.04	2.24902
1267.93	2.63419
1270.83	1.25641
1273.72	0.811442
1276.61	3.47733
1279.5	0.254535
1282.4	0.657027
