Measurement: Raman, 532 nm, unoriented, Raman Data Processed
Mineral: Bendadaite
Rruff sample: R080112
Ideal chemistry: Fe^2+^Fe^3+^_2_(As^5+^O_4_)_2_(OH)_2_4H_2_O
Locality: Almerindo mine, Lin√≥polis district, Divino das Laranjeiras, Minas Gerais, Brazil
Source: Luiz Menezes
Description: Clusters of colorless to yellow acicular crystals
Raman shift (cm-1)	intensity
125.138	0
128.512	2.71651
131.887	0.715927
135.262	8.18516
138.637	40.3484
142.012	28.8158
145.386	25.9994
148.761	11.0819
152.136	18.9876
155.511	15.5355
158.886	10.4422
162.26	10.054
165.635	16.9753
169.01	11.7478
172.385	12.9731
175.76	14.0352
179.135	20.1846
182.509	16.2225
185.884	12.9162
189.259	10.3822
192.634	0.880432
196.009	5.34648
199.383	4.06314
202.758	0.492157
206.133	4.18866
209.508	7.25771
212.883	22.088
216.257	32.014
219.632	49.2801
223.007	54.8551
226.382	50.6397
229.757	59.2476
233.132	54.5131
236.506	60.318
239.881	46.9376
243.256	43.401
246.631	28.2357
250.006	24.2174
253.381	26.2349
256.755	18.378
260.13	22.2863
263.505	25.9082
266.88	33.3501
270.255	28.6327
273.629	32.0108
277.004	24.2424
280.379	25.5479
283.754	19.812
287.129	14.7165
290.503	2.05261
293.878	20.3647
297.253	7.08327
300.628	9.57983
304.003	7.93382
307.378	9.71793
310.752	4.11549
314.127	13.9286
317.502	12.5574
320.877	3.32306
324.252	5.53294
327.627	6.77501
331.001	2.24881
334.376	3.95557
337.751	2.27989
341.126	2.74737
344.5	2.29402
347.875	5.78661
351.25	6.91058
354.625	8.45227
358	4.11247
361.375	5.34166
364.75	3.84894
368.124	6.51439
371.499	3.931
374.874	6.90019
378.249	3.4129
381.623	8.65955
384.998	11.5503
388.373	9.2456
391.748	19.3903
395.123	20.8401
398.498	15.7589
401.872	16.7413
405.247	20.2735
408.622	18.3422
411.997	17.0035
415.372	14.5681
418.747	13.8281
422.121	7.33656
425.496	14.2699
428.871	9.51471
432.246	3.25275
435.621	11.4073
438.995	9.39357
442.37	14.644
445.745	11.5073
449.12	3.58505
452.495	5.05388
455.87	4.53928
459.244	6.69041
462.619	2.48584
465.994	0.961365
469.369	5.75655
472.744	12.4148
476.118	5.48749
479.493	16.4543
482.868	17.4799
486.243	16.7001
489.618	26.9401
492.993	30.2786
496.367	28.7732
499.742	27.9938
503.117	22.934
506.492	22.5938
509.867	11.7798
513.241	12.9697
516.616	12.899
519.991	11.8238
523.366	2.48808
526.741	6.88211
530.115	5.77496
533.49	9.63309
536.865	2.63255
540.24	9.80594
543.615	10.7303
546.99	8.15752
550.364	7.13052
553.739	4.74406
557.114	10.4989
560.489	7.99718
563.864	5.94007
567.239	12.1949
570.613	5.84403
573.988	2.65973
577.363	3.22319
580.738	2.93488
584.112	4.58329
587.487	0.3358
590.862	7.71144
594.237	6.79586
597.612	7.32545
600.987	2.11523
604.361	7.66441
607.736	4.78719
611.111	8.00977
614.486	5.60675
617.861	7.70503
621.236	3.53229
624.61	10.5864
627.985	14.6745
631.36	10.1391
634.735	10.6267
638.11	7.91289
641.484	14.6351
644.859	10.4843
648.234	4.10019
651.609	6.34325
654.984	9.27598
658.359	5.37946
661.733	4.35698
665.108	9.94952
668.483	8.57429
671.858	9.19252
675.233	6.52246
678.607	10.3652
681.982	14.7331
685.357	8.02707
688.732	3.9473
692.107	11.6563
695.481	8.65553
698.856	8.12708
702.231	2.06763
705.606	5.42976
708.981	2.05123
712.356	3.71561
715.73	11.3001
719.105	2.35188
722.48	9.70132
725.855	3.8416
729.23	6.88237
732.605	1.82741
735.979	3.2532
739.354	9.56329
742.729	2.54997
746.104	0.371445
749.479	1.91563
752.853	1.52571
756.228	6.90282
759.603	2.00751
762.978	15.2473
766.353	8.75786
769.727	11.7714
773.102	13.8683
776.477	9.3932
779.852	13.6159
783.227	18.1464
786.602	15.6546
789.976	14.78
793.351	12.5765
796.726	21.3607
800.101	27.8225
803.476	34.7983
806.851	47.5564
810.225	36.5405
813.6	28.5329
816.975	19.5697
820.35	14.6408
823.725	14.7933
827.099	21.3739
830.474	26.3578
833.849	32.9883
837.224	41.9866
840.599	40.0403
843.973	51.671
847.348	32.0442
850.723	22.1182
854.098	18.1317
857.473	10.3
860.847	4.01172
864.222	4.09908
867.597	6.52174
870.972	3.95529
874.347	2.64851
877.722	2.00326
881.096	7.50281
884.471	10.629
887.846	11.4784
891.221	18.0205
894.596	11.0473
897.971	17.943
901.345	4.97729
904.72	6.90082
908.095	1.20335
911.47	1.68773
914.845	2.34628
918.219	0.494949
921.594	1.84772
924.969	0.915482
928.344	5.03096
931.719	0.08403
935.093	1.07132
938.468	1.04196
941.843	5.06917
945.218	1.94013
948.593	1.35806
951.968	9.80905
955.342	5.48002
958.717	10.4776
962.092	2.60347
965.467	9.89976
968.842	2.36331
972.216	5.34024
975.591	0.226402
978.966	9.18493
982.341	6.54833
985.716	12.2898
989.091	7.76993
992.465	2.93861
995.84	7.35074
999.215	13.5702
1002.59	9.11684
1005.97	8.99896
1009.34	3.50724
1012.71	5.3214
1016.09	0.194244
1019.46	11.9479
1022.84	3.82806
1026.21	15.3168
1029.59	15.158
1032.96	13.5686
1036.34	9.76406
1039.71	8.8315
1043.09	5.96557
1046.46	10.8878
1049.84	8.2282
1053.21	4.98049
1056.59	1.05956
1059.96	4.80574
1063.34	6.11929
1066.71	2.38284
1070.09	0.232132
1073.46	0.95771
1076.84	3.7433
1080.21	3.44064
1083.59	7.48328
1086.96	6.69801
1090.34	4.26225
1093.71	6.49178
1097.09	8.55484
1100.46	19.305
1103.83	9.01839
1107.21	12.2397
1110.58	9.54299
1113.96	6.85436
1117.33	3.46405
1120.71	7.519
1124.08	10.5737
1127.46	0.618805
1130.83	1.40177
1134.21	11.0306
1137.58	8.86111
1140.96	1.46027
1144.33	12.8312
1147.71	0.231934
1151.08	8.85217
1154.46	3.18996
1157.83	13.8184
1161.21	5.71223
1164.58	3.64401
1167.96	5.60555
1171.33	2.79562
1174.71	6.31987
1178.08	6.36986
1181.45	12.0605
1184.83	7.9137
1188.2	6.59866
1191.58	4.57987
1194.95	6.25364
1198.33	7.3741
1201.7	0.556534
1205.08	11.9889
1208.45	2.66393
1211.83	7.22098
1215.2	9.27309
1218.58	5.19376
1221.95	12.1932
1225.33	1.13629
1228.7	8.45215
1232.08	6.37167
1235.45	3.48624
1238.83	2.40828
1242.2	11.3299
1245.58	4.01181
1248.95	12.9387
1252.33	4.23401
1255.7	3.21779
1259.08	12.4453
1262.45	6.09761
1265.83	8.68739
1269.2	1.98764
1272.58	10.8344
1275.95	3.95587
1279.33	13.7701
1282.7	5.32179
1286.07	7.06332
1289.45	4.45543
1292.82	4.50269
1296.2	0.802521
1299.57	6.04005
1302.95	9.47153
