Measurement: Raman, 532 nm, unoriented, Raman Data Processed
Mineral: Beraunite
Rruff sample: R060464
Ideal chemistry: Fe^2+^Fe^3+^_5_(PO_4_)_4_(OH)_5_6H_2_O
Locality: York mine, Polk County, Arkansas, USA
Source: Michael Scott
Description: Brownish-red fractured-looking aggregate associated with balls of kidwellite
Measured chemistry: (Fe^2+^_0.85_Mn^2+^_0.15_)_Σ=1_Fe^3+^_5.00_(P_1.00_O_4_)_4_(OH)_5_·5.50H_2_O; H_2_O by difference; (OH) by charge balance
Raman shift (cm-1)	intensity
165.281	0
168.174	6.10762
171.067	20.2756
173.959	29.3577
176.852	42.8734
179.745	39.767
182.637	46.6594
185.53	51.7809
188.423	66.8787
191.315	74.8423
194.208	83.3877
197.101	81.3817
199.994	75.9007
202.886	62.1731
205.779	46.6003
208.672	37.7463
211.565	31.7401
214.457	27.0514
217.35	32.7818
220.243	38.4139
223.135	34.977
226.028	47.2024
228.921	49.758
231.813	44.6612
234.706	38.0217
237.599	38.2719
240.492	26.7923
243.384	31.0498
246.277	31.2249
249.17	25.4862
252.062	18.8072
254.955	15.4858
257.848	9.40947
260.74	3.25282
263.633	2.60362
266.526	5.7726
269.418	1.54092
272.311	3.2773
275.204	10.6904
278.097	22.4642
280.989	29.7842
283.882	44.7334
286.775	44.5695
289.667	44.3134
292.56	38.462
295.453	39.6574
298.346	35.9679
301.238	31.8554
304.131	38.2486
307.024	30.175
309.916	30.2303
312.809	23.0626
315.702	17.8012
318.594	14.7223
321.487	7.39972
324.38	7.1071
327.273	6.57048
330.165	7.00163
333.058	7.71046
335.951	0.877899
338.843	3.50903
341.736	1.73444
344.629	1.47688
347.522	2.52957
350.414	0.153778
353.307	2.35995
356.2	7.19212
359.092	10.3983
361.985	10.4395
364.878	13.3841
367.77	7.99915
370.663	12.8972
373.556	6.68278
376.449	4.35963
379.341	4.01346
382.234	0.240952
385.127	9.24766
388.019	16.4889
390.912	18.4512
393.805	24.1616
396.697	27.092
399.59	21.9182
402.483	19.2378
405.376	10.8491
408.268	7.87277
411.161	3.00968
414.054	0.143356
416.946	3.55666
419.839	2.55769
422.732	3.88442
425.625	1.74329
428.517	4.63401
431.41	7.7808
434.303	10.9704
437.195	12.7697
440.088	20.6397
442.981	19.3284
445.873	24.5637
448.766	29.7653
451.659	32.7354
454.551	32.2666
457.444	34.2628
460.337	35.8768
463.23	30.5534
466.122	29.7216
469.015	33.0671
471.908	31.4789
474.8	25.1962
477.693	24.7081
480.586	25.8119
483.479	24.4405
486.371	19.2635
489.264	20.2438
492.157	18.7168
495.049	19.5676
497.942	16.6553
500.835	13.067
503.728	11.6285
506.62	8.3455
509.513	5.50001
512.406	5.80872
515.298	4.65056
518.191	2.1967
521.084	2.76497
523.976	2.96206
526.869	2.89727
529.762	1.82972
532.654	0.735954
535.547	1.48758
538.44	2.16817
541.333	6.01842
544.225	11.3878
547.118	18.2839
550.011	26.41
552.903	40.5426
555.796	51.5833
558.689	67.0845
561.582	74.0955
564.474	83.826
567.367	82.6287
570.26	76.0992
573.152	67.7992
576.045	62.0409
578.938	58.8595
581.83	49.1585
584.723	44.8144
587.616	39.4101
590.509	43.3959
593.401	41.6048
596.294	43.5827
599.187	43.0943
602.079	42.0855
604.972	38.9097
607.865	31.4908
610.758	27.4513
613.65	24.0159
616.543	20.8658
619.436	16.0352
622.328	15.0891
625.221	9.67891
628.114	6.72278
631.006	4.2577
633.899	3.41922
636.792	0.303146
639.684	1.5227
642.577	2.77235
645.47	1.96486
648.363	2.59561
651.255	8.18277
654.148	7.52911
657.041	7.61741
659.933	13.5444
662.826	15.9238
665.719	21.728
668.612	23.885
671.504	24.9893
674.397	31.903
677.29	29.1819
680.182	24.1241
683.075	27.0963
685.968	23.6551
688.861	21.1232
691.753	17.2201
694.646	12.663
697.539	8.23986
700.431	8.47339
703.324	2.09923
706.217	3.36508
709.109	1.48329
712.002	1.62998
714.895	4.75139
717.788	3.63418
720.68	1.29158
723.573	0.027115
726.466	1.14228
729.358	2.45729
732.251	4.91526
735.144	0.710682
738.036	0.873508
740.929	2.37246
743.822	2.0305
746.715	2.57917
749.607	1.28471
752.5	2.64656
755.393	3.66113
758.285	0.745304
761.178	5.74013
764.071	3.4426
766.963	5.04667
769.856	0.116684
772.749	4.19079
775.642	4.06288
778.534	3.16544
781.427	2.91524
784.32	3.59903
787.212	2.96912
790.105	0.203655
792.998	0.906685
795.89	1.06021
798.783	2.17963
801.676	1.08256
804.569	4.8005
807.461	2.46096
810.354	3.27578
813.247	7.38699
816.139	2.47505
819.032	4.84032
821.925	0.385845
824.818	1.25663
827.71	0.603138
830.603	0.358311
833.496	2.59461
836.388	0.381702
839.281	3.50802
842.174	2.91093
845.067	2.44818
847.959	3.89112
850.852	3.89291
853.745	5.92413
856.637	3.99859
859.53	6.17644
862.423	5.46452
865.315	5.64393
868.208	1.62783
871.101	3.98808
873.994	3.69016
876.886	4.69694
879.779	5.22022
882.672	4.76379
885.564	3.842
888.457	2.15183
891.35	4.64786
894.242	0.547413
897.135	5.13522
900.028	0.768364
902.92	3.09146
905.813	4.29087
908.706	2.81948
911.599	2.9899
914.491	3.93393
917.384	2.37867
920.277	7.90091
923.169	9.74558
926.062	13.9256
928.955	15.3305
931.847	14.585
934.74	13.2939
937.633	15.2064
940.526	9.18701
943.418	6.55739
946.311	5.02593
949.204	2.94286
952.096	1.62558
954.989	0.500477
957.882	1.64368
960.775	1.29092
963.667	2.58027
966.56	1.01719
969.453	0.478035
972.345	0.390648
975.238	1.03655
978.131	6.24751
981.024	9.89953
983.916	16.6435
986.809	18.3206
989.702	21.2215
992.594	24.5248
995.487	25.801
998.38	23.8553
1001.27	25.6817
1004.16	25.7936
1007.06	26.1982
1009.95	21.1903
1012.84	18.1333
1015.74	10.0988
1018.63	7.3577
1021.52	4.80641
1024.41	3.6547
1027.31	2.38857
1030.2	5.54744
1033.09	6.0229
1035.98	11.3251
1038.88	11.8964
1041.77	19.0758
1044.66	19.8417
1047.56	25.4754
1050.45	26.4176
1053.34	34.2454
1056.23	37.5088
1059.13	41.0182
1062.02	42.3384
1064.91	52.7682
1067.81	62.4043
1070.7	75.9432
1073.59	82.383
1076.48	77.4419
1079.38	76.0694
1082.27	63.0632
1085.16	54.9191
1088.05	39.8852
1090.95	28.408
1093.84	24.4091
1096.73	16.626
1099.62	9.47363
1102.52	8.29752
1105.41	1.18048
1108.3	3.54887
1111.19	4.46131
1114.09	2.04727
1116.98	3.07599
1119.87	0.780312
1122.77	3.92493
1125.66	2.2812
1128.55	6.8586
1131.44	8.62598
1134.34	6.94363
1137.23	11.9756
1140.12	13.8348
1143.02	17.5086
1145.91	15.7019
1148.8	15.9722
1151.69	19.2632
1154.59	16.8886
1157.48	18.0461
1160.37	15.5331
1163.26	11.8765
1166.16	7.24866
1169.05	0.440563
1171.94	1.8773
1174.84	2.18463
1177.73	0.251331
1180.62	0.368652
1183.51	2.49767
1186.4	0.78463
1189.3	1.10275
1192.19	0.970272
1195.08	2.82856
1197.98	4.11586
1200.87	3.69563
1203.76	4.68995
1206.65	3.54494
1209.55	4.35333
1212.44	4.63245
1215.33	3.65223
1218.22	7.84564
1221.12	6.56062
1224.01	6.11582
1226.9	7.84077
1229.8	8.33602
1232.69	9.62291
1235.58	6.67799
1238.47	4.2476
1241.37	5.27419
1244.26	2.90487
1247.15	3.0188
1250.05	5.32932
1252.94	5.08276
1255.83	5.85286
1258.72	6.99309
1261.62	2.54609
1264.51	5.23764
1267.4	3.64218
1270.29	6.12877
1273.19	2.53346
1276.08	2.62137
1278.97	2.44113
1281.87	0.670345
1284.76	2.00038
1287.65	3.53656
1290.54	2.94877
1293.43	1.84169
1296.33	1.7118
1299.22	4.95314
1302.11	0.01944
