Measurement: Raman, 532 nm, unoriented, Raman Data Processed
Mineral: Beraunite
Rruff sample: R060696
Ideal chemistry: Fe^2+^Fe^3+^_5_(PO_4_)_4_(OH)_5_6H_2_O
Locality: Three Oak Gap, Shady, Polk County, Arkansas, USA
Source: Bob Jenkins
Description: Reddish brown bladed crystals in radial aggregates
Measured chemistry: (Fe^2+^_0.98_Mn_0.02_)_Σ=1_Fe^3+^_5.00_(P_1.00_O_4_)_4_(OH)_5_·6H_2_O
Raman shift (cm-1)	intensity
144.665	0
147.557	71.21
150.45	48.0049
153.343	11.1472
156.235	32.0107
159.128	56.1035
162.021	73.6284
164.913	48.002
167.806	4.5293
170.699	37.2388
173.592	88.2349
176.484	1.46924
179.377	102.216
182.27	51.4565
185.162	78.1758
188.055	73.1992
190.948	58.5464
193.84	1.50293
196.733	57.7246
199.626	76.5186
202.519	58.0435
205.411	151.799
208.304	138.148
211.197	47.9556
214.089	126.811
216.982	74.6401
219.875	122.117
222.767	75.5059
225.66	125.365
228.553	76.3076
231.446	77.0112
234.338	24.9238
237.231	25.1875
240.124	60.7256
243.016	60.083
245.909	93.0229
248.802	116.889
251.694	90.0723
254.587	132.776
257.48	171.395
260.373	114.875
263.265	237.617
266.158	148.363
269.051	210.466
271.943	195.538
274.836	147.292
277.729	197.409
280.621	194.634
283.514	219.238
286.407	165.959
289.3	144.283
292.192	102.192
295.085	152.57
297.978	126.277
300.87	77.3242
303.763	171.179
306.656	167.647
309.548	233.766
312.441	248.31
315.334	224.174
318.226	188.811
321.119	131.691
324.012	252.581
326.904	233.043
329.797	158.993
332.69	231.096
335.583	149.846
338.475	155.096
341.368	78.3638
344.261	41.7549
347.153	130.329
350.046	36.7661
352.939	90.1494
355.832	1.56348
358.724	46.2578
361.617	15.9028
364.51	7.32666
367.402	35.1323
370.295	34.3364
373.188	11.5815
376.08	22.3184
378.973	60.7861
381.866	42.6997
384.759	152.464
387.651	165.841
390.544	172.051
393.437	201.196
396.329	239.094
399.222	198.85
402.115	112.911
405.007	194.604
407.9	103.683
410.793	172.495
413.685	167.845
416.578	196.238
419.471	181.014
422.364	185.757
425.256	218.799
428.149	204.513
431.042	167.63
433.934	228.71
436.827	251.041
439.72	335.803
442.612	272.883
445.505	296.125
448.398	255.412
451.291	305.17
454.183	295.058
457.076	233.835
459.969	238.792
462.861	220.847
465.754	271.045
468.647	260.458
471.539	321.717
474.432	265.086
477.325	214.499
480.217	280.598
483.11	254.279
486.003	245.438
488.896	210.69
491.788	127.274
494.681	169.738
497.574	121.448
500.466	111.353
503.359	85.6667
506.252	67.4358
509.144	3.04199
512.037	47.0115
514.93	40.855
517.823	14.4863
520.715	20.3191
523.608	48.8911
526.501	10.0915
529.393	59.7256
532.286	30.2417
535.179	8.44898
538.072	14.2444
540.964	22.5967
543.857	7.60132
546.75	50.021
549.642	98.2385
552.535	154.881
555.428	165.282
558.32	234.117
561.213	285.75
564.106	381.056
566.998	333.246
569.891	363.815
572.784	392.227
575.677	397.669
578.569	386.58
581.462	430.028
584.355	357.43
587.247	345.181
590.14	386.699
593.033	355.627
595.925	338.069
598.818	377.893
601.711	415.07
604.604	436.219
607.496	475.858
610.389	472.944
613.282	517.203
616.174	450.904
619.067	489.891
621.96	433.983
624.852	358.884
627.745	240.53
630.638	258.34
633.53	209.993
636.423	120.164
639.316	163.194
642.209	158.242
645.101	92.3394
647.994	18.3508
650.887	149.628
653.779	89.709
656.672	78.3276
659.565	152.77
662.457	124.073
665.35	99.155
668.243	42.9309
671.135	75.2537
674.028	108.029
676.921	12.6331
679.814	57.8376
682.706	18.728
685.599	48.1675
688.492	52.3606
691.384	17.0056
694.277	50.8489
697.17	80.2502
700.062	11.2427
702.955	52.1665
705.848	10.75
708.741	89.1299
711.633	0.898926
714.526	13.1658
717.419	10.1406
720.311	40.2781
723.204	89.3958
726.097	50.5605
728.99	57.55
731.882	41.0195
734.775	3.07227
737.668	67.4697
740.56	45.9253
743.453	52.1599
746.346	31.5327
749.238	102.198
752.131	11.3857
755.024	93.7407
757.916	25.7991
760.809	112.335
763.702	66.5652
766.595	24.0754
769.487	113.914
772.38	111.396
775.273	80.1504
778.165	159.023
781.058	136.06
783.951	149.091
786.843	213.445
789.736	218.494
792.629	163.999
795.521	137.32
798.414	132.045
801.307	117.802
804.2	102.615
807.092	104.063
809.985	85.9343
812.878	137.413
815.77	89.3076
818.663	97.0059
821.556	112.374
824.448	92.1526
827.341	72.8166
830.234	45.6638
833.127	77.2175
836.019	61.6775
838.912	71.4211
841.805	29.262
844.697	27.4343
847.59	114.043
850.483	99.9844
853.375	66.1182
856.268	88.4346
859.161	101.918
862.053	169.788
864.946	123.862
867.839	125.513
870.732	88.2344
873.624	46.4763
876.517	56.9168
879.41	75.7466
882.302	31.3315
885.195	28.4507
888.088	33.7835
890.981	52.1643
893.873	54.6343
896.766	59.3477
899.659	2.99048
902.551	5.93726
905.444	44.2407
908.337	23.075
911.229	13.1248
914.122	40.4951
917.015	17.4236
919.908	2.71582
922.8	21.7969
925.693	17.4541
928.586	84.2578
931.478	91.8057
934.371	159.783
937.264	145.44
940.156	262.4
943.049	195.47
945.942	199.771
948.835	200.933
951.727	156.869
954.62	132.238
957.513	156.166
960.405	147
963.298	76.0342
966.191	108.081
969.083	287.755
971.976	217.52
974.869	285.848
977.761	358.888
980.654	490.906
983.547	571.528
986.439	696.447
989.332	812.914
992.225	873.406
995.118	1099.5
998.01	1161.3
1000.9	1246.19
1003.8	1317.85
1006.69	1304.34
1009.58	1268.1
1012.47	1293.37
1015.37	1230.36
1018.26	1153.12
1021.15	1080.89
1024.05	1073.11
1026.94	977.086
1029.83	920.086
1032.72	910.899
1035.62	802.939
1038.51	827.024
1041.4	672.472
1044.29	649.475
1047.19	590.531
1050.08	566.402
1052.97	611.338
1055.86	586.326
1058.76	575.367
1061.65	436.394
1064.54	500.47
1067.43	394.815
1070.33	373.791
1073.22	318.572
1076.11	275.893
1079.01	120.071
1081.9	151.297
1084.79	34.3897
1087.68	4.03686
1090.58	12.6868
1093.47	31.4546
1096.36	33.9207
1099.26	4.95142
1102.15	23.1519
1105.04	31.3264
1107.93	18.2788
1110.83	4.57397
1113.72	14.2761
1116.61	40.0227
1119.5	30.8259
1122.4	17.7651
1125.29	67.5098
1128.18	120.229
1131.07	159.864
1133.97	225.893
1136.86	237.957
1139.75	209.072
1142.64	230.604
1145.54	286.657
1148.43	246.734
1151.32	236.626
1154.22	216.096
1157.11	202.841
1160	141.625
1162.89	163.352
1165.79	173.857
1168.68	119.141
1171.57	122.124
1174.46	152.302
1177.36	141.527
1180.25	121.993
1183.14	188.931
1186.04	55.6926
1188.93	72.3279
1191.82	27.3748
1194.71	8.37207
1197.61	13.1204
1200.5	7.36304
1203.39	9.46021
1206.29	2.97729
1209.18	20.3113
1212.07	42.092
1214.96	50.781
1217.86	3.76538
1220.75	83.1562
1223.64	37.6873
1226.53	75.5781
1229.43	59.592
1232.32	81.4431
1235.21	69.208
1238.1	96.6782
1241	116.508
1243.89	199.593
1246.78	206.463
1249.67	155.071
1252.57	121.309
1255.46	105.689
1258.35	112.224
1261.25	109.039
1264.14	83.5786
1267.03	50.5093
1269.92	52.8179
1272.82	54.0945
1275.71	108.288
1278.6	96.6667
1281.49	77.001
1284.39	76.6392
1287.28	62.4922
