Measurement: Raman, 532 nm, unoriented, Raman Data Processed
Mineral: Berthierine
Rruff sample: R110177
Ideal chemistry: (Fe^2+^,Fe^3+^,Al)_3_(Si,Al)_2_O_5_(OH)_4_
Locality: DeMix quarry, Mont St-Hilaire, Quebec
Source: Donald Doell
Description: Hexagonal prisms, with gray transparent terminations. We sample the terminations.
Raman shift (cm-1)	intensity
200.897	0
203.79	0.967499
206.682	0.431625
209.575	1.9387
212.468	0.398727
215.36	2.99744
218.253	2.10043
221.146	3.93256
224.038	6.20059
226.931	7.1456
229.824	6.91086
232.717	12.3311
235.609	15.7966
238.502	18.623
241.395	19.6072
244.287	26.4844
247.18	27.6681
250.073	28.8822
252.965	34.1075
255.858	34.5889
258.751	37.6129
261.644	38.1618
264.536	37.5581
267.429	34.7426
270.322	34.3324
273.214	30.3123
276.107	26.4082
279	24.0881
281.892	21.7572
284.785	18.0317
287.678	15.033
290.571	13.5675
293.463	14.269
296.356	15.2394
299.249	12.8879
302.141	12.439
305.034	9.43558
307.927	8.44345
310.82	6.45442
313.712	4.41869
316.605	4.86809
319.498	3.53856
322.39	0.699158
325.283	0.190598
328.176	0.777344
331.068	0.744095
333.961	0.90773
336.854	0.77803
339.747	1.53452
342.639	3.47354
345.532	1.30382
348.425	2.89108
351.317	7.12512
354.21	8.11938
357.103	9.14214
359.995	11.155
362.888	13.0744
365.781	16.2755
368.673	18.9997
371.566	22.4075
374.459	26.7942
377.352	31.8065
380.244	35.2944
383.137	38.61
386.03	35.4256
388.922	34.1383
391.815	31.9556
394.708	29.5196
397.601	26.7194
400.493	22.8483
403.386	18.0567
406.279	13.8738
409.171	12.2045
412.064	7.48697
414.957	4.81268
417.849	5.08316
420.742	2.87724
423.635	1.67088
426.527	2.76788
429.42	5.11421
432.313	4.03584
435.206	4.59962
438.098	6.58182
440.991	7.56955
443.884	9.93182
446.776	11.1688
449.669	11.0657
452.562	9.28325
455.454	10.7685
458.347	4.64444
461.24	6.04193
464.133	5.12856
467.025	2.38657
469.918	2.63036
472.811	1.33722
475.703	2.72751
478.596	0.251526
481.489	0.517197
484.382	0.094955
487.274	0.119415
490.167	0.327637
493.06	1.29071
495.952	1.25282
498.845	0.010468
501.738	0.493073
504.63	1.48508
507.523	0.994247
510.416	2.56546
513.308	2.98366
516.201	3.59219
519.094	3.43961
521.987	2.39551
524.879	3.22679
527.772	3.90924
530.665	3.15569
533.557	2.44548
536.45	2.90187
539.343	1.90424
542.236	0.735565
545.128	0.891983
548.021	0.312485
550.914	0.762833
553.806	0.129211
556.699	1.23033
559.592	0.518921
562.484	0.416763
565.377	0.37648
568.27	1.39383
571.163	0.851456
574.055	1.21967
576.948	1.55017
579.841	2.13033
582.733	0.787445
585.626	1.93152
588.519	1.84415
591.411	2.01251
594.304	2.26839
597.197	1.38019
600.09	3.84851
602.982	0.71611
605.875	0.109436
608.768	1.17717
611.66	1.08815
614.553	1.96275
617.446	2.13783
620.338	0.665802
623.231	1.61032
626.124	2.42369
629.016	2.48691
631.909	4.66299
634.802	7.57782
637.695	9.26971
640.587	9.54025
643.48	12.9042
646.373	16.2869
649.265	20.558
652.158	24.6036
655.051	29.6526
657.943	29.8761
660.836	33.6512
663.729	33.2345
666.622	31.3119
669.514	30.4505
672.407	27.312
675.3	25.1784
678.192	23.8343
681.085	21.3645
683.978	18.3846
686.87	17.5946
689.763	13.5079
692.656	11.0058
695.549	9.37515
698.441	8.51033
701.334	4.72308
704.227	5.51774
707.119	4.58384
710.012	4.37957
712.905	3.90652
715.798	2.58041
718.69	0.375099
721.583	1.26842
724.476	2.64235
727.368	0.127632
730.261	0.444824
733.154	0.497948
736.046	0.903152
738.939	1.77889
741.832	1.19975
744.725	2.20308
747.617	0.062195
750.51	0.201576
753.403	0.024467
756.295	0.408134
759.188	1.15981
762.081	1.46041
764.973	0.50676
767.866	0.825218
770.759	0.637024
773.652	0.328217
776.544	1.54202
779.437	1.39452
782.33	0.518822
785.222	0.959343
788.115	3.01283
791.008	1.11681
793.9	2.97629
796.793	3.57203
799.686	4.0466
802.578	1.59713
805.471	2.85368
808.364	1.5628
811.257	3.51661
814.149	4.91624
817.042	3.05956
819.935	3.37017
822.827	3.91685
825.72	3.00725
828.613	1.51621
831.505	2.37054
834.398	1.3161
837.291	3.67806
840.184	1.91973
843.076	1.70572
845.969	3.59397
848.862	1.58112
851.754	1.88641
854.647	1.76142
857.54	2.19778
860.433	1.98591
863.325	1.65191
866.218	1.20447
869.111	1.46023
872.003	1.40016
874.896	2.56164
877.789	0.981262
880.681	1.87552
883.574	0.791534
886.467	0.082268
889.36	1.39963
892.252	0.090805
895.145	0.752625
898.038	1.72788
900.93	1.08396
903.823	0.396675
906.716	1.49374
909.608	0.776649
912.501	0.344704
915.394	1.22172
918.287	2.15896
921.179	0.330132
924.072	1.03931
926.965	0.83963
929.857	1.91581
932.75	1.59599
935.643	2.80816
938.535	0.62426
941.428	1.07728
944.321	0.880714
947.213	1.62949
950.106	2.16491
952.999	0.511581
955.892	3.27682
958.784	0.880669
961.677	2.07359
964.57	0.399445
967.462	2.27981
970.355	0.977921
973.248	0.261719
976.14	0.264038
979.033	0.459175
981.926	1.14146
984.819	1.9186
987.711	1.026
990.604	0.382347
993.497	0.205971
996.389	0.509125
999.282	0.633339
1002.17	0.480019
1005.07	1.27277
1007.96	0.540916
1010.85	0.945518
1013.75	0.228935
1016.64	0.506088
1019.53	0.935333
1022.42	1.66172
1025.32	1.22984
1028.21	2.22546
1031.1	1.26005
1033.99	1.01167
1036.89	0.639244
1039.78	2.03252
1042.67	3.58067
1045.57	1.81523
1048.46	3.05045
1051.35	2.27999
1054.24	3.87643
1057.14	2.37814
1060.03	2.99557
1062.92	1.50066
1065.81	2.72869
1068.71	0.772057
1071.6	2.20805
1074.49	0.801857
1077.38	1.72552
1080.28	0.368179
1083.17	2.34734
1086.06	1.6768
1088.96	1.73597
1091.85	1.22127
1094.74	0.168442
1097.63	1.43234
1100.53	2.53197
1103.42	2.4826
1106.31	2.96182
1109.2	0.056137
1112.1	1.90177
1114.99	1.78956
1117.88	1.79285
1120.78	1.43238
1123.67	1.08519
1126.56	0.081078
1129.45	0.074127
1132.35	0.049469
1135.24	1.3781
1138.13	0.909386
1141.02	0.551796
1143.92	0.299065
1146.81	0.940529
1149.7	0.844971
1152.6	2.24661
1155.49	0.296295
1158.38	0.43499
1161.27	2.12955
1164.17	1.90537
1167.06	0.348412
1169.95	0.544518
1172.84	0.992722
1175.74	1.45896
1178.63	2.27997
1181.52	2.11977
1184.41	2.23725
1187.31	1.41206
1190.2	0.519058
1193.09	0.515419
1195.99	0.815056
1198.88	1.78433
1201.77	1.0415
1204.66	0.679581
1207.56	2.49323
1210.45	1.48062
1213.34	1.92062
1216.23	1.88067
1219.13	1.37351
1222.02	2.15906
1224.91	1.88464
1227.81	1.39945
1230.7	1.81202
1233.59	0.74585
1236.48	0.469337
1239.38	3.16742
1242.27	2.47358
1245.16	2.39375
1248.05	0.566971
1250.95	1.88204
1253.84	1.31866
1256.73	0.387367
1259.62	1.43363
1262.52	1.41993
1265.41	2.40042
1268.3	0.570457
1271.2	0.338135
1274.09	1.23241
1276.98	0.380486
1279.87	2.50071
1282.77	1.46839
1285.66	0.975006
1288.55	1.41719
1291.44	1.01363
1294.34	1.97684
1297.23	0.900154
1300.12	0.880951
1303.02	0
