Measurement: Raman, 780 nm, unoriented, Raman Data Processed
Mineral: Beryl
Rruff sample: X080010
Ideal chemistry: Be_3_Al_2_Si_6_O_18_
Locality: Synthetic
Source: Gemological Institute of America
Description: Faceted red gemstone, 2.24 ct
Raman shift (cm-1)	intensity
105.354	0
108.729	0.059692
112.104	4.13983
115.478	1.91058
118.853	3.05499
122.228	5.13721
125.603	3.88849
128.978	4.94629
132.353	2.53735
135.727	3.20575
139.102	7.05341
142.477	7.67328
145.852	3.82825
149.227	3.9779
152.601	1.50104
155.976	1.01111
159.351	0.260376
162.726	3.09198
166.101	3.1253
169.476	3.55633
172.85	2.27942
176.225	4.17127
179.6	7.55328
182.975	4.90118
186.35	6.96668
189.725	6.38519
193.099	4.82263
196.474	4.00842
199.849	2.93842
203.224	0.03656
206.599	1.8988
209.973	2.68158
213.348	1.26562
216.723	2.6803
220.098	0.642212
223.473	0.221436
226.847	5.21314
230.222	2.48206
233.597	5.13397
236.972	2.02887
240.347	4.99713
243.722	1.65375
247.096	1.96149
250.471	7.14136
253.846	2.71808
257.221	3.73181
260.596	4.87366
263.971	2.96173
267.345	2.59387
270.72	2.65216
274.095	3.71851
277.47	2.76453
280.845	5.32983
284.219	9.07227
287.594	7.68451
290.969	9.14789
294.344	7.3457
297.719	5.49054
301.094	12.776
304.468	15.076
307.843	20.9263
311.218	22.4963
314.593	28.1543
317.968	35.7262
321.342	39.1344
324.717	28.3759
328.092	10.4687
331.467	3.79498
334.842	0.033875
338.216	0.431274
341.591	1.14215
344.966	1.96704
348.341	5.0639
351.716	1.96417
355.091	1.08514
358.465	1.59705
361.84	0.594299
365.215	0.868835
368.59	3.67447
371.965	4.53629
375.339	5.33685
378.714	16.793
382.089	19.9046
385.464	31.2527
388.839	37.8731
392.214	52.9143
395.588	74.886
398.963	69.8085
402.338	42.0027
405.713	24.0866
409.088	16.3616
412.462	18.6264
415.837	19.1625
419.212	24.0225
422.587	20.5172
425.962	16.7388
429.337	11.8497
432.712	9.7301
436.086	13.2586
439.461	19.9638
442.836	19.1773
446.211	13.0567
449.586	6.88446
452.96	3.61691
456.335	3.80981
459.71	1.29178
463.085	1.83688
466.46	1.35602
469.834	0.726349
473.209	0.155548
476.584	0.876587
479.959	1.61609
483.334	3.33191
486.709	0.19519
490.083	4.52148
493.458	1.86975
496.833	2.94791
500.208	1.93753
503.583	1.25769
506.957	4.47903
510.332	2.75717
513.707	1.71539
517.082	3.71402
520.457	2.20987
523.832	4.65054
527.206	6.1333
530.581	2.12704
533.956	3.58575
537.331	1.60452
540.706	0.990601
544.081	1.26331
547.455	0.061249
550.83	1.43729
554.205	3.90509
557.58	4.08206
560.955	6.75479
564.329	5.12384
567.704	8.69064
571.079	6.94104
574.454	8.57574
577.829	12.6111
581.203	13.5343
584.578	9.97302
587.953	10.2092
591.328	7.91089
594.703	8.19095
598.078	9.76034
601.452	9.29578
604.827	6.73267
608.202	3.72971
611.577	1.06
614.952	2.55585
618.327	2.94968
621.701	0.88205
625.076	5.4111
628.451	1.40823
631.826	1.5975
635.201	1.88809
638.575	0.539917
641.95	2.67603
645.325	2.43594
648.7	4.65546
652.075	1.00418
655.449	4.75235
658.824	4.86322
662.199	7.11548
665.574	16.1574
668.949	34.8751
672.324	55.308
675.698	76.0331
679.073	105.976
682.448	157.97
685.823	171.518
689.198	94.3348
692.572	44.7313
695.947	24.5692
699.322	14.6018
702.697	8.9743
706.072	6.67926
709.447	5.48032
712.821	2.91269
716.196	1.14529
719.571	0.749207
722.946	0.35321
726.321	1.66776
729.696	1.80008
733.07	0.631348
736.445	0.522156
739.82	0.209167
743.195	0.849335
746.57	2.3016
749.944	1.34207
753.319	2.6658
756.694	3.48624
760.069	5.32352
763.444	7.23666
766.818	10.9374
770.193	9.72345
773.568	1.89899
776.943	2.96228
780.318	2.02887
783.693	0.805939
787.067	1.45853
790.442	3.82895
793.817	2.84164
797.192	0.04007
800.567	1.4426
803.942	0.686096
807.316	0.00177
810.691	2.23212
814.066	2.09253
817.441	0.905548
820.816	4.53665
824.19	1.77722
827.565	2.612
830.94	1.49597
834.315	3.09747
837.69	3.01852
841.065	3.98584
844.439	2.84488
847.814	2.45142
851.189	3.12237
854.564	2.51477
857.939	2.80438
861.313	2.11136
864.688	4.2605
868.063	3.77206
871.438	2.35187
874.813	0.595673
878.188	2.07001
881.562	1.58746
884.937	2.49686
888.312	1.5325
891.687	0.569214
895.062	2.61194
898.437	4.02756
901.811	6.51779
905.186	5.565
908.561	7.22986
911.936	9.31912
915.311	9.30319
918.685	8.51483
922.06	4.7944
925.435	4.65613
928.81	1.2814
932.185	3.47592
935.559	3.81397
938.934	2.67978
942.309	2.48807
945.684	1.73785
949.059	0.834991
952.434	0.789093
955.808	0.366241
959.183	0.642883
962.558	1.28235
965.933	0.493317
969.308	0.944611
972.683	1.60156
976.057	1.62653
979.432	1.87924
982.807	0.674927
986.182	3.60809
989.557	3.80237
992.931	6.55039
996.306	11.6564
999.681	13.098
1003.06	15.1173
1006.43	14.0631
1009.8	15.1451
1013.18	9.08624
1016.55	6.79147
1019.93	7.9613
1023.3	4.11209
1026.68	4.26163
1030.05	2.06692
1033.43	1.73325
1036.8	2.66473
1040.18	4.55637
1043.55	4.30035
1046.93	4.01498
1050.3	5.09982
1053.68	6.93024
1057.05	13.0005
1060.43	15.0584
1063.8	19.004
1067.18	25.6633
1070.55	20.2045
1073.93	15.5701
1077.3	13.6848
1080.68	8.32388
1084.05	7.03059
1087.43	5.99573
1090.8	2.3822
1094.18	0.66954
1097.55	2.48918
1100.93	1.47945
1104.3	0.56073
1107.67	1.20203
1111.05	1.26381
1114.42	1.20912
1117.8	0.470856
1121.17	0.628052
1124.55	0.451523
1127.92	1.26399
1131.3	1.48839
1134.67	0.194504
1138.05	1.78723
1141.42	0.373199
1144.8	2.10428
1148.17	0.744003
1151.55	1.82652
1154.92	0.586487
1158.3	0.470825
1161.67	0.023026
1165.05	1.91695
1168.42	1.13003
1171.8	2.53055
1175.17	0.667648
1178.55	1.56097
1181.92	3.45866
1185.3	2.54817
1188.67	1.41956
1192.05	1.81656
1195.42	1.66924
1198.8	2.47385
1202.17	4.87695
1205.55	4.1779
1208.92	6.2531
1212.3	2.55638
1215.67	5.58374
1219.04	6.36319
1222.42	8.6884
1225.79	8.98758
1229.17	9.94147
1232.54	11.601
1235.92	11.8871
1239.29	12.8943
1242.67	11.1736
1246.04	8.13677
1249.42	3.68965
1252.79	3.60588
1256.17	2.79202
1259.54	1.3024
1262.92	1.14104
1266.29	2.3297
1269.67	0.609726
1273.04	1.92224
1276.42	2.68146
1279.79	1.48772
1283.17	2.02953
1286.54	0.291458
