Measurement: Raman, 532 nm, unoriented, Raman Data Processed
Mineral: Beryl
Rruff sample: X080009
Ideal chemistry: Be_3_Al_2_Si_6_O_18_
Locality: Synthetic
Source: Gemological Institute of America
Description: Faceted emerald gemstone, 1.47 ct
Raman shift (cm-1)	intensity
133.916	0
137.291	35.0139
140.666	58.3777
144.041	57.0454
147.416	75.0273
150.79	21.656
154.165	33.2739
157.54	65.7644
160.915	95.5308
164.29	99.7622
167.664	82.9963
171.039	40.8994
174.414	29.0181
177.789	5.46094
181.164	1.65747
184.538	24.0054
187.913	5.28174
191.288	3.87598
194.663	10.3342
198.038	18.792
201.412	27.6086
204.787	37.1248
208.162	38.5207
211.537	35.5552
214.912	48.2905
218.287	60.1382
221.661	57.1802
225.036	70.0193
228.411	65.0041
231.786	64.9768
235.161	73.6748
238.536	74.7998
241.91	61.6931
245.285	60.9321
248.66	47.4912
252.035	60.3464
255.41	60.1001
258.784	49.0691
262.159	43.8372
265.534	49.9211
268.909	48.2581
272.284	43.1614
275.659	38.1897
279.033	35.939
282.408	48.2685
285.783	52.6609
289.158	66.7744
292.533	64.6042
295.907	48.001
299.282	53.2664
302.657	48.1211
306.032	54.0364
309.407	60.5515
312.781	93.9985
316.156	137.997
319.531	190.355
322.906	207.983
326.281	62.3291
329.656	18.3508
333.03	11.5762
336.405	13.2986
339.78	1.56763
343.155	7.33301
346.53	3.26758
349.904	9.92383
353.279	0.335693
356.654	4.7854
360.029	8.66431
363.404	5.35815
366.779	2.39868
370.153	6.93042
373.528	3.78735
376.903	9.36291
380.278	15.2581
383.653	39.9099
387.027	54.0349
390.402	67.4038
393.777	144.141
397.152	172.006
400.527	75.7573
403.901	33.1009
407.276	42.4247
410.651	32.4047
414.026	50.7136
417.401	69.915
420.776	100.378
424.15	70.2815
427.525	31.8571
430.9	19.7217
434.275	20.7669
437.65	47.7876
441.024	97.2257
444.399	107.325
447.774	84.636
451.149	66.9329
454.524	30.6044
457.899	13.9646
461.273	18.0803
464.648	12.0402
468.023	5.70813
471.398	11.96
474.773	1.24048
478.147	10.1901
481.522	19.3937
484.897	0.57251
488.272	0.924194
491.647	2.22705
495.022	8.53796
498.396	14.5521
501.771	11.2139
505.146	21.7378
508.521	19.5485
511.896	19.7662
515.27	27.2168
518.645	35.7415
522.02	52.8831
525.395	64.0863
528.77	73.1099
532.145	63.2716
535.519	38.7162
538.894	15.4304
542.269	22.1146
545.644	12.0637
549.019	3.38232
552.394	2.396
555.768	8.46423
559.143	1.6897
562.518	17.6144
565.893	10.9224
569.268	17.2853
572.642	14.9662
576.017	24.6903
579.392	29.7623
582.767	48.0043
586.142	35.8059
589.516	21.6238
592.891	13.7679
596.266	17.477
599.641	19.0425
603.016	7.33582
606.39	11.337
609.765	7.11743
613.14	11.4652
616.515	6.03918
619.89	3.99988
623.265	3.0177
626.639	6.6803
630.014	1.11279
633.389	1.08032
636.764	3.59912
640.139	6.65161
643.514	2.10706
646.888	5.80859
650.263	1.7699
653.638	9.49329
657.013	11.4855
660.388	29.7723
663.762	31.8919
667.137	47.2396
670.512	91.2826
673.887	153.837
677.262	266.021
680.636	469.26
684.011	674.39
687.386	436.772
690.761	194.772
694.136	107.626
697.511	63.4987
700.885	40.6628
704.26	26.7181
707.635	20.5945
711.01	18.486
714.385	14.3645
717.76	9.547
721.134	6.84949
724.509	4.39148
727.884	8.95129
731.259	3.5177
734.634	4.89648
738.008	10.947
741.383	10.6807
744.758	7.01502
748.133	17.1542
751.508	16.2865
754.882	19.9801
758.257	28.9978
761.632	42.8972
765.007	38.0918
768.382	55.3704
771.756	63.4364
775.131	49.1239
778.506	35.4199
781.881	13.0984
785.256	1.97534
788.631	9.52918
792.005	4.13647
795.38	7.78967
798.755	9.86121
802.13	9.14514
805.505	7.03406
808.88	18.2731
812.254	5.5946
815.629	16.8901
819.004	19.6
822.379	7.69812
825.754	2.86475
829.128	6.02966
832.503	0.028687
835.878	2.14233
839.253	6.98267
842.628	7.23767
846.003	0.705078
849.377	11.4202
852.752	19.2664
856.127	17.12
859.502	24.458
862.877	26.3363
866.251	20.5443
869.626	30.3055
873.001	23.9582
876.376	22.324
879.751	19.5837
883.125	12.3881
886.5	1.94006
889.875	6.99341
893.25	5.44641
896.625	5.20349
900	11.0721
903.374	18.6328
906.749	21.173
910.124	31.2992
913.499	29.1704
916.874	45.0219
920.249	42.0798
923.623	50.485
926.998	40.9381
930.373	27.0027
933.748	13.1517
937.123	14.6422
940.497	6.2041
943.872	2.30847
947.247	3.37341
950.622	4.16956
953.997	3.98047
957.371	1.11877
960.746	0.284058
964.121	2.71643
967.496	4.02258
970.871	3.70984
974.245	8.80396
977.62	8.12085
980.995	17.5558
984.37	19.8534
987.745	22.9574
991.12	25.8761
994.494	34.9463
997.869	46.1882
1001.24	62.8795
1004.62	81.5518
1007.99	112.178
1011.37	112.389
1014.74	79.2023
1018.12	45.4664
1021.49	41.0438
1024.87	13.1713
1028.24	6.26562
1031.62	11.9879
1034.99	10.5619
1038.37	6.78284
1041.74	11.471
1045.12	21.5336
1048.49	29.1111
1051.87	35.5098
1055.24	67.4497
1058.62	103.538
1061.99	167.138
1065.37	228.223
1068.74	241.002
1072.12	183.771
1075.49	120.632
1078.87	79.6107
1082.24	62.8589
1085.62	40.6078
1088.99	24.2073
1092.36	20.2899
1095.74	13.8649
1099.11	21.7705
1102.49	10.8341
1105.86	7.87903
1109.24	3.20129
1112.61	9.47852
1115.99	3.05566
1119.36	2.43494
1122.74	7.87476
1126.11	6.45789
1129.49	11.9413
1132.86	9.04639
1136.24	17.7041
1139.61	13.0283
1142.99	2.15625
1146.36	14.1475
1149.74	8.84778
1153.11	13.2729
1156.49	9.22742
1159.86	14.2806
1163.23	8.20178
1166.61	5.94067
1169.98	8.84705
1173.36	2.8324
1176.73	9.18054
1180.11	2.46381
1183.48	2.04352
1186.86	1.06775
1190.23	1.34784
1193.61	8.4837
1196.98	7.28534
1200.36	1.93646
1203.73	8.02777
1207.11	0.55603
1210.48	0.303345
1213.86	4.84247
1217.23	11.4838
1220.61	3.8891
1223.98	13.2676
1227.36	24.8723
1230.73	21.4982
1234.11	15.0466
1237.48	41.1634
1240.86	51.4595
1244.23	64.8034
1247.61	61.5173
1250.98	40.2657
1254.36	20.7233
1257.73	24.0425
1261.11	14.8162
1264.48	13.8857
1267.86	10.1766
1271.23	4.44257
1274.6	3.79211
1277.98	20.7894
1281.35	10.8248
1284.73	7.20245
1288.1	9.1123
1291.48	14.0632
1294.85	10.1067
1298.23	3.66937
1301.6	3.55914
