Measurement: Raman, 532 nm, unoriented, Raman Data Processed
Mineral: Beryl
Rruff sample: X080008
Ideal chemistry: Be_3_Al_2_Si_6_O_18_
Locality: Synthetic
Source: Gemological Institute of America
Description: Faceted emerald gemstone, 1.24 ct
Raman shift (cm-1)	intensity
136.809	0
140.184	84.7695
143.559	113.498
146.933	157.197
150.308	65.8711
153.683	35.3457
157.058	216.545
160.433	44.581
163.807	30.0176
167.182	58.959
170.557	38.3135
173.932	5.63379
177.307	87.5762
180.681	53.0967
184.056	10.2002
187.431	75.7939
190.806	13.6631
194.181	27.5967
197.556	113.429
200.93	69.0869
204.305	143.308
207.68	116.828
211.055	80.1924
214.43	54.9414
217.804	91.2661
221.179	158.315
224.554	174.138
227.929	158.195
231.304	58.7822
234.679	104.293
238.053	175.347
241.428	175.121
244.803	141.56
248.178	171.481
251.553	139.848
254.928	118.106
258.302	111.418
261.677	153.224
265.052	43.3013
268.427	69.9058
271.802	89.2192
275.176	146.054
278.551	29.6133
281.926	84.9853
285.301	170.043
288.676	126.103
292.05	75.8672
295.425	58.9692
298.8	86.772
302.175	52.4941
305.55	131.553
308.925	33.5322
312.299	118.922
315.674	156.28
319.049	179.669
322.424	243.788
325.799	111.445
329.173	129.24
332.548	70.311
335.923	7.44092
339.298	1.32129
342.673	31.6108
346.048	9.2373
349.422	33.0298
352.797	61.3652
356.172	37.4717
359.547	7.00928
362.922	59.0938
366.296	40.0884
369.671	20.1011
373.046	55.9341
376.421	30.0474
379.796	34.1494
383.171	88.9746
386.545	97.022
389.92	152.736
393.295	263.655
396.67	233.067
400.045	109.137
403.419	47.5293
406.794	10.9805
410.169	77.3608
413.544	36.7129
416.919	63.5122
420.293	22.4399
423.668	14.1152
427.043	14.9316
430.418	84.1699
433.793	32.0381
437.168	120.339
440.542	35.3506
443.917	51.7964
447.292	138.747
450.667	90.2271
454.042	35.5952
457.416	33.2144
460.791	82.9092
464.166	13.2031
467.541	50.9463
470.916	26.4775
474.291	88.5166
477.665	0.671875
481.04	55.3584
484.415	49.8584
487.79	18.4038
491.165	53.0957
494.539	55.6963
497.914	48.5435
501.289	101.135
504.664	22.5791
508.039	8.01855
511.413	96.5015
514.788	55.6528
518.163	75.9976
521.538	1.83154
524.913	91.772
528.288	159.825
531.663	108.814
535.037	42.5523
538.412	18.77
541.787	81.2173
545.162	93.3232
548.537	77.1597
551.911	38.7895
555.286	8.20264
558.661	3.28613
562.036	59.0254
565.411	12.2236
568.785	21.3892
572.16	34.3628
575.535	26.812
578.91	63.8857
582.285	96.7725
585.659	74.333
589.034	52.6538
592.409	1.23438
595.784	67.6836
599.159	76.3838
602.534	24.9663
605.908	63.0244
609.283	79.1758
612.658	61.9985
616.033	82.936
619.408	15.4048
622.783	5.74756
626.157	59.625
629.532	23.2471
632.907	45.269
636.282	16.0552
639.657	93.3711
643.031	5.07568
646.406	31.416
649.781	93.5361
653.156	85.9424
656.531	34.4741
659.905	22.0889
663.28	14.7602
666.655	59.1606
670.03	121.377
673.405	218.544
676.779	303.093
680.154	560.843
683.529	860.771
686.904	673.726
690.279	306.55
693.654	103.361
697.028	144.833
700.403	103.56
703.778	54.4477
707.153	112.174
710.528	3.27344
713.903	125.741
717.277	77.6709
720.652	44.2827
724.027	36.3667
727.402	41.9194
730.777	16.5508
734.151	32.127
737.526	68.2095
740.901	53.6685
744.276	42.4922
747.651	80.3784
751.025	73.0435
754.4	80.5518
757.775	86.0269
761.15	27.8115
764.525	90.0322
767.9	125.546
771.274	74.0903
774.649	92.2866
778.024	126.135
781.399	38.1362
784.774	53.8223
788.149	0.959473
791.523	37.3877
794.898	68.6372
798.273	63.4868
801.648	15.6387
805.023	86.8608
808.397	133.93
811.772	82.4951
815.147	91.5601
818.522	127.326
821.897	46.5181
825.271	34.6587
828.646	2.46777
832.021	33.0337
835.396	5.6333
838.771	22.686
842.146	13.0518
845.52	40.6352
848.895	47.1431
852.27	64.3945
855.645	89.417
859.02	63.0967
862.394	107.532
865.769	98.3623
869.144	89.8745
872.519	59.8667
875.894	115.238
879.269	106.413
882.643	62.4932
886.018	23.5146
889.393	20.2251
892.768	60.4653
896.143	8.67236
899.518	67.5151
902.892	45.6309
906.267	46.5102
909.642	124.391
913.017	176.483
916.391	126.872
919.766	87.9297
923.141	181.882
926.516	154.039
929.891	186.874
933.266	100.366
936.64	33.061
940.015	57.0044
943.39	11.6274
946.765	15.2051
950.14	45.9858
953.514	34.7681
956.889	5.58398
960.264	16.6821
963.639	2.7832
967.014	18.2402
970.389	72.1157
973.763	41.3838
977.138	43.3457
980.513	23.1455
983.888	71.9839
987.263	6.03662
990.638	13.9404
994.012	92.4268
997.387	126.31
1000.76	76.9683
1004.14	98.9756
1007.51	96.8623
1010.89	91.7139
1014.26	67.3237
1017.64	84.8149
1021.01	13.2627
1024.39	83.6587
1027.76	2.26514
1031.13	43.9473
1034.51	32.2554
1037.88	31.2588
1041.26	18.3852
1044.63	116.731
1048.01	137.189
1051.38	103.947
1054.76	207.55
1058.13	339.349
1061.51	483.645
1064.88	778.937
1068.26	844.307
1071.63	685.888
1075.01	558.755
1078.38	294.278
1081.76	264.046
1085.13	139.258
1088.51	125.774
1091.88	91.7241
1095.26	41.0215
1098.63	81.1274
1102.01	99.1494
1105.38	78.6397
1108.76	58.1914
1112.13	55.3423
1115.51	52.1714
1118.88	26.8833
1122.26	25.0752
1125.63	70.8472
1129.01	69.3835
1132.38	64.6775
1135.76	68.3953
1139.13	46.4148
1142.5	66.7058
1145.88	24.9331
1149.25	26.0508
1152.63	43.5972
1156	29.491
1159.38	9.63403
1162.75	25.1929
1166.13	33.1196
1169.5	53.1467
1172.88	13.397
1176.25	5.19873
1179.63	3.25293
1183	49.5696
1186.38	18.1321
1189.75	1.32983
1193.13	21.8037
1196.5	8.46435
1199.88	4.3147
1203.25	38.2815
1206.63	2.8457
1210	22.3896
1213.38	17.6963
1216.75	7.87134
1220.12	17.4827
1223.5	5.02588
1226.88	33.1968
1230.25	26.9238
1233.62	6.20288
1237	43.3706
1240.37	0.618164
1243.75	45.2571
1247.12	65.2927
1250.5	49.9705
1253.87	112.142
1257.25	111.322
1260.62	38.353
1264	84.9414
1267.37	75.2647
1270.75	89.572
1274.12	52.904
1277.5	61.4766
1280.87	56.3745
1284.25	41.5547
1287.62	41.9336
1291	30.5984
1294.37	25.6504
1297.75	21.4199
1301.12	39.1589
