Measurement: Raman, 514 nm, unoriented, Raman Data Processed
Mineral: Beryl
Rruff sample: R050347
Ideal chemistry: Be_3_Al_2_Si_6_O_18_
Locality: North Keystone, South Dakota, USA
Source: California Institute of Technology
Description: Colorless fragment
Measured chemistry: (Be_0.96_Li_0.04_)_3_Al_2.00_(Si_0.99_Al_0.01_)_6_O_18_ Î‡0.17Na
Raman shift (cm-1)	intensity
121.203	0
125.369	309.622
129.534	46.454
133.696	140.214
137.857	391.688
142.016	412.781
146.172	386.148
150.327	81.444
154.48	118.795
158.63	146.164
162.779	143.113
166.926	233.677
171.07	84.449
175.213	207.766
179.354	190.502
183.493	264.941
187.63	227.084
191.765	198.828
195.898	132.877
200.029	338.85
204.158	240.41
208.285	131.198
212.41	13.854
216.533	30.679
220.654	33.923
224.773	58.36
228.891	72.67
233.006	80.734
237.119	116.437
241.231	65.764
245.34	229.946
249.448	229.688
253.553	145.002
257.657	5.317
261.758	89.522
265.858	92.62
269.956	36.374
274.052	107.523
278.146	197.225
282.237	152.771
286.327	187.853
290.416	515.11
294.502	564.827
298.586	339.002
302.668	279.34
306.749	428.957
310.827	437.217
314.903	825.53
318.978	1295.37
323.051	1695.31
327.121	1037.3
331.19	344.874
335.257	178.359
339.322	111.759
343.385	125.959
347.446	36.819
351.505	68.35
355.563	197.115
359.618	161.167
363.672	168.794
367.723	14.371
371.773	261.382
375.821	360.97
379.866	211.577
383.91	480.493
387.952	1192.87
391.992	2033.05
396.031	3997.99
400.067	4055.15
404.101	2256.78
408.134	1118.57
412.165	859.251
416.193	1062.58
420.22	1235.65
424.245	1157.73
428.268	851.078
432.289	450.645
436.309	462.815
440.326	610.592
444.342	641.749
448.355	613.915
452.367	313.148
456.377	256.432
460.385	127.892
464.391	107.062
468.395	19.24
472.398	53.676
476.398	47.087
480.397	140.014
484.394	177.291
488.389	184.311
492.382	85.127
496.373	63.467
500.362	111.182
504.349	85.447
508.335	87.379
512.319	420.547
516.3	443.371
520.28	40.02
524.259	352.434
528.235	375.35
532.209	416.324
536.182	325.816
540.152	270.947
544.121	101.887
548.088	13.076
552.053	223.447
556.017	122.92
559.978	290.283
563.938	190.943
567.895	195.936
571.851	722.742
575.805	689.541
579.758	499.109
583.708	598.357
587.657	319.771
591.603	289.039
595.548	285.244
599.491	133.447
603.432	42.75
607.372	18.787
611.309	63.408
615.245	279.832
619.179	195.283
623.111	328.488
627.041	95.127
630.97	66.127
634.896	237.135
638.821	47.947
642.744	143.49
646.665	220.977
650.584	201.666
654.502	233.867
658.418	322.504
662.331	403.416
666.244	425.844
670.154	1107.81
674.062	1764.89
677.969	3460.64
681.874	8466.7
685.777	15056.3
689.678	9424.18
693.577	4442.9
697.475	2168.65
701.371	1404.87
705.265	1050.43
709.157	666.893
713.047	886.436
716.936	155.625
720.823	478.527
724.708	357.021
728.591	228.566
732.472	450.193
736.352	379.846
740.23	376.154
744.106	251.643
747.98	157.768
751.853	513.477
755.723	279.842
759.592	262.141
763.459	550.686
767.325	862.236
771.188	598.895
775.05	261.246
778.91	361.801
782.768	106.271
786.625	190.539
790.479	98.518
794.332	55.156
798.183	30.346
802.033	158.801
805.88	231.539
809.726	138.51
813.57	216.582
817.413	48.418
821.253	53.268
825.092	125.596
828.929	103.852
832.764	83.182
836.598	217.709
840.429	121.537
844.259	18.852
848.088	141.479
851.914	106.48
855.739	165.258
859.562	44.971
863.383	208.404
867.203	190.76
871.02	121.445
874.836	185.537
878.65	273.486
882.463	243.215
886.274	277.129
890.083	162.771
893.89	13.611
897.695	176.441
901.499	371.01
905.301	301.176
909.102	395.553
912.9	595.463
916.697	382.314
920.492	401.969
924.285	631.689
928.077	458.277
931.867	502.713
935.655	627.48
939.442	83.869
943.226	318.596
947.009	482.541
950.791	305.646
954.57	47.473
958.348	321.182
962.124	142.633
965.899	68.123
969.671	140.697
973.442	398.709
977.211	418.367
980.979	495.365
984.745	66.588
988.509	304.633
992.271	653.658
996.032	961.561
999.791	874.365
1003.55	1281.55
1007.3	1280.97
1011.06	1190.06
1014.81	1059.46
1018.56	788.727
1022.31	838.955
1026.06	490.336
1029.8	762.557
1033.55	443.316
1037.29	446.6
1041.03	691.432
1044.77	675.232
1048.5	674.258
1052.24	1080.29
1055.97	972.051
1059.7	1476.87
1063.43	2121.48
1067.16	2765.6
1070.89	2710.86
1074.61	2404.85
1078.34	1786.46
1082.06	1459.74
1085.78	1153.61
1089.5	772.551
1093.21	689.51
1096.93	290.189
1100.64	561.967
1104.35	112.037
1108.06	546.238
1111.77	209.893
1115.48	167.789
1119.18	307.447
1122.89	252.998
1126.59	90.295
1130.29	389.383
1133.99	1.381
1137.68	14.064
1141.38	187.611
1145.07	269.965
1148.76	365.725
1152.45	169.195
1156.14	319.188
1159.83	22.473
1163.51	96.188
1167.19	217.84
1170.88	172.77
1174.56	184.699
1178.23	164.422
1181.91	18.855
1185.59	117.07
1189.26	205.734
1192.93	411.996
1196.6	132.387
1200.27	588.168
1203.94	47.125
1207.6	352.566
1211.27	396.039
1214.93	414.094
1218.59	638.906
1222.25	765.953
1225.9	960.414
1229.56	772.191
1233.21	616.793
1236.86	838.586
1240.51	1057.42
1244.16	738.031
1247.81	879.598
1251.45	469.312
1255.1	470.695
1258.74	121.09
1262.38	322.043
1266.02	252.711
1269.66	216.09
1273.29	197.977
1276.93	162.965
1280.56	362.285
1284.19	40.805
1287.82	170.902
1291.45	384.168
1295.07	178.695
1298.7	105.684
1302.32	106.742
1305.94	3.438
1309.56	16.336
1313.18	385.047
1316.8	201.359
1320.41	381.047
1324.02	350.945
1327.63	169.297
1331.24	355.945
1334.85	188.879
1338.46	399.449
1342.06	217.152
1345.67	418.461
1349.27	448.473
1352.87	161.52
1356.47	25.977
1360.07	200.004
1363.66	95.359
1367.25	0
