Measurement: Raman, 532 nm, unoriented, Raman Data Processed
Mineral: Beryl
Rruff sample: R110115
Ideal chemistry: Be_3_Al_2_Si_6_O_18_
Locality: Synthetic
Source: Gemological Institute of America
Description: A cut, green (0.48ct) emerald gemstone, hydrothermally grown.
Raman shift (cm-1)	intensity
182.094	0
184.987	9.49023
187.88	33.5059
190.773	81.9766
193.665	83.8555
196.558	9
199.451	62.0605
202.343	22.4453
205.236	96.5801
208.129	111.283
211.021	123.022
213.914	82.3769
216.807	103.828
219.7	79.6445
222.592	66.6758
225.485	49.3379
228.378	21.0566
231.27	0.492188
234.163	52.5039
237.056	42.1719
239.948	51.9277
242.841	3.35742
245.734	80.7168
248.626	201.654
251.519	275.096
254.412	250.027
257.305	296.008
260.197	358.248
263.09	330.223
265.983	338.816
268.875	384.227
271.768	457.033
274.661	514.234
277.553	525.215
280.446	472.795
283.339	398.481
286.232	321.438
289.124	315.037
292.017	354.283
294.91	364.473
297.802	344.496
300.695	359.846
303.588	357.566
306.481	339.582
309.373	350.059
312.266	382.014
315.159	413.717
318.051	418.908
320.944	433.68
323.837	321.422
326.729	192.461
329.622	77.6543
332.515	133.478
335.408	145.098
338.3	172.916
341.193	120.004
344.086	45.0449
346.978	20.6953
349.871	27.2324
352.764	30.3965
355.656	59.6797
358.549	86.1309
361.442	43.4043
364.334	12.4805
367.227	0.625
370.12	53.6484
373.013	56.9922
375.905	37.4141
378.798	21.7812
381.691	72.375
384.583	133.59
387.476	134.41
390.369	182.15
393.262	268.648
396.154	326.904
399.047	226.037
401.94	118.877
404.832	72.6211
407.725	49.8066
410.618	68.2519
413.51	107.727
416.403	90.2949
419.296	101.189
422.188	68.5391
425.081	8.79297
427.974	11.4844
430.866	51.166
433.759	26.1582
436.652	35.7871
439.545	60.4395
442.437	111.053
445.33	145.266
448.223	178.492
451.115	111.699
454.008	52.5488
456.901	47.1719
459.793	48.9258
462.686	35.5508
465.579	0.318359
468.472	15.6992
471.364	0.488281
474.257	11.1758
477.15	5.60156
480.042	36.3555
482.935	1.58203
485.828	11.082
488.721	6.08398
491.613	39.9121
494.506	95.6719
497.399	123.824
500.291	109.928
503.184	81.0977
506.077	49.7988
508.969	52.127
511.862	82.2285
514.755	75.7949
517.648	85.1289
520.54	133.783
523.433	176.551
526.326	240.959
529.218	237.018
532.111	175.447
535.004	76.959
537.896	42.7832
540.789	73.9707
543.682	56.9453
546.575	68.543
549.467	84.3945
552.36	69.8848
555.253	56.6738
558.145	30.043
561.038	51.5234
563.931	34.5293
566.823	29.5566
569.716	40.6152
572.609	29.5742
575.502	79.9082
578.394	112.029
581.287	205.496
584.18	155.397
587.072	197.949
589.965	145.451
592.858	115.656
595.75	140.5
598.643	110.314
601.536	87.4414
604.429	66.0127
607.321	71.5019
610.214	62.5859
613.107	51.3525
615.999	53.6377
618.892	19.3242
621.785	30.7588
624.678	1.93066
627.57	20.6348
630.463	23.4189
633.356	16.0127
636.248	60.8408
639.141	28.6631
642.034	9.56543
644.926	21.3174
647.819	6.9834
650.712	1.29102
653.605	31.2549
656.497	46.2266
659.39	100.223
662.283	111.638
665.175	89.0439
668.068	139.11
670.961	232.978
673.853	340.199
676.746	463.374
679.639	734.922
682.531	1104.83
685.424	1059.19
688.317	568.245
691.21	349.728
694.102	276.808
696.995	205.472
699.888	194.6
702.78	138.448
705.673	95.459
708.566	132.636
711.458	92.3584
714.351	98.207
717.244	79.2764
720.136	32.2285
723.029	72.8486
725.922	126.402
728.815	207.555
731.707	200.074
734.6	200.929
737.493	172.007
740.385	160.469
743.278	198.064
746.171	197.25
749.063	239.322
751.956	319.398
754.849	368.606
757.742	391.484
760.634	328.222
763.527	292.669
766.42	326.858
769.312	378.962
772.205	338.724
775.098	257.297
777.99	235.273
780.883	204.254
783.776	117.054
786.669	103.13
789.561	113.578
792.454	197.067
795.347	168.155
798.239	165.31
801.132	152.821
804.025	150.744
806.918	212.564
809.81	199.429
812.703	184.661
815.596	221.766
818.488	300.245
821.381	276.389
824.274	165.506
827.166	90.7129
830.059	46.5772
832.952	43.4131
835.845	33.9199
838.737	31.7344
841.63	2.25684
844.523	38.4912
847.415	34.9883
850.308	29.9404
853.201	70.8603
856.093	97.9072
858.986	136.478
861.879	150.43
864.771	157.04
867.664	158.272
870.557	188.887
873.45	207.147
876.342	226.109
879.235	149.94
882.128	185.233
885.02	261.537
887.913	275.1
890.806	290.43
893.698	235.797
896.591	226.458
899.484	231.292
902.377	248.225
905.269	327.646
908.162	331.739
911.055	388.234
913.947	432.517
916.84	444.51
919.733	383.585
922.625	400.911
925.518	465.359
928.411	229.078
931.304	37.8916
934.196	123.807
937.089	22.2949
939.982	4.42188
942.875	2.94336
945.767	9.6582
948.66	6.41699
951.553	1.11719
954.445	2.62109
957.338	19.9375
960.231	0.699219
963.123	8.78418
966.016	74.5723
968.909	31.624
971.802	27.9189
974.694	19.75
977.587	2.81641
980.48	14.7705
983.372	13.9688
986.265	12.9121
989.158	79.4981
992.05	101.599
994.943	109.039
997.836	113.192
1000.73	105.372
1003.62	141.156
1006.51	209.721
1009.41	283.3
1012.3	268.775
1015.19	185.892
1018.09	85.5273
1020.98	110.542
1023.87	42.9746
1026.76	22.8662
1029.66	7.30664
1032.55	5.87207
1035.44	74.5107
1038.33	51.3086
1041.23	10.0234
1044.12	22.126
1047.01	85.9258
1049.9	53.4238
1052.8	30.8643
1055.69	49.8691
1058.58	176.206
1061.47	228.761
1064.37	265.228
1067.26	281.435
1070.15	252.431
1073.05	215.691
1075.94	190.509
1078.83	154.562
1081.72	120.443
1084.62	141.773
1087.51	125.542
1090.4	146.9
1093.3	135.241
1096.19	161.89
1099.08	182.746
1101.97	179.331
1104.87	182.515
1107.76	151.835
1110.65	173.19
1113.54	184.023
1116.44	161.73
1119.33	144.803
1122.22	163.284
1125.12	153.651
1128.01	146.765
1130.9	128.41
1133.79	110.844
1136.68	132.692
1139.58	155.703
1142.47	113.121
1145.36	105.178
1148.26	164.568
1151.15	129.804
1154.04	144.227
1156.93	98.5898
1159.83	87.7363
1162.72	81.9795
1165.61	84.8555
1168.51	48.4082
1171.4	40.6162
1174.29	45.459
1177.18	55.1484
1180.08	63.9414
1182.97	25.7207
1185.86	53.21
1188.75	52.4043
1191.65	40.1123
1194.54	16.5596
1197.43	50.8565
1200.33	17.4697
1203.22	47.8379
1206.11	16.877
1209	62.8418
1211.9	109.695
1214.79	54.3975
1217.68	21.0342
1220.57	15.04
1223.47	2.06543
1226.36	53.419
1229.25	60.581
1232.14	44.3047
1235.04	9.50098
1237.93	33.7451
1240.82	63.6201
1243.71	119.484
1246.61	115.809
1249.5	81.7402
1252.39	48.4023
1255.29	46.1953
1258.18	84.501
1261.07	105.689
1263.96	96.7705
1266.86	102.856
1269.75	93.4385
1272.64	118.765
1275.54	163.733
1278.43	167.871
1281.32	146.882
1284.21	117.371
1287.11	72.6475
1290	63.2988
1292.89	3.56738
1295.78	14.3203
1298.68	24.4844
1301.57	22.0576
