Measurement: Raman, 532 nm, unoriented, Raman Data Processed
Mineral: Beryl
Rruff sample: R110113
Ideal chemistry: Be_3_Al_2_Si_6_O_18_
Locality: Synthetic
Source: Gemological Institute of America
Description: A cut, green (0.50ct) emerald gemstone, flux grown.
Raman shift (cm-1)	intensity
177.755	0
180.648	11.3696
183.541	3.63281
186.433	27.7398
189.326	17.0503
192.219	32.9253
195.112	22.1177
198.004	15.3989
200.897	12.8994
203.79	43.4277
206.682	43.0786
209.575	28.7202
212.468	19.8027
215.36	7.85693
218.253	2.19482
221.146	5.42822
224.038	11.207
226.931	9.39697
229.824	1.61426
232.717	3.90967
235.609	14.8491
238.502	39.2974
241.395	47.6938
244.287	63.9746
247.18	90.3213
250.073	106.585
252.965	129.055
255.858	132.815
258.751	138.627
261.644	123.461
264.536	123.227
267.429	127.249
270.322	133.491
273.214	151.404
276.107	151.028
279	139.179
281.892	126.27
284.785	99.5205
287.678	90.5117
290.571	93.6162
293.463	106.065
296.356	128.004
299.249	120.019
302.141	117.513
305.034	124.484
307.927	148.675
310.82	162.583
313.712	195.5
316.605	254.583
319.498	368.884
322.39	461.935
325.283	227.586
328.176	62.5737
331.068	33.8398
333.961	21.2847
336.854	46.9224
339.747	31.519
342.639	6.29102
345.532	5.97949
348.425	4.55664
351.317	4.32227
354.21	18.3193
357.103	21.2959
359.995	10.4287
362.888	5.45557
365.781	1.83008
368.673	15.7139
371.566	24.8394
374.459	21.3389
377.352	26.1836
380.244	41.7759
383.137	70.8227
386.03	85.6773
388.922	87.9971
391.815	129.534
394.708	146.196
397.601	95.1304
400.493	43.6694
403.386	11.3648
406.279	3.75635
409.171	0.679199
412.064	17.5156
414.957	24.7134
417.849	15.6089
420.742	13.5059
423.635	8.07812
426.527	2.08398
429.42	11.3667
432.313	5.12939
435.206	2.55615
438.098	14.4883
440.991	25.4521
443.884	55.041
446.776	82.6392
449.669	87.6567
452.562	66.6514
455.454	36.0474
458.347	21.2573
461.24	27.5674
464.133	24.0117
467.025	4.98682
469.918	6.86328
472.811	2.1499
475.703	9.88965
478.596	13.686
481.489	12.665
484.382	12.9688
487.274	20.0376
490.167	7.39062
493.06	16.7446
495.952	27.0371
498.845	28.8735
501.738	29.9004
504.63	23.8789
507.523	29.0347
510.416	29.3179
513.308	35.4712
516.201	43.832
519.094	48.2617
521.987	74.3379
524.879	116.436
527.772	141.613
530.665	127.564
533.557	83.5908
536.45	51.6572
539.343	30.2573
542.236	31.2529
545.128	21.9922
548.021	25.252
550.914	23.6939
553.806	28.4731
556.699	3.54541
559.592	8.90185
562.484	13.5527
565.377	9.78857
568.27	4.78369
571.163	2.64404
574.055	10.4585
576.948	7.96826
579.841	26.3252
582.733	31.917
585.626	22.2891
588.519	24.3852
591.411	24.8852
594.304	27.4375
597.197	21.5684
600.09	19.7676
602.982	11.5137
605.875	9.22217
608.768	3.82861
611.66	7.86572
614.553	5.61816
617.446	19.1606
620.338	20.6099
623.231	22.6318
626.124	15.7227
629.016	10.7412
631.909	7.41919
634.802	15.0635
637.695	8.9563
640.587	2.82153
643.48	1.95019
646.373	7.10791
649.265	2.72095
652.158	15.0757
655.051	14.7236
657.943	15.9385
660.836	29.6616
663.729	48.5835
666.622	53.0127
669.514	97.4282
672.407	190.623
675.3	311.449
678.192	509.871
681.085	836.917
683.978	1148.38
686.87	834.931
689.763	395.99
692.656	216.184
695.549	128.85
698.441	85.4541
701.334	52.9929
704.227	39.512
707.119	28.8096
710.012	40.1321
712.905	20.1731
715.798	12.188
718.69	5.41186
721.583	0.074219
724.476	17.5293
727.368	29.5293
730.261	32.5244
733.154	29.6638
736.046	29.4817
738.939	29.1372
741.832	36.3088
744.725	29.3892
747.617	41.5395
750.51	49.9912
753.403	72.846
756.295	71.7927
759.188	71.488
762.081	62.8279
764.973	62.825
767.866	72.9551
770.759	77.6172
773.652	70.5823
776.544	57.0706
779.437	50.6682
782.33	35.4944
785.222	26.9351
788.115	14.1433
791.008	19.2605
793.9	32.9377
796.793	27.3145
799.686	32.5957
802.578	26.7331
805.471	31.9612
808.364	41.9194
811.257	37.675
814.149	37.0207
817.042	55.8689
819.935	65.7976
822.827	41.052
825.72	25.8618
828.613	9.86035
831.505	1.89478
834.398	5.32227
837.291	6.22388
840.184	5.79394
843.076	1.94678
845.969	11.7971
848.862	15.8066
851.754	19.0151
854.647	22.6946
857.54	30.8286
860.433	39.946
863.325	45.5457
866.218	29.2302
869.111	28.0041
872.003	38.2856
874.896	51.0818
877.789	48.6599
880.681	41.604
883.574	43.9309
886.467	50.4605
889.36	62.7822
892.252	56.2615
895.145	52.0549
898.038	48.9853
900.93	56.9773
903.823	62.919
906.716	76.8955
909.608	89.9695
912.501	92.1138
915.394	111.035
918.287	111.902
921.179	117.963
924.072	124.736
926.965	105.101
929.857	45.0032
932.75	37.5354
935.643	40.1687
938.535	8.52832
941.428	9.33862
944.321	5.71606
947.213	12.0552
950.106	3.45898
952.999	2.56567
955.892	0.079102
958.784	4.27564
961.677	5.36646
964.57	5.22314
967.462	8.72119
970.355	1.23731
973.248	1.84155
976.14	4.46533
979.033	3.53467
981.926	4.69141
984.819	6.11499
987.711	3.32227
990.604	15.3113
993.497	19.2849
996.389	18.9629
999.282	22.5149
1002.17	41.3508
1005.07	67.1209
1007.96	105.675
1010.85	133.168
1013.75	125.12
1016.64	71.814
1019.53	45.6248
1022.42	20.9258
1025.32	17.0234
1028.21	1.32983
1031.1	10.9499
1033.99	12.1846
1036.89	21.0171
1039.78	23.8914
1042.67	40.7041
1045.57	59.8855
1048.46	92.2156
1051.35	130.067
1054.24	196.888
1057.14	341.65
1060.03	499.111
1062.92	731.34
1065.81	940.232
1068.71	993.995
1071.6	809.655
1074.49	541.035
1077.38	360.849
1080.28	250.268
1083.17	180.708
1086.06	135.656
1088.96	98.9959
1091.85	86.8501
1094.74	61.6658
1097.63	59.0745
1100.53	46.2249
1103.42	28.2424
1106.31	18.5046
1109.2	17.426
1112.1	21.0957
1114.99	18.9951
1117.88	8.43042
1120.78	2.52246
1123.67	12.7622
1126.56	5.18945
1129.45	7.2478
1132.35	8.4165
1135.24	12.626
1138.13	17.78
1141.02	17.0293
1143.92	17.5303
1146.81	6.55249
1149.7	6.302
1152.6	20.1567
1155.49	4.42603
1158.38	4.52881
1161.27	1.92139
1164.17	9.22998
1167.06	5.64722
1169.95	6.64771
1172.84	8.59741
1175.74	4.98169
1178.63	6.38696
1181.52	8.50928
1184.41	10.7573
1187.31	22.0308
1190.2	8.75391
1193.09	16.1099
1195.99	11.5378
1198.88	8.90552
1201.77	10.5989
1204.66	0.15332
1207.56	6.53418
1210.45	21.6887
1213.34	8.68799
1216.23	5.87427
1219.13	1.58838
1222.02	9.29541
1224.91	7.77368
1227.81	6.24951
1230.7	9.85205
1233.59	5.64941
1236.48	0.398926
1239.38	1.97681
1242.27	24.5332
1245.16	36.8355
1248.05	31.0252
1250.95	33.4568
1253.84	30.052
1256.73	48.3708
1259.62	60.2065
1262.52	50.1699
1265.41	50.3677
1268.3	40.0081
1271.2	39.1245
1274.09	38.4609
1276.98	50.489
1279.87	40.4626
1282.77	39.2353
1285.66	28.7417
1288.55	26.4109
1291.44	11.083
1294.34	8.71484
1297.23	1.51562
1300.12	7.37939
1303.02	0
