Measurement: Raman, 514 nm, unoriented, Raman Data Processed
Mineral: Beryl
Rruff sample: R050065
Ideal chemistry: Be_3_Al_2_Si_6_O_18_
Locality: Xuebaoding, Sichuan Province, China
Source: Rock Currier
Description: Light blue colored tabular single crystal
Measured chemistry: (Be_2.78_Li_0.22_)_Σ=3_Al_2.00_Si_6.00_O_18_·Na_0.22_
Raman shift (cm-1)	intensity
117.034	0
121.203	231.658
125.369	216.193
129.534	269.457
133.696	982.268
137.857	2070.6
142.016	3025.92
146.172	1674.41
150.327	554.451
154.48	411.859
158.63	332.008
162.779	390.83
166.926	503.014
171.07	341.375
175.213	389.633
179.354	500.674
183.493	309.918
187.63	258.006
191.765	257.096
195.898	203.441
200.029	344.475
204.158	17.477
208.285	5.223
212.41	125.715
216.533	31.48
220.654	65.447
224.773	105.721
228.891	132.758
233.006	281.004
237.119	134.82
241.231	12.883
245.34	130.756
249.448	70.359
253.553	30.908
257.657	26.863
261.758	56.074
265.858	218.502
269.956	17.199
274.052	40.016
278.146	375.129
282.237	465.234
286.327	505.447
290.416	1094.64
294.502	1432.1
298.586	863
302.668	287.543
306.749	433.557
310.827	369.6
314.903	644.113
318.978	1297.16
323.051	1557.59
327.121	1309
331.19	593.066
335.257	366.086
339.322	122.768
343.385	89.658
347.446	7.105
351.505	341.004
355.563	436.209
359.618	319.412
363.672	284.951
367.723	229.148
371.773	441.34
375.821	766.012
379.866	558.361
383.91	927.922
387.952	1818.17
391.992	3041.52
396.031	5488.04
400.067	7353.75
404.101	4696.18
408.134	2603.13
412.165	2068.33
416.193	2454.36
420.22	2786.17
424.245	2572.52
428.268	1983.94
432.289	1161.69
436.309	1100.92
440.326	900.463
444.342	726.914
448.355	661.123
452.367	225.977
456.377	348.711
460.385	159.508
464.391	324.008
468.395	168.582
472.398	69.537
476.398	44.713
480.397	29.01
484.394	65.02
488.389	0.928
492.382	50.301
496.373	8.402
500.362	65.779
504.349	21.004
508.335	18.82
512.319	131.076
516.3	11.281
520.28	9.748
524.259	29.615
528.235	336.191
532.209	225.418
536.182	119.279
540.152	250.92
544.121	156.643
548.088	83.264
552.053	488.803
556.017	501.037
559.978	584.949
563.938	569.74
567.895	745.068
571.851	1106.06
575.805	1243.74
579.758	1026.12
583.708	887.217
587.657	589.691
591.603	493.289
595.548	118.764
599.491	201.855
603.432	208.318
607.372	23.367
611.309	222.348
615.245	131.248
619.179	335.059
623.111	443.023
627.041	61.4
630.97	119.549
634.896	481.588
638.821	247.758
642.744	622.49
646.665	389.83
650.584	418.949
654.502	246.686
658.418	275.17
662.331	434.66
666.244	499.547
670.154	1407.69
674.062	2174.58
677.969	4385.1
681.874	9866.92
685.777	18531.8
689.678	13738.8
693.577	5624.73
697.475	3601.91
701.371	1982
705.265	1704.6
709.157	775.02
713.047	1173.91
716.936	309.523
720.823	868.84
724.708	621.605
728.591	367.465
732.472	535.922
736.352	572.473
740.23	627.188
744.106	511.773
747.98	291.23
751.853	665.535
755.723	697.719
759.592	356.742
763.459	814.461
767.325	908.535
771.188	485.582
775.05	70.008
778.91	186.797
782.768	37.148
786.625	346.508
790.479	230.488
794.332	16.598
798.183	491.082
802.033	330.34
805.88	203.613
809.726	124.52
813.57	14.051
817.413	193.258
821.253	25.969
825.092	68.195
828.929	222.277
832.764	287.82
836.598	161.848
840.429	151.137
844.259	225.281
848.088	452.242
851.914	406.93
855.739	225.469
859.562	58.945
863.383	83.773
867.203	593.164
871.02	377.781
874.836	489.355
878.65	638.773
882.463	462.141
886.274	402.406
890.083	105.492
893.89	285.371
897.695	247.414
901.499	563.59
905.301	485.777
909.102	721.559
912.9	846.434
916.697	671.148
920.492	697.738
924.285	789.281
928.077	635.871
931.867	737.434
935.655	918.41
939.442	329.773
943.226	728.965
947.009	686.816
950.791	427.578
954.57	60.344
958.348	488.535
962.124	331.781
965.899	322.566
969.671	190.262
973.442	622.449
977.211	776.055
980.979	423.141
984.745	11.812
988.509	699.328
992.271	1360.99
996.032	1982.64
999.791	2043.51
1003.55	2440.24
1007.3	2003.09
1011.06	1592.33
1014.81	1078.8
1018.56	1061.36
1022.31	1231.16
1026.06	467.129
1029.8	1092.14
1033.55	686.742
1037.29	545.277
1041.03	1033.05
1044.77	709.145
1048.5	782.883
1052.24	1197.44
1055.97	1099.95
1059.7	1973.27
1063.43	2348.67
1067.16	2639.98
1070.89	2777.08
1074.61	2728.28
1078.34	2194.43
1082.06	2071.5
1085.78	1953.35
1089.5	1293.98
1093.21	755.508
1096.93	420.492
1100.64	728.188
1104.35	408.418
1108.06	617.059
1111.77	231.211
1115.48	283.766
1119.18	247.422
1122.89	230.332
1126.59	135.43
1130.29	435.398
1133.99	129.684
1137.68	177.203
1141.38	31.918
1145.07	573.504
1148.76	409.637
1152.45	234.629
1156.14	650.172
1159.83	201.926
1163.51	332.316
1167.19	324.078
1170.88	333.477
1174.56	124.703
1178.23	228.512
1181.91	119.008
1185.59	187.367
1189.26	417.773
1192.93	966.824
1196.6	611.402
1200.27	963.242
1203.94	208.004
1207.6	1049.72
1211.27	1028.39
1214.93	659.012
1218.59	1277.61
1222.25	1345.87
1225.9	1540.98
1229.56	1741.86
1233.21	1176.5
1236.86	948.387
1240.51	1111.97
1244.16	986.738
1247.81	761.492
1251.45	802.84
1255.1	635.074
1258.74	38.211
1262.38	185.852
1266.02	396
1269.66	523.734
1273.29	96.285
1276.93	469.398
1280.56	407.191
1284.19	241.434
1287.82	334.699
1291.45	255.938
1295.07	480.852
1298.7	622.125
1302.32	427.184
1305.94	153.277
1309.56	146.027
1313.18	619.602
1316.8	398.078
1320.41	694.699
1324.02	852.223
1327.63	425.691
1331.24	752.309
1334.85	391.285
1338.46	56.758
