Measurement: Raman, 532 nm, unoriented, Raman Data Processed
Mineral: Berzeliite
Rruff sample: R061084
Ideal chemistry: NaCa_2_Mg_2_(As^5+^O_4_)_3_
Locality: Jakobsberg mine, Nordmark, Filipstad, Varmland, Sweden
Source: Michael Scott
Description: Light yellow irregular shaped crystal, associated with colorless tilasite and adelite, R060687
Measured chemistry: (Na_0.92_Ca_0.08_)Ca_2.03_(Mg_1.91_Mn_0.11_)[(As_0.96_Si_0.03_P_0.01_)O_4_]_3_
Raman shift (cm-1)	intensity
137.915	0
141.29	97.988
144.665	151.407
148.039	243.196
151.414	361.128
154.789	527.146
158.164	913.783
161.539	1488.46
164.913	2296.22
168.288	2921.17
171.663	2611.96
175.038	1520.41
178.413	906.042
181.788	556.824
185.162	360.302
188.537	236.06
191.912	153.808
195.287	47.331
198.662	28.693
202.036	80.158
205.411	62.133
208.786	30.004
212.161	122.018
215.536	85.409
218.911	42.091
222.285	119.081
225.66	189.715
229.035	263.685
232.41	317.398
235.785	303.271
239.159	265.543
242.534	311.378
245.909	298.327
249.284	274.849
252.659	192.117
256.033	228.327
259.408	308.511
262.783	363.336
266.158	358.384
269.533	355.825
272.908	286.25
276.282	371.44
279.657	332.451
283.032	514.225
286.407	493.728
289.782	675.739
293.156	926.142
296.531	1158.34
299.906	1556.92
303.281	2194.42
306.656	2842.38
310.03	3482.55
313.405	4111.42
316.78	4939.25
320.155	6417.91
323.53	9209.81
326.905	12773.3
330.279	15661.5
333.654	15460.3
337.029	11039.1
340.404	6730.2
343.779	4062.51
347.153	2574.45
350.528	1800.17
353.903	1208.9
357.278	823.665
360.653	650.63
364.027	505.058
367.402	325.854
370.777	270.817
374.152	315.495
377.527	498.612
380.902	713.134
384.276	1158.86
387.651	1849.43
391.026	2503.99
394.401	3533.9
397.776	4475.32
401.151	5316.99
404.525	5254.07
407.9	4187.09
411.275	2851.51
414.65	1972.27
418.025	1504.38
421.399	1421.69
424.774	1359.5
428.149	1417.07
431.524	1494.97
434.899	1550.99
438.273	1616.68
441.648	1723.5
445.023	1863.7
448.398	2070.14
451.773	2024.93
455.147	1686.44
458.522	1120.54
461.897	1106.08
465.272	1541.54
468.647	2739.99
472.022	3343.51
475.396	2764.21
478.771	2332.22
482.146	2182.11
485.521	2073.76
488.896	2212.32
492.27	2410.15
495.645	2760.01
499.02	3314.45
502.395	3793.06
505.77	3805.47
509.145	2969.35
512.519	1863.37
515.894	1006.03
519.269	513.553
522.644	220.292
526.019	127.539
529.393	0.059
532.768	83.271
536.143	90.533
539.518	159.898
542.893	159.814
546.268	75.413
549.642	138.372
553.017	127.634
556.392	207.005
559.767	116.002
563.141	120.828
566.516	89.982
569.891	30.705
573.266	30.938
576.641	92.247
580.016	85.945
583.39	62.398
586.765	14.597
590.14	40.765
593.515	60.445
596.89	75.52
600.265	72.083
603.639	28.544
607.014	22.656
610.389	33.199
613.764	82.694
617.138	46.711
620.513	46.567
623.888	71.165
627.263	69.371
630.638	55.204
634.013	65.272
637.387	46.706
640.762	32.619
644.137	2.168
647.512	37.871
650.887	30.104
654.261	58.329
657.636	11.504
661.011	38.201
664.386	80.871
667.761	85.903
671.135	66.944
674.51	105.13
677.885	230.959
681.26	220.875
684.635	149.951
688.01	258.643
691.384	202.832
694.759	248.097
698.134	165.928
701.509	250.993
704.884	250.413
708.258	270.562
711.633	230.26
715.008	157.41
718.383	85.097
721.758	58.035
725.133	44.805
728.507	186.573
731.882	403.994
735.257	649.355
738.632	915.85
742.007	1542.1
745.381	2304.74
748.756	3308.76
752.131	4131.15
755.506	5282.1
758.881	6505.79
762.255	7441
765.63	8475.09
769.005	9523.24
772.38	10410.1
775.755	10817.5
779.13	10976
782.504	11161.5
785.879	11337.1
789.254	11109
792.629	10804.9
796.004	10689.7
799.378	10756.8
802.753	11153.4
806.128	12074
809.503	13842.9
812.878	16771.1
816.253	21130.1
819.627	26692.3
823.002	32044.4
826.377	36345.8
829.752	39944.3
833.127	43641.4
836.501	48428.8
839.876	51667.7
843.251	50141.3
846.626	43842.7
850.001	34169.9
853.375	23599.9
856.75	15627.7
860.125	10739.9
863.5	7596.84
866.875	5457.55
870.25	4017.45
873.624	3446.11
876.999	3371.6
880.374	3917.93
883.749	4277.44
887.124	4758.43
890.498	5068.12
893.873	5063.47
897.248	4750.59
900.623	4177.65
903.998	3932.83
907.372	3656.82
910.747	3377.57
914.122	2901.33
917.497	1943.92
920.872	1013.2
924.247	309.916
927.621	86.27
930.996	86.1
934.371	239.562
937.746	230.797
941.121	215.451
944.495	294.504
947.87	349.404
951.245	283.059
954.62	273.662
957.995	196.568
961.37	154.639
964.744	108.211
968.119	231.688
971.494	96.543
974.869	75.896
978.244	28.645
981.618	15.037
984.993	63.387
988.368	1.338
991.743	39.879
995.118	26.928
998.492	1.82
1001.87	104.48
1005.24	16.535
1008.62	32.873
1011.99	113.182
1015.37	14.428
1018.74	56.414
1022.12	0.414
1025.49	7.238
1028.87	71.352
1032.24	35.436
1035.62	18.582
1038.99	100.051
1042.37	55.16
1045.74	9.793
1049.12	40.84
1052.49	24.359
1055.86	41.293
1059.24	41.619
1062.61	0.291
1065.99	86.014
1069.36	52.639
1072.74	25.805
1076.11	13.6
1079.49	40.326
1082.86	93.674
1086.24	219.635
1089.61	5.023
1092.99	79.354
1096.36	47.383
1099.74	79.314
1103.11	26.211
1106.49	164.578
1109.86	93.236
1113.24	101.451
1116.61	43.426
1119.99	48.029
1123.36	20.301
1126.73	25.582
1130.11	64.602
1133.48	104.838
1136.86	121.812
1140.23	128.455
1143.61	210.094
1146.98	52.088
1150.36	73.936
1153.73	58.078
1157.11	35.449
1160.48	16.156
1163.86	30.109
1167.23	3.037
1170.61	78.238
1173.98	93.871
1177.36	40.811
1180.73	70.207
1184.11	215.617
1187.48	37.541
1190.86	99.098
1194.23	13.326
1197.61	49.609
1200.98	32.682
1204.36	110.127
1207.73	0.818
1211.11	123.479
1214.48	43.217
1217.86	45.012
1221.23	114.23
1224.61	8.986
1227.98	33.957
1231.36	86.975
1234.73	79.287
1238.1	140.971
1241.48	130.002
1244.85	71.066
1248.23	207.066
1251.6	3.762
1254.98	15.033
1258.35	58.152
1261.73	22.545
1265.1	115.027
1268.48	103.188
1271.85	2.023
1275.23	139.229
1278.6	128.623
1281.98	102.525
1285.35	126.229
1288.73	180.004
1292.1	36.613
1295.48	26.174
1298.85	130.066
