Measurement: Raman, 532 nm, unoriented, Raman Data Processed
Mineral: Berzelianite
Rruff sample: R110159
Ideal chemistry: Cu_2-x_Se (x  0.12)
Locality: Facebaja, Romania
Source: Mark N Feinglos
Description: Black metallic euhedral grains, associated with pale-yellow sulfur crystals.
Raman shift (cm-1)	intensity
162.328	0
165.22	1.17431
168.113	0.721615
171.006	4.7691
173.898	4.21064
176.791	7.19065
179.684	10.2217
182.577	7.97126
185.469	9.07026
188.362	14.4563
191.255	16.0446
194.147	14.1784
197.04	16.0528
199.933	19.3553
202.825	19.236
205.718	16.1133
208.611	15.7854
211.504	16.7036
214.396	17.0617
217.289	16.8633
220.182	17.2985
223.074	14.7887
225.967	12.1677
228.86	11.7214
231.752	11.2701
234.645	11.1778
237.538	9.49897
240.43	8.01175
243.323	6.87779
246.216	6.25881
249.109	5.72051
252.001	4.83001
254.894	5.03987
257.787	5.78953
260.679	5.52993
263.572	5.24139
266.465	5.13405
269.358	3.64471
272.25	3.07877
275.143	2.22672
278.036	2.85963
280.928	2.81187
283.821	0.503098
286.714	1.50413
289.606	1.16064
292.499	2.06047
295.392	1.73683
298.284	1.26997
301.177	0.672997
304.07	1.56036
306.963	0.437729
309.855	0.933502
312.748	2.1806
315.641	0.556992
318.533	1.59118
321.426	0.757053
324.319	0.256229
327.212	1.14987
330.104	0.187962
332.997	1.2739
335.89	1.31002
338.782	1.23699
341.675	0.182709
344.568	2.59842
347.46	0.023891
350.353	0.981983
353.246	1.80656
356.139	1.93009
359.031	1.30661
361.924	1.38139
364.817	2.86538
367.709	0.999878
370.602	0.600979
373.495	1.65292
376.387	1.21038
379.28	2.81631
382.173	0.528362
385.065	1.02514
387.958	1.39308
390.851	2.36976
393.744	0.914673
396.636	0.411179
399.529	2.14211
402.422	2.77506
405.314	2.50884
408.207	0.713428
411.1	1.69828
413.993	2.26711
416.885	0.729206
419.778	3.04817
422.671	0.864742
425.563	2.7011
428.456	1.93842
431.349	1.86921
434.241	0.636242
437.134	2.58546
440.027	3.8335
442.92	2.88601
445.812	3.51455
448.705	2.04433
451.598	4.00777
454.49	3.33657
457.383	2.62741
460.276	2.98609
463.168	3.77844
466.061	2.03139
468.954	3.34751
471.846	2.9077
474.739	3.94855
477.632	1.16154
480.525	2.77409
483.417	2.42626
486.31	3.5185
489.203	2.01628
492.095	0.519203
494.988	1.4339
497.881	1.14285
500.774	0.985785
503.666	0.021063
506.559	0.568567
509.452	1.25736
512.344	0.920959
515.237	0.676664
518.13	0.571392
521.022	0.301947
523.915	1.43317
526.808	2.1566
529.701	0.175587
532.593	1.88066
535.486	0.233522
538.379	0.735474
541.271	2.26915
544.164	1.38257
547.057	0.45253
549.949	2.67574
552.842	1.14364
555.735	0.444147
558.628	3.29941
561.52	1.62881
564.413	2.59557
567.306	1.52131
570.198	1.97253
573.091	2.18846
575.984	0.90102
578.876	1.12976
581.769	1.37826
584.662	0.642147
587.554	0.589312
590.447	1.08397
593.34	3.1843
596.232	2.59869
599.125	1.23709
602.018	1.29236
604.911	1.14183
607.803	0.1497
610.696	2.09654
613.589	1.40966
616.481	1.19123
619.374	1.96075
622.267	0.968191
625.159	1.11039
628.052	1.40873
630.945	1.7818
633.838	0.436022
636.73	1.58067
639.623	1.55925
642.516	1.67897
645.408	2.47542
648.301	2.53496
651.194	2.00878
654.087	1.09319
656.979	2.31149
659.872	1.41117
662.765	1.77189
665.657	1.21992
668.55	2.33841
671.443	1.44229
674.335	1.57943
677.228	1.36844
680.121	1.46863
683.014	3.7966
685.906	1.66411
688.799	0.120493
691.692	1.78782
694.584	0.899525
697.477	0.541252
700.37	1.40275
703.263	0.534704
706.155	0.908688
709.048	0.634319
711.941	1.54091
714.833	0.688435
717.726	1.31115
720.619	0.327694
723.511	0.846184
726.404	0.833275
729.297	1.38797
732.189	0.369781
735.082	0.101269
737.975	2.45839
740.868	1.96775
743.76	0.453442
746.653	0.97599
749.546	0.838413
752.438	1.1927
755.331	0.324997
758.224	1.39341
761.116	0.27953
764.009	0.62738
766.902	0.920929
769.795	0.088245
772.687	1.55589
775.58	0.83427
778.473	0.487785
781.365	0.604462
784.258	1.97895
787.151	2.19188
790.043	1.58678
792.936	1.75675
795.829	2.28385
798.722	1.43639
801.614	2.07444
804.507	0.998646
807.4	2.684
810.292	4.02189
813.185	1.5369
816.078	3.08002
818.971	1.57785
821.863	3.09405
824.756	3.25978
827.649	4.75624
830.541	3.99493
833.434	3.62444
836.327	2.71155
839.219	4.01049
842.112	3.85922
845.005	3.9061
847.898	4.29501
850.79	4.0882
853.683	4.18467
856.576	4.94496
859.468	4.61742
862.361	4.4867
865.254	4.0621
868.146	3.79601
871.039	4.26592
873.932	2.94268
876.824	3.6954
879.717	3.92123
882.61	2.48253
885.503	1.53505
888.395	2.24581
891.288	1.97069
894.181	0.988964
897.073	1.6158
899.966	0.350603
902.859	0.943981
905.751	0.488714
908.644	0.203114
911.537	0.905914
914.43	1.18954
917.322	0.278158
920.215	1.08949
923.108	0.682623
926	0.236839
928.893	1.30288
931.786	0.505873
934.678	0.137257
937.571	0.118992
940.464	1.30601
943.357	0.394783
946.249	1.04109
949.142	0.600519
952.035	0.914732
954.927	0.814013
957.82	1.32209
960.713	1.58427
963.606	1.14951
966.498	0.880997
969.391	0.894228
972.284	2.5825
975.176	2.83671
978.069	2.16136
980.962	2.02284
983.854	2.3452
986.747	1.17926
989.64	0.454973
992.533	1.07092
995.425	0.967991
998.318	0.879574
1001.21	0.805758
1004.1	0.868996
1007	0.890232
1009.89	1.45373
1012.78	1.68449
1015.67	1.20644
1018.57	2.1319
1021.46	0.03657
1024.35	0.074667
1027.24	2.93543
1030.14	2.27009
1033.03	1.10016
1035.92	1.93732
1038.82	1.65003
1041.71	0.049665
1044.6	1.40934
1047.49	0.282707
1050.39	0.414415
1053.28	0.667562
1056.17	0.702879
1059.07	1.34
1061.96	1.54262
1064.85	1.99661
1067.74	1.26747
1070.63	1.46643
1073.53	0.043692
1076.42	0.478943
1079.31	0.635178
1082.21	1.30054
1085.1	1.51466
1087.99	0.778364
1090.88	1.2854
1093.78	0.690062
1096.67	2.34936
1099.56	1.21529
1102.45	0.854273
1105.35	0.304296
1108.24	1.94086
1111.13	0.158394
1114.03	0.473734
1116.92	1.86774
1119.81	2.10478
1122.7	0.524235
1125.6	0.501518
1128.49	0.802437
1131.38	1.33212
1134.28	0.602917
1137.17	1.73094
1140.06	0.809807
1142.95	0.695362
1145.85	1.36632
1148.74	2.05796
1151.63	0.981266
1154.52	0.604725
1157.42	1.85576
1160.31	0.815592
1163.2	1.82439
1166.09	1.14519
1168.99	1.55655
1171.88	0.912312
1174.77	1.81373
1177.66	1.87316
1180.56	0.798906
1183.45	1.70985
1186.34	0.870733
1189.24	0.895281
1192.13	0.995348
1195.02	1.46245
1197.91	1.10263
1200.81	1.15928
1203.7	0.411339
1206.59	2.27732
1209.48	1.61623
1212.38	0.522205
1215.27	1.4946
1218.16	1.93319
1221.06	1.3197
1223.95	1.73657
1226.84	0.614805
1229.73	0.708864
1232.63	0.637985
1235.52	1.81297
1238.41	1.57509
1241.31	0.196119
1244.2	0.440418
1247.09	0.375868
1249.98	0.811741
1252.88	0.318298
1255.77	1.32811
1258.66	1.84632
1261.55	0.886061
1264.45	0.915503
1267.34	1.97023
1270.23	0.348497
1273.12	1.37445
1276.02	1.81312
1278.91	1.92691
1281.8	0.522726
1284.69	2.62708
1287.59	2.55606
1290.48	2.68732
1293.37	0.253426
1296.27	0.947741
1299.16	0.050104
1302.05	0.798288
