Measurement: Raman, 780 nm, unoriented, Raman Data Processed
Mineral: Berzelianite
Rruff sample: R110159
Ideal chemistry: Cu_2-x_Se (x  0.12)
Locality: Facebaja, Romania
Source: Mark N Feinglos
Description: Black metallic euhedral grains, associated with pale-yellow sulfur crystals.
Raman shift (cm-1)	intensity
159.582	0
162.475	1.87027
165.367	3.11442
168.26	1.80991
171.153	3.93512
174.046	1.59486
176.938	2.2287
179.831	3.69295
182.724	3.6439
185.616	4.07062
188.509	4.42012
191.402	3.67413
194.294	4.28545
197.187	4.06735
200.08	4.51387
202.972	3.62798
205.865	4.52068
208.758	5.21326
211.651	2.62738
214.543	2.13378
217.436	3.64857
220.329	1.71972
223.221	2.74792
226.114	2.30363
229.007	1.0307
231.899	1.0157
234.792	1.56337
237.685	1.49958
240.578	2.16724
243.47	1.79056
246.363	2.81662
249.256	0.04525
252.148	0.920609
255.041	0.431286
257.934	0.309563
260.827	1.14742
263.719	0.295128
266.612	0.031643
269.505	1.44222
272.397	0.279652
275.29	0.864189
278.183	0.845158
281.075	0.031918
283.968	1.74501
286.861	0.15509
289.753	2.28688
292.646	1.70578
295.539	1.06146
298.432	1.54583
301.324	1.00573
304.217	1.59707
307.11	0.931881
310.002	1.65708
312.895	2.11121
315.788	0.934814
318.68	0.020519
321.573	0.906013
324.466	0.232525
327.359	1.53734
330.251	0.595207
333.144	0.594082
336.037	0.467667
338.929	0.140995
341.822	0.213505
344.715	1.04562
347.608	0.569031
350.5	0.421593
353.393	0.916889
356.286	0.69714
359.178	0.414009
362.071	1.14682
364.964	1.70115
367.856	0.354118
370.749	0.245548
373.642	0.818085
376.534	0.394409
379.427	1.67714
382.32	1.04148
385.213	1.05086
388.105	1.27169
390.998	1.23511
393.891	0.078854
396.783	0.568066
399.676	1.95596
402.569	2.61137
405.462	1.9299
408.354	1.53674
411.247	2.19179
414.14	1.76451
417.032	1.9448
419.925	2.3672
422.818	3.1223
425.71	2.87312
428.603	3.12617
431.496	3.09069
434.389	1.24767
437.281	4.1005
440.174	4.91124
443.067	3.90605
445.959	4.40781
448.852	3.70218
451.745	5.47947
454.637	6.44359
457.53	4.82015
460.423	5.59361
463.315	5.98807
466.208	4.92026
469.101	5.34506
471.994	5.34541
474.886	6.02063
477.779	5.46137
480.672	5.31507
483.564	3.9744
486.457	3.57049
489.35	2.30815
492.243	1.3112
495.135	2.21231
498.028	1.60588
500.921	1.22985
503.813	0.311968
506.706	0.475552
509.599	0.037273
512.491	0.943779
515.384	0.1971
518.277	0.670216
521.169	0.230566
524.062	0.450735
526.955	0.677589
529.848	0.293661
532.74	0.213774
535.633	0.17861
538.526	0.72681
541.418	0.581587
544.311	1.56078
547.204	1.20879
550.096	2.14897
552.989	3.02947
555.882	2.63008
558.775	3.22921
561.667	1.51541
564.56	0.495136
567.453	0.829872
570.345	1.07596
573.238	1.38884
576.131	1.08856
579.024	0.088873
581.916	1.24629
584.809	0.963854
587.702	0.51487
590.594	0.931957
593.487	0.102339
596.38	0.808449
599.272	0.945805
602.165	1.62249
605.058	1.03005
607.951	0.698257
610.843	2.23224
613.736	0.895531
616.629	1.09218
619.521	1.86227
622.414	0.968304
625.307	1.37295
628.199	0.825237
631.092	0.685658
633.985	0.73176
636.878	0.632059
639.77	1.05341
642.663	1.24556
645.556	1.61847
648.448	0.822596
651.341	0.789383
654.234	1.59403
657.126	1.25656
660.019	1.27097
662.912	0.019501
665.804	1.62771
668.697	1.20159
671.59	0.913677
674.483	1.09756
677.375	1.07921
680.268	1.89299
683.161	0.83293
686.053	0.006435
688.946	1.21385
691.839	0.524647
694.731	0.019758
697.624	0.733976
700.517	0.346308
703.41	0.943993
706.302	1.04495
709.195	1.35111
712.088	0.451118
714.98	1.63689
717.873	0.511086
720.766	1.52473
723.659	1.04104
726.551	0.406494
729.444	1.00592
732.337	0.596321
735.229	1.1771
738.122	1.16839
741.015	0.728045
743.907	0.862455
746.8	0.883186
749.693	0.304195
752.586	0.265676
755.478	0.258087
758.371	0.209782
761.264	0.681568
764.156	0.014605
767.049	0.375149
769.942	0.461256
772.834	0.147152
775.727	0.471113
778.62	1.33796
781.513	0.60475
784.405	0.812073
787.298	0.99806
790.191	0.096273
793.083	0.792057
795.976	0.851704
798.869	0.765173
801.761	2.24355
804.654	2.01091
807.547	1.11788
810.439	1.94305
813.332	2.00665
816.225	2.067
819.118	1.81605
822.01	2.24774
824.903	1.89103
827.796	1.76236
830.688	1.15153
833.581	2.06699
836.474	2.451
839.366	1.95739
842.259	2.06451
845.152	2.36876
848.045	2.80555
850.937	2.92453
853.83	1.97979
856.723	2.65742
859.615	2.88763
862.508	2.63455
865.401	2.60537
868.293	1.68045
871.186	3.25114
874.079	2.01832
876.972	1.89617
879.864	1.86101
882.757	1.76318
885.65	1.33349
888.542	1.92635
891.435	0.831682
894.328	0.593279
897.221	0.209152
900.113	1.24846
903.006	1.49265
905.899	0.525694
908.791	0.388948
911.684	1.1442
914.577	0.280661
917.469	0.056284
920.362	0.497824
923.255	0.8981
926.148	0.899284
929.04	0.067451
931.933	0.865278
934.826	0.293438
937.718	1.57287
940.611	0.575085
943.504	0.721771
946.396	0.437382
949.289	0.746628
952.182	1.42152
955.074	0.616201
957.967	0.042469
960.86	0.011761
963.753	1.0948
966.645	1.021
969.538	1.40787
972.431	0.628265
975.323	1.09689
978.216	0.57295
981.109	0.115973
984.001	1.19686
986.894	1.58567
989.787	0.906973
992.68	0.300316
995.572	0.248648
998.465	0.880829
1001.36	1.4229
1004.25	0.35808
1007.14	1.15854
1010.04	1.08098
1012.93	0.513824
1015.82	0.450264
1018.71	0.990753
1021.61	0.896177
1024.5	0.489025
1027.39	1.4491
1030.29	0.012869
1033.18	0.80805
1036.07	2.1026
1038.96	0.336941
1041.86	1.1828
1044.75	1.26678
1047.64	0.830036
1050.53	0.566711
1053.43	0.887558
1056.32	0.003912
1059.21	1.33333
1062.1	0.81966
1065	1.65882
1067.89	0.810511
1070.78	0.924484
1073.67	1.35856
1076.57	0.656107
1079.46	0.336681
1082.35	0.613113
1085.25	2.39807
1088.14	0.651739
1091.03	0.95026
1093.92	0.533386
1096.82	1.39559
1099.71	0.385151
1102.6	0.592489
1105.49	0.863144
1108.39	1.49157
1111.28	1.12556
1114.17	0.803012
1117.07	0.513287
1119.96	0.609976
1122.85	0.089306
1125.74	0.032676
1128.64	1.83642
1131.53	1.40747
1134.42	0.069946
1137.32	0.943366
1140.21	0.421052
1143.1	0.377248
1145.99	0.063323
1148.88	0.542696
1151.78	1.17229
1154.67	1.50981
1157.56	1.48108
1160.46	1.82424
1163.35	1.33423
1166.24	0.762531
1169.13	0.557505
1172.03	1.09306
1174.92	0.967901
1177.81	0.912821
1180.7	0.91363
1183.6	1.6872
1186.49	0.91559
1189.38	0.425726
1192.28	1.53688
1195.17	0.988607
1198.06	1.0411
1200.95	1.15075
1203.85	1.19053
1206.74	1.20455
1209.63	1.16231
1212.53	2.08565
1215.42	1.90155
1218.31	0.554829
1221.2	0.688787
1224.1	1.10415
1226.99	0.096502
1229.88	0.414927
1232.77	0.568539
1235.67	0.612167
1238.56	0.652369
1241.45	0.793032
1244.34	1.28725
1247.24	1.10024
1250.13	0.935516
1253.02	1.04956
1255.91	0.561852
1258.81	0.995476
1261.7	1.03174
1264.59	0.786934
1267.49	1.46487
1270.38	1.21964
1273.27	1.85348
1276.16	0.198484
1279.06	0.656553
1281.95	0.453205
1284.84	0.310259
