Measurement: Raman, 785 nm, unoriented, Raman Data Processed
Mineral: Beudantite
Rruff sample: R070502
Ideal chemistry: Pb^2+^Fe^3+^_3_(As^5+^O_4_)(S^6+^O_4_)(OH)_6_
Locality: Dulcinea, Copiap√≥ Province, Atacama Region, Chile
Source: Bob Jenkins
Description: Thin hexagonal yellow plates
Raman shift (cm-1)	intensity
151.773	0
154.665	87.7393
157.558	1.30835
160.451	264.324
163.344	364.161
166.236	273.233
169.129	100.035
172.022	34.8684
174.914	18.8264
177.807	25.1851
180.7	177.075
183.592	439.731
186.485	741.812
189.378	1136.13
192.27	1610.36
195.163	2119.38
198.056	2548.13
200.949	2895.36
203.841	3040.88
206.734	3093.55
209.627	3093.17
212.519	3149.35
215.412	3132.63
218.305	2971.71
221.197	2645.88
224.09	2084.74
226.983	1494.89
229.876	1065.9
232.768	801.063
235.661	552.785
238.554	468.086
241.446	379.044
244.339	319.106
247.232	304.804
250.125	256.91
253.017	264.942
255.91	208.933
258.803	166.222
261.695	170.985
264.588	123.589
267.481	61.4008
270.373	35.5587
273.266	10.7964
276.159	24.3501
279.051	12.9217
281.944	3.73926
284.837	22.0233
287.73	98.072
290.622	164.314
293.515	277.368
296.408	314.93
299.3	378.083
302.193	379.691
305.086	349.682
307.978	322.182
310.871	310.8
313.764	256.23
316.657	281.575
319.549	249.682
322.442	259.894
325.335	295.565
328.227	273.672
331.12	226.1
334.013	128.112
336.906	63.957
339.798	43.8969
342.691	40.9763
345.584	50.2716
348.476	71.2513
351.369	62.7289
354.262	80.667
357.154	58.7756
360.047	53.0895
362.94	28.1487
365.832	18.0579
368.725	6.89417
371.618	8.07507
374.511	42.3878
377.403	14.3472
380.296	13.3057
383.189	1.68347
386.081	15.0989
388.974	17.5807
391.867	21.4338
394.76	72.7087
397.652	105.101
400.545	210.39
403.438	270.671
406.33	341.204
409.223	419.245
412.116	507.151
415.008	688.803
417.901	937.269
420.794	1117.91
423.687	1422.53
426.579	1812.65
429.472	2228.83
432.365	2538.45
435.257	2695.52
438.15	2564.8
441.043	2292.43
443.935	2093.75
446.828	1915.08
449.721	1751.82
452.613	1552.01
455.506	1381.35
458.399	1217.45
461.292	1163.67
464.184	1267.24
467.077	1363.87
469.97	1505.31
472.862	1671.8
475.755	1496.27
478.648	1242.56
481.541	948.846
484.433	660.72
487.326	460.808
490.219	325.894
493.111	198.438
496.004	119.59
498.897	58.0532
501.789	51.9055
504.682	4.07837
507.575	0.459351
510.467	26.4613
513.36	6.11755
516.253	0.255371
519.146	12.8415
522.038	8.77222
524.931	54.8209
527.824	63.4308
530.716	68.6205
533.609	84.3446
536.502	164.737
539.394	188.143
542.287	203.709
545.18	277.04
548.073	339.459
550.965	411.094
553.858	495.369
556.751	492.901
559.643	501.683
562.536	528.06
565.429	512.888
568.322	473.854
571.214	419.923
574.107	336.059
577	253.106
579.892	181.643
582.785	115.956
585.678	90.3961
588.57	74.229
591.463	10.5427
594.356	12.3438
597.249	11.5399
600.141	12.1386
603.034	57.1972
605.927	115.25
608.819	198.196
611.712	363.774
614.605	620.494
617.497	896.518
620.39	1168.97
623.283	1156.79
626.176	722.4
629.068	357.726
631.961	217.331
634.854	114.386
637.746	101.902
640.639	76.6874
643.532	49.9114
646.424	32.2288
649.317	29.5584
652.21	40.1236
655.102	0.847595
657.995	20.9612
660.888	5.69977
663.781	11.9429
666.673	5.9801
669.566	5.4613
672.459	10.2458
675.351	18.6761
678.244	12.6677
681.137	13.8503
684.029	4.65674
686.922	13.3598
689.815	0.958679
692.708	13.2224
695.6	13.7966
698.493	14.5841
701.386	6.33624
704.278	2.37353
707.171	44.3919
710.064	30.3397
712.957	23.6089
715.849	37.4232
718.742	42.1207
721.635	37.7693
724.527	42.4043
727.42	24.1361
730.313	23.7551
733.205	11.5323
736.098	19.9638
738.991	10.5041
741.884	14.8526
744.776	4.95355
747.669	10.1539
750.562	21.8736
753.454	2.00909
756.347	17.359
759.24	1.30334
762.132	16.4327
765.025	1.60425
767.918	17.5533
770.811	9.32758
773.703	11.7246
776.596	5.49353
779.489	4.11481
782.381	47.4155
785.274	47.9252
788.167	83.4459
791.059	124.813
793.952	161.299
796.845	193.307
799.737	259.215
802.63	290.779
805.523	368.82
808.416	374.136
811.308	388.473
814.201	425.738
817.094	434.329
819.986	461.426
822.879	496.855
825.772	502.317
828.664	563.688
831.557	555.308
834.45	572.404
837.343	578.736
840.235	634.701
843.128	648.067
846.021	719.408
848.913	702.604
851.806	672.21
854.699	627.456
857.591	547.561
860.484	476.917
863.377	382.702
866.27	338.241
869.162	293.813
872.055	211.815
874.948	191.344
877.84	138.686
880.733	119.517
883.626	86.0048
886.519	69.0264
889.411	58.9835
892.304	41.4885
895.197	33.0656
898.089	7.41309
900.982	2.27399
903.875	4.44635
906.767	24.4893
909.66	2.40863
912.553	17.4859
915.446	13.4533
918.338	34.1634
921.231	33.0113
924.124	55.8072
927.016	50.6171
929.909	64.0901
932.802	73.4137
935.694	65.8962
938.587	62.2119
941.48	63.9657
944.372	73.9925
947.265	57.8257
950.158	70.4837
953.051	62.3815
955.943	33.2137
958.836	29.2916
961.729	21.2112
964.621	4.09973
967.514	0.604126
970.407	15.1384
973.299	17.477
976.192	7.03449
979.085	48.052
981.978	104.921
984.87	179.019
987.763	338.135
990.656	573.037
993.548	852.929
996.441	1117.17
999.334	1351.98
1002.23	1373.71
1005.12	1229.01
1008.01	916.266
1010.9	539.945
1013.8	307.605
1016.69	195.737
1019.58	109.564
1022.48	68.1722
1025.37	57.2417
1028.26	16.5225
1031.15	18.1211
1034.05	17.4381
1036.94	18.9852
1039.83	7.72034
1042.72	1.24335
1045.62	6.21082
1048.51	24.5818
1051.4	16.0063
1054.3	16.1879
1057.19	45.4589
1060.08	73.8576
1062.97	92.3278
1065.87	122.253
1068.76	163.541
1071.65	156.315
1074.54	201.841
1077.44	231.096
1080.33	286.53
1083.22	360.945
1086.12	420.184
1089.01	518.037
1091.9	649.812
1094.79	727.543
1097.69	818.093
1100.58	855.822
1103.47	777.149
1106.36	646.599
1109.26	568.626
1112.15	426.881
1115.04	346.906
1117.93	275.197
1120.83	197.803
1123.72	138.866
1126.61	133.02
1129.51	103.126
1132.4	78.58
1135.29	85.7526
1138.18	108.434
1141.08	99.2941
1143.97	138.935
1146.86	163.13
1149.75	211.149
1152.65	182.555
1155.54	201.537
1158.43	163.232
1161.33	144.049
1164.22	128.918
1167.11	95.1084
1170	57.8856
1172.9	26.2676
1175.79	48.9552
1178.68	19.0774
1181.57	28.8754
1184.47	14.1636
1187.36	0.822876
1190.25	20.8219
1193.14	7.87616
1196.04	7.55383
1198.93	11.7363
1201.82	1.45551
1204.71	17.5263
1207.61	0.405701
1210.5	8.854
1213.39	4.64758
1216.29	17.5741
1219.18	24.0576
1222.07	17.3541
1224.96	32.5662
1227.86	13.2994
1230.75	31.8192
1233.64	27.7789
1236.54	22.3092
1239.43	5.58472
1242.32	15.828
1245.21	23.3868
1248.11	32.759
1251	12.8708
