Measurement: Raman, 532 nm, unoriented, Raman Data Processed
Mineral: Beudantite
Rruff sample: R070502
Ideal chemistry: Pb^2+^Fe^3+^_3_(As^5+^O_4_)(S^6+^O_4_)(OH)_6_
Locality: Dulcinea, Copiap√≥ Province, Atacama Region, Chile
Source: Bob Jenkins
Description: Thin hexagonal yellow plates
Raman shift (cm-1)	intensity
151.602	0
154.494	342.928
157.387	733.746
160.28	531.158
163.173	211.013
166.065	37.7998
168.958	55.583
171.851	11.4424
174.743	91.1738
177.636	7.12109
180.529	56.9316
183.421	257.554
186.314	442.282
189.207	835.816
192.1	1430.56
194.992	1933.06
197.885	2304.36
200.778	2645.13
203.67	2771.06
206.563	2780.57
209.456	2802.25
212.348	2822.28
215.241	2677.38
218.134	2627.51
221.026	2408.69
223.919	1968.98
226.812	1413.13
229.705	1010.3
232.597	749.389
235.49	517.436
238.383	340.501
241.275	353.497
244.168	365.614
247.061	376.295
249.954	402.455
252.846	226.82
255.739	318.825
258.632	306.991
261.524	176.734
264.417	188.997
267.31	203.827
270.202	142.732
273.095	30.4502
275.988	10.0205
278.881	57.5488
281.773	52.2842
284.666	59.2832
287.559	193.998
290.451	129.696
293.344	255.112
296.237	327.986
299.13	391.388
302.022	440.292
304.915	372.204
307.808	393.256
310.7	416.637
313.593	461.676
316.486	401.886
319.378	402.638
322.271	442.296
325.164	409.368
328.057	435.208
330.949	234.429
333.842	203.842
336.735	147.97
339.627	91.9639
342.52	55.0176
345.413	3.5
348.305	53.4102
351.198	70.3682
354.091	111.667
356.983	88.6846
359.876	40.5478
362.769	52.2461
365.662	39.7891
368.554	65.1641
371.447	72.8662
374.34	18.6953
377.232	77.0332
380.125	28.5586
383.018	39.3897
385.911	34.5645
388.803	2.61914
391.696	17.5137
394.589	49.2109
397.481	209.095
400.374	231.477
403.267	270.915
406.159	424.946
409.052	511.733
411.945	630.942
414.837	766.779
417.73	893.646
420.623	1337.9
423.516	1760.29
426.408	2257.57
429.301	2711.06
432.194	3061.54
435.086	3278.81
437.979	3010
440.872	2761.69
443.764	2351.1
446.657	2143.74
449.55	1904.28
452.443	1704.04
455.335	1438.52
458.228	1490.14
461.121	1492.25
464.014	1567.97
466.906	1833.42
469.799	2057.12
472.692	2149.43
475.584	1922.4
478.477	1619.78
481.37	1203.35
484.262	861.663
487.155	655.731
490.048	354.88
492.94	195.352
495.833	23.3799
498.726	12.3359
501.619	23.5918
504.511	19.3809
507.404	58.2607
510.297	10.8818
513.189	30.1621
516.082	26.9775
518.975	12.9033
521.867	71.8359
524.76	51.2178
527.653	140.472
530.546	228.491
533.438	342.494
536.331	435.702
539.224	479.261
542.116	565.229
545.009	609.925
547.902	763.019
550.794	829.517
553.687	784.526
556.58	936.157
559.473	835.981
562.365	868.778
565.258	822.33
568.151	772.02
571.043	755.692
573.936	641.455
576.829	577.649
579.721	481.626
582.614	342.915
585.507	189.675
588.4	260.685
591.292	150.952
594.185	147.827
597.078	124.788
599.97	64.2881
602.863	151.584
605.756	198.073
608.649	307.514
611.541	515.5
614.434	710.346
617.327	1006.76
620.219	1209.42
623.112	1105.24
626.005	748.323
628.897	355.308
631.79	114.66
634.683	59.9453
637.576	29.1475
640.468	67.0772
643.361	40.6807
646.254	63.125
649.146	43.3477
652.039	8.61816
654.932	9.12207
657.824	35.3213
660.717	158.833
663.61	26.1709
666.503	88.9414
669.395	4.01465
672.288	46.6221
675.181	199.957
678.073	152.986
680.966	92.5195
683.859	144.194
686.751	36.6719
689.644	74.6602
692.537	101.237
695.43	72.4951
698.322	48.623
701.215	133.312
704.108	99.6523
707	44.1973
709.893	81.6123
712.786	14.5684
715.678	194.4
718.571	71.4424
721.464	56.7568
724.357	4.875
727.249	58.5098
730.142	127.017
733.035	93.792
735.927	58.5801
738.82	58.7529
741.713	52.1435
744.606	3.99121
747.498	90.1973
750.391	75.832
753.284	84.5537
756.176	23.8223
759.069	40.2812
761.962	29.3535
764.854	25.8701
767.747	1.13184
770.64	43.9893
773.533	9.22656
776.425	45.7744
779.318	46.3613
782.211	12.2041
785.103	85.4404
787.996	185.643
790.889	225.362
793.781	219.58
796.674	232.685
799.567	224.774
802.46	421.039
805.352	459.685
808.245	490.218
811.138	575.423
814.03	643.686
816.923	565.095
819.816	689.456
822.708	721.416
825.601	957.254
828.494	860.737
831.386	799.952
834.279	838.586
837.172	796.09
840.065	845.227
842.957	797.33
845.85	879.708
848.743	839.58
851.635	833.146
854.528	743.064
857.421	675.451
860.313	634.997
863.206	522.5
866.099	566.881
868.992	494.702
871.884	343.484
874.777	296.322
877.67	351.7
880.562	305.518
883.455	208.157
886.348	121.04
889.24	154.333
892.133	137.566
895.026	35.5488
897.919	4.28125
900.811	38.3486
903.704	68.4795
906.597	17.7969
909.489	132.044
912.382	55.9853
915.275	15.291
918.168	126.447
921.06	94.2949
923.953	80.4023
926.846	160.954
929.738	113.048
932.631	87.9971
935.524	78.7891
938.416	76.3213
941.309	63.3887
944.202	157.334
947.095	116.092
949.987	115.546
952.88	43.1406
955.773	76.3408
958.665	59.5049
961.558	4.86231
964.451	30.8193
967.343	76.7178
970.236	49.3272
973.129	9.92383
976.021	70.4189
978.914	67.5684
981.807	124.397
984.7	216.651
987.592	357.947
990.485	658.849
993.378	915.279
996.27	1080.63
999.163	1223.26
1002.06	1276.46
1004.95	1042.14
1007.84	770.051
1010.73	501.727
1013.63	300.886
1016.52	183.93
1019.41	72.4336
1022.3	39.332
1025.2	26.4072
1028.09	3.21387
1030.98	8.77441
1033.88	15.75
1036.77	15.0859
1039.66	53.0801
1042.55	2.63769
1045.45	30.54
1048.34	41.7891
1051.23	28.2969
1054.12	83.7832
1057.02	122.174
1059.91	167.25
1062.8	215.158
1065.69	251.234
1068.59	263.476
1071.48	289.393
1074.37	291.129
1077.27	392.1
1080.16	441.456
1083.05	564.686
1085.94	681.063
1088.84	813.523
1091.73	929.683
1094.62	1172.27
1097.52	1270.18
1100.41	1285.19
1103.3	1241.03
1106.19	1023.92
1109.09	879.777
1111.98	787.367
1114.87	668.903
1117.76	530.031
1120.66	354.31
1123.55	285.073
1126.44	267.571
1129.34	266.183
1132.23	181.955
1135.12	169.095
1138.01	134.142
1140.91	181.389
1143.8	255.795
1146.69	302.447
1149.58	399.446
1152.48	411.322
1155.37	389.023
1158.26	292.565
1161.15	234.778
1164.05	177.175
1166.94	137.608
1169.83	137.863
1172.72	156.168
1175.62	126.316
1178.51	168.817
1181.4	105.026
1184.3	101.276
1187.19	72.7617
1190.08	69.459
1192.97	52.5254
1195.87	61.6572
1198.76	66.6172
1201.65	56.7852
1204.55	33.668
1207.44	29.9678
1210.33	39.6445
1213.22	10.4922
1216.12	42.376
1219.01	77.084
1221.9	187.079
1224.79	191.974
1227.69	41.2637
1230.58	74.4971
1233.47	3.44043
1236.37	34.1191
1239.26	132.269
1242.15	51.4541
1245.04	4.28027
1247.94	129.2
1250.83	127.45
1253.72	133.879
1256.61	113.21
1259.51	58.9639
1262.4	124.738
1265.29	94.9893
1268.18	105.27
1271.08	78.3574
1273.97	60.4727
1276.86	17.1367
1279.76	37.4531
1282.65	108.712
1285.54	67.2666
1288.43	40.5635
