Measurement: Raman, 780 nm, unoriented, Raman Data Processed
Mineral: Bieberite
Rruff sample: R070595
Ideal chemistry: Co^2+^S^6+^O_4_7H_2_O
Locality: Nkana mine, Kitwe, Western Province, Zambia
Source: James Shigley
Description: Light pink massive coating blue chalcanthite
Raman shift (cm-1)	intensity
127.462	0
130.355	11.9421
133.248	9.04395
136.14	11.8751
139.033	30.1227
141.926	31.7665
144.819	86.8877
147.711	26.9788
150.604	1.07275
153.497	22.5675
156.389	29.6683
159.282	10.0847
162.175	40.1848
165.067	19.1821
167.96	64.3848
170.853	21.038
173.745	42.0496
176.638	35.8004
179.531	32.499
182.424	66.9009
185.316	30.8727
188.209	18.6381
191.102	54.9074
193.994	73.4733
196.887	48.8833
199.78	113.151
202.673	93.6726
205.565	85.533
208.458	105.396
211.351	178.082
214.243	192.329
217.136	187.711
220.029	262.688
222.921	249.075
225.814	244.23
228.707	243.445
231.6	189.749
234.492	178.116
237.385	107.49
240.278	74.459
243.17	75.8768
246.063	73.2213
248.956	79.2042
251.848	91.8673
254.741	76.7083
257.634	120.878
260.526	128.755
263.419	152.948
266.312	152.344
269.205	182.827
272.097	207.29
274.99	225.248
277.883	178.896
280.775	188.303
283.668	117.479
286.561	71.2855
289.454	64.3527
292.346	0.967407
295.239	5.72522
298.132	0.770752
301.024	0.48938
303.917	29.0435
306.81	6.62036
309.702	32.7312
312.595	25.4882
315.488	26.7145
318.38	8.10156
321.273	1.16858
324.166	4.47217
327.059	0.064087
329.951	14.5952
332.844	33.3038
335.737	45.6597
338.629	10.7257
341.522	18.7977
344.415	9.57825
347.308	39.6475
350.2	23.0488
353.093	4.95447
355.986	47.0774
358.878	10.6005
361.771	15.2611
364.664	6.02136
367.556	26.547
370.449	19.6659
373.342	17.7948
376.235	38.1018
379.127	19.7856
382.02	9.83667
384.913	28.2248
387.805	12.0415
390.698	24.8141
393.591	26.6954
396.483	3.80652
399.376	35.0985
402.269	17.7786
405.161	44.3981
408.054	45.4894
410.947	83.4089
413.84	120.388
416.732	192.968
419.625	258.768
422.518	286.43
425.41	236.508
428.303	161.145
431.196	106.508
434.089	120.606
436.981	81.4215
439.874	72.0443
442.767	111.065
445.659	102.378
448.552	85.2446
451.445	77.1815
454.337	64.8522
457.23	77.5161
460.123	95.9969
463.016	65.7573
465.908	111.844
468.801	66.1211
471.694	71.8539
474.586	45.8984
477.479	65.7869
480.372	55.0217
483.264	63.1613
486.157	64.5676
489.05	92.5203
491.943	142.699
494.835	163.553
497.728	179.932
500.621	230.395
503.513	212.328
506.406	186.752
509.299	156.532
512.192	102.592
515.084	95.1044
517.977	97.6172
520.87	16.3779
523.762	37.7517
526.655	15.7592
529.548	30.3025
532.44	9.58789
535.333	25.5221
538.226	57.7048
541.119	12.4171
544.011	37.1378
546.904	21.8872
549.797	0.92688
552.689	6.54517
555.582	22.0764
558.475	17.8416
561.367	8.68384
564.26	3.0979
567.153	4.26099
570.045	32.0764
572.938	1.75732
575.831	6.71899
578.724	22.3041
581.616	18.0952
584.509	37.3603
587.402	35.4043
590.294	45.7032
593.187	47.5714
596.08	83.9507
598.972	65.7792
601.865	86.0299
604.758	125.722
607.651	140.155
610.543	162.457
613.436	210.806
616.329	229.088
619.221	290.847
622.114	228.87
625.007	238.913
627.899	173.834
630.792	114.144
633.685	89.324
636.578	60.1056
639.47	27.7297
642.363	53.775
645.256	9.37109
648.148	18.671
651.041	69.0708
653.934	81.7745
656.827	63.3859
659.719	60.7899
662.612	82.7519
665.505	68.6692
668.397	37.2552
671.29	54.404
674.183	64.834
677.075	39.525
679.968	9.14282
682.861	11.4601
685.754	0.364136
688.646	27.5438
691.539	4.02979
694.432	0.575195
697.324	36.7202
700.217	13.5731
703.11	12.525
706.002	4.84485
708.895	1.35107
711.788	39.1365
714.681	30.3456
717.573	14.6749
720.466	2.35791
723.359	40.6771
726.251	23.6686
729.144	5.67468
732.037	3.16821
734.929	52.5983
737.822	34.8673
740.715	27.9017
743.607	15.4269
746.5	13.3004
749.393	20.9142
752.286	7.29785
755.178	23.5706
758.071	27.9748
760.964	31.7999
763.856	16.6284
766.749	27.6055
769.642	12.4993
772.534	29.7046
775.427	3.0304
778.32	15.5975
781.213	12.901
784.105	29.4031
786.998	26.0812
789.891	23.0492
792.783	21.8184
795.676	50.1409
798.569	41.0784
801.462	11.0143
804.354	22.8401
807.247	9.80664
810.14	7.14612
813.032	22.2659
815.925	13.7643
818.818	27.9979
821.71	34.9517
824.603	2.01819
827.496	13.4345
830.389	10.8129
833.281	51.7968
836.174	32.048
839.067	0.915222
841.959	28.9265
844.852	28.5717
847.745	43.4793
850.638	44.2751
853.53	48.5931
856.423	18.6654
859.316	58.3483
862.208	36.9363
865.101	17.9779
867.994	34.5572
870.886	28.0806
873.779	57.2212
876.672	37.52
879.564	41.5911
882.457	69.5897
885.35	46.3152
888.243	53.4661
891.135	39.6753
894.028	23.2594
896.921	34.0738
899.813	19.6543
902.706	34.3279
905.599	20.426
908.491	30.076
911.384	18.5337
914.277	12.3785
917.17	15.0969
920.062	22.7944
922.955	17.4581
925.848	1.5929
928.74	0.59613
931.633	13.6703
934.526	19.0392
937.418	20.2578
940.311	8.60059
943.204	9.18176
946.097	12.8174
948.989	14.5663
951.882	12.8455
954.775	21.4452
957.667	3.53894
960.56	28.4622
963.453	13.6431
966.346	25.4779
969.238	61.2203
972.131	48.1896
975.024	160.513
977.916	269.769
980.809	452.395
983.702	579.94
986.594	456.234
989.487	276.793
992.38	140.924
995.273	103.923
998.165	144.691
1001.06	139.321
1003.95	203.583
1006.84	251.603
1009.74	277.334
1012.63	502.99
1015.52	546.623
1018.41	668.694
1021.31	772.435
1024.2	828.178
1027.09	725.646
1029.98	565.684
1032.88	415.322
1035.77	271.616
1038.66	259.429
1041.56	178.252
1044.45	147.019
1047.34	101.786
1050.23	112.456
1053.13	106.164
1056.02	98.9008
1058.91	68.3379
1061.81	72.5074
1064.7	81.5437
1067.59	67.0384
1070.48	49.6279
1073.38	58.952
1076.27	37.6263
1079.16	38.8754
1082.05	40.7519
1084.95	72.5259
1087.84	63.051
1090.73	67.7819
1093.62	51.7141
1096.52	45.163
1099.41	41.2871
1102.3	29.4816
1105.19	15.0383
1108.09	6.56805
1110.98	14.4362
1113.87	3.61505
1116.77	2.07147
1119.66	3.64319
1122.55	38.2215
1125.44	2.62915
1128.34	15.3799
1131.23	13.1106
1134.12	22.5644
1137.02	11.4042
1139.91	8.24982
1142.8	53.5277
1145.69	15.3823
1148.59	46.2728
1151.48	28.6504
1154.37	15.3989
1157.26	20.8291
1160.16	9.06555
1163.05	46.095
1165.94	32.2483
1168.83	7.94476
1171.73	26.7366
1174.62	45.7086
1177.51	41.456
1180.4	29.8349
1183.3	40.9535
1186.19	47.0821
1189.08	33.1932
1191.98	69.7711
1194.87	71.9391
1197.76	74.4673
1200.65	80.6001
1203.55	38.8751
1206.44	44.902
1209.33	36.215
1212.22	46.7812
1215.12	24.6793
1218.01	31.932
1220.9	33.6315
1223.8	19.1899
1226.69	34.5181
1229.58	19.5295
1232.47	11.5466
1235.37	19.4188
1238.26	2.41498
1241.15	30.9439
1244.05	17.9976
1246.94	25.2246
1249.83	9.81842
1252.72	33.3561
1255.62	13.0544
1258.51	14.4369
1261.4	11.8773
1264.29	15.3711
1267.19	1.46179
1270.08	29.4025
1272.97	0
