Measurement: Raman, 532 nm, unoriented, Raman Data Processed
Mineral: Billietite
Rruff sample: R070624
Ideal chemistry: Ba(U^6+^O_2_)_6_O_4_(OH)_6_8H_2_O
Locality: Eureka mine, Castell Esta√≥, La Plana de Mont-ros, La Torre de Capdella, Lleida, Catalonia, Spain
Source: Joan Abella i Creus
Description: Yellow platy crystals associated with green malachite and orange becquerelite
Raman shift (cm-1)	intensity
251.452	0
254.345	116.469
257.237	105.098
260.13	48.3359
263.023	13.9883
265.916	4.6875
268.808	64.2305
271.701	92.0195
274.594	179.508
277.486	374.621
280.379	361.152
283.272	314.84
286.164	172.359
289.057	258.629
291.95	266.906
294.842	158.344
297.735	127.094
300.628	257.945
303.521	367.633
306.413	423.902
309.306	288.836
312.199	217.519
315.091	295.82
317.984	414.594
320.877	401.719
323.769	340.016
326.662	295
329.555	375.211
332.448	374.879
335.34	270.539
338.233	323.609
341.126	178.656
344.018	31.6055
346.911	79.4766
349.804	202.019
352.697	310.781
355.589	138.859
358.482	161.656
361.375	87.4844
364.267	130.168
367.16	198.867
370.053	109.82
372.945	32.4375
375.838	5.04688
378.731	35.8203
381.623	169.106
384.516	159.375
387.409	194.348
390.302	195.656
393.194	98.0078
396.087	29.0703
398.98	24.2891
401.872	172.504
404.765	137.59
407.658	213.234
410.55	47.9648
413.443	107.305
416.336	152.402
419.229	227.969
422.121	283.098
425.014	190.617
427.907	111.742
430.799	209.832
433.692	213.922
436.585	233.609
439.478	111.172
442.37	110.754
445.263	185.418
448.156	208.711
451.048	366.109
453.941	395.219
456.834	430.359
459.726	316.793
462.619	182.84
465.512	165.688
468.404	88.6094
471.297	35.6797
474.19	26.7695
477.083	11.2578
479.975	47
482.868	74.0742
485.761	70.2812
488.653	27.3203
491.546	14.7188
494.439	50.0117
497.332	61.3477
500.224	114.406
503.117	33.543
506.01	46.7383
508.902	14.4023
511.795	17.4375
514.688	61.1562
517.58	160.609
520.473	110.59
523.366	82.6992
526.259	64.4883
529.151	202.984
532.044	127.305
534.937	215.668
537.829	195.953
540.722	150.914
543.615	264.141
546.507	278
549.4	292.727
552.293	266.781
555.186	267.371
558.078	176.062
560.971	240.285
563.864	111.59
566.756	75.2539
569.649	12.0156
572.542	4.72266
575.434	58.9336
578.327	114.324
581.22	132.789
584.112	140.594
587.005	45.9414
589.898	39.4453
592.791	136.523
595.683	176.656
598.576	193.789
601.469	177.543
604.361	167.809
607.254	199.836
610.147	224.762
613.04	191.602
615.932	159.43
618.825	140.758
621.718	64.4375
624.61	22.0469
627.503	116.32
630.396	127.039
633.288	103.574
636.181	113.051
639.074	112.43
641.967	49.1719
644.859	11.4844
647.752	4.49609
650.645	67.8359
653.537	17.5469
656.43	98.2227
659.323	164.09
662.216	314.898
665.108	296.16
668.001	144.914
670.894	95.1914
673.786	74.8906
676.679	176.957
679.572	170.121
682.464	178.262
685.357	77.6328
688.25	43.1367
691.143	67.6445
694.035	77.5938
696.928	38.6406
699.821	176.887
702.713	175.121
705.606	135.457
708.499	94
711.391	59.9961
714.284	39.7383
717.177	32.3398
720.069	40.6211
722.962	78.0195
725.855	79.9062
728.748	71.5352
731.64	24.7969
734.533	15.1328
737.426	16.5312
740.318	30.8555
743.211	18.6953
746.104	42.2578
748.996	28.8555
751.889	23.6289
754.782	19.7852
757.675	9.36328
760.567	20.6602
763.46	53.7852
766.353	121.981
769.245	100.598
772.138	67.25
775.031	60.6914
777.923	11.5234
780.816	45.2148
783.709	163.773
786.602	249.254
789.494	288.156
792.387	452.922
795.28	528.941
798.172	571.707
801.065	598.32
803.958	595.676
806.851	585.68
809.743	619.473
812.636	588.102
815.529	801.894
818.421	1084.06
821.314	1507.39
824.207	2109.02
827.099	2702.86
829.992	3016.41
832.885	2578.14
835.778	1729.05
838.67	985
841.563	595.898
844.456	415.356
847.348	263.449
850.241	239.894
853.134	164.258
856.026	177.078
858.919	78.8945
861.812	46.3828
864.705	53.8906
867.597	117.59
870.49	86.7578
873.383	76.2422
876.275	41.9492
879.168	6.21094
882.061	36.2266
884.953	53.5586
887.846	69.457
890.739	156.633
893.631	64.832
896.524	77.9961
899.417	19.9922
902.31	59.0117
905.202	74.043
908.095	52.1719
910.988	56.5117
913.88	43.9531
916.773	87.7891
919.666	99
922.558	69.6719
925.451	110.242
928.344	173.894
931.237	147.297
934.129	86.8125
937.022	9.24219
939.915	9.44922
942.807	33.1328
945.7	32.7969
948.593	36.1836
951.486	24.4453
954.378	92.4414
957.271	89.5781
960.164	42.8789
963.056	32.8945
965.949	22.6797
968.842	14.5703
971.734	124.223
974.627	103.715
977.52	84.7188
980.413	141.348
983.305	122.023
986.198	136.91
989.091	164.373
991.983	124.934
994.876	76.5215
997.769	61.5488
1000.66	15.9277
1003.55	36.9102
1006.45	10.6992
1009.34	64.7109
1012.23	125.215
1015.12	100.297
1018.02	128.58
1020.91	46.2109
1023.8	82.6856
1026.7	56.0098
1029.59	59.6621
1032.48	33.8496
1035.37	42.0039
1038.27	108.338
1041.16	26.0234
1044.05	44.8809
1046.94	41.0391
1049.84	10.5996
1052.73	12.5469
1055.62	114.59
1058.52	152.023
1061.41	75.7422
1064.3	68.8027
1067.19	38.2812
1070.09	18.3242
1072.98	14.8867
1075.87	16.1484
1078.76	67.4004
1081.66	57.2285
1084.55	78.4609
1087.44	83.2773
1090.34	47.6738
1093.23	22.8672
1096.12	44.9434
1099.01	88.6777
1101.91	84.9961
1104.8	39.9902
1107.69	54.3125
1110.58	19.123
1113.48	100.318
1116.37	59.1699
1119.26	26.2227
1122.15	43.9688
1125.05	14.3672
1127.94	10.9688
1130.83	95.7715
1133.73	111.482
1136.62	128.856
1139.51	133.305
1142.4	85.7656
1145.3	107.344
1148.19	97.9375
1151.08	14.6797
1153.97	7.09375
1156.87	21.6289
1159.76	70.8731
1162.65	56.1777
1165.55	133.846
1168.44	126.598
1171.33	119.34
1174.22	142.312
1177.12	117.986
1180.01	69.1328
1182.9	125.898
1185.79	41.0215
1188.69	97.2715
1191.58	60.3633
1194.47	130.592
1197.37	62.9258
1200.26	34.0293
1203.15	74.2598
1206.04	72.834
1208.94	91.5156
1211.83	61.0176
1214.72	131.736
1217.61	107.908
1220.51	63.4727
1223.4	55.0059
1226.29	67.2598
1229.18	78.9277
1232.08	110.022
1234.97	120.717
1237.86	6.34961
1240.76	32.3535
1243.65	31.2812
1246.54	13.9609
1249.43	98.125
1252.33	101.481
1255.22	38.7148
1258.11	40.7031
1261	69.0156
1263.9	105.424
1266.79	44.957
1269.68	60.4961
1272.58	55.3867
1275.47	16.1172
1278.36	19.3379
1281.25	37.6035
1284.15	71.4394
1287.04	96.8066
1289.93	96.4863
1292.82	54.4023
1295.72	40.0254
1298.61	11.2793
1301.5	23.5273
1304.39	0
