Measurement: Raman, 780 nm, unoriented, Raman Data Processed
Mineral: Birchite
Rruff sample: R150100
Ideal chemistry: Cd^2+^_2_Cu^2+^_2_(P^5+^O_4_)_2_S^6+^O_4_5H_2_O
Locality: Block 14 Opencut, Broken Hill, New South Wales, Australia
Source: William W. Pinch
Description: Sprays and aggregates of light green acicular crystals on quartz and pale pinkish almandine, associated with anglesite, pyromorphite, and libethenite. Authors sample from the type find.
Raman shift (cm-1)	intensity
113.255	2.26154
116.63	14.739
120.005	19.1117
123.38	39.0804
126.754	40.6572
130.129	29.4309
133.504	24.4319
136.879	15.6013
140.254	13.2496
143.629	0.460724
147.003	4.23737
150.378	5.2518
153.753	10.5242
157.128	27.7007
160.503	26.8027
163.877	36.586
167.252	39.7355
170.627	40.0031
174.002	37.4855
177.377	38.2497
180.751	45.6631
184.126	55.3006
187.501	60.6101
190.876	55.5014
194.251	43.2023
197.625	40.7762
201	36.018
204.375	30.4654
207.75	24.3424
211.125	19.0854
214.5	21.9832
217.874	17.7495
221.249	19.6802
224.624	19.7238
227.999	14.8139
231.374	17.2455
234.749	16.1884
238.123	21.9428
241.498	20.9157
244.873	24.4869
248.248	24.4337
251.623	20.3553
254.997	18.5492
258.372	19.4574
261.747	16.0555
265.122	14.5132
268.497	11.9216
271.872	6.94367
275.246	4.25018
278.621	2.99397
281.996	3.37767
285.371	3.21202
288.745	4.41879
292.12	7.75893
295.495	1.96492
298.87	2.53558
302.245	0.447983
305.62	2.1442
308.994	0.272118
312.369	2.58684
315.744	0.993927
319.119	1.53587
322.494	3.39392
325.868	1.06503
329.243	0.877213
332.618	0.631744
335.993	0.620499
339.368	0.394577
342.743	0.529213
346.117	0.211021
349.492	0.825958
352.867	0.395798
356.242	1.90782
359.617	1.68468
362.991	0.984932
366.366	1.68492
369.741	2.85076
373.116	0.699593
376.491	2.84435
379.865	3.2922
383.24	2.24248
386.615	4.44279
389.99	2.46377
393.365	3.18351
396.74	6.52371
400.114	9.37953
403.489	8.35072
406.864	13.0851
410.239	10.5419
413.614	8.52109
416.988	11.0216
420.363	6.65735
423.738	6.44231
427.113	7.86952
430.488	10.3723
433.863	9.53696
437.237	10.5618
440.612	12.004
443.987	12.0924
447.362	14.4517
450.737	17.2162
454.111	19.418
457.486	17.6721
460.861	14.5489
464.236	12.9575
467.611	11.5059
470.986	10.6132
474.36	13.7241
477.735	14.5284
481.11	13.8273
484.485	11.1413
487.86	12.0405
491.234	9.35302
494.609	9.04512
497.984	7.19002
501.359	8.06049
504.734	3.66356
508.108	0.750702
511.483	1.78396
514.858	1.10548
518.233	1.97027
521.608	2.93856
524.982	0.058846
528.357	1.23232
531.732	0.049774
535.107	0.038666
538.482	0.893898
541.857	5.03263
545.231	2.36545
548.606	5.20389
551.981	7.05772
555.356	8.43131
558.731	7.82392
562.106	7.31653
565.48	6.29389
568.855	6.07328
572.23	9.1777
575.605	6.77436
578.98	4.77948
582.354	3.53484
585.729	3.26007
589.104	1.41436
592.479	3.52325
595.854	2.71365
599.229	5.97348
602.603	5.5387
605.978	5.68323
609.353	8.19796
612.728	7.12614
616.102	4.58559
619.477	6.18121
622.852	5.49253
626.227	9.14973
629.602	9.65302
632.977	13.7278
636.351	13.4019
639.726	20.1543
643.101	24.4804
646.476	26.6897
649.851	22.8775
653.226	13.9307
656.6	10.0009
659.975	4.01081
663.35	5.03996
666.725	3.02982
670.1	1.31332
673.474	1.85721
676.849	3.42808
680.224	1.8504
683.599	0.825478
686.974	0.001183
690.348	0.277054
693.723	0.442673
697.098	2.83737
700.473	1.47526
703.848	0.496727
707.222	1.24523
710.597	1.06911
713.972	1.7227
717.347	1.31003
720.722	2.36568
724.097	1.1437
727.471	0.850533
730.846	1.10587
734.221	2.56883
737.596	0.15049
740.971	3.29647
744.346	0.611679
747.72	1.31265
751.095	1.10712
754.47	2.22405
757.845	2.15629
761.22	2.62082
764.594	1.53511
767.969	0.28418
771.344	1.18559
774.719	2.42716
778.094	3.55971
781.468	4.07447
784.843	0.39756
788.218	1.94139
791.593	3.36807
794.968	3.49496
798.342	0.01123
801.717	5.44993
805.092	5.52032
808.467	5.06233
811.842	4.74473
815.217	5.24564
818.591	5.1618
821.966	5.54679
825.341	8.23053
828.716	6.8591
832.091	8.10265
835.466	6.65262
838.84	5.65204
842.215	8.65379
845.59	10.2074
848.965	10.3038
852.34	7.37534
855.714	9.17059
859.089	9.96125
862.464	10.2205
865.839	9.30827
869.214	7.38367
872.588	10.6895
875.963	8.83662
879.338	6.6844
882.713	5.05381
886.088	4.16174
889.462	7.65042
892.837	3.95911
896.212	4.53848
899.587	4.74406
902.962	3.93638
906.337	2.71226
909.711	3.3986
913.086	0.921379
916.461	0.083237
919.836	0.488564
923.211	0.744766
926.585	0.408546
929.96	0.410088
933.335	0.934387
936.71	1.63277
940.085	1.8485
943.46	1.44823
946.834	1.18205
950.209	1.42328
953.584	1.87157
956.959	3.05639
960.334	4.95628
963.708	7.21493
967.083	10.2959
970.458	16.6514
973.833	27.3818
977.208	46.0411
980.582	74.9481
983.957	100.202
987.332	119.852
990.707	107.065
994.082	61.9576
997.457	35.9559
1000.83	27.0812
1004.21	22.6954
1007.58	20.1012
1010.96	18.6551
1014.33	19.6178
1017.71	20.363
1021.08	20.7969
1024.45	17.6013
1027.83	11.2799
1031.2	8.60474
1034.58	5.58402
1037.95	3.6673
1041.33	3.12795
1044.7	1.72399
1048.08	1.98504
1051.45	0.993462
1054.83	4.88979
1058.2	5.94657
1061.58	8.86376
1064.95	9.03596
1068.33	8.52111
1071.7	5.1663
1075.08	2.88855
1078.45	3.18033
1081.83	1.23223
1085.2	0.620953
1088.58	3.88691
1091.95	0.549725
1095.33	0.361385
1098.7	0.890217
1102.08	0.892792
1105.45	0.413292
1108.83	2.35168
1112.2	0.538651
1115.58	1.14393
1118.95	3.24563
1122.33	0.341946
1125.7	2.30107
1129.07	2.74085
1132.45	1.9371
1135.82	1.38065
1139.2	1.42506
1142.57	2.72891
1145.95	2.63003
1149.32	2.45921
1152.7	3.39683
1156.07	3.02882
1159.45	0.672581
1162.82	2.66509
1166.2	2.57405
1169.57	3.29128
1172.95	0.406967
1176.32	0.466492
1179.7	1.48583
1183.07	0.932655
1186.45	1.1339
1189.82	1.2761
1193.2	0.350533
1196.57	3.03678
1199.94	2.51627
1203.32	2.92549
1206.69	5.55324
1210.07	4.71619
1213.44	2.60281
1216.82	5.15848
1220.19	4.59992
1223.57	6.05097
1226.94	4.85117
1230.32	6.20066
1233.69	6.08502
1237.07	7.29991
1240.44	6.73937
1243.82	3.59557
1247.19	3.25378
1250.57	2.78864
1253.94	3.16406
1257.32	2.16624
1260.69	0.785988
1264.07	2.26758
1267.44	2.48846
1270.82	1.93654
1274.19	1.99715
1277.57	0.461533
1280.94	2.31893
1284.32	0.031502
