Measurement: Raman, 532 nm, unoriented, Raman Data Processed
Mineral: Bisbeeite
Rruff sample: R060317
Ideal chemistry: (Cu,Mg)SiO_3_nH_2_O
Locality: Shangulowe, Katanga Province, Democratic Republic of Congo
Source: Herb Obodda
Description: Light blue granular massive
Measured chemistry: (Cu_0.99_Mg_0.01_)_Σ=1_Si_1.00_O_3_·0.40H_2_O
Raman shift (cm-1)	intensity
212.95	0
215.843	40.707
218.735	53.7568
221.628	43.8545
224.521	16.9883
227.413	1.48438
230.306	49.9932
233.199	72.8574
236.091	92.3106
238.984	93.5322
241.877	79.0176
244.769	73.1807
247.662	106.449
250.555	158.822
253.448	161.957
256.34	146.094
259.233	140.481
262.126	81.8076
265.018	90.1982
267.911	78.0137
270.804	50.7568
273.697	26.2012
276.589	3.72168
279.482	14.4688
282.375	17.6211
285.267	1.02246
288.16	52.9277
291.053	74.54
293.945	66.1953
296.838	65.8965
299.731	62.7109
302.623	54.3975
305.516	70.9248
308.409	74.1426
311.302	85.7519
314.194	108.616
317.087	124.373
319.98	141.529
322.872	160.312
325.765	161.852
328.658	145.417
331.55	151.433
334.443	159.425
337.336	157.955
340.229	160.573
343.121	121.221
346.014	82.5654
348.907	41.8672
351.799	38.3154
354.692	35.7373
357.585	33.2412
360.478	46.7725
363.37	50.207
366.263	44.5078
369.156	26.4023
372.048	10.6777
374.941	14.8408
377.834	29.0195
380.726	61.6182
383.619	77.3535
386.512	97.0352
389.404	126.178
392.297	130.285
395.19	128.601
398.083	123.649
400.975	137.623
403.868	121.477
406.761	152.532
409.653	131.308
412.546	135.266
415.439	117.292
418.332	98.7256
421.224	99.6699
424.117	118.574
427.01	104.123
429.902	196.641
432.795	219.613
435.688	277.94
438.58	268.221
441.473	230.13
444.366	181.977
447.259	137.355
450.151	103.612
453.044	77.9287
455.937	10.4043
458.829	22.2842
461.722	8.08594
464.615	11.582
467.507	29.5068
470.4	10.71
473.293	1.51758
476.185	25.6689
479.078	0.602539
481.971	21.6191
484.864	38.7432
487.756	28.1279
490.649	21.9746
493.542	3.79883
496.434	15.915
499.327	23.1982
502.22	79.5156
505.113	42.2793
508.005	33.3818
510.898	49.1621
513.791	63.8809
516.683	39.9453
519.576	29.5527
522.469	22.2129
525.361	38.2432
528.254	56.5869
531.147	19.8223
534.04	38.7891
536.932	36.8203
539.825	64.7686
542.718	22.8369
545.61	31.584
548.503	63.0244
551.396	44.6143
554.288	28.8926
557.181	23.665
560.074	38.6719
562.967	32.6699
565.859	32.0732
568.752	64.2188
571.645	46.041
574.537	28.9014
577.43	8.57129
580.323	2.36035
583.216	36.123
586.108	80.2812
589.001	83.75
591.894	64.6592
594.786	49.2598
597.679	31.8037
600.572	44.6641
603.464	43.1797
606.357	43.0107
609.25	62.7578
612.142	63.1045
615.035	54.0596
617.928	42.3965
620.821	21.6084
623.713	3.22559
626.606	24.5107
629.499	29.3125
632.391	51.0068
635.284	51.7949
638.177	34.6592
641.069	8.79102
643.962	6.92969
646.855	26.4131
649.747	94.9248
652.64	125.341
655.533	186
658.426	207.894
661.318	268.078
664.211	318.06
667.104	342.598
669.996	409.978
672.889	391.958
675.782	321.717
678.674	243.206
681.567	192.334
684.46	141.023
687.353	88.4766
690.245	78.0859
693.138	70.1631
696.031	28.6523
698.923	54.8252
701.816	40.8818
704.709	1.08008
707.601	25.2227
710.494	69.8291
713.387	73.4971
716.28	26.3379
719.172	5.69336
722.065	8.78809
724.958	19.0371
727.85	28.3379
730.743	29.7178
733.636	30.3242
736.529	31.7676
739.421	31.2305
742.314	4.63672
745.207	37.3018
748.099	51.6025
750.992	41.2568
753.885	23.8076
756.777	35.5049
759.67	50.2353
762.563	30.0635
765.456	66.8164
768.348	53.6953
771.241	63.4414
774.134	93.1533
777.026	92.8662
779.919	101.827
782.812	80.6914
785.704	70.0244
788.597	57.2656
791.49	106.458
794.383	103.772
797.275	58.1152
800.168	53.375
803.061	30.2119
805.953	23.1982
808.846	4.08691
811.739	18.1699
814.631	12.627
817.524	23.2109
820.417	23.126
823.309	24.1826
826.202	15.8594
829.095	4.99902
831.988	31.8965
834.88	27.5908
837.773	20.1357
840.666	15.5098
843.558	21.5254
846.451	23.9863
849.344	23.083
852.236	9.75586
855.129	20.8447
858.022	27.9482
860.915	31.748
863.807	18.0498
866.7	8.99023
869.593	4.6084
872.485	26.3818
875.378	37.7891
878.271	27.8115
881.163	18.4014
884.056	10.958
886.949	11.3828
889.842	38.417
892.734	35.7148
895.627	76.1397
898.52	44.1025
901.412	68.7705
904.305	37.5049
907.198	33.6943
910.091	37.2256
912.983	32.5293
915.876	42.3066
918.769	56.6709
921.661	43.6533
924.554	24.9307
927.447	25.1162
930.339	39.7969
933.232	0.826172
936.125	14.0752
939.018	8.98926
941.91	24.3809
944.803	20.5361
947.696	53.456
950.588	33.0938
953.481	71.4834
956.374	55.791
959.266	57.6103
962.159	78.7129
965.052	29.3408
967.944	6.31055
970.837	51.1523
973.73	70.9268
976.623	105.176
979.515	108.353
982.408	108.397
985.301	113.53
988.193	116.997
991.086	129.388
993.979	76.3848
996.871	21.5146
999.764	12.8721
1002.66	48.9658
1005.55	49.9346
1008.44	52.5244
1011.34	48.8057
1014.23	35.5986
1017.12	55.1816
1020.01	62.6982
1022.91	39.5361
1025.8	5.63184
1028.69	35.956
1031.58	37.8486
1034.48	35.3242
1037.37	46.4307
1040.26	4.23242
1043.15	19.6914
1046.05	27.9463
1048.94	63.7998
1051.83	42.5576
1054.73	84.2686
1057.62	78.3311
1060.51	58.0488
1063.4	38.8906
1066.3	30.9277
1069.19	12.7158
1072.08	32.1982
1074.97	41.6074
1077.87	69.2656
1080.76	58.1719
1083.65	26.1729
1086.55	33.2666
1089.44	7.97949
1092.33	22.8594
1095.22	27.7861
1098.12	9.45996
1101.01	13.0479
1103.9	3.81836
1106.79	40.1357
1109.69	16.417
1112.58	28.6484
1115.47	8.55859
1118.37	26.624
1121.26	41.0498
1124.15	22.0352
1127.04	17.5
1129.94	5.2334
1132.83	18.0967
1135.72	25.209
1138.61	36.3408
1141.51	30.2939
1144.4	4.68066
1147.29	5.83594
1150.18	18.6719
1153.08	22.2168
1155.97	48.1807
1158.86	15.248
1161.76	21.9043
1164.65	17.5166
1167.54	33.4287
1170.43	5.87402
1173.33	33.5781
1176.22	15.331
1179.11	2.39356
1182	18.6758
1184.9	33.6172
1187.79	41.0176
1190.68	15.5732
1193.58	19.4336
1196.47	16.165
1199.36	20.5215
1202.25	21.3457
1205.15	7.91992
1208.04	26.2246
1210.93	42.7803
1213.82	71.4131
1216.72	46.1045
1219.61	21.0342
1222.5	9.58789
1225.39	37.3457
1228.29	47.581
1231.18	45.8916
1234.07	40.7129
1236.97	24.5117
1239.86	16.583
1242.75	5.95117
1245.64	9.46777
1248.54	45.0478
1251.43	75.9893
1254.32	61.124
1257.21	29.9717
1260.11	26.627
1263	42.916
1265.89	37.6602
1268.79	49.0459
1271.68	49.1201
1274.57	26.3545
1277.46	17.5527
1280.36	43.3018
1283.25	6.60742
1286.14	8.55957
1289.03	1.67285
1291.93	34.6982
1294.82	33.1338
1297.71	37.6572
1300.61	47.4385
