Measurement: Raman, 780 nm, unoriented, Raman Data Processed
Mineral: Bismutite
Rruff sample: R050634
Ideal chemistry: Bi_2_O_2_(CO_3_)
Locality: Outpost mine, Wickenburg, White Picacho District, Maricopa County, Arizona, USA
Source: University of Arizona Mineral Museum
Description: Pale brown flattened spear-head shaped crystals
Raman shift (cm-1)	intensity
164.36	0
167.253	163.16
170.146	117.901
173.038	84.6572
175.931	0.268066
178.824	59.6099
181.716	62.6636
184.609	78.9214
187.502	96.6248
190.395	79.355
193.287	97.9827
196.18	165.928
199.073	118.218
201.965	48.2471
204.858	57.7466
207.751	43.3603
210.643	41.4299
213.536	28.7112
216.429	47.4187
219.322	9.49658
222.214	52.6905
225.107	2.52905
228	96.167
230.892	103.239
233.785	182.785
236.678	145.037
239.571	128.42
242.463	154.429
245.356	167.325
248.249	177.218
251.141	173.208
254.034	203.421
256.927	190.294
259.819	138.286
262.712	179.124
265.605	147.636
268.498	223.289
271.39	157.147
274.283	223.858
277.176	193.118
280.068	138.62
282.961	132.839
285.854	71.8991
288.746	98.0491
291.639	69.7278
294.532	90.9344
297.425	77.9438
300.317	89.6748
303.21	76.2587
306.103	49.7634
308.995	9.35107
311.888	15.2386
314.781	4.73254
317.673	5.4834
320.566	9.74365
323.459	15.8966
326.351	23.9737
329.244	28.8818
332.137	4.84582
335.03	4.36755
337.922	4.80298
340.815	39.9639
343.708	96.618
346.6	114.01
349.493	199.707
352.386	227.63
355.279	203.522
358.171	256.514
361.064	301.047
363.957	247.922
366.849	174.732
369.742	156.789
372.635	129.215
375.527	132.084
378.42	51.8774
381.313	60.1645
384.205	46.5847
387.098	67.9453
389.991	5.78809
392.884	29.157
395.776	2.85742
398.669	2.75537
401.562	56.303
404.454	8.69336
407.347	6.97046
410.24	85.3555
413.132	91.4509
416.025	119.1
418.918	120.511
421.811	101.28
424.703	173.34
427.596	139.894
430.489	178.271
433.381	229.715
436.274	194.919
439.167	159.296
442.06	182.353
444.952	168.398
447.845	195.494
450.738	156.405
453.63	178.75
456.523	122.684
459.416	143.504
462.308	84.3072
465.201	119.963
468.094	112.002
470.986	138.516
473.879	141.88
476.772	123.594
479.665	124.189
482.557	130.577
485.45	108.659
488.343	189.13
491.235	151.059
494.128	182.057
497.021	244.596
499.913	222.21
502.806	231.128
505.699	213.198
508.592	179.225
511.484	147.79
514.377	97.9315
517.27	59.4186
520.162	68.9723
523.055	37.291
525.948	21.6223
528.841	11.7236
531.733	42.1588
534.626	38.1668
537.519	7.21021
540.411	9.8833
543.304	33.7906
546.197	7.14014
549.089	5.71606
551.982	26.9193
554.875	41.154
557.768	41.8212
560.66	22.5028
563.553	7.89368
566.446	17.3163
569.338	1.91692
572.231	4.12231
575.124	28.0624
578.016	49.2997
580.909	3.49023
583.802	32.4952
586.694	28.1154
589.587	68.7902
592.48	113.647
595.373	133.666
598.265	162.939
601.158	169.788
604.051	185.169
606.943	219.165
609.836	159.781
612.729	163.243
615.621	132.28
618.514	147.23
621.407	86.2689
624.3	100.691
627.192	33.9664
630.085	60.0537
632.978	69.4514
635.87	40.8394
638.763	7.25037
641.656	72.068
644.548	65.6903
647.441	48.1986
650.334	60.8973
653.227	69.0564
656.119	53.0776
659.012	80.4167
661.905	101.71
664.797	101.765
667.69	84.7411
670.583	76.2994
673.476	55.5001
676.368	71.8352
679.261	19.4609
682.154	18.0245
685.046	45.0432
687.939	50.455
690.832	16.6664
693.724	64.204
696.617	40.6412
699.51	27.9624
702.403	34.0671
705.295	8.58325
708.188	27.2867
711.081	29.2096
713.973	18.4307
716.866	0.48938
719.759	1.80786
722.651	18.364
725.544	9.04443
728.437	11.2866
731.33	16.4623
734.222	21.8928
737.115	21.5463
740.008	11.9479
742.9	32.2026
745.793	44.6337
748.686	9.53821
751.578	15.9059
754.471	27.1576
757.364	38.9674
760.256	8.99182
763.149	35.2264
766.042	10.344
768.935	27.9197
771.827	18.5609
774.72	27.3507
777.613	39.7238
780.505	49.427
783.398	59.3602
786.291	11.2284
789.183	56.1301
792.076	32.0033
794.969	37.5188
797.862	59.3998
800.754	40.5875
803.647	90.1526
806.54	118.593
809.432	201.301
812.325	209.385
815.218	166.288
818.111	82.9101
821.003	73.2163
823.896	59.6829
826.789	21.5498
829.681	43.2602
832.574	2.85529
835.467	16.9922
838.359	18.0931
841.252	10.7015
844.145	93.9459
847.037	140.746
849.93	212.689
852.823	286.542
855.716	357.85
858.608	389.94
861.501	310.979
864.394	272.948
867.286	146.043
870.179	113.659
873.072	87.4267
875.964	70.026
878.857	34.5876
881.75	26.9385
884.643	44.0261
887.535	4.3894
890.428	8.5882
893.321	17.0436
896.213	15.9696
899.106	15.7031
901.999	18.2051
904.891	15.8563
907.784	33.1621
910.677	8.03449
913.569	11.2952
916.462	4.75439
919.355	35.3807
922.248	15.852
925.14	2.48187
928.033	8.89752
930.926	17.7696
933.818	5.33844
936.711	24.4851
939.604	33.4793
942.496	6.20373
945.389	28.3898
948.282	10.7827
951.175	24.211
954.067	22.6516
956.96	53.0398
959.853	39.5337
962.745	65.4587
965.638	46.8263
968.531	62.9544
971.423	68.988
974.316	61.8185
977.209	33.1118
980.102	67.1465
982.994	56.0616
985.887	50.4362
988.78	55.8336
991.672	36.3541
994.565	62.6005
997.458	37.0967
1000.35	50.5979
1003.24	39.3664
1006.14	70.6973
1009.03	33.4241
1011.92	59.4412
1014.81	72.7054
1017.71	47.5422
1020.6	48.59
1023.49	37.2097
1026.38	58.2994
1029.28	60.6081
1032.17	70.8796
1035.06	94.5413
1037.96	57.4532
1040.85	57.103
1043.74	75.8972
1046.63	40.0911
1049.53	22.6936
1052.42	67.7615
1055.31	33.6542
1058.2	89.9234
1061.1	248.927
1063.99	334.287
1066.88	443.071
1069.78	388.357
1072.67	223.071
1075.56	119.752
1078.45	25.016
1081.35	2.70459
1084.24	26.964
1087.13	-1.70069
1090.02	26.6073
1092.92	57.4629
1095.81	36.1766
1098.7	67.0102
1101.6	61.3135
1104.49	61.2432
1107.38	119.887
1110.27	130.792
1113.17	137.972
1116.06	136.825
1118.95	122.428
1121.84	94.1456
1124.74	54.3251
1127.63	31.9827
1130.52	4.30029
1133.41	53.9873
1136.31	50.4612
1139.2	33.1765
1142.09	27.7164
1144.98	5.18811
1147.88	44.696
1150.77	68.4802
1153.66	59.6582
1156.56	69.2266
1159.45	72.1887
1162.34	24.073
1165.23	16.8223
1168.13	39.8262
1171.02	5.91089
1173.91	62.6191
1176.81	24.5461
1179.7	0.903564
1182.59	33.6958
1185.48	39.9939
1188.38	14.5686
1191.27	12.3914
1194.16	18.1794
1197.05	32.4231
1199.95	82.0713
1202.84	79.5703
1205.73	41.5447
1208.62	104.425
1211.52	68.2996
1214.41	64.886
1217.3	67.656
1220.2	107.981
1223.09	112.07
1225.98	100.909
1228.87	125.985
1231.77	125.812
1234.66	138.22
1237.55	105.151
1240.44	99.6797
1243.34	73.6977
1246.23	86.8862
1249.12	103.576
1252.02	119.024
1254.91	54.8811
1257.8	101.064
1260.69	58.6514
1263.59	119.085
1266.48	63.9712
1269.37	90.6299
1272.26	91.2539
1275.16	75.6064
1278.05	49.1279
1280.94	4.71143
1283.84	23.814
1286.73	15.833
