Measurement: Raman, 532 nm, unoriented, Raman Data Processed
Mineral: Bismite
Rruff sample: R070185
Ideal chemistry: Bi_2_O_3_
Locality: Berezovskii, Ekaterinberg, Sverdlovskaya Oblast', Ural Region, Russia
Source: Michael Scott
Description: Pale green prismatic crystals embedded in quartz
Raman shift (cm-1)	intensity
160.306	0
163.199	75.8652
166.091	171.668
168.984	39.9238
171.877	260.418
174.769	179.883
177.662	130.775
180.555	88.0371
183.448	15.916
186.34	65.8184
189.233	113.174
192.126	247.107
195.018	66.9629
197.911	120.902
200.804	178.106
203.696	55.4844
206.589	33.1348
209.482	78.7598
212.375	103.162
215.267	27.6953
218.16	34.748
221.053	126.648
223.945	64.3711
226.838	182.109
229.731	88.041
232.624	195.217
235.516	130.26
238.409	147.838
241.302	173.211
244.194	185.34
247.087	131.242
249.98	100.902
252.872	161.254
255.765	124.639
258.658	122.275
261.55	47.4355
264.443	189.523
267.336	49.7305
270.228	221.619
273.121	124.83
276.014	29.4414
278.907	89.3731
281.799	41.4922
284.692	32.8516
287.585	112.678
290.477	115.394
293.37	191.514
296.263	186.992
299.156	348.494
302.048	293.078
304.941	568.049
307.834	456.049
310.726	544.99
313.619	623.205
316.512	524.178
319.404	620.969
322.297	592.893
325.19	465.783
328.082	361.514
330.975	298.617
333.868	261.969
336.761	304.17
339.653	256.742
342.546	159.951
345.439	124.137
348.331	21.5469
351.224	8.43555
354.117	120.053
357.01	111.731
359.902	12.0195
362.795	125.67
365.688	87.0078
368.58	197.805
371.473	227.588
374.366	236.731
377.258	208.547
380.151	92.2109
383.044	89.6719
385.936	84.4043
388.829	156.459
391.722	90.4277
394.615	89.6875
397.507	34.7773
400.4	84.9551
403.293	61.7305
406.185	142.404
409.078	65.5176
411.971	49.3398
414.863	128.781
417.756	28.9004
420.649	22.4883
423.541	82.2519
426.434	130.168
429.327	79.875
432.22	111.008
435.112	145.644
438.005	65.791
440.898	27.4453
443.79	85.9277
446.683	8.02539
449.576	51.9961
452.469	85.6094
455.361	100.643
458.254	177.326
461.147	19.3867
464.039	107.129
466.932	158.084
469.825	130.885
472.717	107.297
475.61	126.451
478.503	130.945
481.396	141.156
484.288	233.918
487.181	174.014
490.074	247.742
492.966	261.451
495.859	186.26
498.752	227.389
501.644	177.943
504.537	190.191
507.43	227.412
510.322	175.342
513.215	187.99
516.108	244.637
519	53.5723
521.893	172.772
524.786	130.527
527.679	160.481
530.571	153.523
533.464	53.6289
536.357	176.09
539.249	184.266
542.142	102.574
545.035	113.481
547.928	25.6875
550.82	172.949
553.713	107.602
556.606	147.914
559.498	111.285
562.391	72.5312
565.284	163.297
568.176	168.328
571.069	4.42578
573.962	120.426
576.855	59.3203
579.747	101.094
582.64	26.1758
585.533	97.1992
588.425	208.844
591.318	20.3672
594.211	53.4922
597.103	10.9102
599.996	130.098
602.889	92.5391
605.781	219.551
608.674	242.809
611.567	107.234
614.46	330.609
617.352	110.066
620.245	254.098
623.138	204.949
626.03	278.527
628.923	224.375
631.816	313.41
634.708	238.606
637.601	290.371
640.494	417.84
643.386	281.594
646.279	246.902
649.172	399.359
652.065	353.094
654.957	370.098
657.85	346.258
660.743	542.09
663.635	444.191
666.528	329.582
669.421	337.164
672.313	424.141
675.206	306.32
678.099	158.191
680.992	49.9336
683.884	251.809
686.777	34.6836
689.67	94.207
692.562	176.926
695.455	250.215
698.348	81.8555
701.24	18.6562
704.133	141.566
707.026	3.28125
709.919	31.5977
712.811	163.984
715.704	113.062
718.597	83.9297
721.489	21.4023
724.382	135.152
727.275	30.1445
730.167	49.3555
733.06	33.1172
735.953	40.7109
738.846	17.375
741.738	204.66
744.631	26.8203
747.524	120.875
750.416	293.516
753.309	326.32
756.202	269.707
759.094	461.129
761.987	450.992
764.88	580.883
767.773	598.098
770.665	312.125
773.558	510.707
776.451	645.133
779.343	682.519
782.236	886.871
785.129	1043.17
788.021	1256.47
790.914	1706.03
793.807	2207.1
796.699	3116.73
799.592	3789.86
802.485	4382.82
805.378	4759.38
808.27	4940.86
811.163	3995.53
814.056	3409.87
816.948	2578.01
819.841	1918.49
822.734	1606.55
825.626	1217.5
828.519	1069.16
831.412	734.898
834.305	588.242
837.197	425.441
840.09	376.09
842.983	270.336
845.875	320.844
848.768	274.133
851.661	185.402
854.553	70.2773
857.446	20.0312
860.339	8.96875
863.231	203.504
866.124	10.3398
869.017	93.207
871.91	48.8789
874.802	82.5234
877.695	39.2734
880.588	97.9531
883.48	32.5859
886.373	92.8672
889.266	139.121
892.159	98.1992
895.051	22.5
897.944	42.6055
900.837	62.5078
903.729	46.2422
906.622	75.7891
909.515	48.0703
912.407	142.981
915.3	180.906
918.193	69.1523
921.086	120.894
923.978	31.6133
926.871	68.8477
929.764	28.9688
932.656	127.363
935.549	264.269
938.442	46.5
941.334	39.1914
944.227	265.34
947.12	181.816
950.013	241.894
952.905	297.172
955.798	322.684
958.691	347.57
961.583	348.414
964.476	360.918
967.369	398.723
970.261	321.539
973.154	283.246
976.047	194.438
978.939	240.457
981.832	145.25
984.725	92.543
987.618	212.664
990.51	109.992
993.403	245.246
996.296	99.7148
999.188	47.4297
1002.08	129.195
1004.97	97.7969
1007.87	72.7891
1010.76	120.039
1013.65	47.6367
1016.54	216.574
1019.44	146.086
1022.33	149.438
1025.22	213.922
1028.12	71.8711
1031.01	235.516
1033.9	68.9922
1036.79	67.5117
1039.69	169.543
1042.58	157.609
1045.47	241.508
1048.36	175.555
1051.26	275.934
1054.15	137.215
1057.04	341.465
1059.93	753.848
1062.83	588.707
1065.72	702.363
1068.61	499.012
1071.51	575.918
1074.4	318.949
1077.29	141.082
1080.18	351.781
1083.08	83.8477
1085.97	218.117
1088.86	183.445
1091.76	44.8516
1094.65	191.473
1097.54	127.438
1100.43	67.5625
1103.33	24.6992
1106.22	20.1328
1109.11	22.3516
1112	197.836
1114.9	185.644
1117.79	100.894
1120.68	57.8203
1123.57	281.676
1126.47	150.348
1129.36	192.098
1132.25	31.5859
1135.14	94.8164
1138.04	186.074
1140.93	161.371
1143.82	151.332
1146.72	238.484
1149.61	183.336
1152.5	189.266
1155.39	260.852
1158.29	294.875
1161.18	228.234
1164.07	167.539
1166.96	143.176
1169.86	334.043
1172.75	221.57
1175.64	196.902
1178.54	49.6797
1181.43	61.9297
1184.32	80.418
1187.21	40.4766
1190.11	71.7031
1193	298.902
1195.89	238.688
1198.78	165.438
1201.68	68.8125
1204.57	153.281
1207.46	29.2578
1210.36	158.988
1213.25	100.125
1216.14	39.8555
1219.03	256.191
1221.93	106.394
1224.82	100.152
1227.71	25.918
1230.6	14.4648
1233.5	57.832
1236.39	53.9609
1239.28	173.469
1242.17	68.7656
1245.07	15.3828
1247.96	410.262
1250.85	232.531
1253.75	160.07
1256.64	350.676
1259.53	178.289
1262.42	192.336
1265.32	124.773
1268.21	256.953
1271.1	81.8086
1273.99	287.5
1276.89	329.742
1279.78	259.32
1282.67	282.301
1285.57	222.629
1288.46	279.152
1291.35	215.898
1294.24	381.199
1297.14	107.066
1300.03	125.844
1302.92	277.793
1305.81	30.9766
1308.71	271.543
1311.6	47.4023
