Measurement: Raman, 532 nm, unoriented, Raman Data Processed
Mineral: Bismuth
Rruff sample: R050650
Ideal chemistry: Bi
Locality: Wolfram Camp, Queensland, Australia
Source: University of Arizona Mineral Museum
Description: Gray metallic fragment
Measured chemistry: Bi
Raman shift (cm-1)	intensity
119.191	0
122.566	0.863464
125.94	2.82674
129.315	5.00402
132.69	10.5418
136.065	18.315
139.44	26.5726
142.815	22.7853
146.189	25.3128
149.564	27.4328
152.939	30.3889
156.314	26.4355
159.689	25.1745
163.063	26.6632
166.438	25.7692
169.813	26.7628
173.188	25.3237
176.563	28.2563
179.938	27.0802
183.312	25.9779
186.687	23.2764
190.062	18.0681
193.437	13.5609
196.812	10.9254
200.186	7.86242
203.561	5.72288
206.936	4.71734
210.311	4.73696
213.686	4.24028
217.06	2.88714
220.435	1.94088
223.81	1.42564
227.185	2.28634
230.56	1.05815
233.935	1.89929
237.309	0.215599
240.684	0.945895
244.059	0.060543
247.434	1.11964
250.809	0.235694
254.184	0.603799
257.558	1.74627
260.933	1.21817
264.308	0.538396
267.683	0.429864
271.058	0.812484
274.433	2.46202
277.807	1.05327
281.182	4.4012
284.557	2.03038
287.932	2.87524
291.307	1.08926
294.681	2.69691
298.056	1.66671
301.431	1.92948
304.806	2.99862
308.181	1.02829
311.555	0.51708
314.93	1.66012
318.305	2.46561
321.68	2.35776
325.055	1.43857
328.43	4.6411
331.804	1.3645
335.179	2.71701
338.554	2.65816
341.929	4.37216
345.304	2.22362
348.678	1.89607
352.053	1.30984
355.428	1.6599
358.803	2.9764
362.178	2.43501
365.553	2.70519
368.928	2.77842
372.302	0.571867
375.677	0.884595
379.052	0.790278
382.427	1.70983
385.802	3.39083
389.176	0.594826
392.551	0.787588
395.926	0.440666
399.301	1.24503
402.676	2.14352
406.05	1.74053
409.425	1.48233
412.8	1.14156
416.175	3.02694
419.55	0.526215
422.925	1.16562
426.299	2.02284
429.674	1.49526
433.049	0.482611
436.424	0.396401
439.799	0.037295
443.173	0.228579
446.548	0.412417
449.923	0.288648
453.298	1.9969
456.673	1.1266
460.048	3.14653
463.423	1.58392
466.797	3.2726
470.172	1.99255
473.547	4.12202
476.922	2.54132
480.297	3.81846
483.671	2.48693
487.046	1.94223
490.421	4.35013
493.796	0.98737
497.171	2.39948
500.546	0.228541
503.92	1.78864
507.295	1.29408
510.67	1.14522
514.045	0.786592
517.42	1.09027
520.794	2.07848
524.169	0.686433
527.544	2.13175
530.919	0.809715
534.294	0.936847
537.668	1.44898
541.043	0.063669
544.418	0.091751
547.793	1.9067
551.168	0.221911
554.543	1.72553
557.917	0.040141
561.292	0.143109
564.667	0.289871
568.042	1.71843
571.417	0.447999
574.792	0.020399
578.166	0.948897
581.541	1.52021
584.916	1.56143
588.291	1.86198
591.666	1.57747
595.04	1.89855
598.415	1.67271
601.79	2.15906
605.165	1.61157
608.54	2.31648
611.915	1.43253
615.289	3.27408
618.664	2.21032
622.039	2.86595
625.414	1.30104
628.789	1.94366
632.163	1.13838
635.538	1.07195
638.913	2.51635
642.288	1.58088
645.663	1.13581
649.038	0.134906
652.412	0.658517
655.787	1.6117
659.162	0.855118
662.537	0.498111
665.912	1.46419
669.287	0.514934
672.661	1.56508
676.036	2.04172
679.411	1.67743
682.786	0.811969
686.161	1.05213
689.535	1.3595
692.91	0.112611
696.285	1.71857
699.66	2.07583
703.035	0.954229
706.409	1.17057
709.784	0.612675
713.159	1.48613
716.534	1.25462
719.909	0.811414
723.284	1.0876
726.659	1.09653
730.033	0.097829
733.408	2.05792
736.783	0.268318
740.158	3.45201
743.533	1.14056
746.907	0.805306
750.282	0.166439
753.657	0.537368
757.032	1.81605
760.407	1.42792
763.782	1.50637
767.156	1.95211
770.531	2.69261
773.906	0.651415
777.281	2.31097
780.656	1.4545
784.03	1.43786
787.405	0.698443
790.78	1.91304
794.155	0.91489
797.53	2.50677
800.904	1.28846
804.279	0.44045
807.654	0.426534
811.029	1.54682
814.404	1.2157
817.779	2.1471
821.154	1.90785
824.528	0.474653
827.903	1.77308
831.278	0.095851
834.653	1.32726
838.028	1.08354
841.402	0.521485
844.777	2.62982
848.152	1.29793
851.527	0.702801
854.902	2.43145
858.277	1.14687
861.651	2.17859
865.026	2.96434
868.401	2.30461
871.776	0.261958
875.151	0.005271
878.525	1.39488
881.9	0.844327
885.275	1.67251
888.65	0.020903
892.025	0.423739
895.399	0.011272
898.774	0.02606
902.149	1.2184
905.524	1.27763
908.899	1.08554
912.274	1.42175
915.649	1.85033
919.023	0.445163
922.398	1.40901
925.773	0.166656
929.148	0.345129
932.523	1.71818
935.897	1.98182
939.272	0.048818
942.647	1.43932
946.022	0.523539
949.397	1.27683
952.771	0.748882
956.146	0.267664
959.521	1.7459
962.896	0.223028
966.271	1.91147
969.646	0.452322
973.02	1.38367
976.395	1.11996
979.77	1.88335
983.145	1.41606
986.52	1.32029
989.894	2.96617
993.269	1.37565
996.644	0.78026
1000.02	2.02405
1003.39	1.98313
1006.77	0.893666
1010.14	0.066393
1013.52	0.332195
1016.89	2.36668
1020.27	1.58458
1023.64	0.312663
1027.02	2.00228
1030.39	1.9729
1033.77	0.267704
1037.14	1.23779
1040.52	2.63712
1043.89	2.09543
1047.27	3.33588
1050.64	1.95021
1054.02	1.03463
1057.39	2.29533
1060.77	1.57978
1064.14	1.99219
1067.52	0.728531
1070.89	0.254574
1074.27	0.17259
1077.64	1.18072
1081.02	2.39956
1084.39	0.816581
1087.76	0.773628
1091.14	0.482489
1094.51	0.243656
1097.89	0.820447
1101.26	0.86217
1104.64	0.037856
1108.01	0.956528
1111.39	0.496582
1114.76	1.39509
1118.14	1.09055
1121.51	0.119428
1124.89	0.913018
1128.26	2.1214
1131.64	0.763467
1135.01	1.89771
1138.39	0.863925
1141.76	1.21555
1145.14	0.949797
1148.51	1.77836
1151.89	0.804459
1155.26	0.437509
1158.64	3.04158
1162.01	1.28672
1165.38	0.153948
1168.76	1.2938
1172.13	2.08536
1175.51	2.22419
1178.88	0.929922
1182.26	1.7339
1185.63	1.26275
1189.01	1.06992
1192.38	1.29012
1195.76	1.01929
1199.13	0.530929
1202.51	2.39053
1205.88	1.32099
1209.26	2.00054
1212.63	1.27112
1216.01	1.39234
1219.38	2.00759
1222.76	0.378211
1226.13	0.051638
1229.51	1.66792
1232.88	1.3059
1236.26	1.18995
1239.63	1.84493
1243.01	0.4318
1246.38	1.63236
1249.76	1.06931
1253.13	1.48678
1256.51	0.4349
1259.88	0.166005
1263.26	3.22352
1266.63	0.771362
1270.01	2.18827
1273.38	1.5142
1276.75	3.34733
1280.13	2.56594
1283.5	2.71727
1286.88	0.753734
1290.25	1.32083
1293.63	0.25698
1297	2.64275
1300.38	0.00555
