Measurement: Raman, 532 nm, unoriented, Raman Data Processed
Mineral: Bismutite
Rruff sample: R050634
Ideal chemistry: Bi_2_O_2_(CO_3_)
Locality: Outpost mine, Wickenburg, White Picacho District, Maricopa County, Arizona, USA
Source: University of Arizona Mineral Museum
Description: Pale brown flattened spear-head shaped crystals
Raman shift (cm-1)	intensity
163.036	0
165.928	153.767
168.821	123.498
171.714	76.3447
174.607	6.66504
177.499	50.0767
180.392	58.7783
183.285	136.671
186.177	139.968
189.07	116.457
191.963	195.26
194.855	154.22
197.748	48.0376
200.641	11.6729
203.534	47.7207
206.426	84.0523
209.319	42.7876
212.212	39.1719
215.104	49.7026
217.997	11.9922
220.89	42.9976
223.782	49.7749
226.675	112.552
229.568	117.975
232.46	200.594
235.353	259.164
238.246	168.649
241.138	158.542
244.031	165.636
246.924	212.789
249.817	188.533
252.709	104.546
255.602	175.641
258.495	179.065
261.387	187.028
264.28	162.99
267.173	228.507
270.066	147.845
272.958	213.131
275.851	178.725
278.744	65.2378
281.636	66.7676
284.529	112.133
287.422	29.2295
290.314	33.2119
293.207	60.5395
296.1	19.6016
298.993	51.6938
301.885	45.8574
304.778	46.3174
307.671	44.7524
310.563	5.75537
313.456	21.2056
316.349	4.52783
319.241	62.5742
322.134	37.3198
325.027	8.39795
327.92	68.9214
330.812	53.2139
333.705	199.629
336.598	157.884
339.49	182.908
342.383	265.608
345.276	225.292
348.168	262.851
351.061	449.679
353.954	546.739
356.846	564.362
359.739	446.809
362.632	460.811
365.525	363.582
368.417	438.457
371.31	329.424
374.203	291.582
377.095	148.412
379.988	309.704
382.881	160.028
385.774	160.319
388.666	142.57
391.559	73.124
394.452	60.0791
397.344	72.1982
400.237	141.208
403.13	33.8467
406.022	20.4766
408.915	8.96289
411.808	82.5215
414.7	73.6416
417.593	109.68
420.486	75.7734
423.379	7.82861
426.271	49.5791
429.164	54.3779
432.057	80.2441
434.949	56.0889
437.842	37.792
440.735	106.26
443.627	61.8188
446.52	110.846
449.413	18.5649
452.306	47.8955
455.198	16.8452
458.091	88.5147
460.984	23.6582
463.876	56.3657
466.769	40.0894
469.662	65.3755
472.555	61.6606
475.447	60.2012
478.34	68.6943
481.233	59.5972
484.125	150.25
487.018	196.75
489.911	263.462
492.803	230.753
495.696	247.226
498.589	323.459
501.481	244.054
504.374	335.406
507.267	203
510.16	194.904
513.052	149.51
515.945	50.6006
518.838	71.2285
521.73	2.94824
524.623	19.0811
527.516	53.854
530.408	65.6724
533.301	62.5366
536.194	5.95459
539.087	21.7051
541.979	57.6143
544.872	58.292
547.765	19.9175
550.657	16.6968
553.55	32.6152
556.443	59.0518
559.335	55.23
562.228	10.3477
565.121	61.3428
568.014	64.0542
570.906	77.4873
573.799	11.3628
576.692	14.9912
579.584	59.2153
582.477	57.3433
585.37	47.4536
588.263	108.076
591.155	159.384
594.048	147.999
596.941	176.977
599.833	256.733
602.726	220.725
605.619	163.083
608.511	127.708
611.404	123.406
614.297	192.793
617.189	153.012
620.082	76.6606
622.975	121.039
625.868	77.6875
628.76	62.1792
631.653	41.0532
634.546	14.1152
637.438	9.86621
640.331	27.0508
643.224	8.17236
646.116	67.4004
649.009	80.2153
651.902	94.98
654.795	73.3354
657.687	89.8931
660.58	153.39
663.473	114.927
666.365	152.452
669.258	125.186
672.151	150.439
675.043	2.76025
677.936	40.7109
680.829	36.4898
683.721	113.212
686.614	43.0923
689.507	48.0308
692.4	89.0723
695.292	16.2686
698.185	5.36914
701.078	53.3433
703.97	99.7407
706.863	109.115
709.756	75.4673
712.649	18.8457
715.541	27.6636
718.434	55.2515
721.327	31.1484
724.219	25.3804
727.112	51.6304
730.005	85.1348
732.897	70.0147
735.79	43.4302
738.683	10.5137
741.576	9.33398
744.468	43.1602
747.361	51.8628
750.254	79.2788
753.146	25.6572
756.039	68.3677
758.932	16.5068
761.824	94.1226
764.717	17.0337
767.61	41.4277
770.503	77.2983
773.395	65.3345
776.288	43.4873
779.181	66.4522
782.073	42.9678
784.966	70.7398
787.859	89.1231
790.751	49.7256
793.644	41.9019
796.537	53.023
799.429	75.3276
802.322	94.9443
805.215	96.4819
808.108	181.778
811	240.021
813.893	187.985
816.786	151.377
819.678	94.3062
822.571	26.3623
825.464	56.9502
828.356	35.0259
831.249	31.1191
834.142	10.0493
837.034	23.6895
839.927	25.752
842.82	129.908
845.713	173.333
848.605	227.453
851.498	375.453
854.391	415.062
857.283	533.106
860.176	584.246
863.069	385.543
865.962	278.443
868.854	138
871.747	84.6162
874.64	64.8579
877.532	82.957
880.425	66.6514
883.318	37.0181
886.21	66.0396
889.103	31.2109
891.996	23.915
894.889	48.479
897.781	34.9224
900.674	18.4199
903.567	3.56348
906.459	54.939
909.352	56.749
912.245	45.4224
915.138	84.8882
918.03	39.7798
920.923	7.48096
923.816	47.0586
926.708	3.08643
929.601	2.06787
932.494	6.36719
935.386	9.5332
938.279	15.1841
941.172	10.669
944.064	91.7939
946.957	51.6172
949.85	24.1797
952.743	39.9522
955.635	49.0342
958.528	18.2544
961.421	122.329
964.313	68.6904
967.206	108.635
970.099	0.241211
972.991	27.2314
975.884	118.66
978.777	31.4253
981.67	29.1763
984.562	76.7764
987.455	89.0635
990.348	31.79
993.24	59.1519
996.133	38.9351
999.026	108.888
1001.92	80.1152
1004.81	115.011
1007.7	52.2998
1010.6	92.1602
1013.49	55.5757
1016.38	86.0557
1019.27	74.6992
1022.17	48.1226
1025.06	52.8213
1027.95	65.5493
1030.85	84.9707
1033.74	129.523
1036.63	116.359
1039.52	52.543
1042.42	43.6103
1045.31	55.7881
1048.2	59.3125
1051.09	11.4702
1053.99	43.043
1056.88	150.74
1059.77	233.252
1062.66	345.894
1065.56	507.112
1068.45	464.904
1071.34	360.547
1074.24	139.556
1077.13	65.1318
1080.02	25.5083
1082.91	26.4863
1085.81	59.5562
1088.7	21.9683
1091.59	52.9937
1094.48	78.1777
1097.38	53.0767
1100.27	122.74
1103.16	192.799
1106.06	204.991
1108.95	241
1111.84	318.33
1114.73	300.71
1117.63	294.413
1120.52	334.108
1123.41	190.82
1126.3	112.774
1129.2	142.447
1132.09	146.428
1134.98	82.0933
1137.88	107.295
1140.77	86.4902
1143.66	116.534
1146.55	128.413
1149.45	112.456
1152.34	171.443
1155.23	141.169
1158.12	159.049
1161.02	132.299
1163.91	95
1166.8	72.3179
1169.69	50.5688
1172.59	40.6148
1175.48	79.0542
1178.37	44.4316
1181.27	68.3149
1184.16	59.6475
1187.05	94.1055
1189.94	62.4492
1192.84	56.6035
1195.73	37.9834
1198.62	12.8716
1201.52	18.7983
1204.41	81.9702
1207.3	17.937
1210.19	5.26465
1213.09	46.6304
1215.98	43.0659
1218.87	44.3052
1221.76	1.23584
1224.66	15.5503
1227.55	3.99316
1230.44	63.3877
1233.33	82.5635
1236.23	55.0591
1239.12	100.092
1242.01	99.9067
1244.9	108.49
1247.8	96.9365
1250.69	123.148
1253.58	83.2949
1256.48	82.8569
1259.37	90.2324
1262.26	114.598
1265.15	73.5303
1268.05	85.1899
1270.94	146.053
1273.83	119.569
1276.72	153.802
1279.62	63.2749
1282.51	121.747
1285.4	3.59424
1288.3	52.2832
1291.19	81.7642
1294.08	99.2026
1296.97	73.3188
1299.87	30.5288
