Measurement: Raman, 532 nm, unoriented, Raman Data Processed
Mineral: Bismuthinite
Rruff sample: R070533
Ideal chemistry: Bi^3+^_2_S^2-^_3_
Locality: Llallagua, Bustillos Province, Potosi, Bolivia
Source: James Shigley
Description: Elongated tin-white prismatic crystals associated with black cassiterite
Raman shift (cm-1)	intensity
133.281	0
136.174	21.2978
139.067	14.3114
141.959	35.2078
144.852	37.0996
147.745	27.5053
150.637	49.1777
153.53	55.6382
156.423	68.7933
159.316	95.7814
162.208	105.156
165.101	120.816
167.994	158.125
170.886	200.426
173.779	184.436
176.672	236.283
179.565	217.125
182.457	270.457
185.35	253.779
188.243	261.113
191.135	210.967
194.028	180.682
196.921	159.175
199.813	144.329
202.706	109.375
205.599	97.4584
208.492	82.2835
211.384	120.724
214.277	152.228
217.17	207.172
220.062	232.848
222.955	310.284
225.848	373.799
228.74	430.959
231.633	489.598
234.526	505.447
237.418	496.991
240.311	460.465
243.204	389.451
246.097	364.285
248.989	315.429
251.882	348.606
254.775	347.386
257.667	380.219
260.56	342.874
263.453	320.488
266.346	217
269.238	163.236
272.131	114.826
275.024	91.4749
277.916	64.5768
280.809	24.5376
283.702	17.7285
286.594	22.6607
289.487	9.94251
292.38	6.5896
295.273	11.2669
298.165	14.1759
301.058	5.0404
303.951	1.40463
306.843	4.50461
309.736	11.6512
312.629	4.41348
315.522	20.054
318.414	6.1579
321.307	5.1358
324.2	10.9912
327.092	25.5377
329.985	19.7448
332.878	7.7923
335.77	19.7622
338.663	0.373749
341.556	21.9378
344.449	17.2993
347.341	13.06
350.234	17.3487
353.127	19.0682
356.019	16.9593
358.912	30.3412
361.805	37.8918
364.697	14.9735
367.59	21.2926
370.483	31.5692
373.375	10.6275
376.268	20.1301
379.161	39.3109
382.054	15.9371
384.946	16.3368
387.839	15.1987
390.732	26.0407
393.624	10.288
396.517	6.43045
399.41	14.0039
402.303	9.58166
405.195	17.2397
408.088	6.79944
410.981	18.7994
413.873	15.8037
416.766	7.9036
419.659	18.9274
422.551	26.8348
425.444	17.9667
428.337	13.2451
431.229	21.2532
434.122	17.6381
437.015	0.679489
439.908	6.91536
442.8	11.4364
445.693	2.29187
448.586	28.4681
451.478	22.6232
454.371	16.5138
457.264	21.1886
460.156	18.9164
463.049	4.08498
465.942	7.24947
468.835	10.3389
471.727	7.26176
474.62	7.00113
477.513	8.0883
480.405	10.7808
483.298	12.7253
486.191	13.0693
489.084	18.5101
491.976	6.1662
494.869	6.24458
497.762	4.78207
500.654	21.4511
503.547	20.5201
506.44	11.9857
509.332	4.65044
512.225	18.8559
515.118	7.3167
518.011	2.56435
520.903	3.73898
523.796	2.07741
526.689	4.82419
529.581	14.4885
532.474	13.7031
535.367	10.9011
538.26	10.2672
541.152	16.4839
544.045	0.284256
546.938	1.71765
549.83	7.81511
552.723	18.5959
555.616	31.79
558.508	13.8135
561.401	3.03967
564.294	14.6657
567.187	6.88271
570.079	15.1705
572.972	2.09204
575.865	4.76613
578.757	13.3072
581.65	16.7108
584.543	17.0225
587.435	6.49287
590.328	19.4066
593.221	0.600189
596.114	10.0518
599.006	13.4555
601.899	13.3658
604.792	7.02317
607.684	18.4915
610.577	11.1292
613.47	2.01475
616.362	0.214958
619.255	9.55354
622.148	17.7326
625.04	10.1196
627.933	14.2788
630.826	9.72485
633.719	13.4811
636.611	6.75811
639.504	7.17603
642.397	4.87456
645.289	6.82414
648.182	14.9972
651.075	13.25
653.967	3.07096
656.86	0.019501
659.753	8.04354
662.646	8.74493
665.538	16.119
668.431	11.6719
671.324	11.063
674.216	6.39913
677.109	10.1551
680.002	12.8735
682.894	10.7178
685.787	22.946
688.68	22.8764
691.573	5.32472
694.465	5.89461
697.358	12.0782
700.251	1.01164
703.143	8.59747
706.036	4.45295
708.929	2.91642
711.822	9.86207
714.714	15.0775
717.607	8.08758
720.5	10.2981
723.392	8.34521
726.285	20.3555
729.178	16.1596
732.07	11.5636
734.963	11.5017
737.856	4.63789
740.749	7.77523
743.641	8.42392
746.534	20.9344
749.427	14.6849
752.319	10.1072
755.212	22.6276
758.105	10.0485
760.997	10.4714
763.89	17.9892
766.783	9.09638
769.676	14.2683
772.568	20.6145
775.461	3.47361
778.354	7.0312
781.246	7.63954
784.139	9.87556
787.032	2.44827
789.924	2.19788
792.817	20.0791
795.71	5.78109
798.602	9.02724
801.495	7.79192
804.388	11.513
807.281	14.6633
810.173	6.71116
813.066	7.67661
815.959	3.67448
818.851	6.13277
821.744	8.34368
824.637	8.55144
827.529	22.8588
830.422	24.5123
833.315	20.5359
836.208	14.1747
839.1	3.75211
841.993	14.2957
844.886	10.9395
847.779	27.2048
850.671	16.6171
853.564	15.7065
856.457	10.9447
859.349	22.0235
862.242	9.51251
865.135	20.0974
868.027	9.09477
870.92	11.15
873.813	17.8689
876.706	11.8171
879.598	5.79469
882.491	19.0171
885.384	14.7815
888.276	28.796
891.169	6.61839
894.062	6.11175
896.954	12.8903
899.847	8.79064
902.74	14.7492
905.633	16.048
908.525	3.22931
911.418	5.93153
914.311	18.3037
917.203	13.7443
920.096	10.1001
922.989	19.1096
925.881	7.80837
928.774	9.59135
931.667	18.1082
934.559	6.6819
937.452	2.73691
940.345	14.2241
943.238	11.5722
946.13	17.2532
949.023	28.0577
951.916	9.45758
954.808	29.5541
957.701	4.74275
960.594	10.528
963.486	13.9217
966.379	17.5571
969.272	13.3783
972.165	14.0747
975.057	13.5302
977.95	2.92712
980.843	2.451
983.735	15.6014
986.628	15.0938
989.521	10.088
992.413	13.88
995.306	11.531
998.199	13.4741
1001.09	9.8179
1003.98	9.98949
1006.88	18.4744
1009.77	3.47836
1012.66	7.53323
1015.55	11.1939
1018.45	18.3783
1021.34	5.04481
1024.23	14.2131
1027.13	8.18045
1030.02	14.3535
1032.91	9.72456
1035.8	3.50332
1038.7	13.3067
1041.59	11.4265
1044.48	3.13198
1047.38	16.1679
1050.27	8.84195
1053.16	23.2268
1056.05	11.1343
1058.95	0.412971
1061.84	26.6943
1064.73	10.2904
1067.62	11.2099
1070.52	31.0752
1073.41	21.2049
1076.3	9.30265
1079.19	23.4186
1082.09	1.08896
1084.98	4.00092
1087.87	5.05671
1090.77	8.09347
1093.66	6.93311
1096.55	8.52815
1099.44	27.8449
1102.34	16.5513
1105.23	0.017799
1108.12	10.0963
1111.01	5.5697
1113.91	19.7523
1116.8	25.1544
1119.69	20.1368
1122.59	11.7294
1125.48	33.6059
1128.37	3.34306
1131.26	4.01862
1134.16	10.9513
1137.05	0.897423
1139.94	18.0624
1142.83	9.66703
1145.73	9.65141
1148.62	3.96734
1151.51	7.29915
1154.4	17.1708
1157.3	14.6683
1160.19	9.87933
1163.08	7.75669
1165.98	10.6073
1168.87	19.2999
1171.76	11.3842
1174.65	9.38069
1177.55	9.89948
1180.44	6.21565
1183.33	8.75693
1186.22	6.14175
1189.12	12.0476
1192.01	0.478119
1194.9	7.49595
1197.8	10.8191
1200.69	7.77771
1203.58	16.9832
1206.47	2.1184
1209.37	7.70747
1212.26	8.76125
1215.15	18.7791
1218.04	9.56592
1220.94	6.2091
1223.83	16.6016
1226.72	10.247
1229.62	13.0094
1232.51	11.4784
1235.4	0.814987
1238.29	20.7678
1241.19	11.7681
1244.08	2.29905
1246.97	13.3558
1249.86	3.48282
1252.76	10.7349
1255.65	7.1555
1258.54	19.5504
1261.43	17.1861
1264.33	10.4993
1267.22	6.46503
1270.11	15.867
1273.01	4.66428
1275.9	3.46354
1278.79	13.0272
1281.68	0.370522
1284.58	2.51678
1287.47	1.06751
