Measurement: Raman, 785 nm, unoriented, Raman Data Processed
Mineral: Bismuthinite
Rruff sample: R070533
Ideal chemistry: Bi^3+^_2_S^2-^_3_
Locality: Llallagua, Bustillos Province, Potosi, Bolivia
Source: James Shigley
Description: Elongated tin-white prismatic crystals associated with black cassiterite
Raman shift (cm-1)	intensity
152.255	0
155.148	22.0635
158.041	4.64258
160.933	171.699
163.826	441.304
166.719	410.005
169.611	392.761
172.504	459.931
175.397	448.61
178.29	574.644
181.182	685.748
184.075	757.874
186.968	767.582
189.86	769.483
192.753	769.859
195.646	768.168
198.538	795.19
201.431	881.522
204.324	997.689
207.216	1179.66
210.109	1477.43
213.002	1684.68
215.895	1948.7
218.787	2259.57
221.68	2693.15
224.573	3067.56
227.465	3332.01
230.358	3542.61
233.251	3717.28
236.143	3783.94
239.036	3807.46
241.929	3561.71
244.822	3426.64
247.714	3326.67
250.607	3223.83
253.5	3112.79
256.392	2902.97
259.285	2544.5
262.178	2093.81
265.07	1574.37
267.963	1214.68
270.856	899.619
273.749	659.69
276.641	487.982
279.534	293.442
282.427	148.817
285.319	73.7048
288.212	35.829
291.105	23.7516
293.998	24.4524
296.89	17.2819
299.783	14.9008
302.676	6.32605
305.568	32.4136
308.461	19.9529
311.354	9.0863
314.246	1.9184
317.139	11.2477
320.032	0.614624
322.925	18.7762
325.817	23.8033
328.71	38.4163
331.603	37.0682
334.495	55.8849
337.388	76.9131
340.281	81.3504
343.173	93.939
346.066	132.95
348.959	108.179
351.852	109.446
354.744	102.907
357.637	106.767
360.53	111.352
363.422	106.225
366.315	94.1397
369.208	106.914
372.101	74.7308
374.993	71.1168
377.886	67.4207
380.779	87.7705
383.671	59.2096
386.564	66.611
389.457	70.9346
392.349	32.1464
395.242	39.9094
398.135	42.2001
401.027	18.2066
403.92	14.9432
406.813	32.0241
409.706	26.0471
412.598	16.0736
415.491	20.8757
418.384	30.9398
421.276	36.4922
424.169	25.5362
427.062	27.2974
429.954	14.7938
432.847	19.6152
435.74	13.6813
438.633	14.625
441.525	31.6736
444.418	3.70081
447.311	19.0201
450.203	25.2624
453.096	17.0695
455.989	18.9595
458.882	12.0796
461.774	0.683228
464.667	2.26007
467.56	3.02972
470.452	23.634
473.345	18.9451
476.238	2.20703
479.13	7.21265
482.023	11.3618
484.916	28.1372
487.808	28.2872
490.701	20.8667
493.594	26.782
496.487	29.0248
499.379	56.2641
502.272	51.1542
505.165	29.6057
508.057	61.7525
510.95	40.2777
513.843	54.6387
516.736	19.4802
519.628	36.3803
522.521	44.0143
525.414	32.7478
528.306	41.9237
531.199	52.7089
534.092	38.7115
536.984	31.9271
539.877	20.0328
542.77	31.3691
545.663	23.9974
548.555	15.6193
551.448	19.7416
554.341	27.5213
557.233	13.9019
560.126	10.2402
563.019	9.64297
565.911	6.79678
568.804	13.2173
571.697	11.4868
574.59	6.82043
577.482	1.94229
580.375	14.5258
583.268	17.0125
586.16	2.2135
589.053	4.72177
591.946	5.57391
594.838	21.4197
597.731	0.783417
600.624	0.86203
603.516	8.41309
606.409	13.8977
609.302	14.5675
612.195	16.9996
615.087	9.95345
617.98	5.51428
620.873	11.6404
623.765	11.9304
626.658	28.4238
629.551	14.1036
632.443	20.2289
635.336	9.97817
638.229	22.7689
641.122	22.8165
644.014	15.1215
646.907	14.2199
649.8	20.9447
652.692	16.2068
655.585	19.1474
658.478	22.0145
661.37	19.8581
664.263	20.6987
667.156	18.9672
670.049	28.2831
672.941	25.2064
675.834	16.43
678.727	9.58006
681.619	21.1613
684.512	7.45941
687.405	7.04611
690.298	18.6027
693.19	27.2313
696.083	5.25504
698.976	11.2886
701.868	9.05029
704.761	25.9525
707.654	32.5017
710.546	32.7289
713.439	9.14288
716.332	23.802
719.225	27.2623
722.117	16.1426
725.01	27.3833
727.903	16.1786
730.795	26.632
733.688	4.24628
736.581	15.5377
739.473	22.1623
742.366	22.5176
745.259	11.7726
748.152	13.7196
751.044	17.3762
753.937	13.4874
756.83	18.8926
759.722	21.0524
762.615	23.5842
765.508	5.3051
768.4	15.2122
771.293	8.24129
774.186	18.9444
777.079	3.01646
779.971	9.10306
782.864	1.86633
785.757	6.34822
788.649	3.7811
791.542	4.31401
794.435	15.9788
797.327	17.3277
800.22	3.92894
803.113	6.87582
806.006	9.20132
808.898	3.26067
811.791	13.5223
814.684	12.6823
817.576	7.23251
820.469	12.573
823.362	17.7421
826.255	6.84862
829.147	15.5959
832.04	14.9098
834.933	25.1502
837.825	11.8912
840.718	3.04826
843.611	20.4207
846.503	19.8478
849.396	14.1001
852.289	4.74144
855.182	13.0075
858.074	9.5899
860.967	13.7783
863.86	16.2236
866.752	10.4943
869.645	29.168
872.538	18.5001
875.43	17.9795
878.323	22.0526
881.216	9.69226
884.109	5.49326
887.001	21.3094
889.894	15.0091
892.787	9.11153
895.679	0.069534
898.572	12.7823
901.465	3.44663
904.357	25.8938
907.25	16.4817
910.143	12.8849
913.035	15.9528
915.928	13.1178
918.821	19.2282
921.714	9.99454
924.606	16.773
927.499	14.5556
930.392	9.0329
933.284	13.9138
936.177	16.6752
939.07	17.5988
941.962	13.0895
944.855	21.148
947.748	4.9988
950.641	14.3337
953.533	6.08118
956.426	19.2562
959.319	2.39601
962.211	14.3964
965.104	11.3367
967.997	8.59024
970.889	1.23384
973.782	18.5986
976.675	11.3089
979.568	10.2441
982.46	11.1573
985.353	2.82736
988.246	10.268
991.138	14.4232
994.031	26.1925
996.924	13.6168
999.817	6.4816
1002.71	5.54056
1005.6	15.7879
1008.5	24.834
1011.39	1.88017
1014.28	13.1295
1017.17	16.7615
1020.07	9.36304
1022.96	25.0893
1025.85	3.8234
1028.74	12.4243
1031.64	15.3376
1034.53	25
1037.42	18.5207
1040.31	11.2695
1043.21	15.4237
1046.1	25.0739
1048.99	11.5055
1051.88	17.6693
1054.78	24.7085
1057.67	29.4893
1060.56	12.3522
1063.46	20.1556
1066.35	14.7218
1069.24	17.6522
1072.13	5.57323
1075.03	26.4076
1077.92	24.1455
1080.81	6.3293
1083.7	5.53696
1086.6	23.5339
1089.49	24.5801
1092.38	5.5876
1095.28	10.9098
1098.17	15.1846
1101.06	16.5057
1103.95	1.7684
1106.85	23.266
1109.74	18.1588
1112.63	29.7842
1115.53	14.108
1118.42	18.0598
1121.31	9.02736
1124.2	7.16248
1127.1	13.6812
1129.99	12.2317
1132.88	20.8744
1135.77	21.0057
1138.67	3.38608
1141.56	5.32631
1144.45	18.2123
1147.34	24.7644
1150.24	15.0892
1153.13	7.13283
1156.02	1.71077
1158.91	12.5192
1161.81	18.2557
1164.7	22.3742
1167.59	24.4915
1170.49	20.452
1173.38	2.76175
1176.27	15.8462
1179.16	34.298
1182.06	12.6338
1184.95	16.9154
1187.84	21.8381
1190.73	6.5504
1193.63	16.3447
1196.52	37.4945
1199.41	25.0716
1202.31	15.3175
1205.2	7.36453
1208.09	8.96089
1210.98	9.31117
1213.88	1.5024
1216.77	6.37743
1219.66	25.3115
1222.55	14.0392
1225.45	24.7253
1228.34	25.7846
1231.23	28.9168
1234.12	18.9547
1237.02	9.11179
1239.91	10.1982
1242.8	1.39174
1245.7	16.9898
1248.59	13.9982
1251.48	10.0681
1254.37	7.09267
1257.27	6.76991
1260.16	8.14288
1263.05	0.076309
