Measurement: Raman, 780 nm, unoriented, Raman Data Processed
Mineral: Bismuth
Rruff sample: R050650
Ideal chemistry: Bi
Locality: Wolfram Camp, Queensland, Australia
Source: University of Arizona Mineral Museum
Description: Gray metallic fragment
Measured chemistry: Bi
Raman shift (cm-1)	intensity
113.239	0
116.613	1.8575
119.988	9.80205
123.363	28.0204
126.738	34.8691
130.113	27.3815
133.487	26.0757
136.862	24.4748
140.237	14.3522
143.612	4.7746
146.987	0.957885
150.362	5.3966
153.736	39.284
157.111	63.0519
160.486	76.7816
163.861	80.305
167.236	79.0783
170.61	74.0001
173.985	70.2276
177.36	69.4648
180.735	65.5266
184.11	57.7599
187.484	49.053
190.859	36.8349
194.234	30.6568
197.609	22.8751
200.984	20.9627
204.358	17.7556
207.733	12.8329
211.108	9.02491
214.483	6.05518
217.858	4.61434
221.233	2.80757
224.607	1.36055
227.982	4.12822
231.357	1.91513
234.732	0.570456
238.107	2.31046
241.482	3.40531
244.856	2.92724
248.231	0.443063
251.606	0.278385
254.981	1.20247
258.356	0.80213
261.73	0.786104
265.105	0.317437
268.48	0.072028
271.855	0.588347
275.23	0.701536
278.604	1.71671
281.979	1.33151
285.354	1.62302
288.729	0.747189
292.104	3.00323
295.478	2.10963
298.853	1.45815
302.228	1.11043
305.603	2.53665
308.978	3.12525
312.353	1.51545
315.727	4.77456
319.102	0.569638
322.477	3.00676
325.852	2.85594
329.227	3.9278
332.601	4.48048
335.976	4.79717
339.351	2.07029
342.726	5.43375
346.101	2.8269
349.476	5.27751
352.85	3.06862
356.225	3.81878
359.6	3.30616
362.975	3.73021
366.35	5.23835
369.724	3.37412
373.099	2.48193
376.474	2.66497
379.849	2.19763
383.224	0.455582
386.599	4.10704
389.973	3.53114
393.348	1.92241
396.723	2.29707
400.098	1.95073
403.473	3.20134
406.847	0.639547
410.222	2.20078
413.597	1.69611
416.972	1.93691
420.347	2.42279
423.721	1.76961
427.096	2.73704
430.471	1.5284
433.846	2.96624
437.221	0.511914
440.596	0.94161
443.97	0.582255
447.345	1.71951
450.72	1.48224
454.095	1.24737
457.47	1.49488
460.844	3.28
464.219	1.51159
467.594	3.21961
470.969	1.15101
474.344	4.14597
477.719	2.30432
481.093	2.81419
484.468	1.7859
487.843	0.839339
491.218	4.20218
494.592	1.52293
497.967	1.20886
501.342	0.258373
504.717	0.175324
508.092	1.09621
511.467	0.429122
514.841	1.5827
518.216	0.816161
521.591	0.425494
524.966	1.35682
528.341	1.75772
531.716	0.552694
535.09	2.25861
538.465	1.05849
541.84	1.7795
545.215	3.04206
548.59	5.20512
551.964	1.45708
555.339	2.98483
558.714	0.621123
562.089	0.166422
565.464	0.270756
568.838	1.74838
572.213	1.5825
575.588	0.382911
578.963	1.53203
582.338	1.52863
585.712	1.63358
589.087	1.8139
592.462	0.083106
595.837	0.705824
599.212	1.34988
602.587	0.5184
605.961	0.161633
609.336	2.74549
612.711	3.22469
616.086	0.642297
619.461	2.41148
622.836	1.47187
626.21	4.17279
629.585	1.73911
632.96	1.52216
636.335	0.14795
639.71	3.14339
643.084	0.716724
646.459	0.416994
649.834	0.994381
653.209	1.07302
656.584	1.53801
659.958	0.984159
663.333	0.905392
666.708	1.07225
670.083	2.14853
673.458	1.80633
676.832	1.62652
680.207	1.04419
683.582	1.71075
686.957	1.30665
690.332	0.9939
693.707	1.44833
697.081	2.19048
700.456	2.03396
703.831	2.74951
707.206	0.162918
710.581	1.08642
713.955	0.539672
717.33	0.932
720.705	1.99178
724.08	0.968564
727.455	0.03065
730.83	2.00659
734.204	0.199389
737.579	3.23281
740.954	1.0866
744.329	0.360647
747.704	0.197148
751.078	0.667453
754.453	1.80695
757.828	1.41489
761.203	1.612
764.578	1.01691
767.952	2.20173
771.327	2.73125
774.702	2.80908
778.077	1.36212
781.452	1.26491
784.827	1.36634
788.201	0.210214
791.576	1.19806
794.951	2.13479
798.326	0.680576
801.701	1.0559
805.075	0.076263
808.45	1.56323
811.825	2.50422
815.2	1.79537
818.575	3.03804
821.949	0.486103
825.324	2.89875
828.699	1.63149
832.074	1.80503
835.449	3.28073
838.824	1.82903
842.198	3.177
845.573	1.96825
848.948	2.69653
852.323	2.81711
855.698	1.5008
859.072	1.04462
862.447	2.86098
865.822	3.21347
869.197	3.17456
872.572	2.10729
875.947	2.24501
879.321	1.35786
882.696	1.88453
886.071	0.756244
889.446	0.800177
892.821	0.640597
896.195	1.18007
899.57	1.49999
902.945	0.745256
906.32	1.58797
909.695	1.35722
913.069	1.0552
916.444	1.17098
919.819	0.137613
923.194	0.035852
926.569	1.51026
929.944	1.40479
933.318	0.986949
936.693	1.4539
940.068	0.587191
943.443	0.715
946.818	0.315794
950.192	0.244959
953.567	1.40432
956.942	0.974117
960.317	1.42654
963.692	1.46016
967.067	0.861055
970.441	2.2518
973.816	2.54765
977.191	1.72816
980.566	1.31971
983.941	2.09213
987.315	0.844347
990.69	0.797059
994.065	2.66084
997.44	0.042
1000.82	0.464739
1004.19	2.39443
1007.56	2.83628
1010.94	0.873808
1014.31	0.843017
1017.69	1.86918
1021.06	2.46197
1024.44	0.279972
1027.81	0.303437
1031.19	3.00685
1034.56	1.87233
1037.94	1.17748
1041.31	1.85093
1044.69	0.653335
1048.06	3.94761
1051.44	2.57475
1054.81	3.1602
1058.19	0.546375
1061.56	0.106988
1064.94	0.309644
1068.31	0.691906
1071.69	3.00065
1075.06	1.91289
1078.43	1.47552
1081.81	0.575773
1085.18	1.60788
1088.56	0.454121
1091.93	2.58698
1095.31	1.15797
1098.68	3.85991
1102.06	0.41043
1105.43	0.009422
1108.81	1.68834
1112.18	0.883439
1115.56	1.25185
1118.93	1.5613
1122.31	2.58393
1125.68	3.97297
1129.06	2.16332
1132.43	1.53581
1135.81	1.17549
1139.18	1.6629
1142.56	1.26724
1145.93	3.6714
1149.31	1.72922
1152.68	0.220442
1156.06	0.845146
1159.43	3.00912
1162.81	3.57461
1166.18	0.085752
1169.56	1.31392
1172.93	3.24006
1176.31	1.82452
1179.68	1.07696
1183.06	0.599854
1186.43	1.71587
1189.8	2.34538
1193.18	1.12366
1196.55	1.2351
1199.93	2.96408
1203.3	0.732179
1206.68	2.55889
1210.05	0.492162
1213.43	3.40737
1216.8	1.40251
1220.18	2.06427
1223.55	2.14311
1226.93	0.060532
1230.3	2.01372
1233.68	0.435111
1237.05	0.707526
1240.43	0.759759
1243.8	0.501658
1247.18	0.034832
1250.55	0.495383
1253.93	0.514824
1257.3	1.67606
1260.67	1.78467
1264.05	2.77197
1267.42	2.03081
1270.8	1.7871
1274.17	0.997673
1277.55	1.13821
1280.92	2.52385
1284.3	0.005756
