Measurement: Raman, 785 nm, unoriented, Raman Data Processed
Mineral: Bixbyite
Rruff sample: R050395
Ideal chemistry: Mn^3+^_2_O_3_
Locality: Thomas Range, Juab County, Utah, USA
Source: Marcus Origlieri
Description: Black cube modified with octahedral corners
Measured chemistry: (Fe^3+^_1.09_Mn^3+^_0.83_Al_0.04_Ti_0.03_[box]_0.01_)_Î£=2_O_3_
Raman shift (cm-1)	intensity
101.611	0
104.986	35.584
108.36	150.39
111.735	130.989
115.11	291.01
118.485	921.555
121.86	1943.44
125.235	2403.61
128.609	1376.56
131.984	815.245
135.359	640.778
138.734	610.778
142.109	745.278
145.484	726.068
148.858	376.746
152.233	252.423
155.608	350.312
158.983	550.236
162.358	554.712
165.732	329.34
169.107	155.282
172.482	55.769
175.857	13.245
179.232	16.098
182.607	16.816
185.981	32.054
189.356	45.476
192.731	82.797
196.106	133.444
199.48	169.148
202.855	142.8
206.23	88.706
209.605	10.597
212.98	27.764
216.355	32.717
219.73	7.155
223.104	51.434
226.479	94.528
229.854	115.704
233.229	91.011
236.604	72.581
239.978	72.209
243.353	50.858
246.728	0.597
250.103	0.558
253.478	10.529
256.852	57.195
260.227	116.963
263.602	148.219
266.977	154.407
270.352	120.9
273.727	74.254
277.101	41.576
280.476	15.407
283.851	1.653
287.226	15.898
290.601	27.262
293.975	67.518
297.35	102.118
300.725	131.77
304.1	156.597
307.475	120.314
310.849	103.687
314.224	60.5
317.599	52.449
320.974	35.906
324.349	41.767
327.724	57.732
331.098	95.018
334.473	103.968
337.848	121.072
341.223	165.781
344.598	144.56
347.973	113.223
351.347	74.617
354.722	33.731
358.097	11.58
361.472	2.885
364.847	14.688
368.221	31.127
371.596	57.768
374.971	58.3
378.346	72.389
381.721	75.454
385.095	58.996
388.47	35.096
391.845	9.86
395.22	9.425
398.595	5.693
401.97	1.718
405.344	10.177
408.719	27.692
412.094	39.99
415.469	48.734
418.844	47.358
422.219	38.755
425.593	26.034
428.968	10.929
432.343	11.295
435.718	3.795
439.093	8.636
442.467	17.251
445.842	21.42
449.217	39.437
452.592	45.97
455.967	42.714
459.341	41.784
462.716	28.66
466.091	39.07
469.466	17.445
472.841	25.639
476.216	14.121
479.59	22.904
482.965	28.621
486.34	43.153
489.715	44.438
493.09	43.466
496.465	27.598
499.839	21.487
503.214	18.402
506.589	23.641
509.964	6.891
513.339	15.16
516.713	3.136
520.088	4.939
523.463	26.763
526.838	29.56
530.213	33.849
533.588	23.802
536.962	32.997
540.337	38.31
543.712	20.764
547.087	25.935
550.461	22.605
553.836	33.166
557.211	7.194
560.586	8.739
563.961	25.596
567.336	20.561
570.71	3.561
574.085	28.483
577.46	6.683
580.835	0.735
584.21	2.545
587.585	17.61
590.959	1.128
594.334	9.889
597.709	4.882
601.084	9.328
604.459	5.791
607.833	11.767
611.208	9.232
614.583	0.782
617.958	0.098
621.333	8.755
624.708	19.881
628.082	10.593
631.457	20.354
634.832	24.375
638.207	27.128
641.582	24.407
644.956	20.661
648.331	31.314
651.706	18.545
655.081	31.987
658.456	31.487
661.831	33.789
665.205	30.641
668.58	37.118
671.955	59.669
675.33	47.754
678.705	49.971
682.08	50.446
685.454	55.892
688.829	51.323
692.204	65.836
695.579	68.964
698.954	67.872
702.328	73.182
705.703	70.579
709.078	62.234
712.453	67.602
715.828	45.016
719.203	34.703
722.577	36.636
725.952	17.779
729.327	18.439
732.702	22.25
736.076	3.168
739.451	10.255
742.826	20.472
746.201	2.701
749.576	7.319
752.951	8.97
756.325	1.434
759.7	10.17
763.075	11.116
766.45	10.732
769.825	4.471
773.2	3.988
776.574	0.542
779.949	15.187
783.324	15.419
786.699	24.188
790.074	20.303
793.448	11.818
796.823	21.745
800.198	11.336
803.573	0.233
806.948	22.665
810.323	2.217
813.697	4.196
817.072	8.703
820.447	23.442
823.822	23.309
827.197	20.19
830.571	19.292
833.946	28.442
837.321	17.415
840.696	10.556
844.071	12.537
847.445	12.297
850.82	20.432
854.195	12.663
857.57	11.863
860.945	15.566
864.32	3.674
867.694	14.12
871.069	3.385
874.444	9.747
877.819	18.082
881.194	4.426
884.568	18.16
887.943	12.702
891.318	9.986
894.693	15.218
898.068	16.047
901.443	18.72
904.817	21.775
908.192	8.917
911.567	17.824
914.942	23.945
918.317	6.883
921.692	2.113
925.066	1.378
928.441	14.372
931.816	5.031
935.191	13.64
938.566	13.934
941.94	1.657
945.315	6.122
948.69	11.667
952.065	16.256
955.44	0.527
958.815	3.503
962.189	9.913
965.564	13.888
968.939	5.373
972.314	14.591
975.689	11.164
979.063	14.946
982.438	12.582
985.813	3.933
989.188	4.461
992.563	9.229
995.938	22.867
999.312	8.851
1002.69	2.514
1006.06	3.522
1009.44	11.578
1012.81	9.059
1016.19	17.691
1019.56	5.846
1022.94	7.765
1026.31	11.357
1029.69	30.32
1033.06	12.185
1036.43	7.242
1039.81	23.55
1043.18	19.787
1046.56	9.74
1049.93	18.093
1053.31	14.523
1056.68	6.894
1060.06	18.75
1063.43	13.377
1066.81	8.645
1070.18	18.529
1073.56	8.874
1076.93	16.092
1080.31	7.418
1083.68	0.654
1087.06	12.481
1090.43	18.648
1093.81	19.088
1097.18	13.216
1100.56	23.741
1103.93	13.76
1107.31	16.535
1110.68	11.333
1114.06	12.099
1117.43	9.158
1120.81	18.639
1124.18	18.535
1127.56	5.841
1130.93	21.147
1134.31	1.136
1137.68	18.39
1141.06	20.256
1144.43	18.15
1147.8	2.905
1151.18	8.969
1154.55	16.272
1157.93	2.995
1161.3	6.741
1164.68	5.517
1168.05	25.323
1171.43	9.046
1174.8	2.546
1178.18	11.945
1181.55	3.85
1184.93	13.88
1188.3	2.889
1191.68	19.316
1195.05	8.594
1198.43	7.624
1201.8	9.534
1205.18	14.506
1208.55	5.548
1211.93	7.976
1215.3	7.302
1218.67	1.994
1222.05	15.377
1225.42	5.478
1228.8	12.607
1232.17	15.432
1235.55	3.004
1238.92	9.605
1242.3	14.219
1245.67	0.211
1249.05	19.674
1252.42	10.696
1255.8	2.295
1259.17	6.458
1262.55	5.576
1265.92	7.062
