Measurement: Raman, 780 nm, unoriented, Raman Data Processed
Mineral: Bobdownsite
Rruff sample: R070653
Ideal chemistry: Ca_9_Mg(PO_4_)_6_(PO_3_F)
Locality: Tip Top mine, Custer County, South Dakota, USA
Source: Rock Currier
Description: Colorless rhombohedral crystals embedded in a fine-grained matrix
Measured chemistry: (Ca_8.97_Na_0.03_)_Σ=9_(Mg_0.97_Al_0.03_)_Σ=1_(P_1.00_O_3_(F_0.83_(OH)_0.17_)_Σ=1_)(P_1.00_O_4_)_6_; OH estimated by difference
Raman shift (cm-1)	intensity
186.065	0
188.957	6.625
191.85	32.9688
194.743	5.53906
197.635	151.805
200.528	86.0703
203.421	212.961
206.313	255.734
209.206	199.344
212.099	270.18
214.992	331.969
217.884	269.188
220.777	286.391
223.67	173.586
226.562	352.602
229.455	328.172
232.348	434.445
235.24	551.953
238.133	528.367
241.026	453.859
243.918	586.109
246.811	599.75
249.704	486.852
252.597	510.344
255.489	515.547
258.382	472.328
261.275	534.797
264.167	502.945
267.06	355.844
269.953	565.562
272.846	469.773
275.738	503.109
278.631	580.609
281.524	665.18
284.416	488.477
287.309	333.336
290.202	389.938
293.094	319.648
295.987	330.016
298.88	297.578
301.772	237.906
304.665	354.328
307.558	307.695
310.45	291.18
313.343	233.961
316.236	270.555
319.129	329.461
322.021	420.828
324.914	354.953
327.807	367.93
330.699	257.641
333.592	222.25
336.485	318.734
339.377	420.883
342.27	384.539
345.163	326.078
348.056	435.367
350.948	187.906
353.841	107.141
356.734	274.633
359.626	121.602
362.519	135.383
365.412	28.0312
368.305	98.6562
371.197	75.5156
374.09	0.0625
376.983	72.7656
379.875	0.859375
382.768	40.4062
385.661	24.8359
388.553	89.7266
391.446	10.4766
394.339	164.867
397.231	463.703
400.124	584.5
403.017	581.867
405.909	566.453
408.802	382.789
411.695	418.992
414.588	446.867
417.48	328.375
420.373	569.484
423.266	568.352
426.158	426.984
429.051	555.094
431.944	570.68
434.837	633.109
437.729	618.117
440.622	460.57
443.515	554.258
446.407	561.68
449.3	551.055
452.193	666.727
455.085	697.07
457.978	770.766
460.871	648.656
463.764	640.703
466.656	575.773
469.549	504.086
472.442	418.625
475.334	343.5
478.227	389.812
481.12	439.234
484.012	388.734
486.905	403.031
489.798	395.289
492.69	242
495.583	145.914
498.476	143.219
501.369	44.3516
504.261	162.539
507.154	7.53906
510.047	56.7031
512.939	5.38281
515.832	91.8906
518.725	103.734
521.617	18.7109
524.51	69.1328
527.403	32.5859
530.296	73.0469
533.188	50.5625
536.081	62.9453
538.974	34.7422
541.866	144.148
544.759	191.484
547.652	151.078
550.544	303.898
553.437	319.625
556.33	347.547
559.222	278.75
562.115	209.102
565.008	155.852
567.901	141.414
570.793	69.5938
573.686	32.125
576.579	186.391
579.471	168.602
582.364	80.7188
585.257	234.68
588.149	133.477
591.042	251.992
593.935	162.531
596.828	341.016
599.72	360.664
602.613	390.562
605.506	373.766
608.398	386.664
611.291	451.992
614.184	457.477
617.077	473.055
619.969	466.445
622.862	510.883
625.755	449.211
628.647	404.578
631.54	244.922
634.433	259.641
637.325	252.211
640.218	219.852
643.111	91.2109
646.004	99.0625
648.896	126.438
651.789	136.539
654.682	47.5547
657.574	176.461
660.467	164.242
663.36	30.2031
666.252	65.0078
669.145	14.9766
672.038	12.9844
674.931	38.6562
677.823	6.71094
680.716	5.21875
683.609	49.2812
686.501	47.2344
689.394	44.9922
692.287	92
695.179	4.13281
698.072	15.4531
700.965	119.766
703.857	169.438
706.75	150.297
709.643	305.219
712.535	122.805
715.428	179.289
718.321	283.18
721.214	163.102
724.106	173.609
726.999	165.609
729.892	192.344
732.784	128.93
735.677	68.9219
738.57	141.156
741.462	60.3672
744.355	62.4688
747.248	66.3906
750.141	112.641
753.033	66
755.926	30.0391
758.819	51.625
761.711	48.7188
764.604	15.3906
767.497	18.9414
770.389	67.4258
773.282	36.5586
776.175	103.277
779.068	6.79297
781.96	16.6367
784.853	17.6094
787.746	90.5352
790.638	48.4258
793.531	107.012
796.424	109.402
799.317	111.019
802.209	93.625
805.102	232.004
807.995	236.969
810.887	207.586
813.78	61.4023
816.673	260.812
819.565	301.836
822.458	247.461
825.351	238.941
828.244	286.766
831.136	179.152
834.029	97.7383
836.922	46.4297
839.814	173.207
842.707	147.5
845.6	214.176
848.492	216.801
851.385	196.102
854.278	170.816
857.17	140.68
860.063	107.25
862.956	222.356
865.849	167.004
868.741	146.637
871.634	111.086
874.527	216.356
877.419	176.012
880.312	149.801
883.205	195.582
886.097	182.957
888.99	121.352
891.883	224.602
894.775	94.1875
897.668	36.5195
900.561	8.01562
903.454	23.7852
906.346	86.8555
909.239	132.129
912.132	238.644
915.024	371.445
917.917	458.977
920.81	547.715
923.702	464.82
926.595	288.836
929.488	215.144
932.381	114.106
935.273	38.1211
938.166	34.6758
941.059	155.109
943.951	255.973
946.844	411.469
949.737	808.723
952.63	1222.97
955.522	1849.34
958.415	2788.14
961.308	3255.74
964.2	2804.38
967.093	2852.4
969.986	2796.95
972.878	2126.64
975.771	770.777
978.664	164.406
981.557	120.219
984.449	151.203
987.342	179.68
990.235	269.75
993.127	186.258
996.02	92.7031
998.913	100.316
1001.8	36.4258
1004.7	10.8125
1007.59	36.9531
1010.48	20.6367
1013.38	14.8359
1016.27	10.9141
1019.16	15.3398
1022.05	68.9531
1024.95	143.797
1027.84	158.668
1030.73	209.16
1033.62	212.199
1036.52	198.481
1039.41	116.996
1042.3	77.2812
1045.2	124.547
1048.09	208.078
1050.98	218.481
1053.87	165.981
1056.77	125.027
1059.66	201.348
1062.55	248.824
1065.44	328.465
1068.34	294.551
1071.23	300.723
1074.12	273.644
1077.02	224.992
1079.91	198.215
1082.8	151.594
1085.69	177.121
1088.59	295.414
1091.48	287.141
1094.37	213.922
1097.26	136.59
1100.16	90.0977
1103.05	69.1523
1105.94	52.8516
1108.84	8.21094
1111.73	19.957
1114.62	26.4766
1117.51	94.9922
1120.41	46.7656
1123.3	47.9766
1126.19	37.8242
1129.08	119.215
1131.98	21.5078
1134.87	57.1836
1137.76	71.875
1140.65	197.609
1143.55	167.508
1146.44	166.598
1149.33	145.168
1152.23	184.445
1155.12	206.691
1158.01	230.543
1160.9	181.719
1163.8	212.008
1166.69	272.875
1169.58	273.477
1172.47	297.91
1175.37	286.152
1178.26	300.293
1181.15	237.731
1184.05	223.312
1186.94	245.07
1189.83	246.246
1192.72	280.633
1195.62	293.406
1198.51	248.277
1201.4	212.68
1204.29	185.207
1207.19	210.867
1210.08	141.371
1212.97	194.656
1215.87	54.3867
1218.76	0.882813
1221.65	28.8555
1224.54	56.0586
1227.44	9.58203
1230.33	36.793
1233.22	90.8125
1236.11	140.191
1239.01	101.102
1241.9	75.6055
1244.79	128.281
1247.68	74.0664
1250.58	67.043
1253.47	14.5625
1256.36	97.2656
1259.26	93.543
1262.15	3.87109
1265.04	108.285
1267.93	83.1367
1270.83	32.9531
1273.72	150.586
1276.61	96.0234
1279.5	3.64453
1282.4	31.5547
