Measurement: Raman, 532 nm, unoriented, Raman Data Processed
Mineral: Bobdownsite
Rruff sample: R070653
Ideal chemistry: Ca_9_Mg(PO_4_)_6_(PO_3_F)
Locality: Tip Top mine, Custer County, South Dakota, USA
Source: Rock Currier
Description: Colorless rhombohedral crystals embedded in a fine-grained matrix
Measured chemistry: (Ca_8.97_Na_0.03_)_Σ=9_(Mg_0.97_Al_0.03_)_Σ=1_(P_1.00_O_3_(F_0.83_(OH)_0.17_)_Σ=1_)(P_1.00_O_4_)_6_; OH estimated by difference
Raman shift (cm-1)	intensity
205.779	0
208.672	0.066193
211.565	0.059601
214.457	0.815857
217.35	0.666779
220.243	1.01146
223.135	1.56938
226.028	1.13126
228.921	1.7968
231.813	1.21881
234.706	1.35295
237.599	1.23183
240.492	1.37494
243.384	1.78241
246.277	1.81285
249.17	2.15396
252.062	1.54733
254.955	1.86821
257.848	1.5305
260.74	2.47661
263.633	2.63564
266.526	2.85506
269.418	2.2403
272.311	2.00047
275.204	1.68626
278.097	1.31877
280.989	0.798721
283.882	0.718079
286.775	1.35588
289.667	1.75584
292.56	1.1956
295.453	0.678955
298.346	0.23732
301.238	0.284805
304.131	0.381287
307.024	0.102798
309.916	0.332077
312.809	0.232254
315.702	0.643219
318.594	0.621506
321.487	0.643997
324.38	0.144043
327.273	0.808395
330.165	0.519272
333.058	0.177872
335.951	0.58548
338.843	0.174606
341.736	0.280365
344.629	0.056183
347.522	0.489426
350.414	1.06596
353.307	0.357101
356.2	0.923096
359.092	0.822006
361.985	0.042313
364.878	0.065109
367.77	0.072708
370.663	0.113449
373.556	0.15358
376.449	0.39447
379.341	0.686646
382.234	0.382858
385.127	0.359116
388.019	1.04262
390.912	2.28369
393.805	2.83078
396.697	4.58978
399.59	5.74678
402.483	8.17571
405.376	10.1411
408.268	9.82884
411.161	7.82303
414.054	5.88971
416.946	5.03658
419.839	4.27795
422.732	3.37978
425.625	3.09947
428.517	3.41669
431.41	3.24875
434.303	3.61183
437.195	3.40054
440.088	2.91811
442.981	2.68605
445.873	2.14145
448.766	1.92021
451.659	2.25528
454.551	2.20757
457.444	1.84476
460.337	1.89371
463.23	1.70566
466.122	1.27524
469.015	1.63084
471.908	1.49147
474.8	1.51186
477.693	1.10826
480.586	1.64481
483.479	1.67911
486.371	1.51024
489.264	1.0921
492.157	1.17809
495.049	1.31194
497.942	1.14417
500.835	0.980972
503.728	0.509781
506.62	0.373428
509.513	0.073929
512.406	0.482773
515.298	0.960358
518.191	0.117035
521.084	0.038254
523.976	0.53923
526.869	0.817108
529.762	0.410828
532.654	1.1554
535.547	1.144
538.44	1.35803
541.333	2.29137
544.225	2.68913
547.118	2.42294
550.011	2.89594
552.903	3.36383
555.796	2.91026
558.689	3.49428
561.582	3.33469
564.474	2.76065
567.367	2.17917
570.26	2.15681
573.152	1.27832
576.045	0.700439
578.938	0.237122
581.83	0.115646
584.723	0.415268
587.616	1.81079
590.509	1.46877
593.401	1.00699
596.294	1.03267
599.187	2.009
602.079	2.02432
604.972	1.84456
607.865	1.70389
610.758	1.59076
613.65	2.0244
616.543	2.36299
619.436	2.90996
622.328	3.20728
625.221	2.89134
628.114	2.3698
631.006	2.63055
633.899	1.63156
636.792	1.08508
639.684	1.38744
642.577	1.76623
645.47	1.60907
648.363	0.387955
651.255	0.250351
654.148	0.220642
657.041	0.715302
659.933	1.50324
662.826	1.23193
665.719	0.197327
668.612	0.536804
671.504	0.420044
674.397	0.519547
677.29	0.559021
680.182	0.876434
683.075	1.06709
685.968	1.35966
688.861	1.42363
691.753	1.37666
694.646	0.695709
697.539	0.838623
700.431	1.22835
703.324	1.22134
706.217	1.57146
709.109	1.50697
712.002	1.29196
714.895	1.27246
717.788	1.24187
720.68	0.453354
723.573	0.478241
726.466	0.107544
729.358	0.356583
732.251	0.743835
735.144	0.284958
738.036	0.756317
740.929	0.436523
743.822	0.212891
746.715	0.973328
749.607	0.039398
752.5	0.729889
755.393	0.02594
758.285	0.834335
761.178	0.526688
764.071	0.71225
766.963	1.05716
769.856	0.758514
772.749	0.621994
775.642	0.172943
778.534	0.393112
781.427	0.786682
784.32	1.0658
787.212	0.556
790.105	0.030838
792.998	0.836655
795.89	0.639908
798.783	1.05937
801.676	1.24628
804.569	1.18796
807.461	0.548752
810.354	0.910126
813.247	1.2113
816.139	0.920471
819.032	0.719803
821.925	1.2939
824.818	0.290604
827.71	0.328644
830.603	0.730103
833.496	0.573914
836.388	0.642944
839.281	0.261185
842.174	0.375107
845.067	0.883316
847.959	0.803497
850.852	0.75766
853.745	1.35118
856.637	1.27307
859.53	0.763275
862.423	0.464325
865.315	1.15675
868.208	0.620712
871.101	0.955795
873.994	1.25258
876.886	0.837967
879.779	0.976852
882.672	0.752853
885.564	0.035263
888.457	0.161255
891.35	0.43808
894.242	0.455002
897.135	0.319031
900.028	0.006958
902.92	0.120316
905.813	0.455124
908.706	0.768768
911.599	1.31972
914.491	2.48898
917.384	3.9505
920.277	6.32426
923.169	8.99028
926.062	9.48811
928.955	5.81656
931.847	2.81958
934.74	1.46193
937.633	1.082
940.526	0.288574
943.418	0.381317
946.311	2.01303
949.204	3.53883
952.096	8.12041
954.989	14.7871
957.882	26.5254
960.775	42.1146
963.667	50.5653
966.56	47.449
969.453	49.2008
972.345	48.3885
975.238	36.4407
978.131	16.32
981.024	5.78271
983.916	2.29773
986.809	2.00517
989.702	2.06232
992.594	2.7757
995.487	3.82767
998.38	3.56487
1001.27	3.18387
1004.16	1.37051
1007.06	0.737839
1009.95	0.291656
1012.84	0.288818
1015.74	1.02486
1018.63	0.804871
1021.52	0.805313
1024.41	0.390152
1027.31	0.785294
1030.2	0.75351
1033.09	0.639328
1035.98	1.44212
1038.88	0.905365
1041.77	0.087723
1044.66	0.246887
1047.56	0.543289
1050.45	0.151474
1053.34	0.213989
1056.23	0.148438
1059.13	0.354019
1062.02	0.907669
1064.91	0.991394
1067.81	0.965408
1070.7	1.60408
1073.59	1.70262
1076.48	2.29538
1079.38	2.07349
1082.27	2.42979
1085.16	3.05031
1088.05	2.7744
1090.95	2.7822
1093.84	2.71387
1096.73	1.87909
1099.62	1.86745
1102.52	1.51401
1105.41	1.9052
1108.3	1.47636
1111.19	1.67053
1114.09	1.23872
1116.98	0.819244
1119.87	1.38072
1122.77	0.712646
1125.66	0.49321
1128.55	0.593658
1131.44	0.437531
1134.34	0.092987
1137.23	0.055664
1140.12	0.101379
1143.02	0.508423
1145.91	0.895782
1148.8	0.613098
1151.69	0.65744
1154.59	0.085724
1157.48	0.237762
1160.37	0.599701
1163.26	0.849457
1166.16	0.432953
1169.05	0.127228
1171.94	0.714661
1174.84	0.470367
1177.73	0.862152
1180.62	0.184479
1183.51	0.24472
1186.4	0.6409
1189.3	0.579102
1192.19	1.10089
1195.08	0.483765
1197.98	0.934418
1200.87	1.117
1203.76	0.337189
1206.65	0.390564
1209.55	0.720795
1212.44	0.983337
1215.33	0.928741
1218.22	0.810242
1221.12	1.06665
1224.01	1.03995
1226.9	1.39179
1229.8	0.58313
1232.69	0.800629
1235.58	0.033539
1238.47	0.636993
1241.37	0.743378
1244.26	0.640747
1247.15	1.03949
1250.05	1.23666
1252.94	0.816986
1255.83	0.679321
1258.72	1.38974
1261.62	1.46841
1264.51	1.48901
1267.4	0.80835
1270.29	1.45184
1273.19	1.38541
1276.08	0.919586
1278.97	1.10309
1281.87	0.931946
1284.76	0.865173
1287.65	0.87326
1290.54	0.719238
1293.43	1.02426
1296.33	0.131409
1299.22	0.857819
1302.11	0.032593
