Measurement: Raman, 780 nm, unoriented, Raman Data Processed
Mineral: Bobjonesite
Rruff sample: R060577
Ideal chemistry: V^4+^OS^6+^O_4_3H_2_O
Locality: Petrified log in the North Mesa 5 mine, Temple Mountain, Emery County, Utah, USA
Source: Michael Scott
Description: Blue tabular crystals
Raman shift (cm-1)	intensity
93.9705	0
97.3453	9.88513
100.72	9.76413
104.095	4.28038
107.47	0.971909
110.845	0.396271
114.219	0.905426
117.594	4.44685
120.969	5.29388
124.344	9.74164
127.719	5.57738
131.094	5.45526
134.468	1.85568
137.843	3.27931
141.218	2.65521
144.593	1.65437
147.968	1.48399
151.342	1.54655
154.717	1.14719
158.092	3.17671
161.467	0.426346
164.842	2.68555
168.216	2.4433
171.591	1.77528
174.966	1.84108
178.341	1.86914
181.716	2.99394
185.09	4.51405
188.465	3.31494
191.84	5.28044
195.215	4.6691
198.59	7.63882
201.965	11.1227
205.339	14.3973
208.714	11.1028
212.089	8.5352
215.464	7.23152
218.839	2.57602
222.214	2.0224
225.588	0.87915
228.963	1.49435
232.338	2.07947
235.713	0.565369
239.088	2.4418
242.462	1.43344
245.837	3.55362
249.212	2.34583
252.587	2.49796
255.962	2.66522
259.336	1.59235
262.711	2.27844
266.086	4.81625
269.461	7.81351
272.836	9.65997
276.211	12.1696
279.585	9.64484
282.96	5.19147
286.335	2.61523
289.71	1.7767
293.085	1.40417
296.459	1.69189
299.834	2.54468
303.209	1.47522
306.584	1.44684
309.959	2.2222
313.334	2.37833
316.708	5.86261
320.083	4.59134
323.458	4.732
326.833	1.27243
330.207	0.110321
333.582	0.072632
336.957	0.974335
340.332	1.41989
343.707	1.91458
347.082	0.247803
350.456	0.296021
353.831	0.731964
357.206	3.1058
360.581	2.4736
363.956	0.366455
367.33	1.02377
370.705	3.62155
374.08	1.32297
377.455	0.574249
380.83	2.32712
384.205	2.20062
387.579	2.31287
390.954	2.50958
394.329	2.36417
397.704	2.12878
401.079	0.988159
404.453	2.87283
407.828	1.51327
411.203	0.473877
414.578	0.621834
417.953	0.557159
421.327	1.80393
424.702	2.91946
428.077	0.726349
431.452	2.27972
434.827	0.652496
438.202	0.752136
441.576	1.29578
444.951	1.82843
448.326	3.15866
451.701	4.26071
455.076	5.88538
458.45	7.24368
461.825	5.71558
465.2	9.43735
468.575	8.99725
471.95	8.80228
475.325	11.9401
478.699	10.1371
482.074	8.41699
485.449	7.06317
488.824	6.35941
492.199	8.24216
495.573	4.42422
498.948	4.30685
502.323	2.80884
505.698	1.70181
509.073	3.96551
512.447	2.56116
515.822	5.04538
519.197	0.931854
522.572	1.62726
525.947	2.15204
529.322	2.4603
532.696	2.82785
536.071	2.315
539.446	3.38348
542.821	0.76001
546.196	1.86578
549.57	1.62448
552.945	1.13413
556.32	1.46802
559.695	3.3808
563.07	2.40124
566.444	0.5755
569.819	1.92358
573.194	1.59161
576.569	3.17572
579.944	0.924927
583.319	1.99115
586.693	2.74707
590.068	1.10516
593.443	3.04834
596.818	6.8941
600.193	4.20447
603.567	3.50519
606.942	5.28809
610.317	5.92059
613.692	4.6001
617.067	5.15295
620.442	4.26623
623.816	4.44849
627.191	4.96216
630.566	5.00165
633.941	6.86292
637.316	5.43011
640.69	7.48492
644.065	4.52856
647.44	4.91754
650.815	2.2655
654.19	0.612793
657.564	3.00842
660.939	3.25641
664.314	2.8125
667.689	0.129211
671.064	2.55383
674.439	1.32343
677.813	3.01849
681.188	2.96612
684.563	1.4588
687.938	1.38342
691.313	1.89929
694.688	1.02148
698.062	1.13458
701.437	2.26446
704.812	2.0993
708.187	2.27637
711.562	3.82696
714.936	5.86939
718.311	3.58929
721.686	2.508
725.061	5.65674
728.436	1.61346
731.81	4.49353
735.185	6.89441
738.56	6.4458
741.935	1.79266
745.31	5.21204
748.684	3.64307
752.059	4.04944
755.434	1.54596
758.809	1.63007
762.184	2.13361
765.559	1.75745
768.933	0.475464
772.308	4.58044
775.683	0.478333
779.058	6.05298
782.433	1.21735
785.808	0.619263
789.182	3.43463
792.557	2.93542
795.932	3.31799
799.307	4.21503
802.682	0.658813
806.056	5.86792
809.431	5.90991
812.806	2.07929
816.181	5.11212
819.556	5.3963
822.93	7.75146
826.305	1.98822
829.68	3.93927
833.055	0.385498
836.43	1.31769
839.804	6.68146
843.179	4.70904
846.554	5.1253
849.929	1.75903
853.304	3.97009
856.679	5.87903
860.053	2.23962
863.428	1.24011
866.803	6.04675
870.178	3.33362
873.553	2.8241
876.927	1.97937
880.302	1.96314
883.677	7.8396
887.052	1.97974
890.427	2.56909
893.802	6.58484
897.176	0.094727
900.551	1.16296
903.926	5.75073
907.301	9.22668
910.676	4.84131
914.05	3.31201
917.425	7.67334
920.8	5.02759
924.175	0.193848
927.55	3.95667
930.924	4.77026
934.299	0.611694
937.674	7.33948
941.049	5.052
944.424	2.74841
947.799	6.31323
951.173	6.58069
954.548	7.21704
957.923	4.38672
961.298	1.79981
964.673	0.931396
968.047	3.21277
971.422	3.19409
974.797	0.558228
978.172	1.22144
981.547	4.3916
984.922	1.71423
988.296	5.71655
991.671	6.0769
995.046	18.5613
998.421	29.2814
1001.8	64.9205
1005.17	48.5203
1008.54	17.7902
1011.92	15.0858
1015.29	16.377
1018.67	12.6234
1022.04	23.3997
1025.42	36.7777
1028.79	15.2983
1032.17	5.19189
1035.54	9.00806
1038.92	19.0171
1042.29	6.32422
1045.67	4.96948
1049.04	7.17493
1052.42	2.1803
1055.79	7.03284
1059.17	9.92651
1062.54	9.76904
1065.92	26.714
1069.29	34.7643
1072.67	29.1172
1076.04	19.1648
1079.42	9.36646
1082.79	5.35889
1086.17	9.18787
1089.54	8.28516
1092.92	13.6412
1096.29	1.20093
1099.66	2.78589
1103.04	11.8412
1106.41	2.57031
1109.79	9.71753
1113.16	0.715332
1116.54	0.234863
1119.91	0.311279
1123.29	4.20691
1126.66	2.23938
1130.04	7.14404
1133.41	9.2699
1136.79	9.85828
1140.16	13.1942
1143.54	11.5822
1146.91	18.0304
1150.29	9.37048
1153.66	18.0955
1157.04	8.15906
1160.41	4.77673
1163.79	5.49011
1167.16	11.4943
1170.54	16.7155
1173.91	15.812
1177.29	14.9152
1180.66	16.3943
1184.04	13.0288
1187.41	12.8707
1190.79	14.9877
1194.16	17.5888
1197.54	20.3914
1200.91	15.7732
1204.28	14.4514
1207.66	12.739
1211.03	8.48804
1214.41	10.1746
1217.78	3.25952
1221.16	7.06396
1224.53	10.7173
1227.91	7.27612
1231.28	5.7605
1234.66	4.14575
1238.03	4.27271
1241.41	2.03418
1244.78	4.64966
1248.16	4.28979
1251.53	4.48999
1254.91	5.06738
1258.28	9.79761
1261.66	13.2244
1265.03	14.2563
1268.41	10.1719
1271.78	0.641357
1275.16	0.945068
1278.53	6.7583
1281.9	2.16602
