Measurement: Raman, 532 nm, unoriented, Raman Data Processed
Mineral: Bokite
Rruff sample: R060590
Ideal chemistry: (Al,Fe)_1.3_(V^5+^,V^4+^,Fe^3+^)_8_O_20_7.5H_2_O
Locality: Monument #2 mine, Apache County, Arizona, USA
Source: Michael Scott
Description: Black platy grains in radiating reniform crusts associated with quartz
Raman shift (cm-1)	intensity
108.986	0
112.361	4.542
115.736	411.614
119.111	1196.97
122.486	1788.4
125.86	2188.64
129.235	2996.56
132.61	3692.03
135.985	4720.49
139.36	5318.55
142.735	5436.52
146.109	5228.79
149.484	4823.3
152.859	4212.57
156.234	3505.97
159.609	2813.78
162.984	2228.07
166.358	1846.46
169.733	1564.45
173.108	1326.09
176.483	1047.32
179.858	908.049
183.232	755.572
186.607	500.874
189.982	344.142
193.357	284.724
196.732	118.362
200.107	54.235
203.481	13.058
206.856	130.134
210.231	55.262
213.606	4.306
216.981	66.577
220.355	30.737
223.73	34.254
227.105	54.888
230.48	35.23
233.855	92.532
237.23	68.351
240.604	104.577
243.979	60.438
247.354	195.536
250.729	451.126
254.104	581.787
257.478	740.683
260.853	985.265
264.228	1183.82
267.603	1265.5
270.978	1136.69
274.353	984.238
277.727	735.937
281.102	517.245
284.477	300.587
287.852	236.32
291.227	3.566
294.602	23.019
297.976	30.771
301.351	56.634
304.726	25.451
308.101	89.113
311.476	96.423
314.85	159.895
318.225	155.766
321.6	129.919
324.975	220.189
328.35	263.419
331.724	266.889
335.099	246.595
338.474	262.846
341.849	297.896
345.224	249.807
348.599	261.669
351.973	302.295
355.348	136.253
358.723	145.598
362.098	126.356
365.473	27.817
368.848	9.317
372.222	21.812
375.597	8.344
378.972	25.324
382.347	9.935
385.722	28.836
389.096	98.778
392.471	118.313
395.846	187.804
399.221	168.698
402.596	138.272
405.971	210.858
409.345	149.076
412.72	176.393
416.095	258.418
419.47	131.427
422.845	180.624
426.22	50.691
429.594	12.742
432.969	58.81
436.344	26.539
439.719	34.183
443.094	11.267
446.468	88.243
449.843	92.885
453.218	76.907
456.593	170.684
459.968	214.27
463.342	249.865
466.717	309.893
470.092	335.431
473.467	349.376
476.842	378.77
480.217	336.158
483.591	355.08
486.966	414.331
490.341	382.047
493.716	458.886
497.091	490.904
500.466	499.288
503.84	515.813
507.215	561.696
510.59	442.279
513.965	478.349
517.34	358.376
520.714	302.23
524.089	205.115
527.464	141.907
530.839	181.241
534.214	117.01
537.589	7.37
540.963	26.187
544.338	16.395
547.713	31.742
551.088	16.417
554.463	15.678
557.838	47.291
561.212	94.11
564.587	89.419
567.962	68.969
571.337	38.26
574.711	91.228
578.086	112.426
581.461	92.239
584.836	176.522
588.211	111.927
591.586	135.452
594.96	166.089
598.335	142.817
601.71	158.634
605.085	147.88
608.46	157.269
611.834	167.059
615.209	108.812
618.584	95.307
621.959	180.566
625.334	113.03
628.709	98.018
632.083	53.648
635.458	32.809
638.833	35.58
642.208	44.491
645.583	10.294
648.958	85.841
652.332	0.348
655.707	40.44
659.082	21.394
662.457	14.97
665.832	23.99
669.206	29.814
672.581	89.686
675.956	146.04
679.331	255.688
682.706	348.266
686.081	485.473
689.455	713.812
692.83	785.175
696.205	911.041
699.58	915.164
702.955	799.791
706.33	690.706
709.704	566.278
713.079	375.329
716.454	223.557
719.829	107.774
723.204	9.634
726.578	38.323
729.953	18.103
733.328	1.829
736.703	70.781
740.078	159.107
743.453	255.82
746.827	350.624
750.202	496.681
753.577	475.632
756.952	563.303
760.327	756.66
763.701	737.315
767.076	725.938
770.451	771.516
773.826	749.973
777.201	757.097
780.576	707.322
783.95	728.673
787.325	720.204
790.7	815.748
794.075	884.143
797.45	828.949
800.825	829.658
804.199	836.589
807.574	942.307
810.949	877.661
814.324	808.547
817.698	810.172
821.073	659.079
824.448	630.028
827.823	625.119
831.198	581.766
834.573	416.932
837.948	437.004
841.322	447.478
844.697	358.065
848.072	312.216
851.447	288.74
854.822	258.517
858.196	236.66
861.571	189.801
864.946	176.436
868.321	8.315
871.696	98.257
875.07	10.416
878.445	22.903
881.82	4.718
885.195	32.524
888.57	22.749
891.945	13.672
895.319	0.514
898.694	9.917
902.069	25.985
905.444	66.902
908.819	138.464
912.193	2.037
915.568	107.635
918.943	199.613
922.318	157.882
925.693	174.862
929.068	213.589
932.442	271.961
935.817	221.878
939.192	184.434
942.567	218.044
945.942	180.106
949.317	205.213
952.691	221.324
956.066	232.999
959.441	245.767
962.816	232.784
966.191	336.177
969.565	318.229
972.94	356.345
976.315	394.414
979.69	317.987
983.065	390.433
986.44	334.119
989.814	308.039
993.189	320.102
996.564	360.639
999.939	398.915
1003.31	367.74
1006.69	382.648
1010.06	404.495
1013.44	342.64
1016.81	365.232
1020.19	261.678
1023.56	138.195
1026.94	140.625
1030.31	55.176
1033.69	24.757
1037.06	41.777
1040.44	24.195
1043.81	57.426
1047.19	67.054
1050.56	19.746
1053.94	0.176
1057.31	50.41
1060.69	127.345
1064.06	27.177
1067.43	51.337
1070.81	50.583
1074.18	5.875
1077.56	0.287
1080.93	25.668
1084.31	36.145
1087.68	58.064
1091.06	44.372
1094.43	85.376
1097.81	30.445
1101.18	89.4
1104.56	47.66
1107.93	159.669
1111.31	42.967
1114.68	2.512
1118.06	41.8
1121.43	41.895
1124.81	24.976
1128.18	76.924
1131.56	64.821
1134.93	84.181
1138.31	41.964
1141.68	46.246
1145.06	58.238
1148.43	31.013
1151.81	56.439
1155.18	38.443
1158.56	64.243
1161.93	39.176
1165.31	5.979
1168.68	69.186
1172.06	63.544
1175.43	87.569
1178.8	56.43
1182.18	7.914
1185.55	33.332
1188.93	50.112
1192.3	49.053
1195.68	108.304
1199.05	85.024
1202.43	116.898
1205.8	77.927
1209.18	66.686
1212.55	8.407
1215.93	86.689
1219.3	43.694
1222.68	116.861
1226.05	58.531
1229.43	14.028
1232.8	59.372
1236.18	6.215
1239.55	102.883
1242.93	106.44
1246.3	62.619
1249.68	75.732
1253.05	60.587
1256.42	104.2
1259.8	59.503
1263.17	24.878
1266.55	3.878
1269.92	87.45
1273.3	92.371
1276.67	86.77
1280.05	124.587
1283.42	45.389
1286.8	62.176
1290.17	59.802
1293.55	96.373
1296.92	28.917
1300.3	12.523
