Measurement: Raman, 785 nm, unoriented, Raman Data Processed
Mineral: Boleite
Rruff sample: R050022
Ideal chemistry: KAg^1+^_9_Pb^2+^_26_Cu^2+^_24_Cl_62_(OH)_48_
Locality: Amelia mine, Boleo, Baja California, Mexico
Source: Eugene Schlepp
Description: Dark blue colored interpenetrating cubes
Raman shift (cm-1)	intensity
130.18	0
133.072	14.6669
135.965	8.73035
138.858	68.1822
141.75	257.969
144.643	651.498
147.536	1159.88
150.429	1483.83
153.321	1544.43
156.214	1456.34
159.107	1312.29
161.999	1345.73
164.892	1284.73
167.785	1261.05
170.677	1188.8
173.57	1048.77
176.463	933.023
179.356	816.545
182.248	692.959
185.141	648.855
188.034	615.502
190.926	512.13
193.819	476.97
196.712	411.501
199.604	360.965
202.497	341.373
205.39	317.466
208.282	245.32
211.175	244.541
214.068	192.947
216.961	181.95
219.853	200.711
222.746	143.781
225.639	97.4149
228.531	95.1458
231.424	79.0157
234.317	45.5282
237.209	9.95288
240.102	50.8779
242.995	8.30176
245.888	4.26465
248.78	19.9668
251.673	0.164185
254.566	15.6834
257.458	25.8625
260.351	10.2089
263.244	3.24475
266.137	7.13721
269.029	31.219
271.922	56.137
274.815	59.8165
277.707	73.8176
280.6	120.351
283.493	120.107
286.385	157.201
289.278	177.87
292.171	142.825
295.063	119.224
297.956	70.8048
300.849	29.8921
303.742	31.5162
306.634	11.1519
309.527	11.4735
312.42	16.7454
315.312	12.4925
318.205	6.57642
321.098	5.40735
323.99	19.7003
326.883	20.6905
329.776	48.8585
332.669	60.647
335.561	41.9513
338.454	55.243
341.347	87.8957
344.239	88.1244
347.132	67.4672
350.025	77.5507
352.918	59.0654
355.81	72.9013
358.703	98.5075
361.596	84.9776
364.488	118.456
367.381	61.2188
370.274	67.2179
373.166	79.8908
376.059	62.7148
378.952	53.6304
381.844	39.2247
384.737	13.6067
387.63	44.6656
390.523	48.7607
393.415	2.56622
396.308	32.4032
399.201	37.394
402.093	57.2445
404.986	44.7501
407.879	36.1232
410.772	83.6985
413.664	44.093
416.557	32.2387
419.45	46.5334
422.342	63.2474
425.235	59.4985
428.128	63.1886
431.02	71.7355
433.913	61.0181
436.806	65.3986
439.699	8.52277
442.591	0.198303
445.484	7.82312
448.377	4.45215
451.269	48.5349
454.162	61.0748
457.055	42.1326
459.947	32.6781
462.84	34.0565
465.733	40.4017
468.625	21.8464
471.518	30.2693
474.411	3.95166
477.304	35.2656
480.196	29.0281
483.089	51.0651
485.982	55.8047
488.874	68.6013
491.767	67.3064
494.66	51.9119
497.553	86.1932
500.445	87.2681
503.338	63.4503
506.231	48.799
509.123	18.6832
512.016	10.7224
514.909	19.2086
517.802	19.4973
520.694	17.2855
523.587	7.95892
526.48	28.6489
529.372	45.1196
532.265	47.528
535.158	56.7582
538.05	69.5272
540.943	73.3745
543.836	90.4651
546.729	57.9222
549.621	69.8667
552.514	32.963
555.407	15.1464
558.299	29.7068
561.192	40.6194
564.085	26.3154
566.977	62.1639
569.87	51.276
572.763	68.9134
575.655	87.8368
578.548	98.4616
581.441	85.2056
584.333	99.0579
587.226	84.5431
590.119	82.9819
593.012	79.8289
595.904	66.9775
598.797	79.6116
601.69	69.818
604.582	50.6831
607.475	42.6323
610.368	19.8873
613.26	41.9131
616.153	51.522
619.046	47.7853
621.939	39.7997
624.831	33.5306
627.724	4.32165
630.617	46.5236
633.509	1.82611
636.402	18.8395
639.295	3.4361
642.188	6.75409
645.08	18.5689
647.973	9.28613
650.866	15.2974
653.758	10.4542
656.651	24.7726
659.544	23.2082
662.436	16.1731
665.329	10.4955
668.222	11.9266
671.115	16.032
674.007	30.2971
676.9	14.9975
679.793	21.277
682.685	8.38794
685.578	8.90973
688.471	1.43091
691.363	28.8221
694.256	33.8419
697.149	59.0427
700.042	24.804
702.934	8.80231
705.827	34.2089
708.72	41.0816
711.612	32.2169
714.505	34.0468
717.398	28.816
720.29	21.7487
723.183	19.919
726.076	23.04
728.968	55.8482
731.861	49.478
734.754	29.8146
737.647	14.4617
740.539	1.87518
743.432	29.6791
746.325	18.9944
749.217	15.2496
752.11	25.6207
755.003	32.1929
757.895	22.7315
760.788	12.1202
763.681	1.75928
766.574	7.48895
769.466	24.2145
772.359	3.41467
775.252	11.1013
778.144	9.05408
781.037	35.608
783.93	0.826538
786.822	28.1659
789.715	21.1169
792.608	1.64587
795.501	9.47388
798.393	17.4225
801.286	24.6724
804.179	11.7462
807.071	1.51965
809.964	14.6133
812.857	16.4315
815.75	8.31659
818.642	29.2401
821.535	34.511
824.428	33.2052
827.32	27.4108
830.213	25.4379
833.106	23.4661
835.998	11.7164
838.891	5.19269
841.784	31.6555
844.677	21.5945
847.569	19.5616
850.462	15.2319
853.355	21.1014
856.247	5.18085
859.14	20.0034
862.033	8.64874
864.925	44.0657
867.818	21.3973
870.711	21.7202
873.604	32.0381
876.496	14.4203
879.389	1.54187
882.282	12.9005
885.174	19.0634
888.067	31.6564
890.96	32.6221
893.852	43.5676
896.745	42.3641
899.638	30.4851
902.53	37.6403
905.423	42.1356
908.316	51.4607
911.209	25.215
914.101	20.3452
916.994	22.0239
919.887	27.4999
922.779	1.67767
925.672	29.2447
928.565	62.0864
931.457	22.4924
934.35	12.2259
937.243	29.5216
940.136	5.39813
943.028	43.1027
945.921	23.4031
948.814	23.542
951.706	3.59876
954.599	17.8483
957.492	0.591797
960.385	28.3705
963.277	11.8293
966.17	4.11243
969.063	33.6133
971.955	45.7499
974.848	15.8279
977.741	22.7392
980.633	20.1385
983.526	23.3265
986.419	33.2227
989.312	35.7103
992.204	2.72784
995.097	17.501
997.99	9.6098
1000.88	18.5021
1003.77	13.3641
1006.67	16.0604
1009.56	17.3817
1012.45	8.67627
1015.35	49.5979
1018.24	33.1085
1021.13	10.7983
1024.02	32.1257
1026.92	29.3833
1029.81	20.4393
1032.7	13.7831
1035.6	25.6981
1038.49	11.1605
1041.38	0.79126
1044.27	10.7323
1047.17	0.826904
1050.06	6.25684
1052.95	11.871
1055.84	31.3506
1058.74	17.2764
1061.63	23.2968
1064.52	24.6016
1067.41	5.84729
1070.31	11.8178
1073.2	26.1572
1076.09	26.4134
1078.98	20.4623
1081.88	30.7659
1084.77	5.02435
1087.66	36.3527
1090.56	22.7357
1093.45	20.8749
1096.34	21.1818
1099.23	31.0122
1102.13	35.7118
1105.02	28.5132
1107.91	19.0774
1110.81	28.8771
1113.7	45.0789
1116.59	26.5586
1119.48	22.6012
1122.38	21.7698
1125.27	40.5426
1128.16	34.1599
1131.05	23.1457
1133.95	32.802
1136.84	9.78571
1139.73	36.6373
1142.62	19.8142
1145.52	5.46582
1148.41	27.5852
1151.3	40.2757
1154.19	20.395
1157.09	17.2106
1159.98	25.3537
1162.87	0.432617
1165.77	22.684
1168.66	10.7513
1171.55	29.9475
1174.44	30.734
1177.34	24.3155
1180.23	18.5593
1183.12	8.87567
1186.02	27.2832
1188.91	22.7479
1191.8	37.6499
1194.69	32.6559
1197.59	36.37
1200.48	26.5883
1203.37	38.3426
1206.26	35.3478
1209.16	31.4411
1212.05	1.1308
1214.94	10.3943
1217.84	3.12653
1220.73	6.41888
1223.62	20.2338
1226.51	8.21558
1229.41	6.27399
