Measurement: Raman, 532 nm, unoriented, Raman Data Processed
Mineral: Boleite
Rruff sample: R050022
Ideal chemistry: KAg^1+^_9_Pb^2+^_26_Cu^2+^_24_Cl_62_(OH)_48_
Locality: Amelia mine, Boleo, Baja California, Mexico
Source: Eugene Schlepp
Description: Dark blue colored interpenetrating cubes
Raman shift (cm-1)	intensity
114.949	0
118.324	78.7929
121.699	45.8016
125.074	553.052
128.449	1854.9
131.823	3179.25
135.198	4895.83
138.573	7099.55
141.948	9147.3
145.323	11106.4
148.698	13212.2
152.072	15409.2
155.447	17735.8
158.822	19383.1
162.197	18770.9
165.572	15213.1
168.946	10921.8
172.321	7933.34
175.696	6010.97
179.071	4851.52
182.446	4126.44
185.821	3744.46
189.195	3519.53
192.57	3413.41
195.945	3351.93
199.32	3336.37
202.695	3438.47
206.07	3569.62
209.444	3697.27
212.819	3815.58
216.194	3870.7
219.569	3848.88
222.944	3505.74
226.318	3041.29
229.693	2500.47
233.068	2081.21
236.443	1644.09
239.818	1239.24
243.192	980.407
246.567	706.123
249.942	500.622
253.317	387.206
256.692	343.505
260.067	248.993
263.441	156.422
266.816	97.4727
270.191	57.2128
273.566	25.1378
276.941	22.099
280.315	35.5439
283.69	63.1843
287.065	118.194
290.44	181.954
293.815	358.425
297.19	627.293
300.564	802.534
303.939	785.504
307.314	580.188
310.689	409.921
314.064	308.865
317.438	283.157
320.813	261.744
324.188	301.731
327.563	272.83
330.938	353.901
334.313	384.535
337.687	404.602
341.062	444.496
344.437	461.341
347.812	483.336
351.187	624.62
354.562	819.71
357.936	1008.89
361.311	1204.02
364.686	1173.46
368.061	902.646
371.436	647.89
374.81	485.831
378.185	351.841
381.56	294.529
384.935	209.508
388.31	136.285
391.685	69.3456
395.059	16.785
398.434	2.55121
401.809	13.39
405.184	16.6013
408.559	12.4895
411.933	23.986
415.308	19.068
418.683	15.9609
422.058	30.1675
425.433	9.41162
428.808	38.1461
432.182	76.7375
435.557	125.986
438.932	221.533
442.307	356.422
445.682	548.154
449.056	849.786
452.431	1244.69
455.806	1528.39
459.181	1363.53
462.556	959.457
465.93	683.233
469.305	483.348
472.68	458.344
476.055	437.038
479.43	447.878
482.805	510.399
486.179	526.469
489.554	493.507
492.929	527.86
496.304	518.007
499.679	484.366
503.053	431.649
506.428	336.184
509.803	266.215
513.178	222.672
516.553	161.418
519.928	125.252
523.302	76.3935
526.677	33.1262
530.052	19.7806
533.427	24.5684
536.802	11.2817
540.177	3.79742
543.551	15.9293
546.926	0.47229
550.301	2.56256
553.676	19.5731
557.051	5.8317
560.425	6.98288
563.8	2.12701
567.175	7.72482
570.55	0.421692
573.925	0.131042
577.299	12.4149
580.674	21.616
584.049	38.3586
587.424	26.1811
590.799	26.6871
594.174	16.0524
597.548	34.4841
600.923	35.4568
604.298	11.9932
607.673	14.2396
611.048	19.8767
614.423	21.043
617.797	1.58853
621.172	3.36877
624.547	2.75992
627.922	5.97253
631.297	6.73557
634.671	3.49112
638.046	0.924072
641.421	4.23706
644.796	4.16309
648.171	3.07538
651.545	6.22382
654.92	30.5447
658.295	28.9844
661.67	55.8433
665.045	107.658
668.42	113.424
671.794	162.122
675.169	245.083
678.544	328.695
681.919	390.9
685.294	555.802
688.668	760.184
692.043	943.304
695.418	1121.75
698.793	1123.95
702.168	977.558
705.543	753.368
708.917	523.087
712.292	360.765
715.667	282.051
719.042	246.248
722.417	270.295
725.792	314.946
729.166	336.177
732.541	338.18
735.916	308.743
739.291	260.882
742.666	238.428
746.04	213.074
749.415	152.886
752.79	128.2
756.165	109.999
759.54	76.715
762.915	58.4633
766.289	37.1616
769.664	18.5104
773.039	3.77148
776.414	4.13483
779.789	8.75134
783.163	10.8448
786.538	13.7859
789.913	6.50665
793.288	29.6528
796.663	57.4056
800.038	91.4445
803.412	109.584
806.787	123.124
810.162	153.313
813.537	193.596
816.912	201.737
820.286	184.702
823.661	206.034
827.036	196.791
830.411	179.33
833.786	169.633
837.16	159.94
840.535	123.435
843.91	94.0752
847.285	72.3298
850.66	52.9781
854.035	49.5382
857.409	21.3215
860.784	6.22302
864.159	3.68329
867.534	8.40735
870.909	3.09528
874.284	0.92865
877.658	20.1577
881.033	8.28729
884.408	13.5768
887.783	8.49893
891.158	1.63852
894.533	4.24496
897.907	4.37485
901.282	13.2745
904.657	29.8461
908.032	67.8071
911.407	112.179
914.781	182.641
918.156	251.394
921.531	260.865
924.906	214.417
928.281	160.701
931.655	107.634
935.03	70.6687
938.405	48.9783
941.78	46.2163
945.155	27.6594
948.529	28.7116
951.904	11.8774
955.279	16.3886
958.654	17.4071
962.029	6.42145
965.404	19.9463
968.778	27.7267
972.153	21.2725
975.528	33.7426
978.903	34.792
982.278	22.0703
985.653	24.4411
989.027	43.1781
992.402	35.9161
995.777	35.392
999.152	35.8088
1002.53	44.8926
1005.9	50.3871
1009.28	60.4484
1012.65	37.373
1016.03	40.959
1019.4	54.1728
1022.78	39.2017
1026.15	33.3435
1029.53	26.2468
1032.9	21.4939
1036.28	25.9584
1039.65	31.1137
1043.02	6.44336
1046.4	1.8382
1049.77	15.9149
1053.15	2.88654
1056.52	5.01572
1059.9	6.10754
1063.27	3.26212
1066.65	6.32886
1070.02	1.53668
1073.4	1.6124
1076.77	6.66452
1080.15	6.08138
1083.52	3.47885
1086.9	3.68797
1090.27	4.8689
1093.65	7.62431
1097.02	6.42233
1100.4	0.616455
1103.77	2.12817
1107.15	1.80869
1110.52	5.33084
1113.9	1.47378
1117.27	4.6398
1120.64	4.4212
1124.02	5.28532
1127.39	19.7847
1130.77	0.892349
1134.14	14.674
1137.52	3.60092
1140.89	10.8243
1144.27	9.83449
1147.64	6.74876
1151.02	12.485
1154.39	7.54062
1157.77	14.5886
1161.14	6.93669
1164.52	15.364
1167.89	10.6319
1171.27	18.4354
1174.64	0.067841
1178.02	15.1354
1181.39	7.71725
1184.77	7.0184
1188.14	10.7664
1191.52	15.3959
1194.89	3.0262
1198.27	13.2768
1201.64	6.05374
1205.02	8.97066
1208.39	6.78418
1211.77	5.60887
1215.14	7.0952
1218.52	2.4516
1221.89	20.4794
1225.27	9.04185
1228.64	14.0414
1232.01	19.8192
1235.39	16.3424
1238.76	9.55229
1242.14	8.39685
1245.51	20.0672
1248.89	1.48569
1252.26	5.48007
1255.64	4.56451
1259.01	21.2538
1262.39	17.9103
1265.76	12.1454
1269.14	22.2462
1272.51	13.2521
1275.89	18.6893
1279.26	10.427
1282.64	9.85884
1286.01	17.6694
1289.39	6.8087
1292.76	14.2243
1296.14	0.032623
1299.51	1.18094
1302.88	12.6253
1306.26	4.04669
