Measurement: Raman, 514 nm, unoriented, Raman Data Processed
Mineral: Boleite
Rruff sample: R050022
Ideal chemistry: KAg^1+^_9_Pb^2+^_26_Cu^2+^_24_Cl_62_(OH)_48_
Locality: Amelia mine, Boleo, Baja California, Mexico
Source: Eugene Schlepp
Description: Dark blue colored interpenetrating cubes
Raman shift (cm-1)	intensity
90.587	0
94.768	460.527
98.947	3864.62
103.124	10378.2
107.3	16135.3
111.473	13313.3
115.644	8762.42
119.813	10596
123.981	11699.2
128.146	8096.68
132.309	5126.92
136.47	4070.39
140.63	8196.9
144.787	11332
148.942	12885.7
153.096	13214.8
157.247	13470.7
161.396	13753.8
165.544	11012.1
169.689	6495.14
173.833	3994.55
177.974	3302.06
182.114	3977.78
186.251	5979.8
190.387	7674.12
194.52	9099.44
198.652	10447.7
202.782	11665.9
206.909	12663
211.035	14205
215.159	15203.1
219.281	15823
223.4	14929.2
227.518	13548.4
231.634	11279.9
235.748	9286.19
239.86	7139.74
243.97	5247.02
248.079	3637.28
252.185	2118.67
256.289	1071.26
260.391	512.687
264.492	67.893
268.59	519.589
272.687	919.445
276.781	1248.75
280.874	1123.47
284.964	727.039
289.053	369.856
293.14	284.885
297.225	1639.55
301.308	3604.73
305.389	3700.26
309.468	2304.04
313.545	1368.31
317.62	804.15
321.693	583.645
325.765	528.138
329.834	598.115
333.902	913.979
337.967	1036.03
342.031	1492.4
346.093	1982.21
350.153	2714.63
354.21	3848.44
358.267	5494.92
362.321	7206.87
366.373	7595.99
370.423	6068.4
374.471	4481.74
378.518	3773.29
382.563	3405.01
386.605	3267.39
390.646	3174.7
394.685	3168.49
398.722	3261.85
402.757	3293.46
406.79	3499.76
410.821	3485.28
414.851	3588.57
418.878	3646.67
422.904	3835.45
426.927	3839.73
430.949	3805.18
434.969	3819.64
438.987	3620.41
443.003	3672.55
447.018	4088.1
451.03	5497.63
455.041	8682.02
459.049	9801.83
463.056	7739.04
467.061	5766.74
471.064	4660.36
475.065	4042.48
479.064	3771.54
483.062	3684.9
487.057	3658.15
491.051	3710.61
495.043	3860.79
499.032	3909.64
503.02	3827.57
507.007	3538.31
510.991	3136.48
514.973	2773.07
518.954	2558.62
522.933	2228.01
526.91	2024.11
530.885	1835.93
534.858	1684.47
538.829	1529.24
542.799	1407.05
546.766	1299.03
550.732	1179.6
554.696	1115.55
558.658	985.674
562.618	893.604
566.576	798.685
570.533	702.765
574.488	627.111
578.44	543.818
582.391	446.341
586.341	322.03
590.288	277.93
594.233	200.858
598.177	211.05
602.119	135.361
606.059	117.672
609.997	62.542
613.933	19.069
617.868	8.805
621.801	33.888
625.731	51.181
629.66	53.901
633.588	82.633
637.513	107.996
641.437	73.675
645.358	79.424
649.278	27.1
653.196	39.747
657.113	20.586
661.027	31.82
664.94	56.841
668.851	74.538
672.76	120.459
676.667	189.341
680.572	247.086
684.476	336.994
688.378	421.194
692.278	586.863
696.176	808.196
700.072	910.436
703.967	917.156
707.86	853.152
711.751	857.894
715.64	917.581
719.527	1050.62
723.413	1364.44
727.297	1689.84
731.179	2180.46
735.059	2307.13
738.937	2329.4
742.814	2112.61
746.689	1997.66
750.562	1818.37
754.433	1763.61
758.303	1638.91
762.17	1515.06
766.036	1386.67
769.901	1264.58
773.763	1115.12
777.624	1059.99
781.482	976.045
785.339	918.081
789.195	922.356
793.048	884.432
796.9	936.337
800.75	909.542
804.598	955.259
808.445	1029.47
812.289	1023.49
816.132	1078.02
819.973	1085.27
823.813	1099.32
827.65	1035.96
831.486	915.917
835.32	831.229
839.152	759.867
842.983	649.839
846.812	574.159
850.639	421.825
854.464	358.817
858.288	280.134
862.11	230.776
865.93	108.734
869.748	104.989
873.564	42.253
877.379	68.374
881.192	9.464
885.004	11.768
888.813	7.243
892.621	43.136
896.427	35.49
900.232	36.906
904.034	63.457
907.835	40.865
911.634	4.63
915.432	21.004
919.227	59.44
923.021	147.004
926.813	120.752
930.604	49.929
934.393	18.985
938.18	31.646
941.965	16.065
945.749	20.924
949.53	3.384
953.311	9.874
957.089	45.032
960.866	35.956
964.641	85.153
968.414	96.465
972.185	116.839
975.955	175.912
979.723	195.81
983.49	191.794
987.254	196.798
991.017	230.897
994.779	236.378
998.538	268.902
1002.3	322.698
1006.05	321.393
1009.81	331.832
1013.56	351.079
1017.31	352.269
1021.06	377.413
1024.81	350.632
1028.55	316.318
1032.3	337.192
1036.04	290.478
1039.78	269.328
1043.52	266.511
1047.26	242.84
1050.99	238.378
1054.73	192.85
1058.46	194.213
1062.19	151.604
1065.92	161.742
1069.65	166.22
1073.37	166.08
1077.1	161.3
1080.82	147.863
1084.54	131.972
1088.26	140.4
1091.97	81.592
1095.69	93.24
1099.4	104.066
1103.12	82.169
1106.83	90.075
1110.54	57.881
1114.24	68.628
1117.95	30.902
1121.65	74.941
1125.35	154.507
1129.06	79.383
1132.75	44.599
1136.45	70.624
1140.15	47.518
1143.84	34.113
1147.53	81.395
1151.22	91.517
1154.91	75.586
1158.6	56.054
1162.28	54.45
1165.97	67.275
1169.65	41.851
1173.33	85.074
1177.01	58.064
1180.69	56.843
1184.36	66.428
1188.04	40.813
1191.71	40.025
1195.38	57.124
1199.05	49.155
1202.71	47.138
1206.38	64.775
1210.04	25.061
1213.71	33.606
1217.37	66.856
1221.03	27.849
1224.68	63.554
1228.34	35.703
1231.99	29.879
1235.65	50.44
1239.3	32.51
1242.95	60.586
1246.59	55.192
1250.24	44.571
1253.88	41.01
1257.53	33.388
1261.17	28.115
1264.81	44.294
1268.45	52.097
1272.08	24.28
1275.72	38.723
1279.35	29.496
1282.98	17.24
1286.61	17.688
1290.24	53.699
1293.87	10.631
1297.49	5.269
1301.11	26.436
1304.73	42.516
1308.36	30.845
1311.97	30.231
1315.59	31.778
1319.2	37.056
1322.82	54.633
1326.43	23.365
1330.04	40.785
1333.65	54.46
1337.26	59.31
1340.86	49.282
1344.47	60.593
1348.07	81.824
1351.67	65.109
1355.27	87.893
1358.87	75.098
1362.46	74.402
1366.06	80.042
1369.65	74.789
1373.24	89.534
1376.83	77.585
1380.42	100.494
1384	120.353
1387.59	129.656
1391.17	124.981
1394.75	156.683
1398.33	133.055
1401.91	115.251
1405.49	86.6
1409.06	107.713
1412.64	102.46
1416.21	68.593
1419.78	93.343
1423.35	120.529
1426.91	87.457
1430.48	86.579
1434.05	101.747
1437.61	90.962
1441.17	67.244
1444.73	66.59
1448.29	55.448
1451.84	70.415
1455.4	54.925
1458.95	56.551
1462.5	46.324
1466.05	48.245
1469.6	50.364
1473.15	54.693
1476.69	21.171
1480.24	12.815
1483.78	15.649
1487.32	13.705
1490.86	17.031
1494.39	14.672
1497.93	24.668
1501.46	22.064
1505	2.051
1508.53	20.037
1512.06	4.814
1515.59	8.633
1519.11	12.481
1522.64	0
