Measurement: Raman, 532 nm, unoriented, Raman Data Processed
Mineral: Bonattite
Rruff sample: R070398
Ideal chemistry: Cu^2+^S^6+^O_4_3H_2_O
Locality: Undu mine, Nukundamu, Vanua Levu, Fiji
Source: Michael Scott
Description: Pale blue effluorescence associated with metallic yellow pyrite and metallic blue covellite
Raman shift (cm-1)	intensity
173.768	0
176.66	1.45312
179.553	136.537
182.446	135.889
185.339	150.49
188.231	217.815
191.124	419.65
194.017	419.744
196.909	401.147
199.802	521.986
202.695	419.719
205.587	524.033
208.48	487.185
211.373	607.43
214.266	632.914
217.158	504.422
220.051	579.731
222.944	531.914
225.836	564.002
228.729	554.367
231.622	625.635
234.514	634.133
237.407	678.004
240.3	663.836
243.192	624.629
246.085	625.672
248.978	633.262
251.871	508.5
254.763	558.738
257.656	549.356
260.549	453.254
263.441	641.106
266.334	403.984
269.227	516.723
272.12	426.691
275.012	318.414
277.905	333.531
280.798	381.031
283.69	327.231
286.583	217.973
289.476	174.938
292.368	155.535
295.261	242.969
298.154	25.2969
301.046	96.6758
303.939	163.215
306.832	46.2109
309.725	160.535
312.617	162.488
315.51	104.621
318.403	29.1445
321.295	74.8438
324.188	130.594
327.081	5.73438
329.974	8.43359
332.866	115.703
335.759	92.5
338.652	190.137
341.544	272.973
344.437	118.863
347.33	44.2461
350.223	126.535
353.115	58.4688
356.008	15.8984
358.901	47.9883
361.793	47.3477
364.686	65.5703
367.579	139.961
370.471	195.453
373.364	84.6914
376.257	132.738
379.149	89.4883
382.042	129.648
384.935	173.023
387.828	60.7734
390.72	111.129
393.613	61.1992
396.506	26.7344
399.398	11.1367
402.291	220.312
405.184	197.137
408.077	230.016
410.969	167.856
413.862	152.09
416.755	166.543
419.647	344.012
422.54	453.008
425.433	550.539
428.325	529.375
431.218	305.383
434.111	296.68
437.003	446.332
439.896	257.812
442.789	208.172
445.682	232.91
448.574	89.4883
451.467	256.648
454.36	235.805
457.252	210.586
460.145	204.426
463.038	133.945
465.93	358.324
468.823	383.09
471.716	485.019
474.609	536.637
477.501	378.078
480.394	340.199
483.287	474.426
486.179	237.84
489.072	116.742
491.965	158.144
494.858	163.297
497.75	66.0508
500.643	184.703
503.536	275.586
506.428	95.6523
509.321	135.133
512.214	68.6914
515.106	65.0039
517.999	209.086
520.892	46.4844
523.784	48.0469
526.677	299.543
529.57	112.531
532.463	59.0352
535.355	22.8203
538.248	157.613
541.141	169.594
544.033	11.5703
546.926	153.07
549.819	244.141
552.712	144.152
555.604	180.164
558.497	154.168
561.39	102.062
564.282	165.484
567.175	55.0547
570.068	27.457
572.96	146.512
575.853	203.094
578.746	162.731
581.639	265.391
584.531	187.856
587.424	227.824
590.317	214.883
593.209	152.594
596.102	277.777
598.995	360.957
601.888	299.695
604.78	215.621
607.673	328.871
610.566	253.996
613.458	553.988
616.351	534.477
619.244	489.656
622.136	396.969
625.029	373.82
627.922	441.856
630.814	516.402
633.707	481.41
636.6	431.918
639.493	429.691
642.385	437.441
645.278	511.059
648.171	379.984
651.063	345.164
653.956	425.016
656.849	292.191
659.741	455.332
662.634	409.16
665.527	385.277
668.42	317.879
671.312	184.121
674.205	242.215
677.098	198.879
679.99	129.598
682.883	130.519
685.776	265.289
688.668	28.3281
691.561	134.805
694.454	190.992
697.347	33.9297
700.239	87.1562
703.132	256.644
706.025	122.074
708.917	29.3008
711.81	164.519
714.703	15.3594
717.596	258.359
720.488	171.961
723.381	312.57
726.274	116.902
729.166	103.504
732.059	135.168
734.952	207.242
737.844	104.219
740.737	223.988
743.63	59.6875
746.523	22.5156
749.415	217.031
752.308	92.625
755.201	0.152344
758.093	75.543
760.986	247.269
763.879	20.875
766.771	87.7109
769.664	119.078
772.557	211.625
775.45	99.7031
778.342	19.2461
781.235	72.9219
784.128	89.1172
787.02	111.566
789.913	235.164
792.806	212.695
795.698	270.945
798.591	355.852
801.484	444.812
804.377	193.992
807.269	373.414
810.162	255.844
813.055	228.016
815.947	337.938
818.84	45.0781
821.733	7.38281
824.625	92.9844
827.518	8.36719
830.411	200.227
833.304	111.727
836.196	193.797
839.089	264.656
841.982	98.875
844.874	337.562
847.767	274.547
850.66	77.8516
853.553	64.6641
856.445	228.117
859.338	128.609
862.231	137.57
865.123	18.6484
868.016	253.562
870.909	175.266
873.801	92.1875
876.694	62.3438
879.587	378.016
882.48	117.883
885.372	232.453
888.265	143.609
891.158	135.125
894.05	282.312
896.943	68.5312
899.836	105.164
902.729	213.82
905.621	194.07
908.514	80.0859
911.407	29.1484
914.299	261.594
917.192	272.32
920.085	126.891
922.977	91.8125
925.87	163.328
928.763	133.164
931.655	202.312
934.548	104.641
937.441	12.8438
940.334	218.07
943.226	87.3984
946.119	204.234
949.012	305.195
951.904	38.1875
954.797	139.812
957.69	109.047
960.582	109.984
963.475	60.3984
966.368	94.2266
969.261	1.47656
972.153	246.82
975.046	196.961
977.939	439.727
980.831	492.852
983.724	395.031
986.617	242.711
989.51	393.094
992.402	476.555
995.295	878.383
998.188	1341.13
1001.08	2229.55
1003.97	3090.27
1006.87	3238.14
1009.76	2425.16
1012.65	1434.75
1015.54	579.977
1018.44	439.656
1021.33	349.414
1024.22	195.281
1027.12	12.4219
1030.01	1.125
1032.9	231.836
1035.79	156.25
1038.68	116.688
1041.58	20.0234
1044.47	105.586
1047.36	32.0703
1050.26	80.375
1053.15	77.5469
1056.04	280.602
1058.93	101.914
1061.83	185.461
1064.72	12.9375
1067.61	140.68
1070.51	130.031
1073.4	124.312
1076.29	26.3594
1079.18	83.1875
1082.08	11.7734
1084.97	184.125
1087.86	122.188
1090.75	110.859
1093.65	290.109
1096.54	201.633
1099.43	50.1406
1102.33	182.578
1105.22	296.148
1108.11	165.016
1111	211.531
1113.9	481.875
1116.79	322.047
1119.68	396.016
1122.57	623.211
1125.47	463.219
1128.36	476.156
1131.25	380.414
1134.14	210.695
1137.04	395.961
1139.93	141.156
1142.82	423.641
1145.71	390.242
1148.61	371.07
1151.5	228.719
1154.39	225.109
1157.29	334.961
1160.18	467.484
1163.07	281.773
1165.96	265.375
1168.86	294.555
1171.75	95.375
1174.64	117.711
1177.54	24.9922
1180.43	24.1094
1183.32	301.32
1186.21	217.562
1189.11	94.4531
1192	200.492
1194.89	249.523
1197.78	207.641
1200.68	131.133
1203.57	124.148
1206.46	73.0781
1209.36	319.133
1212.25	166.211
1215.14	151.305
1218.03	13.4141
1220.93	250.086
1223.82	8.32031
1226.71	149.727
1229.6	42.2422
1232.5	252.297
1235.39	346.359
1238.28	164.07
1241.17	111.195
1244.07	176.508
1246.96	291.445
1249.85	316.945
1252.74	133.664
1255.64	222.75
1258.53	83.4531
1261.42	302.047
1264.32	442.742
1267.21	202.156
1270.1	268.164
1272.99	167.664
1275.89	300.969
1278.78	121.977
1281.67	211.898
1284.57	211.398
1287.46	135.141
1290.35	391.133
1293.24	262.273
1296.14	255.82
1299.03	156.633
1301.92	63.6172
1304.81	6.27344
1307.71	183.82
1310.6	177.609
1313.49	196.18
