Measurement: Raman, 532 nm, unoriented, Raman Data Processed
Mineral: Bonattite
Rruff sample: R070424
Ideal chemistry: Cu^2+^S^6+^O_4_3H_2_O
Locality: Grand Reef mine, Klondyke, Aravaipa District, Graham County, Arizona, USA
Source: Bob Downs
Description: Pale blue effluorescence associated with cerussite and malachite
Raman shift (cm-1)	intensity
164.386	0
167.279	10.5552
170.172	99.2881
173.064	129.544
175.957	174.85
178.85	189.966
181.743	238.791
184.635	178.279
187.528	328.852
190.421	342.907
193.313	421.516
196.206	378.329
199.099	414.783
201.991	401.205
204.884	361.804
207.777	347.385
210.669	288.641
213.562	287.268
216.455	311.478
219.348	301.232
222.24	317.812
225.133	396.991
228.026	399.701
230.918	440.637
233.811	554.301
236.704	564.126
239.596	611.838
242.489	664.846
245.382	649.9
248.275	563.295
251.167	419.638
254.06	428.229
256.953	361.781
259.846	383.805
262.738	437.196
265.631	612.456
268.524	654.578
271.416	723.953
274.309	646.865
277.202	583.019
280.094	400.9
282.987	247.212
285.88	130.726
288.772	85.5762
291.665	66.3262
294.558	0.72168
297.451	36.0068
300.343	10.9355
303.236	5.0957
306.129	15.667
309.021	25.8945
311.914	55.293
314.807	159.227
317.7	181.31
320.592	406.789
323.485	462.374
326.378	576.545
329.27	678.836
332.163	806.832
335.056	846.817
337.948	767.301
340.841	621.12
343.734	403.574
346.627	360.622
349.519	169.588
352.412	155.628
355.305	128.247
358.197	96.8193
361.09	86.6709
363.983	89.79
366.875	77.1348
369.768	10.5801
372.661	12.6865
375.553	3.34473
378.446	15.3164
381.339	5.50293
384.232	0.810547
387.124	30.5801
390.017	9.45117
392.91	37.3799
395.802	13.5986
398.695	46.8467
401.588	110.308
404.481	263
407.373	355.654
410.266	371.008
413.159	508.318
416.051	658.25
418.944	815.096
421.837	821.433
424.729	913.806
427.622	934.403
430.515	970.274
433.408	932.642
436.3	810.938
439.193	654.388
442.086	611.279
444.978	547.112
447.871	663.878
450.764	718.153
453.656	944.314
456.549	1099.53
459.442	1157.07
462.334	1302.99
465.227	1433.93
468.12	1383.46
471.013	1530.67
473.905	1840.54
476.798	1825.63
479.691	1442.62
482.584	1311.08
485.476	1187.57
488.369	826.507
491.262	77.7852
494.154	41.6719
497.047	150.129
499.94	75.5225
502.832	120
505.725	80.96
508.618	93.3174
511.51	61.9863
514.403	103.811
517.296	55.4971
520.189	13.4033
523.081	126.084
525.974	12.2178
528.867	57.9043
531.759	51.043
534.652	49.8174
537.545	38.7246
540.438	69.1719
543.33	17.1484
546.223	11.6162
549.116	4.45606
552.008	26.5967
554.901	2.19141
557.794	8.3418
560.686	3.36816
563.579	52.6074
566.472	36.2568
569.365	11.1162
572.257	12.9385
575.15	13.419
578.043	53.7978
580.935	28.9732
583.828	56.39
586.721	34.9803
589.613	59.3565
592.506	24.7666
595.399	56.127
598.292	37.3848
601.184	30.6221
604.077	110.882
606.97	96.295
609.862	75.1568
612.755	65.4566
615.648	96.2683
618.54	66.4192
621.433	82.585
624.326	102.709
627.218	106.398
630.111	124.884
633.004	139.65
635.897	99.1289
638.789	68.9668
641.682	121.273
644.575	40.956
647.467	97.2119
650.36	72.834
653.253	126.656
656.145	30.541
659.038	42.498
661.931	54.4844
664.824	80.3731
667.716	41.4688
670.609	60.4004
673.502	47.0352
676.394	66.1211
679.287	18.5557
682.18	27.9902
685.073	5.8291
687.965	26.957
690.858	2.60938
693.751	77.7832
696.643	93.5518
699.536	134.902
702.429	97.4996
705.322	112.339
708.214	138.221
711.107	103.624
714	99.0752
716.892	36.8174
719.785	85.125
722.678	97.4463
725.57	146.669
728.463	212.041
731.356	203.45
734.249	234.242
737.141	376.977
740.034	440.578
742.927	519.552
745.819	551.673
748.712	650.424
751.605	641.102
754.497	524.337
757.39	430.997
760.283	319.081
763.176	192.248
766.068	183.993
768.961	21.7246
771.854	143.675
774.746	134.448
777.639	165.331
780.532	237.408
783.424	221.511
786.317	382.24
789.21	438.809
792.102	374.408
794.995	302.167
797.888	266.396
800.781	207.178
803.673	166.846
806.566	128.805
809.459	44.833
812.351	82.9961
815.244	57.5322
818.137	102.602
821.029	41.373
823.922	18.2148
826.815	5.12109
829.708	30.5127
832.6	7.06934
835.493	16.4248
838.386	35.7705
841.278	9.53711
844.171	4.2207
847.064	35.2715
849.957	98.4639
852.849	65.9307
855.742	100.401
858.635	52.4639
861.527	57.959
864.42	85.0039
867.313	30.8662
870.205	61.044
873.098	5.7168
875.991	95.1709
878.884	40.1816
881.776	54.8916
884.669	57.8506
887.562	128.874
890.454	157.685
893.347	185.117
896.24	222.332
899.132	272.78
902.025	400.723
904.918	442.392
907.811	569.527
910.703	652.171
913.596	613.7
916.489	546.144
919.381	531.408
922.274	320.383
925.167	337.275
928.059	166.046
930.952	263.61
933.845	205.999
936.737	204.981
939.63	75.75
942.523	193.482
945.416	140.951
948.308	145.881
951.201	89.5273
954.094	111.76
956.986	132.953
959.879	110.769
962.772	103.667
965.665	87.0566
968.557	108.416
971.45	68.8603
974.343	71.7207
977.235	76.6914
980.128	74.0772
983.021	54.5381
985.913	65.1172
988.806	21.793
991.699	27.7744
994.592	58.1865
997.484	30.583
1000.38	62.373
1003.27	36.2295
1006.16	89.0527
1009.05	27.3291
1011.95	88.3721
1014.84	79.8125
1017.73	119.183
1020.63	107.008
1023.52	150.624
1026.41	91.9766
1029.3	149.003
1032.2	68.25
1035.09	171.795
1037.98	27.1973
1040.88	144.942
1043.77	9.96875
1046.66	65.2353
1049.55	151.568
1052.45	91.21
1055.34	110.259
1058.23	81.5078
1061.12	100.618
1064.02	43.2461
1066.91	29.9961
1069.8	26.0352
1072.69	84.7578
1075.59	31.2441
1078.48	62.1982
1081.37	7.24023
1084.27	51.3408
1087.16	173.194
1090.05	129.394
1092.94	32.0488
1095.84	123.772
1098.73	132.9
1101.62	191.653
1104.51	224.179
1107.41	202.011
1110.3	167.45
1113.19	96.1055
1116.09	158.671
1118.98	93.0615
1121.87	163.355
1124.76	144.36
1127.66	105.039
1130.55	41.8525
1133.44	77.7461
1136.33	71.6875
1139.23	32.5684
1142.12	62.5322
1145.01	89.3828
1147.9	125.356
1150.8	39.582
1153.69	55.6406
1156.58	17.749
1159.48	15.5479
1162.37	137.847
1165.26	50.0703
1168.15	5.47852
1171.05	90.3555
1173.94	28.2988
1176.83	46.4629
1179.72	45.3594
1182.62	40.7002
1185.51	138.102
1188.4	155.469
1191.3	87.5244
1194.19	81.2822
1197.08	108.793
1199.97	12.9727
1202.87	24.3115
1205.76	38.2334
1208.65	67.4551
1211.54	137.542
1214.44	38.4736
1217.33	79.1084
1220.22	108.256
1223.12	10.9033
1226.01	41.4004
1228.9	100.916
1231.79	50.0625
1234.69	7.61523
1237.58	41.7685
1240.47	43.7139
1243.36	115.112
1246.26	69.8555
1249.15	128.244
1252.04	114.712
1254.93	89.2871
1257.83	76.0391
1260.72	68.8115
1263.61	73.4424
1266.51	83.0879
1269.4	155.514
1272.29	111.913
1275.18	39.0068
1278.08	113.764
1280.97	148.291
1283.86	70.0439
1286.75	148.327
1289.65	88.5518
1292.54	96.5068
1295.43	68.584
1298.33	15.665
1301.22	65.6221
1304.11	119.65
1307	44.1553
1309.9	99.4883
1312.79	71.1533
1315.68	60.331
