Measurement: Raman, 785 nm, unoriented, Raman Data Processed
Mineral: Bonattite
Rruff sample: R070424
Ideal chemistry: Cu^2+^S^6+^O_4_3H_2_O
Locality: Grand Reef mine, Klondyke, Aravaipa District, Graham County, Arizona, USA
Source: Bob Downs
Description: Pale blue effluorescence associated with cerussite and malachite
Raman shift (cm-1)	intensity
161.527	0
164.42	26.9348
167.312	31.4522
170.205	19.1569
173.098	23.303
175.99	7.15106
178.883	13.8439
181.776	40.0623
184.669	26.0175
187.561	62.3546
190.454	59.6237
193.347	98.5718
196.239	121.312
199.132	128.336
202.025	127.385
204.917	117.536
207.81	91.1161
210.703	60.2872
213.596	90.8793
216.488	66.5721
219.381	70.7741
222.274	98.6758
225.166	124.769
228.059	159.818
230.952	181.661
233.845	240.036
236.737	339.354
239.63	343.904
242.523	391.162
245.415	373.424
248.308	326.862
251.201	278.182
254.093	193.364
256.986	178.123
259.879	195.644
262.772	228.542
265.664	313.539
268.557	364.62
271.45	425.105
274.342	424.429
277.235	318.201
280.128	236.535
283.02	169.631
285.913	96.3295
288.806	27.9326
291.699	27.1935
294.591	1.53845
297.484	15.3951
300.377	0.983398
303.269	1.05975
306.162	9.07544
309.055	22.0038
311.947	58.1466
314.84	58.7291
317.733	138.067
320.625	164.36
323.518	266.343
326.411	333.966
329.304	434.276
332.196	469.905
335.089	498.796
337.982	441.622
340.874	341.024
343.767	286.1
346.66	195.058
349.553	169.871
352.445	93.0613
355.338	72.3044
358.231	52.2842
361.123	40.6467
364.016	28.3639
366.909	1.27209
369.801	29.1039
372.694	9.07806
375.587	4.77899
378.479	23.3271
381.372	26.4445
384.265	1.76227
387.158	1.28168
390.05	0.832336
392.943	29.2494
395.836	19.6713
398.728	73.5601
401.621	62.0695
404.514	135.719
407.406	134.817
410.299	237.109
413.192	286.013
416.085	380.322
418.977	427.229
421.87	483.41
424.763	524.405
427.655	514.588
430.548	555.945
433.441	519.201
436.334	449.849
439.226	414.136
442.119	365.241
445.012	322.012
447.904	369.92
450.797	390.255
453.69	514.272
456.582	563.903
459.475	699.779
462.368	786.882
465.26	813.979
468.153	822.987
471.046	769.096
473.939	704.043
476.831	595.264
479.724	455.699
482.617	322.51
485.509	238.646
488.402	150.048
491.295	95.7386
494.188	58.8445
497.08	30.7714
499.973	52.7767
502.866	53.632
505.758	66.3497
508.651	54.3266
511.544	62.3455
514.436	51.4819
517.329	48.4689
520.222	51.9589
523.115	3.86914
526.007	42.2305
528.9	57.9159
531.793	42.7919
534.685	8.96747
537.578	24.8532
540.471	10.3528
543.363	4.52087
546.256	1.51971
549.149	4.46393
552.041	21.8508
554.934	2.6322
557.827	11.0723
560.72	15.1715
563.612	20.5568
566.505	23.9957
569.398	10.8345
572.29	4.42993
575.183	0.00824
578.076	5.43335
580.968	11.6294
583.861	22.2175
586.754	2.08691
589.646	1.41193
592.539	33.3948
595.432	10.4022
598.325	27.2018
601.217	39.0529
604.11	50.5033
607.003	58.4672
609.895	38.7097
612.788	58.3679
615.681	17.4012
618.573	49.236
621.466	43.6454
624.359	41.2711
627.252	32.7129
630.144	38.0442
633.037	26.3267
635.93	18.2586
638.822	31.3438
641.715	26.0375
644.608	20.2352
647.5	28.9905
650.393	27.6349
653.286	5.40057
656.179	27.0585
659.071	7.14661
661.964	0.523254
664.857	15.0995
667.75	16.5857
670.642	11.556
673.535	17.128
676.428	6.18066
679.32	1.45196
682.213	20.0466
685.106	12.4338
687.998	27.8153
690.891	32.4219
693.784	73.1908
696.677	68.7178
699.569	108.171
702.462	101.486
705.355	104.208
708.247	90.1293
711.14	113.141
714.033	63.5196
716.925	76.3947
719.818	92.9346
722.711	102.734
725.604	118.272
728.496	104.095
731.389	130.122
734.282	157.843
737.174	213.869
740.067	235.054
742.96	266.059
745.852	270.57
748.745	316.687
751.638	301.627
754.53	283.591
757.423	238.918
760.316	182.78
763.209	156.313
766.101	134.295
768.994	91.5789
771.887	66.9262
774.779	73.8713
777.672	81.6804
780.565	70.7714
783.457	128.444
786.35	161.269
789.243	162.899
792.136	152.028
795.028	142.941
797.921	128.663
800.814	95.1279
803.706	84.0626
806.599	76.0703
809.492	33.9506
812.385	36.9896
815.277	5.01178
818.17	7.55048
821.063	11.4502
823.955	4.42004
826.848	18.4213
829.741	13.1509
832.633	15.7884
835.526	20.0933
838.419	6.4986
841.312	11.7739
844.204	9.62561
847.097	28.9395
849.99	5.1853
852.882	25.6253
855.775	16.5626
858.668	1.81561
861.56	12.9181
864.453	14.7774
867.346	22.618
870.239	24.9683
873.131	33.7006
876.024	28.451
878.917	17.572
881.809	35.5263
884.702	54.7505
887.595	63.7242
890.487	49.2542
893.38	85.2031
896.273	89.2897
899.165	107.173
902.058	143.084
904.951	182.702
907.844	219.245
910.736	244.971
913.629	260.954
916.522	219.797
919.414	185.772
922.307	164.36
925.2	123.201
928.092	88.9276
930.985	108.272
933.878	103.76
936.771	77.1448
939.663	71.195
942.556	63.5482
945.449	33.3385
948.341	44.1615
951.234	39.3554
954.127	39.8915
957.019	46.7548
959.912	26.4322
962.805	29.757
965.698	16.0966
968.59	19.4338
971.483	6.07568
974.376	14.0422
977.268	20.9166
980.161	12.8124
983.054	1.38769
985.947	24.3953
988.839	7.7204
991.732	19.423
994.625	5.60675
997.517	18.0134
1000.41	25.9026
1003.3	18.7948
1006.2	35.8651
1009.09	21.0076
1011.98	25.0432
1014.87	8.28607
1017.77	24.6039
1020.66	12.8848
1023.55	18.9137
1026.44	18.2055
1029.34	10.4235
1032.23	2.46893
1035.12	37.3506
1038.02	41.1514
1040.91	11.013
1043.8	41.0364
1046.69	17.3951
1049.59	18.3255
1052.48	25.1417
1055.37	16.5955
1058.26	19.7645
1061.16	8.95129
1064.05	13.8833
1066.94	15.8038
1069.84	17.1056
1072.73	20.4938
1075.62	13.4797
1078.51	23.7219
1081.41	29.4488
1084.3	22.2022
1087.19	15.5169
1090.08	11.1132
1092.98	47.617
1095.87	17.0595
1098.76	55.368
1101.65	48.8935
1104.55	42.7208
1107.44	44.6884
1110.33	52.5335
1113.22	46.2086
1116.12	58.7373
1119.01	49.7234
1121.9	63.7069
1124.8	44.1055
1127.69	19.4467
1130.58	8.98962
1133.47	29.7112
1136.37	6.99524
1139.26	2.27185
1142.15	15.3854
1145.05	23.4681
1147.94	35.4207
1150.83	37.3533
1153.72	32.8286
1156.62	7.09723
1159.51	8.94263
1162.4	13.0706
1165.29	22.3334
1168.19	12.4017
1171.08	41.6945
1173.97	7.23517
1176.87	16.9389
1179.76	17.6442
1182.65	9.3786
1185.54	17.6095
1188.43	27.4666
1191.33	16.021
1194.22	31.3886
1197.11	7.56635
1200.01	18.242
1202.9	35.8807
1205.79	38.3584
1208.68	24.0638
1211.58	8.54334
1214.47	13.4847
1217.36	20.6063
1220.26	20.2212
1223.15	28.3875
1226.04	24.0562
1228.93	15.0976
1231.83	18.1482
1234.72	30.0476
1237.61	26.3601
1240.5	19.2831
