Measurement: Raman, 785 nm, unoriented, Raman Data Processed
Mineral: Boracite
Rruff sample: R070317
Ideal chemistry: Mg_3_B_7_O_13_Cl
Locality: Douglashall, Westereglen, Stassfurt District, Saxony-Anhalt, Germany
Source: James Shigley
Description: Colorless single crystal tetrahedron with minor cube modifications
Raman shift (cm-1)	intensity
175.981	0
178.873	17.1221
181.766	70.4189
184.659	109.609
187.552	16.7236
190.444	93.2539
193.337	113.61
196.23	158.596
199.122	194.224
202.015	221.589
204.908	183.558
207.8	66.29
210.693	180.56
213.586	177.35
216.478	213.893
219.371	282.151
222.264	343.136
225.157	241.226
228.049	268.144
230.942	293.488
233.835	267.117
236.727	312.699
239.62	308.016
242.513	266.615
245.405	207.361
248.298	211.539
251.191	135.029
254.084	110.115
256.976	168.49
259.869	259.965
262.762	212.982
265.654	161.889
268.547	110.529
271.44	82.0996
274.332	184.465
277.225	10.1133
280.118	173.045
283.011	106.664
285.903	170.644
288.796	123.564
291.689	82.9922
294.581	4.17188
297.474	18.5059
300.367	41.6523
303.26	124.633
306.152	196.717
309.045	105.561
311.938	221.565
314.83	135.272
317.723	241.303
320.616	108.754
323.508	29.5176
326.401	64.6914
329.294	47.4785
332.187	113.695
335.079	91.7285
337.972	14.2656
340.865	24.1953
343.757	32.377
346.65	22.2715
349.543	34.9922
352.435	184.42
355.328	239.471
358.221	404.469
361.113	492.359
364.006	542.793
366.899	209.195
369.792	196.82
372.684	275.279
375.577	336.127
378.47	367.84
381.362	342.91
384.255	143.549
387.148	98.0957
390.041	11.9824
392.933	86.5078
395.826	231.287
398.719	195.725
401.611	367.115
404.504	406.307
407.397	343.084
410.289	242.834
413.182	149.703
416.075	207.092
418.967	176.647
421.86	95.6836
424.753	53.5898
427.646	81.4863
430.538	44.1113
433.431	49.6211
436.324	104.977
439.216	88.1719
442.109	59.4238
445.002	33.752
447.894	63.3008
450.787	73.2324
453.68	64.5098
456.573	63.2461
459.465	11.2051
462.358	43.3008
465.251	64.9219
468.143	127.112
471.036	82.4902
473.929	153.674
476.822	49.4834
479.714	59.3145
482.607	79.4463
485.5	37.1728
488.392	61.7324
491.285	41.4853
494.178	62.001
497.07	100.274
499.963	40.6787
502.856	26.5449
505.748	63.7539
508.641	8.21387
511.534	96.8535
514.427	172.878
517.319	172.272
520.212	191.253
523.105	159.126
525.997	112.786
528.89	191.488
531.783	341.056
534.676	288.775
537.568	197.085
540.461	101.754
543.354	151.158
546.246	299.963
549.139	150.351
552.032	242.9
554.924	121.551
557.817	83.0205
560.71	107.526
563.602	39.1836
566.495	55.0273
569.388	5.46973
572.281	5.85644
575.173	18.4336
578.066	18.6318
580.959	20.4941
583.851	4.94629
586.744	81.7275
589.637	62.7705
592.529	88.0654
595.422	111.541
598.315	289.56
601.208	334.512
604.1	509.769
606.993	542.604
609.886	297.032
612.778	226.185
615.671	137.791
618.564	121.07
621.457	346.091
624.349	259.915
627.242	142.901
630.135	84.9502
633.027	110.153
635.92	198.683
638.813	249.612
641.705	475.562
644.598	785.713
647.491	1062.05
650.384	1258.1
653.276	1502.54
656.169	1703.04
659.062	1785.2
661.954	1607.85
664.847	1186.34
667.74	703.363
670.632	398.978
673.525	204.758
676.418	170.356
679.311	167.501
682.203	84.8603
685.096	79.1494
687.989	30.8701
690.881	4.40234
693.774	39.9648
696.667	86.5029
699.559	21.1807
702.452	87.4531
705.345	48.2715
708.237	22.9873
711.13	49.8184
714.023	44.168
716.916	91.7568
719.808	37.5107
722.701	36.8496
725.594	128.761
728.486	7.47266
731.379	10.8232
734.272	34.2695
737.164	55.4727
740.057	10.7354
742.95	26.5996
745.843	35.4228
748.735	69.2012
751.628	72.1455
754.521	35.4102
757.413	94.791
760.306	96.1084
763.199	76.7285
766.091	48.8584
768.984	122.246
771.877	101.902
774.77	83.9004
777.662	97.7451
780.555	162.749
783.448	56.1309
786.34	133.03
789.233	104.165
792.126	80.1309
795.019	32.1387
797.911	86.5527
800.804	43.3154
803.697	5.16797
806.589	16.5156
809.482	150.39
812.375	22
815.267	132.628
818.16	44.6162
821.053	99.5498
823.946	52.0117
826.838	38.4111
829.731	70.8398
832.624	69.9297
835.516	48.8867
838.409	102.495
841.302	79.0059
844.194	174.131
847.087	127.522
849.98	110.483
852.872	153.199
855.765	113.893
858.658	99.1309
861.551	110.922
864.443	3.71777
867.336	49.7441
870.229	68.9082
873.121	3.05469
876.014	17.4395
878.907	15.9512
881.799	58.1523
884.692	10.1211
887.585	47.3506
890.478	30.3086
893.37	66.4707
896.263	35.2949
899.156	44.2978
902.048	55.6758
904.941	22.1855
907.834	76.835
910.726	77.5205
913.619	36.499
916.512	110.504
919.405	5.37402
922.297	1.92578
925.19	95.5537
928.083	43.4326
930.975	54.2353
933.868	95.9814
936.761	31.4199
939.654	55.5156
942.546	127.69
945.439	107.192
948.332	121.803
951.224	132.391
954.117	126.257
957.01	101.444
959.902	91.9463
962.795	157.273
965.688	180.361
968.581	286.888
971.473	173.454
974.366	251.298
977.259	111.491
980.151	163.676
983.044	99.1758
985.937	66.584
988.829	53.8438
991.722	25.0322
994.615	0.835938
997.508	15.2285
1000.4	15.4873
1003.29	31.543
1006.19	70.0859
1009.08	64.1953
1011.97	5.71875
1014.86	12.6748
1017.76	30.0352
1020.65	92.0742
1023.54	85.1826
1026.43	124.922
1029.33	116.651
1032.22	225.57
1035.11	417.489
1038.01	419.001
1040.9	405.274
1043.79	391.53
1046.68	326.599
1049.58	303.985
1052.47	279.159
1055.36	321.363
1058.25	289.362
1061.15	316.969
1064.04	266.39
1066.93	224.869
1069.83	257.702
1072.72	217.939
1075.61	192.856
1078.5	128.37
1081.4	171.811
1084.29	195.217
1087.18	145.17
1090.07	75.8574
1092.97	107.872
1095.86	107.144
1098.75	57.1719
1101.64	47.377
1104.54	83.4062
1107.43	23.0654
1110.32	31.9883
1113.21	25.3926
1116.11	29.6592
1119	27.5713
1121.89	78.6689
1124.79	78.6162
1127.68	99.7891
1130.57	114.779
1133.46	81.6436
1136.36	74.6318
1139.25	69.0869
1142.14	27.3457
1145.04	23.3174
1147.93	83.0566
1150.82	133.61
1153.71	191.443
1156.61	311.055
1159.5	123.079
1162.39	50.835
1165.28	59.6953
1168.18	106.236
1171.07	10.5996
1173.96	17.3008
1176.86	116.627
1179.75	17.9619
1182.64	14.8242
1185.53	29.3018
1188.43	63.0293
1191.32	39.7353
1194.21	84.6836
1197.1	82.8398
1200	93.2647
1202.89	85.207
1205.78	84.6035
1208.67	67.332
1211.57	19.127
1214.46	35.2188
1217.35	28.9141
1220.24	104.244
1223.14	112.252
1226.03	97.6035
1228.92	4.30664
1231.82	47.7588
