Measurement: Raman, 532 nm, unoriented, Raman Data Processed
Mineral: Boracite
Rruff sample: R060009
Ideal chemistry: Mg_3_B_7_O_13_Cl
Locality: Luneberg, Hannover, Germany
Source: University of Arizona Mineral Museum
Description: Adamantine gray cubo-octahedral single crystals in anhydrite
Measured chemistry: (Mg_2.98_Fe^2+^_0.02_)_Î£=3_B_7_O_13_Cl_1.00_ ; B not analyzed but estimated by diifference and stoichiometry
Raman shift (cm-1)	intensity
130.762	0
134.136	13.8552
137.511	70.1691
140.886	40.0551
144.261	19.6751
147.636	47.7525
151.011	87.7202
154.385	107.34
157.76	117.11
161.135	145.501
164.51	186.255
167.885	142.463
171.259	99.7007
174.634	90.2603
178.009	76.9411
181.384	58.9503
184.759	51.8105
188.133	37.4426
191.508	38.1571
194.883	28.3735
198.258	20.7154
201.633	18.269
205.008	12.5064
208.382	12.6674
211.757	12.0104
215.132	18.5734
218.507	8.89874
221.882	13.1718
225.256	8.78873
228.631	12.8196
232.006	11.6364
235.381	10.8206
238.756	3.20422
242.131	2.3237
245.505	1.72263
248.88	2.62927
252.255	3.05878
255.63	1.60089
259.005	0.044861
262.38	1.18341
265.754	1.21768
269.129	0.764771
272.504	0.360443
275.879	0.20813
279.254	2.34717
282.628	3.15399
286.003	1.68271
289.378	2.68536
292.753	3.17432
296.128	4.07837
299.503	5.46466
302.877	5.55063
306.252	5.4678
309.627	5.26886
313.002	4.58847
316.377	5.12964
319.752	3.99939
323.126	4.96268
326.501	2.82715
329.876	4.3429
333.251	5.37906
336.626	4.53735
340	3.33273
343.375	2.63672
346.75	3.74512
350.125	3.16666
353.5	3.53589
356.875	4.40018
360.249	9.85416
363.624	18.9985
366.999	12.3525
370.374	10.8749
373.749	14.8325
377.123	25.3321
380.498	18.0974
383.873	11.9766
387.248	5.57236
390.623	0.208405
393.998	0.220398
397.372	2.83136
400.747	8.07779
404.122	7.83597
407.497	8.14307
410.872	14.5651
414.247	20.0835
417.621	7.31869
420.996	2.34952
424.371	0.20932
427.746	1.23441
431.121	1.1925
434.495	4.97226
437.87	5.30887
441.245	5.79288
444.62	3.17893
447.995	3.93628
451.37	3.76154
454.744	3.30777
458.119	4.27866
461.494	2.14456
464.869	0.954346
468.244	0.941376
471.618	0.977264
474.993	0.979797
478.368	0.281097
481.743	0.432953
485.118	0.677155
488.493	1.07159
491.867	0.06134
495.242	0.360291
498.617	1.02194
501.992	3.01559
505.367	3.75018
508.741	6.83719
512.116	9.57327
515.491	17.598
518.866	23.0844
522.241	32.0418
525.616	23.3251
528.99	20.3712
532.365	22.3365
535.74	22.805
539.115	21.9676
542.49	24.0631
545.865	27.9764
549.239	31.8733
552.614	28.163
555.989	19.0714
559.364	16.1508
562.739	14.6974
566.114	10.889
569.488	12.4386
572.863	10.2387
576.238	3.86368
579.613	4.03024
582.987	1.54019
586.362	3.24442
589.737	4.24725
593.112	9.75806
596.487	13.3868
599.862	19.3798
603.236	26.2932
606.611	32.5087
609.986	14.8737
613.361	2.16205
616.736	1.56864
620.111	0.401465
623.485	0.939076
626.86	0.124878
630.235	6.70996
633.61	12.7559
636.985	26.2541
640.36	39.8359
643.734	60.4556
647.109	86.7492
650.484	103.144
653.859	112.055
657.234	124.112
660.609	123.445
663.983	86.1122
667.358	44.2674
670.733	21.6046
674.108	12.4098
677.482	7.58548
680.857	3.34058
684.232	0.751129
687.607	0.081604
690.982	1.02136
694.357	0.374115
697.731	1.68805
701.106	1.37027
704.481	1.88071
707.856	0.283905
711.231	0.631958
714.606	0.86084
717.98	0.845215
721.355	2.19626
724.73	0.446442
728.105	1.95804
731.48	1.52576
734.855	0.86377
738.229	0.913513
741.604	1.51999
744.979	0.139221
748.354	0.518219
751.729	0.989716
755.103	1.18503
758.478	3.69958
761.853	2.8775
765.228	3.69055
768.603	3.82895
771.977	4.31949
775.352	5.06891
778.727	3.92306
782.102	5.70639
785.477	5.37863
788.852	4.10541
792.226	4.82596
795.601	3.40207
798.976	5.58801
802.351	7.3447
805.726	13.0312
809.101	16.6271
812.475	15.4585
815.85	6.01611
819.225	3.66644
822.6	2.2117
825.975	0.513214
829.35	0.173187
832.724	2.47589
836.099	6.2515
839.474	5.98999
842.849	8.16562
846.224	10.5359
849.598	6.14227
852.973	3.25705
856.348	4.293
859.723	2.86999
863.098	1.54999
866.472	0.432098
869.847	3.08017
873.222	0.217285
876.597	0.350952
879.972	1.51486
883.347	4.59442
886.721	2.99777
890.096	0.903503
893.471	0.158539
896.846	0.472778
900.221	0.314911
903.596	1.20914
906.97	2.7782
910.345	3.08563
913.72	5.42569
917.095	6.80563
920.47	11.8291
923.845	15.8374
927.219	16.1721
930.594	12.4107
933.969	11.5797
937.344	12.8189
940.719	12.0854
944.093	12.7328
947.468	14.3422
950.843	15.832
954.218	15.1939
957.593	14.4694
960.967	13.9004
964.342	14.5578
967.717	16.0829
971.092	17.3458
974.467	17.5643
977.842	14.3369
981.216	12.2918
984.591	8.8533
987.966	6.03967
991.341	5.56308
994.716	4.81229
998.091	4.90054
1001.47	3.41806
1004.84	3.30698
1008.22	0.645447
1011.59	1.26382
1014.97	0.041443
1018.34	0.413621
1021.71	0.84494
1025.09	0.802063
1028.46	0.484009
1031.84	1.14526
1035.21	1.74561
1038.59	3.10037
1041.96	4.09629
1045.34	5.7378
1048.71	6.90039
1052.09	8.44202
1055.46	10.7311
1058.84	14.3568
1062.21	17.585
1065.59	18.0577
1068.96	17.5331
1072.34	17.4639
1075.71	15.3635
1079.09	17.4197
1082.46	18.4718
1085.84	22.5625
1089.21	22.1155
1092.59	25.0546
1095.96	25.421
1099.34	21.2766
1102.71	19.275
1106.09	18.461
1109.46	13.1714
1112.83	12.5565
1116.21	11.8619
1119.58	7.40445
1122.96	5.97394
1126.33	3.33827
1129.71	2.45261
1133.08	1.6381
1136.46	1.80594
1139.83	0.10556
1143.21	0.143585
1146.58	2.0582
1149.96	0.956848
1153.33	2.34906
1156.71	2.05255
1160.08	1.68738
1163.46	1.02652
1166.83	2.10086
1170.21	3.14023
1173.58	2.86691
1176.96	0.987244
1180.33	1.96158
1183.71	0.022949
1187.08	1.12817
1190.45	0.264435
1193.83	0.001556
1197.2	0.142426
1200.58	0.922089
1203.95	0.743774
1207.33	0.112244
1210.7	2.04523
1214.08	0.452148
1217.45	1.38773
1220.83	4.30633
1224.2	6.51581
1227.58	6.75372
1230.95	7.9209
1234.33	6.20688
1237.7	5.87961
1241.08	4.0593
1244.45	3.9989
1247.83	2.24289
1251.2	5.22467
1254.58	3.31836
1257.95	3.36929
1261.33	2.70569
1264.7	2.7623
1268.08	6.48315
1271.45	6.37906
1274.83	6.31979
1278.2	2.65326
1281.58	1.84763
1284.95	0.979156
1288.33	0.246307
1291.7	1.9317
1295.08	1.22269
1298.45	1.77106
1301.82	0
