Measurement: Raman, 780 nm, unoriented, Raman Data Processed
Mineral: Boracite
Rruff sample: R060009
Ideal chemistry: Mg_3_B_7_O_13_Cl
Locality: Luneberg, Hannover, Germany
Source: University of Arizona Mineral Museum
Description: Adamantine gray cubo-octahedral single crystals in anhydrite
Measured chemistry: (Mg_2.98_Fe^2+^_0.02_)_Î£=3_B_7_O_13_Cl_1.00_ ; B not analyzed but estimated by diifference and stoichiometry
Raman shift (cm-1)	intensity
130.113	0
133.005	9.44818
135.898	14.0123
138.791	31.1982
141.683	15.4587
144.576	0.124481
147.469	1.2934
150.362	3.86917
153.254	8.69501
156.147	13.8652
159.04	15.5501
161.932	19.6013
164.825	25.1376
167.718	19.9628
170.61	14.6419
173.503	18.5749
176.396	14.6461
179.288	12.3747
182.181	8.50702
185.074	5.42932
187.966	4.45627
190.859	2.87143
193.752	3.80057
196.645	0.902435
199.537	1.88516
202.43	0.006958
205.323	1.66632
208.215	0.065186
211.108	0.136475
214.001	2.97
216.893	2.7432
219.786	3.14011
222.679	7.13785
225.572	5.22903
228.464	4.6669
231.357	4.79507
234.25	3.42258
237.142	4.30609
240.035	4.23579
242.928	4.09022
245.821	3.98334
248.713	2.87256
251.606	1.43317
254.499	1.42004
257.391	1.25189
260.284	2.90878
263.177	1.77438
266.069	1.31616
268.962	0.095673
271.855	1.05292
274.748	0.272095
277.64	0.673431
280.533	0.033295
283.426	1.67554
286.318	0.684845
289.211	2.3403
292.104	2.87894
294.996	0.004211
297.889	1.10925
300.782	2.15375
303.675	2.8316
306.567	0.249115
309.46	3.03607
312.353	0.287384
315.245	0.440674
318.138	2.59802
321.031	0.225372
323.923	0.02121
326.816	0.540894
329.709	0.796295
332.601	0.770813
335.494	1.67166
338.387	0.608276
341.279	0.628448
344.172	0.142761
347.065	1.13043
349.958	0.62265
352.85	2.34152
355.743	1.15125
358.636	2.16736
361.528	3.35556
364.421	3.93753
367.314	2.14822
370.207	1.064
373.099	1.51181
375.992	3.11255
378.885	3.35907
381.777	0.295105
384.67	1.58908
387.563	1.20187
390.455	1.44031
393.348	1.43353
396.241	2.73492
399.134	2.73215
402.026	3.26724
404.919	3.94824
407.812	3.94592
410.704	4.9691
413.597	4.33798
416.49	5.24594
419.382	3.65378
422.275	3.69809
425.168	4.03073
428.06	4.31827
430.953	5.0959
433.846	4.59066
436.739	4.8685
439.631	4.47662
442.524	3.57268
445.417	3.66193
448.309	3.56752
451.202	5.37283
454.095	5.46597
456.988	5.1261
459.88	5.55081
462.773	3.58366
465.666	5.06627
468.558	4.08493
471.451	3.40971
474.344	4.67282
477.236	3.68339
480.129	2.76607
483.022	3.00206
485.914	3.28375
488.807	1.64705
491.7	1.01259
494.592	0.590484
497.485	0.734108
500.378	0.348984
503.271	0.679016
506.163	0.15593
509.056	0.298462
511.949	0.508926
514.841	0.360336
517.734	0.548279
520.627	1.34401
523.519	2.15497
526.412	2.62329
529.305	2.71433
532.198	3.82941
535.09	5.03381
537.983	2.4274
540.876	4.6019
543.768	3.5685
546.661	3.31067
549.554	3.4386
552.447	4.65776
555.339	5.48773
558.232	4.78609
561.125	5.14325
564.017	2.51378
566.91	1.1945
569.803	1.40469
572.695	0.954559
575.588	0.56337
578.481	0.0651584
581.374	0.377518
584.266	0.229492
587.159	0.34584
590.052	1.12927
592.944	3.16779
595.837	4.4328
598.73	4.20525
601.622	6.03705
604.515	6.01212
607.408	5.7484
610.301	3.8911
613.193	1.2841
616.086	0.290085
618.979	0.621887
621.871	0.149292
624.764	0.705372
627.657	0.590367
630.549	1.76015
633.442	1.53522
636.335	4.76419
639.227	6.18011
642.12	7.02922
645.013	10.9257
647.905	14.9056
650.798	16.8262
653.691	18.6525
656.584	19.1583
659.476	19.3479
662.369	17.4408
665.262	11.4717
668.154	8.63238
671.047	3.85782
673.94	1.67378
676.832	2.63904
679.725	1.72656
682.618	0.07341
685.511	0.462875
688.403	1.03693
691.296	0.171768
694.189	0.856262
697.081	1.13875
699.974	0.739899
702.867	1.04164
705.76	1.32451
708.652	1.19147
711.545	1.02853
714.438	0.142197
717.33	0.863571
720.223	1.89462
723.116	0.489151
726.008	1.703
728.901	0.965286
731.794	1.41566
734.687	2.11464
737.579	0.727524
740.472	1.13184
743.365	2.18753
746.257	1.15633
749.15	1.39526
752.043	0.580643
754.935	0.805191
757.828	1.06255
760.721	1.43518
763.614	0.488373
766.506	0.229492
769.399	1.20398
772.292	1.97955
775.184	1.57907
778.077	1.14711
780.97	2.17204
783.862	3.59807
786.755	2.24315
789.648	1.9499
792.54	3.30548
795.433	3.32155
798.326	1.77589
801.218	2.55855
804.111	2.39774
807.004	6.34834
809.897	7.72525
812.789	6.56174
815.682	5.14973
818.575	3.86087
821.467	1.88675
824.36	1.4922
827.253	1.84146
830.145	1.33511
833.038	1.44063
835.931	1.75066
838.824	1.26845
841.716	2.17926
844.609	1.81845
847.502	3.00197
850.394	2.25151
853.287	1.81564
856.18	3.1861
859.072	3.51578
861.965	1.48653
864.858	1.7356
867.751	1.48871
870.643	1.6541
873.536	1.47937
876.429	1.37738
879.321	0.003845
882.214	0.646744
885.107	1.56596
888	1.03546
890.892	0.322647
893.785	1.04195
896.678	0.363251
899.57	0.901138
902.463	1.36125
905.356	1.36078
908.248	1.34216
911.141	0.493378
914.034	2.04446
916.927	1.86188
919.819	2.00946
922.712	1.81459
925.605	2.0481
928.497	2.54634
931.39	2.77814
934.283	4.15181
937.175	3.20491
940.068	3.08069
942.961	3.05896
945.854	2.84408
948.746	4.13052
951.639	3.96551
954.532	5.30255
957.424	4.12245
960.317	3.87439
963.21	3.0265
966.102	2.83557
968.995	3.75496
971.888	3.09183
974.78	2.88187
977.673	3.22702
980.566	3.42535
983.458	2.55841
986.351	2.74567
989.244	3.01539
992.137	2.25192
995.029	1.71004
997.922	1.38951
1000.82	0.684952
1003.71	0.586411
1006.6	0.205856
1009.49	0.591003
1012.38	0.44136
1015.28	0.121841
1018.17	0.722076
1021.06	1.235
1023.96	0.677399
1026.85	1.6628
1029.74	1.79327
1032.63	0.353348
1035.53	2.10539
1038.42	3.14864
1041.31	2.36258
1044.2	2.15949
1047.1	2.1595
1049.99	1.59143
1052.88	2.39232
1055.78	2.67615
1058.67	3.60085
1061.56	4.87498
1064.45	3.32886
1067.35	5.06979
1070.24	4.2811
1073.13	3.73608
1076.03	4.69783
1078.92	4.5399
1081.81	4.59741
1084.7	6.2227
1087.6	5.56181
1090.49	5.9176
1093.38	6.86053
1096.27	6.0887
1099.17	4.04994
1102.06	3.82076
1104.95	3.35841
1107.84	4.54866
1110.74	4.66354
1113.63	3.49696
1116.52	3.18491
1119.41	3.07938
1122.31	2.6743
1125.2	2.49735
1128.09	0.751587
1130.99	2.33861
1133.88	1.00093
1136.77	0.755142
1139.66	0.395065
1142.56	2.16925
1145.45	0.21106
1148.34	1.32173
1151.23	0.067566
1154.13	1.77412
1157.02	0.887848
1159.91	1.27667
1162.81	0.648376
1165.7	0.8405
1168.59	0.662369
1171.48	0.892868
1174.38	1.32263
1177.27	0.034485
1180.16	2.38702
1183.06	2.11456
1185.95	1.25569
1188.84	3.49234
1191.73	1.28122
1194.62	1.95604
1197.52	1.33878
1200.41	2.63576
1203.3	1.94818
1206.2	1.87528
1209.09	0.516266
1211.98	0.504318
1214.87	2.20288
1217.77	1.97543
1220.66	1.65451
1223.55	2.91742
1226.44	3.66856
1229.34	2.5524
1232.23	1.24417
1235.12	1.77415
1238.02	3.80092
1240.91	2.51848
1243.8	2.45627
1246.69	3.08994
1249.59	5.05525
1252.48	2.38924
1255.37	1.0573
1258.27	1.04762
1261.16	3.20024
1264.05	1.23375
1266.94	1.58495
1269.84	0.989777
1272.73	1.63365
1275.62	0.715118
1278.51	1.41058
1281.41	0.358856
1284.3	4.09885
