Measurement: Raman, 532 nm, unoriented, Raman Data Processed
Mineral: Bornite
Rruff sample: R050322
Ideal chemistry: Cu^1+^_5_Fe^3+^S^2-^_4_
Locality: Bethlehem Copper mine, Highland Valley, Logan Lake, British Columbia, Canada
Source: Lloyd Twaites
Description: Irridescent purple metallic massive
Measured chemistry: Cu_4.97_Fe_1.03_S_4.00_
Raman shift (cm-1)	intensity
181.673	0.26226
184.566	5.89667
187.459	2.50592
190.351	5.58692
193.244	6.17732
196.137	4.69942
199.029	4.72485
201.922	3.36998
204.815	0.791336
207.708	1.38608
210.6	3.44941
213.493	1.48495
216.386	2.57973
219.278	0.69529
222.171	2.97479
225.064	0.217049
227.956	0.158142
230.849	1.68373
233.742	2.58469
236.635	0.742882
239.527	1.12123
242.42	2.08568
245.313	3.06272
248.205	5.05456
251.098	6.25654
253.991	8.4737
256.884	7.44464
259.776	8.19302
262.669	10.6829
265.562	13.1522
268.454	13.0704
271.347	16.6778
274.24	17.7202
277.132	20.5698
280.025	18.8832
282.918	23.5566
285.81	23.0981
288.703	23.7614
291.596	23.7923
294.489	26.5321
297.381	22.8988
300.274	22.6446
303.167	27.7877
306.059	29.0845
308.952	30.2846
311.845	34.1933
314.738	39.9416
317.63	39.0958
320.523	44.7122
323.416	49.8058
326.308	53.5213
329.201	54.9937
332.094	54.3192
334.986	53.9693
337.879	53.5038
340.772	50.7448
343.665	44.6448
346.557	40.4376
349.45	35.0416
352.343	26.9091
355.235	25.4827
358.128	18.5929
361.021	14.7158
363.913	11.3637
366.806	6.93056
369.699	4.59276
372.592	4.30442
375.484	2.27502
378.377	4.09588
381.27	0.813171
384.162	0.758942
387.055	0.994408
389.948	0.287125
392.841	2.31376
395.733	0.649712
398.626	0.449074
401.519	1.40543
404.411	0.620895
407.304	1.18871
410.197	1.55083
413.089	3.17225
415.982	3.39217
418.875	0.552551
421.767	2.66383
424.66	2.3406
427.553	1.26622
430.446	4.30188
433.338	4.1345
436.231	2.06428
439.124	0.131058
442.017	3.34011
444.909	2.95721
447.802	2.46064
450.695	1.59382
453.587	5.3303
456.48	3.39106
459.373	0.807987
462.265	3.80858
465.158	2.04216
468.051	2.4371
470.943	3.65091
473.836	2.5373
476.729	3.26224
479.622	3.23328
482.514	3.19985
485.407	1.20605
488.3	3.831
491.192	1.88689
494.085	2.37913
496.978	1.56041
499.87	2.57319
502.763	2.58334
505.656	0.460224
508.549	2.0788
511.441	1.66156
514.334	1.34162
517.227	1.78017
520.119	2.44376
523.012	3.58767
525.905	1.95619
528.798	3.43911
531.69	1.77073
534.583	2.1959
537.476	1.39405
540.368	1.95269
543.261	2.55878
546.154	1.52028
549.047	0.481869
551.939	3.44901
554.832	0.775528
557.725	2.17248
560.617	0.006931
563.51	2.85709
566.403	0.21423
569.295	1.55023
572.188	3.85599
575.081	0.125885
577.973	3.77844
580.866	1.75238
583.759	2.91193
586.652	1.12258
589.544	4.40441
592.437	1.05028
595.33	2.82392
598.222	4.01685
601.115	3.01961
604.008	4.34195
606.901	3.33998
609.793	0.21349
612.686	3.73209
615.579	2.66508
618.471	3.36723
621.364	0.87545
624.257	2.92624
627.149	2.91983
630.042	1.89987
632.935	1.98257
635.828	1.3475
638.72	0.56144
641.613	0.145672
644.506	2.25377
647.398	3.28107
650.291	2.58529
653.184	2.13487
656.077	2.60488
658.969	4.12107
661.862	2.39426
664.755	3.29066
667.647	0.593708
670.54	4.32456
673.433	3.4956
676.325	1.85795
679.218	2.45333
682.111	1.14201
685.004	4.63042
687.896	1.40845
690.789	2.93836
693.682	1.52584
696.574	2.31541
699.467	0.87035
702.36	4.08154
705.253	4.42189
708.145	1.34319
711.038	4.51644
713.931	0.079952
716.823	1.8608
719.716	4.20448
722.609	2.20578
725.501	3.34918
728.394	3.56317
731.287	1.68176
734.179	2.95196
737.072	1.83353
739.965	3.98941
742.858	0.496189
745.75	2.02776
748.643	0.159836
751.536	1.976
754.428	0.060638
757.321	2.78652
760.214	3.31631
763.107	2.70892
765.999	2.1348
768.892	1.87459
771.785	4.25273
774.677	2.11137
777.57	2.8825
780.463	3.06616
783.356	0.61507
786.248	0.632442
789.141	1.93934
792.034	0.674164
794.926	0.36615
797.819	3.35043
800.712	2.27905
803.604	1.48738
806.497	6.06368
809.39	3.96292
812.283	2.46446
815.175	5.22178
818.068	3.51392
820.961	4.652
823.853	2.99029
826.746	3.03149
829.639	5.12886
832.531	2.0181
835.424	2.39275
838.317	1.27524
841.21	3.63054
844.102	1.94821
846.995	0.747986
849.888	0.018227
852.78	1.77618
855.673	1.65975
858.566	1.44331
861.458	1.10235
864.351	1.39713
867.244	4.33914
870.136	4.39735
873.029	3.7831
875.922	1.93259
878.815	2.23886
881.707	1.98895
884.6	3.66433
887.493	3.51617
890.385	2.77039
893.278	5.03576
896.171	1.5342
899.064	3.30838
901.956	2.5689
904.849	2.72588
907.742	4.81772
910.634	2.40902
913.527	2.0517
916.42	0.640331
919.312	1.67644
922.205	1.84515
925.098	4.55734
927.991	4.17663
930.883	3.91142
933.776	4.41748
936.669	3.30637
939.562	2.1871
942.454	5.94417
945.347	3.41115
948.24	1.04927
951.132	2.0429
954.025	1.04506
956.918	2.97323
959.81	2.80961
962.703	2.63081
965.596	1.92423
968.489	1.4961
971.381	2.49105
974.274	0.075989
977.167	1.26441
980.059	0.24482
982.952	3.30859
985.845	0.610146
988.737	0.351326
991.63	1.99467
994.523	1.02916
997.415	1.05306
1000.31	2.79005
1003.2	3.13976
1006.09	3.64353
1008.99	0.58567
1011.88	0.068764
1014.77	2.13536
1017.66	1.21562
1020.56	2.21611
1023.45	2.8264
1026.34	0.692383
1029.23	2.82397
1032.13	0.904366
1035.02	6.0536
1037.91	0.348625
1040.81	3.22677
1043.7	0.349037
1046.59	3.66087
1049.48	0.842003
1052.38	1.62395
1055.27	3.22566
1058.16	1.37649
1061.06	1.84911
1063.95	4.82837
1066.84	1.16108
1069.73	1.10353
1072.63	1.08865
1075.52	2.73749
1078.41	0.38443
1081.3	0.949425
1084.2	1.23711
1087.09	1.6455
1089.98	1.29403
1092.88	2.31681
1095.77	1.64276
1098.66	2.61971
1101.55	1.45805
1104.45	0.917145
1107.34	0.101234
1110.23	1.22533
1113.12	0.183876
1116.02	0.458641
1118.91	1.1618
1121.8	3.84509
1124.69	2.84529
1127.59	2.18262
1130.48	0.704361
1133.37	2.21369
1136.27	0.883598
1139.16	0.190697
1142.05	2.1441
1144.94	2.46825
1147.84	0.912735
1150.73	2.4745
1153.62	0.592827
1156.51	0.571976
1159.41	2.91026
1162.3	3.11542
1165.19	3.61901
1168.09	0.287308
1170.98	1.25116
1173.87	2.29363
1176.76	4.09619
1179.66	3.7952
1182.55	0.696259
1185.44	3.67183
1188.33	3.24047
1191.23	1.60782
1194.12	3.01846
1197.01	2.25536
1199.9	3.73403
1202.8	1.29977
1205.69	2.1427
1208.58	0.536407
1211.48	2.27882
1214.37	1.25304
1217.26	2.07888
1220.15	1.2084
1223.05	2.27422
1225.94	2.28966
1228.83	0.860153
1231.72	2.23194
1234.62	3.04541
1237.51	3.7738
1240.4	1.39735
1243.3	2.44207
1246.19	1.24638
1249.08	2.43784
1251.97	4.57615
1254.87	3.72043
1257.76	3.00259
1260.65	1.53754
1263.54	2.0989
1266.44	0.185432
1269.33	2.98319
1272.22	3.61338
1275.12	0.87191
1278.01	2.207
1280.9	3.54643
1283.79	0.916031
1286.69	1.95068
1289.58	2.90411
1292.47	1.09557
1295.36	1.2511
1298.26	1.34428
1301.15	2.9171
