Measurement: Raman, 785 nm, unoriented, Raman Data Processed
Mineral: Botallackite
Rruff sample: R070066
Ideal chemistry: Cu^2+^_2_Cl(OH)_3_
Locality: Levante mine, St. Just, Cornwall, England
Source: Bob Jenkins
Description: Pale greenish blue bladed crystals
Measured chemistry: Cu_2.01_Cl_0.99_(OH)_3_
Raman shift (cm-1)	intensity
93.9705	0
97.3453	12.7614
100.72	14.158
104.095	2.06158
107.47	5.19604
110.845	12.984
114.219	35.6467
117.594	39.7139
120.969	12.136
124.344	9.88715
127.719	0.157898
131.094	2.01141
134.468	0.639221
137.843	4.86432
141.218	14.6988
144.593	26.0139
147.968	49.1528
151.342	96.0602
154.717	101.624
158.092	61.1688
161.467	31.327
164.842	20.4556
168.216	13.9686
171.591	23.3304
174.966	31.1084
178.341	16.92
181.716	6.45416
185.09	3.61829
188.465	2.526
191.84	4.19958
195.215	2.08252
198.59	0.342041
201.965	0.222412
205.339	1.55279
208.714	0.520752
212.089	2.84778
215.464	5.01739
218.839	1.67304
222.214	8.82245
225.588	1.99225
228.963	5.10217
232.338	9.20538
235.713	4.76111
239.088	9.30945
242.462	10.5275
245.837	11.9564
249.212	15.9668
252.587	15.1311
255.962	11.5333
259.336	15.0487
262.711	16.2812
266.086	15.3346
269.461	26.3904
272.836	24.8497
276.211	23.3658
279.585	20.4954
282.96	21.0516
286.335	17.4877
289.71	10.0995
293.085	6.87402
296.459	7.52551
299.834	17.0454
303.209	4.03705
306.584	6.71063
309.959	6.81409
313.334	3.77026
316.708	4.94891
320.083	6.10577
323.458	7.75604
326.833	4.95044
330.207	0.082397
333.582	4.29077
336.957	4.35028
340.332	4.77045
343.707	2.48828
347.082	3.15875
350.456	0.488037
353.831	3.03809
357.206	0.429016
360.581	0.325623
363.956	1.54211
367.33	2.1698
370.705	3.03375
374.08	3.56537
377.455	0.023193
380.83	0.960144
384.205	5.38794
387.579	12.2147
390.954	16.1097
394.329	24.3269
397.704	25.2143
401.079	27.3843
404.453	20.9406
407.828	15.8364
411.203	7.04028
414.578	4.74609
417.953	3.97418
421.327	5.86908
424.702	2.30231
428.077	2.23395
431.452	10.1556
434.827	11.0538
438.202	17.2727
441.576	26.4537
444.951	31.0821
448.326	37.1522
451.701	28.2654
455.076	18.4446
458.45	13.279
461.825	7.97345
465.2	6.95593
468.575	4.95416
471.95	2.62561
475.325	3.73328
478.699	4.75909
482.074	3.28626
485.449	2.88599
488.824	5.27673
492.199	12.566
495.573	13.5115
498.948	9.30853
502.323	12.3397
505.698	10.0513
509.073	7.47528
512.447	5.27991
515.822	5.27496
519.197	2.52875
522.572	4.44965
525.947	2.30035
529.322	2.54651
532.696	0.585144
536.071	0.65332
539.446	0.509949
542.821	0.633606
546.196	0.125854
549.57	0.848206
552.945	1.49335
556.32	3.35608
559.695	3.63696
563.07	3.47443
566.444	0.65094
569.819	3.89819
573.194	2.83057
576.569	2.68689
579.944	5.66516
583.319	3.64398
586.693	3.67242
590.068	2.30633
593.443	4.67969
596.818	6.47827
600.193	5.00519
603.567	6.55872
606.942	3.95074
610.317	3.5581
613.692	1.43329
617.067	2.12964
620.442	3.14398
623.816	5.2226
627.191	4.16229
630.566	0.105835
633.941	1.93915
637.316	3.651
640.69	3.22076
644.065	2.82684
647.44	4.27801
650.815	3.09796
654.19	1.16681
657.564	1.90295
660.939	1.83081
664.314	2.31604
667.689	4.49982
671.064	2.32025
674.439	3.46338
677.813	1.50446
681.188	4.1543
684.563	4.03656
687.938	1.40301
691.313	3.01575
694.688	2.03601
698.062	1.79852
701.437	0.161804
704.812	3.95496
708.187	0.220947
711.562	0.965942
714.936	2.46374
718.311	1.909
721.686	1.80853
725.061	1.36957
728.436	3.55926
731.81	6.39752
735.185	8.38568
738.56	6.30481
741.935	5.76068
745.31	3.24609
748.684	5.9408
752.059	0.949768
755.434	3.84985
758.809	2.83557
762.184	1.75494
765.559	2.71313
768.933	6.24298
772.308	3.59357
775.683	0.982788
779.058	0.871277
782.433	0.940796
785.808	3.02362
789.182	0.019165
792.557	2.86822
795.932	3.01007
799.307	0.596008
802.682	4.19122
806.056	2.56628
809.431	5.53528
812.806	6.74158
816.181	4.89398
819.556	4.48511
822.93	4.33221
826.305	0.723999
829.68	1.66901
833.055	1.78284
836.43	5.9339
839.804	4.46991
843.179	1.20837
846.554	2.55853
849.929	4.29596
853.304	5.87079
856.679	6.22052
860.053	5.1933
863.428	3.89197
866.803	4.72644
870.178	5.02716
873.553	5.90832
876.927	10.017
880.302	9.71356
883.677	14.654
887.052	13.6114
890.427	13.0786
893.802	14.5859
897.176	11.1048
900.551	11.0785
903.926	7.43085
907.301	9.25433
910.676	4.98633
914.05	3.13385
917.425	1.70392
920.8	5.69763
924.175	5.11261
927.55	4.88196
930.924	7.18884
934.299	0.520996
937.674	4.13214
941.049	1.47656
944.424	3.58685
947.799	3.60565
951.173	2.15424
954.548	5.92926
957.923	6.09473
961.298	5.95874
964.673	0.948486
968.047	2.58246
971.422	2.17835
974.797	0.653748
978.172	2.09821
981.547	3.21124
984.922	1.71918
988.296	0.652649
991.671	1.57135
995.046	0.911377
998.421	3.52106
1001.8	3.18188
1005.17	5.11139
1008.54	3.30743
1011.92	1.67175
1015.29	5.39008
1018.67	3.10168
1022.04	1.98749
1025.42	0.921753
1028.79	2.56305
1032.17	6.06146
1035.54	6.20715
1038.92	7.60638
1042.29	6.40301
1045.67	0.266785
1049.04	2.63763
1052.42	3.36688
1055.79	2.64954
1059.17	2.8974
1062.54	6.32581
1065.92	5.82355
1069.29	5.36047
1072.67	5.57263
1076.04	1.31384
1079.42	1.67847
1082.79	3.08704
1086.17	4.18219
1089.54	8.00159
1092.92	3.45453
1096.29	2.33228
1099.66	2.54156
1103.04	7.66754
1106.41	5.25775
1109.79	6.93573
1113.16	1.88892
1116.54	3.98547
1119.91	1.87439
1123.29	2.43353
1126.66	3.6247
1130.04	2.3725
1133.41	3.50665
1136.79	2.17572
1140.16	9.37506
1143.54	6.97021
1146.91	11.5413
1150.29	6.08392
1153.66	9.91919
1157.04	3.36523
1160.41	0.139526
1163.79	6.46631
1167.16	5.07745
1170.54	7.70221
1173.91	7.3728
1177.29	10.8884
1180.66	12.938
1184.04	4.93994
1187.41	6.66785
1190.79	8.39551
1194.16	9.03943
1197.54	11.0072
1200.91	7.84589
1204.28	5.67493
1207.66	7.42706
1211.03	4.74029
1214.41	1.73602
1217.78	4.39642
1221.16	1.24103
1224.53	2.11572
1227.91	2.27075
1231.28	2.33887
1234.66	0.566711
1238.03	4.13293
1241.41	3.81525
1244.78	1.2514
1248.16	0.942383
1251.53	1.1618
1254.91	2.37305
1258.28	1.08228
1261.66	3.91748
1265.03	4.81439
1268.41	12.1483
1271.78	2.75665
1275.16	2.99817
1278.53	2.95856
1281.9	3.48938
