Measurement: Raman, 785 nm, unoriented, Raman Data Processed
Mineral: Braggite
Rruff sample: R070567
Ideal chemistry: PtS
Locality: Minneapolis Adit, J M Reef, Stillwater Complex, Beartooth Mountains, Stillwater County, Montana, USA
Source: James Shigley
Description: Tin-white metallic massive
Raman shift (cm-1)	intensity
167.855	0
170.748	69.2611
173.64	18.5155
176.533	6.97876
179.426	31.0146
182.318	102.369
185.211	56.0218
188.104	69.5272
190.996	41.774
193.889	82.8989
196.782	72.056
199.674	98.0554
202.567	76.4377
205.46	85.0468
208.353	52.0173
211.245	19.0513
214.138	26.4955
217.031	0.245361
219.923	1.36609
222.816	7.06451
225.709	24.5231
228.601	9.33698
231.494	17.835
234.387	34.3658
237.28	31.2595
240.172	27.7377
243.065	31.8141
245.958	48.0246
248.85	53.6112
251.743	58.1114
254.636	73.5816
257.529	63.6677
260.421	52.2864
263.314	51.6715
266.207	67.1849
269.099	71.738
271.992	60.4198
274.885	72.2379
277.777	21.3132
280.67	0.324188
283.563	22.3012
286.455	1.38397
289.348	0.054779
292.241	5.87476
295.134	20.1241
298.026	10.0606
300.919	27.1381
303.812	75.7116
306.704	102.998
309.597	84.8854
312.49	105.301
315.382	141.035
318.275	131.062
321.168	109.483
324.061	94.0012
326.953	154.763
329.846	108.922
332.739	89.4025
335.631	143.443
338.524	150.597
341.417	166.95
344.31	122.253
347.202	134.346
350.095	138.486
352.988	116.907
355.88	77.3838
358.773	42.1517
361.666	51.0161
364.558	47.6575
367.451	48.9226
370.344	58.7426
373.236	72.6592
376.129	58.1956
379.022	49.2057
381.915	70.6525
384.807	99.0644
387.7	102.637
390.593	80.2224
393.485	88.655
396.378	100.029
399.271	105.06
402.163	56.7578
405.056	72.9965
407.949	38.1226
410.842	55.3094
413.734	41.1408
416.627	32.0906
419.52	0.779602
422.412	18.5964
425.305	11.1927
428.198	0.060379
431.091	11.4877
433.983	14.837
436.876	1.63237
439.769	16.0126
442.661	9.68375
445.554	20.8951
448.447	0.113708
451.339	29.2225
454.232	19.5128
457.125	43.8184
460.018	39.3805
462.91	16.1094
465.803	43.5699
468.696	36.0253
471.588	49.2256
474.481	26.8332
477.374	38.0432
480.267	25.1022
483.159	35.8847
486.052	32.1457
488.945	19.6765
491.837	25.5424
494.73	41.5299
497.623	0.140701
500.515	61.843
503.408	22.3072
506.301	30.4068
509.193	8.84735
512.086	10.4146
514.979	34.8459
517.872	25.8298
520.764	10.5728
523.657	21.5511
526.55	11.7211
529.442	5.33852
532.335	19.9325
535.228	24.5707
538.12	9.29166
541.013	36.1549
543.906	41.784
546.799	15.7589
549.691	2.55165
552.584	14.7643
555.477	34.993
558.369	12.1667
561.262	19.7175
564.155	32.3659
567.048	21.9554
569.94	28.6828
572.833	0.441635
575.726	26.2196
578.618	19.5593
581.511	9.27153
584.404	11.7464
587.296	21.9181
590.189	3.81595
593.082	7.11146
595.975	8.15846
598.867	8.94536
601.76	8.48862
604.653	40.0075
607.545	19.4345
610.438	7.2887
613.331	8.24263
616.223	14.1966
619.116	20.4788
622.009	1.35921
624.902	13.9211
627.794	10.8744
630.687	10.617
633.58	7.94757
636.472	24.266
639.365	20.6818
642.258	25.8327
645.15	7.87911
648.043	10.6889
650.936	1.07718
653.828	10.0172
656.721	35.4007
659.614	28.9236
662.507	2.88934
665.399	5.01965
668.292	0.391815
671.185	27.3827
674.077	18.2497
676.97	31.2627
679.863	19.2915
682.755	27.0682
685.648	19.8498
688.541	4.27269
691.434	15.3454
694.326	12.1911
697.219	23.7211
700.112	35.3683
703.004	10.1755
705.897	26.4719
708.79	13.1384
711.683	19.2092
714.575	10.9812
717.468	1.52966
720.361	22.1801
723.253	18.8044
726.146	25.4398
729.039	2.53442
731.931	9.87094
734.824	12.5015
737.717	14.7384
740.61	12.2713
743.502	18.9937
746.395	29.6745
749.288	24.8222
752.18	17.0101
755.073	39.2339
757.966	12.4238
760.858	18.4324
763.751	25.0713
766.644	18.7401
769.537	27.944
772.429	21.016
775.322	0.462936
778.215	14.1925
781.107	16.823
784	31.8703
786.893	13.2656
789.785	15.4621
792.678	2.87302
795.571	0.909576
798.463	11.5437
801.356	22.6437
804.249	14.1034
807.142	14.7116
810.034	25.2088
812.927	16.1983
815.82	22.4527
818.712	18.3701
821.605	1.76292
824.498	34.0226
827.391	26.3659
830.283	25.4971
833.176	19.5282
836.069	1.42773
838.961	25.5657
841.854	15.5545
844.747	3.50944
847.639	32.1553
850.532	0.492981
853.425	9.57465
856.318	18.9839
859.21	27.7868
862.103	21.5372
864.996	39.1855
867.888	11.3954
870.781	36.2551
873.674	8.94514
876.567	21.393
879.459	2.92892
882.352	0.586594
885.245	34.7226
888.137	23.029
891.03	15.5965
893.923	8.62483
896.815	26.1764
899.708	2.49024
902.601	28.184
905.494	9.27135
908.386	24.8688
911.279	1.39712
914.172	22.9801
917.064	25.9876
919.957	28.4792
922.85	6.0159
925.742	19.0463
928.635	1.20166
931.528	13.6061
934.42	8.7101
937.313	20.735
940.206	10.5322
943.099	3.84264
945.991	4.81828
948.884	27.3791
951.777	20.8248
954.669	39.015
957.562	21.5013
960.455	7.59745
963.347	10.9322
966.24	0.45253
969.133	22.4044
972.026	10.9743
974.918	1.6109
977.811	35.5712
980.704	17.709
983.596	7.75945
986.489	9.69487
989.382	9.39922
992.274	23.3701
995.167	2.83806
998.06	11.1976
1000.95	13.4685
1003.85	16.5121
1006.74	12.1002
1009.63	8.63281
1012.52	24.0457
1015.42	2.01703
1018.31	22.5961
1021.2	5.6853
1024.09	13.2351
1026.99	23.4424
1029.88	16.8995
1032.77	14.1932
1035.66	21.0451
1038.56	9.11542
1041.45	54.2284
1044.34	37.7112
1047.24	21.6689
1050.13	19.7521
1053.02	21.8383
1055.91	5.06178
1058.81	11.8579
1061.7	29.8221
1064.59	31.0537
1067.48	33.5251
1070.38	25.7602
1073.27	6.02592
1076.16	16.9379
1079.06	7.37036
1081.95	31.3864
1084.84	13.6917
1087.73	26.1854
1090.63	10.4101
1093.52	26.3154
1096.41	13.0975
1099.3	10.6913
1102.2	14.3911
1105.09	7.91811
1107.98	40.0522
1110.88	6.13145
1113.77	24.3535
1116.66	6.73138
1119.55	1.99799
1122.45	16.3996
1125.34	24.7704
1128.23	11.7522
1131.12	8.02524
1134.02	13.7569
1136.91	16.8497
1139.8	22.6018
1142.69	3.72383
1145.59	31.0579
1148.48	26.3226
1151.37	26.7932
1154.27	12.2561
1157.16	7.81789
1160.05	10.4421
1162.94	11.6412
1165.84	27.3851
1168.73	21.5202
1171.62	41.2785
1174.52	21.3136
1177.41	18.3473
1180.3	10.6231
1183.19	21.3289
1186.09	7.75433
1188.98	33.3042
1191.87	33.6428
1194.76	6.58496
1197.66	11.6965
1200.55	1.99886
1203.44	17.1121
1206.33	20.524
1209.23	23.1395
1212.12	17.8126
1215.01	11.3292
1217.9	30.2293
1220.8	22.8887
1223.69	10.4685
1226.58	29.1166
1229.48	25.2833
1232.37	16.607
1235.26	17.011
1238.15	22.8289
1241.05	11.1744
1243.94	3.59317
1246.83	26.4502
1249.72	14.7551
1252.62	20.3793
1255.51	12.8382
1258.4	31.7806
1261.3	8.39636
1264.19	4.50678
1267.08	12.3504
1269.97	15.4085
1272.87	52.1871
1275.76	12.6471
