Measurement: Raman, 532 nm, unoriented, Raman Data Processed
Mineral: Braitschite-(Ce)
Rruff sample: R060008
Ideal chemistry: Ca_6.15_Na_0.85_Ce_2_[B_6_O_7_(OH)_3_(O,OH)_3_]_4_H_2_O
Locality: Texas Gulf Sulfur Potash mine, Cisco, Utah, USA
Source: University of Arizona Mineral Museum
Description: Pink blebs embedded in anhydrite
Raman shift (cm-1)	intensity
144.715	0
148.09	66.3545
151.465	226.913
154.84	391.196
158.214	413.357
161.589	339.681
164.964	151.81
168.339	106.528
171.714	95.6816
175.089	89.4898
178.463	47.9404
181.838	20.6314
185.213	7.15918
188.588	41.2847
191.963	24.4912
195.338	99.3472
198.712	29.9517
202.087	85.6279
205.462	170.675
208.837	196.061
212.212	215.43
215.586	338.305
218.961	469.388
222.336	616.654
225.711	584.875
229.086	473.655
232.46	414.255
235.835	330.29
239.21	284.046
242.585	226.618
245.96	137.326
249.334	137.368
252.709	80.1694
256.084	142.743
259.459	135.907
262.834	51.6953
266.209	146.63
269.583	179.152
272.958	252.397
276.333	243.027
279.708	323.357
283.083	321.959
286.457	322.453
289.832	384.226
293.207	451.06
296.582	339.75
299.957	435.206
303.332	487.574
306.706	412.523
310.081	330.748
313.456	221.483
316.831	83.96
320.206	70.9858
323.58	12.9912
326.955	101.763
330.33	6.67578
333.705	62.8115
337.08	15.3027
340.455	73.5693
343.829	104.571
347.204	96.3501
350.579	191.299
353.954	179.231
357.329	189.917
360.704	176.824
364.078	66.8955
367.453	12.4248
370.828	53.4204
374.203	20.7358
377.577	79.7617
380.952	195.402
384.327	234.304
387.702	319.353
391.077	471.789
394.452	672.315
397.826	763.977
401.201	790.302
404.576	735.667
407.951	665.117
411.326	482.146
414.7	448.037
418.075	313.563
421.45	181.101
424.825	303.448
428.2	263.929
431.575	280.486
434.949	324.452
438.324	242.208
441.699	166.786
445.074	152.019
448.449	92.3901
451.824	18.7051
455.198	15.5986
458.573	123.064
461.948	11.1636
465.323	16.5605
468.697	1.81836
472.072	12.4355
475.447	46.103
478.822	5.6167
482.197	8.58984
485.572	73.1953
488.946	45.9067
492.321	84.3926
495.696	107.659
499.071	93.6372
502.446	191.311
505.82	127.652
509.195	164.301
512.57	135.682
515.945	117.658
519.32	112.877
522.695	118.357
526.069	52.5562
529.444	77.6792
532.819	87.2466
536.194	29.1143
539.569	32.1665
542.943	85.2104
546.318	25.668
549.693	103.365
553.068	133.421
556.443	60.0147
559.818	160.948
563.192	253.435
566.567	390.186
569.942	425.609
573.317	394.816
576.692	357.838
580.067	212.368
583.441	91.062
586.816	5.85986
590.191	67.2109
593.566	77.7871
596.941	124.459
600.315	104.077
603.69	98.5659
607.065	84.4473
610.44	102.904
613.815	151.379
617.189	134.015
620.564	164.806
623.939	128.688
627.314	129.835
630.689	80.4981
634.063	98.6807
637.438	68.5147
640.813	105.34
644.188	141.333
647.563	64.6821
650.938	0.517578
654.312	37.1509
657.687	51.5815
661.062	62.3892
664.437	85.8481
667.812	82.8423
671.187	48.8843
674.561	153.935
677.936	41.2647
681.311	89.5825
684.686	119.981
688.061	10.3672
691.435	3.13916
694.81	29.5356
698.185	25.4019
701.56	120.106
704.935	12.6602
708.309	3.58643
711.684	37.3916
715.059	94.7183
718.434	44.9126
721.809	116.057
725.183	64.7022
728.558	50.3125
731.933	32.3193
735.308	24.6909
738.683	61.73
742.058	74.0054
745.432	108.42
748.807	22.9805
752.182	104.318
755.557	30.042
758.932	15.5952
762.307	76.4526
765.681	117.247
769.056	67.1235
772.431	38.3589
775.806	10.0195
779.181	60.3477
782.555	73.8188
785.93	115.661
789.305	131.167
792.68	38.3267
796.055	98.4316
799.429	107.059
802.804	134.195
806.179	115.109
809.554	119.248
812.929	113.167
816.304	87.2017
819.678	40.71
823.053	211.309
826.428	181.393
829.803	205.17
833.178	122.481
836.552	140.231
839.927	59.457
843.302	117.843
846.677	106.85
850.052	93.0557
853.427	134.455
856.801	113.588
860.176	43.1948
863.551	10.2876
866.926	60.5957
870.301	23.1484
873.675	72.1836
877.05	57.8799
880.425	77.2275
883.8	81.833
887.175	130.041
890.549	39.3389
893.924	83.2178
897.299	57.8145
900.674	122.656
904.049	56.8691
907.424	61.6162
910.798	69.7344
914.173	96.5801
917.548	130.989
920.923	209.486
924.298	48.9102
927.673	69.5606
931.047	106.212
934.422	71.0176
937.797	112.17
941.172	127.102
944.547	47.1084
947.921	110.999
951.296	143.223
954.671	87.2881
958.046	92.3603
961.421	87.8164
964.795	77.4463
968.17	66.0029
971.545	84.0713
974.92	46.8154
978.295	15.6807
981.67	6.42871
985.044	30.3984
988.419	93.1045
991.794	40.9121
995.169	8.99707
998.544	35.5469
1001.92	71.2598
1005.29	168.888
1008.67	145.632
1012.04	200.839
1015.42	351.284
1018.79	180.793
1022.17	70.3418
1025.54	8.81152
1028.92	38.6221
1032.29	93.8428
1035.67	44.876
1039.04	121.422
1042.42	96.3096
1045.79	273.06
1049.17	127.333
1052.54	112.348
1055.92	161.009
1059.29	198.066
1062.66	159.379
1066.04	219.405
1069.41	166.241
1072.79	141.666
1076.16	44.6289
1079.54	56.123
1082.91	113.798
1086.29	80.8838
1089.66	87.251
1093.04	53.8809
1096.41	44.4062
1099.79	8.59961
1103.16	80.5898
1106.54	50.4121
1109.91	102.303
1113.29	131.529
1116.66	35.9043
1120.04	7.63281
1123.41	61.416
1126.79	128.647
1130.16	71.7764
1133.54	90.6582
1136.91	5.02344
1140.29	30.1123
1143.66	45.5654
1147.04	61.6924
1150.41	42.083
1153.79	113.117
1157.16	44.0498
1160.54	105.64
1163.91	21.7334
1167.28	19.082
1170.66	39.1816
1174.03	97.7568
1177.41	17.6787
1180.78	38.3408
1184.16	100.727
1187.53	50.707
1190.91	85.6758
1194.28	48.9404
1197.66	5.8291
1201.03	125.842
1204.41	143.654
1207.78	85.5303
1211.16	14.7197
1214.53	86.4844
1217.91	61.75
1221.28	90.708
1224.66	71.0918
1228.03	41.4463
1231.41	75.3262
1234.78	83.5957
1238.16	6
1241.53	53.5742
1244.9	16.0781
1248.28	42.3994
1251.65	76.2861
1255.03	108.013
1258.4	16.8701
1261.78	72.4385
1265.15	68.3789
1268.53	87.8144
1271.9	27.1836
1275.28	53.2852
1278.65	140.802
1282.03	66.2549
1285.4	28.4844
1288.78	23.124
1292.15	67.1201
1295.53	60.1289
1298.9	36.1426
