Measurement: Raman, 780 nm, unoriented, Raman Data Processed
Mineral: Braunite
Rruff sample: R050390
Ideal chemistry: Mn^2+^Mn^3+^_6_SiO_12_
Locality: Oehrenstock, Thuringia, Germany
Source: University of Arizona Mineral Museum
Description: Mass of black octahedra
Measured chemistry: (Mn^2+^_0.83_Ca_0.17_)_Î£=1_Mn^3+^_6.00_Si_1.00_O_12_
Raman shift (cm-1)	intensity
142.181	0
145.074	0.023499
147.967	7.79039
150.859	12.2672
153.752	11.2313
156.645	8.1127
159.538	10.221
162.43	13.0113
165.323	14.1239
168.216	11.9145
171.108	4.02315
174.001	1.24733
176.894	3.18513
179.786	0.443451
182.679	1.18681
185.572	0.172424
188.465	3.09563
191.357	5.24065
194.25	5.58958
197.143	9.76459
200.035	10.9554
202.928	14.7869
205.821	19.2381
208.714	22.1845
211.606	26.3082
214.499	24.8953
217.392	24.9246
220.284	30.1836
223.177	30.6148
226.07	28.9751
228.962	37.7631
231.855	37.0964
234.748	34.5784
237.641	38.1301
240.533	34.6735
243.426	31.6105
246.319	29.8467
249.211	28.9599
252.104	21.7808
254.997	17.7248
257.889	14.0362
260.782	10.9014
263.675	8.40686
266.567	8.10936
269.46	10.416
272.353	7.67029
275.246	7.61517
278.138	8.29132
281.031	9.7357
283.924	15.5382
286.816	16.1609
289.709	18.674
292.602	17.9141
295.495	16.9229
298.387	13.2354
301.28	11.5418
304.173	5.96878
307.065	0.158188
309.958	0.224701
312.851	2.34923
315.743	1.28914
318.636	1.9881
321.529	0.788116
324.421	5.32489
327.314	6.6807
330.207	7.83121
333.1	7.25908
335.992	4.33409
338.885	4.85449
341.778	3.16106
344.67	3.4597
347.563	0.218475
350.456	3.24086
353.349	3.83672
356.241	2.4686
359.134	5.15977
362.027	7.07733
364.919	8.51169
367.812	11.1017
370.705	12.3408
373.597	11.5876
376.49	9.90193
379.383	7.99623
382.276	6.1712
385.168	5.53386
388.061	5.48131
390.954	4.66249
393.846	3.00046
396.739	1.91136
399.632	3.6878
402.524	0.462173
405.417	1.02895
408.31	0.119041
411.202	3.06685
414.095	0.327766
416.988	1.61832
419.881	0.33078
422.773	2.45596
425.666	1.41721
428.559	0.800179
431.451	3.2201
434.344	2.29276
437.237	4.81185
440.13	6.71673
443.022	8.45828
445.915	10.3317
448.808	16.1799
451.7	17.925
454.593	24.7077
457.486	30.3496
460.378	37.7554
463.271	42.1977
466.164	49.1022
469.057	53.0414
471.949	54.7306
474.842	48.7963
477.735	41.4591
480.627	36.4795
483.52	30.3027
486.413	28.0571
489.305	27.7785
492.198	24.9569
495.091	25.4359
497.983	30.5236
500.876	30.0069
503.769	33.7965
506.662	36.2877
509.554	37.4127
512.447	35.023
515.34	32.1251
518.232	26.8525
521.125	18.882
524.018	14.3478
526.91	9.62657
529.803	8.82247
532.696	3.7901
535.589	2.31802
538.481	0.45591
541.374	1.58775
544.267	0.428482
547.159	1.31215
550.052	1.488
552.945	0.561592
555.837	3.22311
558.73	1.975
561.623	1.2647
564.516	4.7187
567.408	4.43524
570.301	3.35004
573.194	3.98419
576.086	2.80652
578.979	4.29334
581.872	0.25972
584.764	1.10506
587.657	2.12129
590.55	2.56401
593.443	1.68875
596.335	1.61523
599.228	4.6097
602.121	4.46962
605.013	9.13674
607.906	7.06574
610.799	7.68668
613.692	10.4335
616.584	10.4637
619.477	9.88843
622.37	11.3419
625.262	8.72429
628.155	8.86607
631.048	9.08005
633.94	7.58472
636.833	8.27737
639.726	7.92122
642.619	9.80725
645.511	10.3396
648.404	8.13245
651.297	8.19994
654.189	7.75407
657.082	8.52544
659.975	7.31289
662.867	4.64536
665.76	5.20428
668.653	5.11817
671.545	5.57224
674.438	2.43068
677.331	6.04763
680.224	5.73256
683.116	5.63506
686.009	6.13777
688.902	2.23542
691.794	4.45482
694.687	2.55987
697.58	3.24582
700.472	2.75098
703.365	1.86497
706.258	2.29797
709.151	1.49062
712.043	2.24606
714.936	1.43291
717.829	1.01311
720.721	0.064217
723.614	0.931419
726.507	0.750458
729.399	0.467354
732.292	0.479561
735.185	1.43934
738.078	0.491684
740.97	0.010918
743.863	0.622871
746.756	0.256851
749.648	0.804924
752.541	1.54898
755.434	1.24571
758.327	1.22827
761.219	0.399712
764.112	2.23955
767.005	2.71477
769.897	0.589249
772.79	5.27602
775.683	1.96485
778.575	2.02156
781.468	3.52632
784.361	5.1414
787.254	3.78569
790.146	2.93824
793.039	6.26555
795.932	4.27145
798.824	1.8323
801.717	6.09753
804.61	3.55838
807.502	5.2412
810.395	7.84346
813.288	8.81451
816.181	4.90738
819.073	6.47926
821.966	9.1342
824.859	6.2897
827.751	5.58858
830.644	8.03824
833.537	8.09242
836.429	7.96784
839.322	7.35628
842.215	7.31635
845.107	8.17615
848	8.99889
850.893	8.29823
853.786	10.1557
856.678	7.24079
859.571	5.29121
862.464	8.69553
865.356	7.07754
868.249	4.41416
871.142	4.94096
874.034	6.28596
876.927	4.29267
879.82	5.36984
882.713	4.24029
885.605	4.82542
888.498	3.38333
891.391	4.04682
894.283	1.05863
897.176	0.09832
900.069	0.955284
902.962	4.35673
905.854	1.26951
908.747	1.96054
911.64	0.250076
914.532	0.95092
917.425	2.38355
920.318	0.547234
923.21	3.47652
926.103	3.78701
928.996	7.13049
931.888	7.0439
934.781	9.02644
937.674	7.32455
940.567	11.6695
943.459	11.2499
946.352	10.1986
949.245	9.29983
952.137	10.4424
955.03	8.32287
957.923	10.0804
960.815	5.63567
963.708	6.756
966.601	4.54853
969.494	4.35729
972.386	4.45268
975.279	1.75318
978.172	2.00194
981.064	2.98255
983.957	0.356224
986.85	0.180664
989.742	1.4758
992.635	0.301773
995.528	0.168297
998.42	1.9258
1001.31	1.29529
1004.21	1.01196
1007.1	1.09503
1009.99	1.04586
1012.88	2.44697
1015.78	2.26303
1018.67	3.09991
1021.56	1.64613
1024.45	2.24133
1027.35	3.31044
1030.24	1.88131
1033.13	2.04962
1036.03	1.28258
1038.92	3.97167
1041.81	1.43514
1044.7	5.32028
1047.6	3.13027
1050.49	4.36213
1053.38	4.41606
1056.28	1.4046
1059.17	3.1539
1062.06	3.12229
1064.95	1.14787
1067.85	3.40508
1070.74	4.19861
1073.63	2.46541
1076.52	3.99289
1079.42	3.42133
1082.31	0.74086
1085.2	2.47723
1088.09	2.80157
1090.99	2.69104
1093.88	2.4457
1096.77	3.5631
1099.66	1.82025
1102.56	0.632607
1105.45	0.979668
1108.34	2.42522
1111.24	0.744873
1114.13	2.34766
1117.02	2.95068
1119.91	1.6081
1122.81	1.35775
1125.7	1.26835
1128.59	0.413452
1131.48	2.96823
1134.38	0.895447
1137.27	2.82193
1140.16	3.34528
1143.06	1.80161
1145.95	3.04361
1148.84	0.612915
1151.73	0.840462
1154.63	0.133926
1157.52	2.93275
1160.41	1.37879
1163.3	2.0322
1166.2	2.99397
1169.09	1.67972
1171.98	2.26384
1174.88	1.88625
1177.77	3.57481
1180.66	1.87151
1183.55	2.84695
1186.45	1.97524
1189.34	1.37322
1192.23	3.25114
1195.12	2.42829
1198.02	2.37429
1200.91	3.49524
1203.8	1.64294
1206.69	2.47227
1209.59	2.04406
1212.48	3.7748
1215.37	1.71433
1218.27	2.76991
1221.16	2.02432
1224.05	3.35788
1226.94	3.42412
1229.84	2.03744
1232.73	1.76998
1235.62	3.70012
1238.52	3.05893
1241.41	3.84198
1244.3	3.60753
1247.19	2.93348
1250.09	0.3955
1252.98	3.44263
1255.87	2.61514
1258.76	2.64406
1261.66	3.47572
1264.55	3.73268
