Measurement: Raman, 514 nm, unoriented, Raman Data Processed
Mineral: Braunite
Rruff sample: R050390
Ideal chemistry: Mn^2+^Mn^3+^_6_SiO_12_
Locality: Oehrenstock, Thuringia, Germany
Source: University of Arizona Mineral Museum
Description: Mass of black octahedra
Measured chemistry: (Mn^2+^_0.83_Ca_0.17_)_Î£=1_Mn^3+^_6.00_Si_1.00_O_12_
Raman shift (cm-1)	intensity
173.833	0
177.974	51.268
182.114	23.375
186.251	84.085
190.387	196.837
194.52	447.384
198.652	736.979
202.782	1175.43
206.909	1748.75
211.035	1867.5
215.159	1729.64
219.281	1748.64
223.4	1589.22
227.518	1375.75
231.634	1179.38
235.748	996.049
239.86	757.78
243.97	695.269
248.079	514.845
252.185	362.848
256.289	258.534
260.391	128.86
264.492	5.918
268.59	24.251
272.687	76.363
276.781	36.405
280.874	12.359
284.964	38.401
289.053	177.081
293.14	368.464
297.225	409.564
301.308	206.532
305.389	95.372
309.468	15.28
313.545	39.355
317.62	4.11
321.693	203.493
325.765	458.664
329.834	739.317
333.902	993.842
337.967	1029.97
342.031	746.855
346.093	614.831
350.153	224.75
354.21	264.699
358.267	234.615
362.321	183.448
366.373	188.161
370.423	289.748
374.471	224.182
378.518	219.428
382.563	224.489
386.605	144.311
390.646	161.919
394.685	104.376
398.722	80.7
402.757	26.269
406.79	17.032
410.821	17.207
414.851	42.29
418.878	63.591
422.904	39.123
426.927	16.274
430.949	19.903
434.969	35.719
438.987	64.107
443.003	42.269
447.018	133.799
451.03	192.499
455.041	334.2
459.049	392.584
463.056	619.605
467.061	829.361
471.064	1077.56
475.065	1273.48
479.064	1270.51
483.062	1371.88
487.057	1046.72
491.051	943.601
495.043	873.495
499.032	908.389
503.02	1059.21
507.007	1235.96
510.991	1556.63
514.973	1652.21
518.954	1576.71
522.933	1376.12
526.91	1128.46
530.885	830.712
534.858	668.888
538.829	695.985
542.799	481.005
546.766	449.948
550.732	465.813
554.696	402.47
558.658	533.686
562.618	568.636
566.576	752.231
570.533	909.372
574.488	955.721
578.44	915.398
582.391	803.353
586.341	729.204
590.288	618.238
594.233	669.814
598.177	728.265
602.119	772.798
606.059	951.464
609.997	1067.8
613.933	1240.02
617.868	1462.94
621.801	1522.65
625.731	1391.98
629.66	1188.49
633.588	1028.99
637.513	844.809
641.437	705.605
645.358	659.669
649.278	660.464
653.196	642.439
657.113	681.468
661.027	659.344
664.94	561.167
668.851	498.814
672.76	392.406
676.667	433.941
680.572	391.547
684.476	487.248
688.378	468.367
692.278	462.905
696.176	440.386
700.072	380.806
703.967	332.962
707.86	197.066
711.751	189.169
715.64	61.928
719.527	156.858
723.413	72.595
727.297	71.232
731.179	60.304
735.059	27.516
738.937	7.24
742.814	3.984
746.689	43.091
750.562	22.077
754.433	43.074
758.303	2.372
762.17	34.266
766.036	18.157
769.901	19.71
773.763	1.579
777.624	0.202
781.482	0.078
785.339	24.911
789.195	0.828
793.048	40.364
796.9	5.275
800.75	14.202
804.598	15.855
808.445	37.359
812.289	47.488
816.132	36.564
819.973	92.589
823.813	114.565
827.65	128.494
831.486	119.377
835.32	8.214
839.152	8.435
842.983	97.692
846.812	35.326
850.639	3.241
854.464	90.35
858.288	101.723
862.11	115.734
865.93	111.5
869.748	122.181
873.564	119.31
877.379	65.635
881.192	66.738
885.004	87.334
888.813	97.989
892.621	86.474
896.427	144.135
900.232	128.773
904.034	80.882
907.835	117.413
911.634	143.775
915.432	145.39
919.227	113.848
923.021	249.625
926.813	238.984
930.604	297.029
934.393	390.764
938.18	432.321
941.965	518.548
945.749	556.181
949.53	556.951
953.311	499.864
957.089	468.851
960.866	330.889
964.641	340.649
968.414	250.426
972.185	213.352
975.955	163.3
979.723	173.244
983.49	106.224
987.254	156.919
991.017	140.157
994.779	163.704
998.538	145.379
1002.3	139.26
1006.05	126.354
1009.81	122.594
1013.56	164.831
1017.31	29.904
1021.06	105.271
1024.81	117.375
1028.55	113.555
1032.3	132.21
1036.04	105.777
1039.78	106.505
1043.52	111.474
1047.26	96.249
1050.99	100.639
1054.73	114.302
1058.46	117.126
1062.19	88.559
1065.92	136.475
1069.65	138.446
1073.37	170.574
1077.1	183.754
1080.82	142.612
1084.54	69.853
1088.26	135.13
1091.97	148.46
1095.69	110.229
1099.4	67.906
1103.12	48.034
1106.83	148.333
1110.54	142.68
1114.24	118.322
1117.95	80.213
1121.65	47.203
1125.35	168.824
1129.06	85.47
1132.75	47.131
1136.45	33.57
1140.15	59.483
1143.84	12.391
1147.53	4.353
1151.22	105.047
1154.91	64.132
1158.6	28.381
1162.28	47.586
1165.97	6.603
1169.65	2.786
1173.33	24.654
1177.01	21.362
1180.69	38.481
1184.36	45.848
1188.04	7.335
1191.71	19.418
1195.38	40.376
1199.05	11.241
1202.71	22.473
1206.38	26.517
1210.04	22.941
1213.71	28.249
1217.37	8.425
1221.03	30.458
1224.68	4.668
1228.34	10.061
1231.99	48.666
1235.65	84.156
1239.3	82.531
1242.95	18.496
1246.59	4.035
1250.24	0.887
1253.88	112.171
1257.53	32.327
1261.17	9.765
1264.81	33.992
1268.45	13.506
1272.08	34.697
1275.72	33.088
1279.35	12.63
1282.98	68.193
1286.61	3.011
1290.24	11.185
1293.87	5.506
1297.49	1.537
1301.11	56.829
1304.73	20.538
1308.36	68.901
1311.97	42.812
1315.59	33.746
1319.2	70.659
1322.82	39.729
1326.43	63.766
1330.04	1.61
1333.65	111.668
1337.26	33.067
1340.86	99.565
1344.47	75.696
1348.07	81.173
1351.67	42.875
1355.27	47.669
1358.87	32.208
1362.46	50.257
1366.06	50.383
1369.65	81.903
1373.24	52.611
1376.83	55.222
1380.42	63.495
1384	16.363
1387.59	16.144
1391.17	45.179
1394.75	72.69
1398.33	30.609
1401.91	0
