Measurement: Raman, 532 nm, unoriented, Raman Data Processed
Mineral: Braunite
Rruff sample: R090057
Ideal chemistry: Mn^2+^Mn^3+^_6_SiO_12_
Locality: N'Chwaning III Mine, N'Chwaning Mines, Kalahari manganese field, Northern Cape Province, South Africa
Source: Marshall Sussman
Description: Blocky lustrous black crystals on fine-grained matrix of the same material. Note that this is braunite II, as defined in de Villiers (1980)
Raman shift (cm-1)	intensity
148.6	0
151.493	3.48038
154.385	3.49584
157.278	3.55277
160.171	3.67224
163.063	3.25122
165.956	0.289043
168.849	1.0478
171.742	0.226683
174.634	1.2077
177.527	0.249539
180.42	0.297256
183.312	0.34863
186.205	0.110152
189.098	0.52219
191.99	0.636318
194.883	0.841134
197.776	0.743154
200.668	0.706791
203.561	0.824613
206.454	0.098156
209.347	0.414941
212.239	0.951823
215.132	0.440986
218.025	0.30927
220.917	0.479689
223.81	0.563458
226.703	1.88264
229.596	1.78049
232.488	4.32773
235.381	4.5767
238.274	6.06463
241.166	5.69413
244.059	4.211
246.952	3.944
249.845	2.80669
252.737	2.11804
255.63	0.716768
258.523	0.738713
261.415	0.878512
264.308	0.876481
267.201	1.13679
270.093	1.35279
272.986	1.21457
275.879	0.820503
278.772	0.079646
281.664	0.09032
284.557	0.172495
287.45	0.219854
290.342	0.306861
293.235	0.117451
296.128	0.931125
299.021	0.617649
301.913	0.0914
304.806	0.329599
307.699	0.499689
310.591	0.911907
313.484	1.37187
316.377	1.14295
319.269	2.27956
322.162	2.96787
325.055	3.2939
327.947	4.40815
330.84	4.32715
333.733	4.88331
336.626	5.4827
339.518	5.75616
342.411	5.61948
345.304	6.56601
348.196	6.10387
351.089	6.00423
353.982	5.63577
356.875	5.24394
359.767	4.34817
362.66	3.57688
365.553	4.11146
368.445	3.76241
371.338	3.53654
374.231	2.20742
377.123	1.63193
380.016	2.06676
382.909	1.1896
385.802	1.298
388.694	0.125688
391.587	0.633606
394.48	0.438684
397.372	9.1e-05
400.265	0.79653
403.158	0.050329
406.05	0.090367
408.943	0.160062
411.836	0.116528
414.729	0.566961
417.621	0.96871
420.514	0.560834
423.407	0.214286
426.299	0.870221
429.192	0.469818
432.085	0.755278
434.978	1.16682
437.87	0.908822
440.763	1.20904
443.656	1.18303
446.548	1.59535
449.441	2.29828
452.334	0.300851
455.226	0.503859
458.119	1.25175
461.012	0.49367
463.905	0.035781
466.797	0.313802
469.69	0.07371
472.583	0.219382
475.475	0.484167
478.368	0.857526
481.261	0.531074
484.154	1.06739
487.046	1.95834
489.939	1.32291
492.832	1.2451
495.724	1.32096
498.617	0.986446
501.51	1.96808
504.402	3.11364
507.295	3.71942
510.188	4.41929
513.081	4.58788
515.973	5.5463
518.866	5.73427
521.759	5.02245
524.651	3.2876
527.544	2.8896
530.437	2.358
533.33	1.08292
536.222	0.822667
539.115	0.958224
542.008	0.804067
544.9	0.218307
547.793	0.427421
550.686	0.042102
553.578	0.017233
556.471	0.420111
559.364	0.278102
562.256	0.070303
565.149	1.098
568.042	0.039058
570.935	1.37259
573.827	1.08858
576.72	0.852711
579.613	0.909263
582.505	0.054321
585.398	1.03682
588.291	0.160088
591.184	0.134804
594.076	0.330448
596.969	0.365109
599.862	0.155523
602.754	0.220506
605.647	0.022224
608.54	0.236755
611.433	0.251614
614.325	0.467086
617.218	0.211262
620.111	0.591405
623.003	0.994343
625.896	1.3252
628.789	1.58379
631.682	1.22074
634.574	1.84804
637.467	2.08987
640.36	1.07308
643.252	1.21954
646.145	1.25624
649.038	1.03363
651.93	1.76618
654.823	1.79537
657.716	1.7156
660.609	2.29069
663.501	1.57596
666.394	2.3607
669.287	2.13602
672.179	3.38961
675.072	4.64049
677.965	4.37092
680.857	6.10997
683.75	6.97178
686.643	8.74291
689.535	9.63776
692.428	11.9149
695.321	10.7023
698.214	10.3049
701.106	9.22577
703.999	6.86285
706.892	6.50731
709.784	5.10192
712.677	4.11107
715.57	2.6701
718.462	2.24683
721.355	2.32442
724.248	1.85413
727.141	0.574706
730.033	1.08805
732.926	0.905367
735.819	0.067108
738.712	0.803709
741.604	0.466854
744.497	0.221816
747.39	0.379964
750.282	0.011394
753.175	0.073927
756.068	0.595102
758.96	0.469646
761.853	0.27018
764.746	0.482991
767.639	0.019168
770.531	0.879037
773.424	0.116259
776.317	0.440031
779.209	0.894388
782.102	1.23592
784.995	1.15597
787.888	0.046384
790.78	0.918016
793.673	1.51752
796.566	0.857197
799.458	0.397395
802.351	0.772889
805.244	0.806392
808.136	0.537901
811.029	0.797943
813.922	0.474055
816.814	0.601469
819.707	1.33112
822.6	0.657631
825.493	0.567563
828.385	1.09708
831.278	1.38289
834.171	1.08154
837.063	1.70389
839.956	1.41076
842.849	1.77439
845.741	1.70981
848.634	1.95187
851.527	1.4798
854.42	2.18455
857.312	1.66804
860.205	1.20164
863.098	1.26075
865.99	1.00588
868.883	1.60712
871.776	1.42474
874.669	0.090058
877.561	0.24312
880.454	0.346118
883.347	0.179796
886.239	0.193241
889.132	0.564675
892.025	0.125959
894.918	0.241621
897.81	0.058151
900.703	0.157398
903.596	0.319291
906.488	0.294797
909.381	0.317474
912.274	0.350246
915.166	0.240511
918.059	1.16221
920.952	0.800429
923.845	1.16416
926.737	1.43142
929.63	1.71976
932.523	1.70242
935.415	1.16162
938.308	1.48831
941.201	1.54967
944.093	0.540994
946.986	1.56221
949.879	0.237043
952.771	0.129041
955.664	1.55926
958.557	0.112839
961.45	0.486147
964.342	0.874134
967.235	0.430753
970.128	0.26195
973.02	0.323237
975.913	1.81914
978.806	0.006815
981.699	0.130817
984.591	0.797864
987.484	1.25077
990.377	0.576222
993.269	0.688616
996.162	0.733961
999.055	0.903705
1001.95	1.21185
1004.84	0.975771
1007.73	1.07478
1010.63	0.866766
1013.52	1.15328
1016.41	1.02532
1019.3	0.329807
1022.2	0.990806
1025.09	1.27983
1027.98	1.73258
1030.88	1.09378
1033.77	0.803956
1036.66	0.712382
1039.55	1.22368
1042.44	1.31219
1045.34	0.244733
1048.23	0.475388
1051.12	0.189954
1054.02	0.577075
1056.91	0.80017
1059.8	0.842853
1062.69	1.03579
1065.59	1.46435
1068.48	0.020422
1071.37	0.988734
1074.27	0.215831
1077.16	0.256607
1080.05	1.11143
1082.94	0.575513
1085.84	0.791467
1088.73	1.0947
1091.62	0.664653
1094.51	1.11685
1097.41	1.02264
1100.3	0.238758
1103.19	0.495681
1106.09	0.9991
1108.98	0.830106
1111.87	0.104612
1114.76	0.052816
1117.66	1.111
1120.55	0.018753
1123.44	1.85686
1126.33	0.364181
1129.23	1.42171
1132.12	1.23065
1135.01	0.230221
1137.9	0.35018
1140.8	1.43189
1143.69	0.036722
1146.58	0.156089
1149.47	0.762628
1152.37	0.196646
1155.26	0.491813
1158.15	0.08561
1161.05	0.061288
1163.94	1.17963
1166.83	0.45386
1169.72	0.79968
1172.62	0.451323
1175.51	0.273663
1178.4	0.726572
1181.3	0.657814
1184.19	0.340878
1187.08	1.28598
1189.97	0.627919
1192.87	1.79512
1195.76	0.984819
1198.65	0.260505
1201.54	0.796862
1204.44	0.543029
1207.33	0.835832
1210.22	1.39943
1213.12	0.017969
1216.01	1.22393
1218.9	0.13659
1221.79	0.785599
1224.69	1.0189
1227.58	0.845465
1230.47	0.483922
1233.36	0.8413
1236.26	0.830896
1239.15	1.12844
1242.04	0.807519
1244.93	0.792679
1247.83	0.180602
1250.72	0.447186
1253.61	0.33642
1256.51	0.455097
1259.4	1.23218
1262.29	0.012642
1265.18	0.827528
1268.08	1.64501
1270.97	1.21494
1273.86	1.02336
1276.75	1.18995
1279.65	0.028357
1282.54	0.417244
1285.43	1.45465
1288.33	1.24794
1291.22	0.033883
1294.11	0.715056
1297	0.209813
1299.9	0.121455
