Measurement: Raman, 514 nm, unoriented, Raman Data Processed
Mineral: Braunite
Rruff sample: R050388
Ideal chemistry: Mn^2+^Mn^3+^_6_SiO_12_
Locality: Langban, Filipstad, Varmland, Sweden
Source: University of Arizona Mineral Museum
Description: Black crystals
Measured chemistry: (Mn^2+^_0.96_Mg_0.04_)_Î£=1_Mn^3+^_6.00_Si_1.00_O_12_
Raman shift (cm-1)	intensity
160.013	0
164.161	49.793
168.308	130.643
172.452	96.363
176.594	66.886
180.734	48.172
184.872	145.093
189.008	211.41
193.143	294.396
197.275	459.636
201.405	690.396
205.534	905.185
209.66	1042.58
213.784	759.793
217.907	784.541
222.027	512.801
226.146	370.404
230.263	319.093
234.377	228.107
238.49	165.225
242.601	83.232
246.709	80.762
250.816	66.705
254.921	262.968
259.024	31.462
263.125	30.593
267.224	43.313
271.321	51.37
275.416	66.107
279.51	43.327
283.601	9.987
287.69	46.441
291.778	5.299
295.863	78.795
299.947	6.026
304.029	50.169
308.108	30.848
312.186	50.852
316.262	48.718
320.336	65.033
324.408	153.84
328.478	420.24
332.546	730.716
336.612	761.036
340.677	488.114
344.739	273.905
348.799	153.381
352.858	128.507
356.915	131.271
360.969	107.361
365.022	92.751
369.073	94.572
373.122	119.736
377.169	165.496
381.215	159.793
385.258	86.832
389.299	63.631
393.339	60.127
397.376	57.193
401.412	67.514
405.446	50.7
409.478	9.091
413.508	15.378
417.536	30.495
421.562	67.954
425.586	44.251
429.609	99.382
433.629	92.461
437.648	50.11
441.665	71.575
445.68	51.524
449.693	43.723
453.704	84.156
457.713	162.651
461.721	291.077
465.726	427.09
469.73	665.83
473.731	862.308
477.731	864.047
481.729	744.132
485.725	535.923
489.72	415.028
493.712	363.097
497.703	398.109
501.691	451.082
505.678	626.592
509.663	867.879
513.646	1101.71
517.627	1041.54
521.607	772.275
525.584	501.797
529.56	313.292
533.534	236.025
537.506	171.737
541.476	90.434
545.444	31.932
549.41	64.989
553.375	59.108
557.337	54.013
561.298	45.213
565.257	83.385
569.214	122.229
573.17	193.144
577.123	207.376
581.075	166.347
585.024	155.868
588.972	150.618
592.918	202.539
596.863	251.196
600.805	318.761
604.746	464.101
608.685	674.343
612.621	972.542
616.557	1248.67
620.49	1352.94
624.421	1272.28
628.351	942.519
632.279	717.401
636.205	458.903
640.129	337.274
644.051	239.447
647.972	196.844
651.89	206.84
655.807	190.033
659.722	196.902
663.636	123.67
667.547	85.991
671.457	161.845
675.365	148.159
679.271	187.631
683.175	245.101
687.077	297.873
690.978	345.052
694.877	254.83
698.774	262.95
702.669	228.802
706.562	149.075
710.454	89.189
714.344	101.988
718.232	49.742
722.118	27.593
726.002	43.332
729.885	22.832
733.766	45.283
737.645	41.584
741.522	46.034
745.397	24.587
749.271	9.535
753.143	4.865
757.013	17.697
760.881	18.861
764.748	15.501
768.613	6.313
772.476	43.057
776.337	0.316
780.196	5.177
784.054	11.581
787.91	6.106
791.764	35.894
795.616	4.16
799.467	20.938
803.316	5.772
807.163	0.638
811.008	6.158
814.851	14.19
818.693	6.556
822.533	0.408
826.371	40.387
830.208	23.458
834.042	13.781
837.875	17.149
841.706	12.357
845.536	15.765
849.363	33.08
853.189	28.308
857.013	37.458
860.836	37.533
864.656	36.532
868.475	34.458
872.292	41.314
876.108	50.916
879.922	54.329
883.733	67.759
887.544	50.16
891.352	57.121
895.159	47.266
898.964	59.509
902.767	95.26
906.568	53.881
910.368	73.685
914.166	116.591
917.962	124.275
921.757	110.027
925.55	130.04
929.341	139.507
933.13	151.705
936.918	193.125
940.703	236.585
944.488	261.547
948.27	243.622
952.051	231.046
955.83	193.075
959.607	195.777
963.383	164.078
967.156	158.61
970.928	126.942
974.699	137.674
978.468	127.919
982.234	115.979
986	153.868
989.763	156.699
993.525	165.688
997.285	155.902
1001.04	178.53
1004.8	209.661
1008.55	195.833
1012.31	164.144
1016.06	134.185
1019.81	146.641
1023.56	158.978
1027.31	135.4
1031.05	190.748
1034.79	161.238
1038.53	167.663
1042.27	174.277
1046.01	177.995
1049.75	182.723
1053.48	174.118
1057.22	182.12
1060.95	171.755
1064.68	203.253
1068.4	177.503
1072.13	158.692
1075.86	184.831
1079.58	199.572
1083.3	185.437
1087.02	251.819
1090.74	236.321
1094.45	156.929
1098.17	131.426
1101.88	137.804
1105.59	115.488
1109.3	132.34
1113.01	77.746
1116.71	77.333
1120.42	43.318
1124.12	128.657
1127.82	68.001
1131.52	93.226
1135.22	57.963
1138.91	81.404
1142.61	95.973
1146.3	61.954
1149.99	49.276
1153.68	50.122
1157.37	33.392
1161.06	36.349
1164.74	21.538
1168.42	53.726
1172.1	4.31
1175.78	34.979
1179.46	25.367
1183.14	45.951
1186.81	30.167
1190.48	17.955
1194.15	1.281
1197.83	2.599
1201.49	16.432
1205.16	33.382
1208.82	22.25
1212.49	60.575
1216.15	11.755
1219.81	24.101
1223.46	19.12
1227.12	30.298
1230.78	42.137
1234.43	33.934
1238.08	19.138
1241.73	3.249
1245.38	50.904
1249.03	4.18
1252.67	8.948
1256.31	46.599
1259.95	38.114
1263.6	27.518
1267.23	16.815
1270.87	6.988
1274.51	6.088
1278.14	2.857
1281.77	8.182
1285.4	1.501
1289.03	7.113
1292.66	5.626
1296.28	1.966
1299.91	41.333
1303.53	53.844
1307.15	13.413
1310.77	18.302
1314.38	32.196
1318	14.323
1321.61	20.498
1325.23	97.78
1328.84	32.28
1332.45	88.864
1336.06	76.596
1339.66	89.806
1343.27	89.552
1346.87	158.847
1350.47	107.78
1354.07	78.571
1357.67	115.452
1361.26	104.96
1364.86	66.87
1368.45	111.293
1372.04	115.628
1375.63	98.04
1379.22	166.678
1382.81	194.159
1386.39	170.556
1389.98	166.888
1393.56	117.427
1397.14	110.852
1400.72	170.822
1404.3	179.353
1407.87	182.143
1411.45	112.94
1415.02	102.409
1418.59	127.865
1422.16	131.672
1425.73	117.061
1429.29	82.342
1432.86	77.516
1436.42	76.598
1439.98	122.399
1443.54	52.029
1447.1	125.619
1450.66	87.504
1454.21	63.618
1457.77	64.898
1461.32	82.466
1464.87	109.07
1468.42	78.725
1471.96	42.521
1475.51	80.601
1479.06	1.58
1482.6	57.843
1486.14	27.76
1489.68	53.137
1493.22	32.818
1496.75	0.275
1500.29	0
