Measurement: Raman, 532 nm, unoriented, Raman Data Processed
Mineral: Brazilianite
Rruff sample: R050504
Ideal chemistry: NaAl_3_(PO_4_)_2_(OH)_4_
Locality: CÃ³rrego Frio, Minas Gerais, Brazil
Source: Marcus Origlieri
Description: Yellowish green fragment
Measured chemistry: Na_1.00_Al_3.00_(P_1.00_O_4_)_2_(OH)_4_
Raman shift (cm-1)	intensity
144.523	0
147.898	4.50415
151.272	5.16565
154.647	25.8174
158.022	39.1103
161.397	60.3734
164.772	61.6274
168.147	103.514
171.521	175.308
174.896	118.049
178.271	47.2082
181.646	27.7665
185.021	22.6105
188.395	20.2228
191.77	19.131
195.145	16.0538
198.52	14.8278
201.895	13.1373
205.269	12.3335
208.644	9.32996
212.019	7.59204
215.394	10.8176
218.769	14.1583
222.143	12.1846
225.518	6.63464
228.893	10.6013
232.268	4.23144
235.643	0.64978
239.018	4.31213
242.392	14.2357
245.767	14.3788
249.142	21.7882
252.517	50.7982
255.892	24.9319
259.267	5.52954
262.641	7.43262
266.016	6.71729
269.391	6.8446
272.766	14.1653
276.141	15.3649
279.515	12.0249
282.89	13.8509
286.265	0.878052
289.64	4.19824
293.015	6.38599
296.389	2.53003
299.764	0.688599
303.139	0.323608
306.514	7.6106
309.889	13.1013
313.264	18.1534
316.638	13.0975
320.013	12.8917
323.388	12.0028
326.763	13.1515
330.138	12.499
333.512	6.3971
336.887	11.2021
340.262	11.7084
343.637	15.8171
347.012	26.1516
350.387	27.7866
353.761	36.6113
357.136	41.7507
360.511	32.0667
363.886	14.1179
367.261	1.83789
370.635	2.12122
374.01	4.53979
377.385	8.71497
380.76	1.19238
384.135	2.3905
387.51	12.4181
390.884	12.4283
394.259	15.3227
397.634	9.79895
401.009	15.6935
404.384	19.334
407.759	24.9811
411.133	33.7332
414.508	40.8073
417.883	31.9485
421.258	22.3243
424.632	33.8436
428.007	31.6759
431.382	41.8716
434.757	48.3776
438.132	62.6565
441.507	63.3749
444.881	42.3325
448.256	30.7379
451.631	33.0056
455.006	43.1381
458.381	47.6626
461.755	63.329
465.13	64.9744
468.505	59.1439
471.88	37.7323
475.255	8.33374
478.63	1.73267
482.004	6.72571
485.379	0.115967
488.754	1.07959
492.129	7.19299
495.504	11.2676
498.878	21.8234
502.253	27.0204
505.628	25.863
509.003	25.9299
512.378	32.7386
515.753	36.1704
519.127	34.0955
522.502	38.7933
525.877	45.6405
529.252	62.2502
532.627	62.9353
536.001	61.2761
539.376	51.8534
542.751	49.4895
546.126	48.728
549.501	56.7816
552.876	75.7405
556.25	102.745
559.625	126.687
563	125.466
566.375	114.314
569.75	81.9819
573.125	45.8368
576.499	22.6051
579.874	6.39221
583.249	14.6687
586.624	20.1602
589.999	23.2094
593.373	43.0834
596.748	52.3867
600.123	68.7917
603.498	48.5878
606.873	35.6995
610.247	33.3569
613.622	32.7728
616.997	18.9457
620.372	1.1825
623.747	3.58276
627.121	0.187744
630.496	9.53235
633.871	14.9911
637.246	35.3605
640.621	29.4739
643.996	10.6217
647.37	1.6571
650.745	0.831787
654.12	5.08362
657.495	11.1041
660.87	6.46326
664.245	21.8274
667.619	13.3466
670.994	15.9215
674.369	5.24512
677.744	12.038
681.119	13.7658
684.493	5.98242
687.868	0.574951
691.243	6.55566
694.618	1.65076
697.993	1.30725
701.367	0.237061
704.742	1.55408
708.117	11.3184
711.492	9.00061
714.867	11.9138
718.242	17.5227
721.616	17.2432
724.991	11.8909
728.366	16.5989
731.741	11.7759
735.116	15.949
738.49	21.0828
741.865	17.7517
745.24	11.8521
748.615	1.77588
751.99	4.7439
755.365	4.1814
758.739	9.00879
762.114	8.60156
765.489	5.67188
768.864	3.19604
772.239	2.26685
775.614	7.05176
778.988	21.5513
782.363	7.98193
785.738	0.037842
789.113	6.17676
792.487	11.5737
795.862	15.3381
799.237	13.3308
802.612	19.8867
805.987	21.0579
809.362	29.1694
812.736	23.3713
816.111	27.8552
819.486	34.6082
822.861	33.1257
826.236	26.6291
829.611	25.8508
832.985	29.1284
836.36	35.9504
839.735	32.4241
843.11	36.0915
846.485	29.575
849.859	17.3794
853.234	18.2463
856.609	22.1436
859.984	18.7505
863.359	12.4465
866.734	15.147
870.108	10.4502
873.483	8.44971
876.858	11.1065
880.233	6.51953
883.608	1.28247
886.982	1.21826
890.357	5.37354
893.732	4.81372
897.107	2.2793
900.482	0.274414
903.856	2.99243
907.231	4.82471
910.606	4.97827
913.981	11.4338
917.356	4.77148
920.731	5.85913
924.105	3.02685
927.48	2.02026
930.855	5.91724
934.23	1.92139
937.605	1.93579
940.98	2.87842
944.354	5.80347
947.729	3.82495
951.104	2.45166
954.479	12.7639
957.854	11.179
961.228	21.7839
964.603	28.0427
967.978	44.9651
971.353	72.5884
974.728	69.7676
978.102	64.0376
981.477	58.9441
984.852	64.3525
988.227	60.5554
991.602	52.73
994.977	23.6948
998.351	22.8198
1001.73	27.512
1005.1	41.1174
1008.48	85.1052
1011.85	143.099
1015.23	202.441
1018.6	248.734
1021.98	238.331
1025.35	192.741
1028.72	157.891
1032.1	115.854
1035.47	116.954
1038.85	112.535
1042.22	92.5083
1045.6	67.1519
1048.97	48.76
1052.35	27.2339
1055.72	15.4712
1059.1	15.2881
1062.47	21.4795
1065.85	19.2336
1069.22	23.9961
1072.6	20.1802
1075.97	25.0125
1079.35	14.6421
1082.72	4.46631
1086.1	5.56055
1089.47	2.41235
1092.85	7.1709
1096.22	0.531006
1099.6	11.0815
1102.97	17.3152
1106.35	24.0586
1109.72	36.5635
1113.1	68.3977
1116.47	67.4202
1119.85	49.0371
1123.22	35.3545
1126.59	16.0007
1129.97	10.72
1133.34	10.271
1136.72	19.5691
1140.09	10.1135
1143.47	7.26685
1146.84	13.761
1150.22	3.71167
1153.59	2.65552
1156.97	7.30249
1160.34	6.00708
1163.72	10.0266
1167.09	5.37573
1170.47	0.497559
1173.84	5.29077
1177.22	9.99927
1180.59	17.9814
1183.97	17.6748
1187.34	18.272
1190.72	10.8962
1194.09	0.348877
1197.47	6.96387
1200.84	6.51856
1204.21	9.69946
1207.59	1.9812
1210.96	1.68726
1214.34	24.4009
1217.71	32.0217
1221.09	23.3218
1224.46	21.6663
1227.84	33.1377
1231.21	22.4565
1234.59	19.8438
1237.96	12.8496
1241.34	14.665
1244.71	10.51
1248.09	20.1704
1251.46	18.511
1254.84	15.1672
1258.21	8.72339
1261.59	7.83594
1264.96	7.96509
1268.34	1.8418
1271.71	1.60815
1275.09	9.52246
1278.46	19.6516
1281.84	12.3208
1285.21	17.2495
1288.59	18.0664
1291.96	16.3699
1295.34	8.38062
1298.71	16
1302.09	2.63867
