Measurement: Raman, 780 nm, unoriented, Raman Data Processed
Mineral: Brazilianite
Rruff sample: R050504
Ideal chemistry: NaAl_3_(PO_4_)_2_(OH)_4_
Locality: CÃ³rrego Frio, Minas Gerais, Brazil
Source: Marcus Origlieri
Description: Yellowish green fragment
Measured chemistry: Na_1.00_Al_3.00_(P_1.00_O_4_)_2_(OH)_4_
Raman shift (cm-1)	intensity
138.62	0
141.513	0.275757
144.405	8.31268
147.298	2.84323
150.191	1.37561
153.084	5.43878
155.976	5.35126
158.869	7.00061
161.762	15.2608
164.654	22.5476
167.547	33.2938
170.44	61.7991
173.333	77.1411
176.225	28.6744
179.118	8.35135
182.011	0.120911
184.903	0.032166
187.796	0.466858
190.689	2.19367
193.581	1.49393
196.474	0.618927
199.367	4.4411
202.26	5.74362
205.152	11.7071
208.045	10.7945
210.938	11.3842
213.83	10.4782
216.723	15.072
219.616	16.587
222.508	16.9409
225.401	15.6443
228.294	16.1364
231.186	17.9193
234.079	17.4198
236.972	15.8276
239.865	18.3732
242.757	20.8653
245.65	19.0995
248.543	14.8229
251.435	19.2072
254.328	18.0785
257.221	3.27954
260.114	0.462067
263.006	0.384064
265.899	4.22107
268.792	5.1366
271.684	5.37485
274.577	4.798
277.47	9.32172
280.363	13.2603
283.255	14.0215
286.148	10.1271
289.041	4.64743
291.933	0.003967
294.826	0.479645
297.719	2.67929
300.611	2.22073
303.504	4.18344
306.397	7.2821
309.289	19.7267
312.182	24.2349
315.075	23.9642
317.968	24.2005
320.86	24.597
323.753	21.2356
326.646	16.6455
329.538	14.4869
332.431	13.41
335.324	14.4698
338.216	13.5996
341.109	19.6965
344.002	18.8974
346.895	26.6721
349.787	33.21
352.68	43.4654
355.573	56.7549
358.465	64.2235
361.358	45.7594
364.251	23.3746
367.144	13.8077
370.036	5.25238
372.929	2.2272
375.822	1.90848
378.714	0.304047
381.607	0.647064
384.5	3.37634
387.392	4.26544
390.285	7.84821
393.178	10.1809
396.071	11.2773
398.963	14.252
401.856	16.6462
404.749	21.9796
407.641	24.2109
410.534	28.9935
413.427	32.419
416.32	23.8269
419.212	22.4408
422.105	23.752
424.998	24.8278
427.89	21.9967
430.783	18.2883
433.676	16.8842
436.568	17.0985
439.461	17.3793
442.354	14.3276
445.247	5.99304
448.139	2.13266
451.032	3.04333
453.925	3.43982
456.817	4.40991
459.71	3.59576
462.603	3.60608
465.495	6.33533
468.388	5.23196
471.281	5.59879
474.173	0.387207
477.066	3.72397
479.959	1.64606
482.852	0.36203
485.744	1.61914
488.637	4.22174
491.53	5.38199
494.422	12.2439
497.315	16.7978
500.208	22.5164
503.101	24.3041
505.993	26.8828
508.886	26.5106
511.779	29.2166
514.671	32.6054
517.564	36.3156
520.457	41.5194
523.349	48.9944
526.242	51.6047
529.135	59.1284
532.028	61.4398
534.92	57.0888
537.813	49.3609
540.706	39.1862
543.598	34.5799
546.491	33.6074
549.384	40.9473
552.276	53.0089
555.169	65.6093
558.062	74.5582
560.955	75.8714
563.847	69.8202
566.74	65.5676
569.633	47.938
572.525	33.8258
575.418	22.566
578.311	16.3565
581.203	16.8392
584.096	29.1491
586.989	38.8354
589.882	53.0359
592.774	68.9197
595.667	91.3976
598.56	97.9923
601.452	80.0496
604.345	47.9186
607.238	24.7989
610.13	11.7966
613.023	2.65387
615.916	1.42905
618.809	1.46161
621.701	2.56409
624.594	0.156982
627.487	1.19369
630.379	1.13623
633.272	8.56723
636.165	18.6256
639.058	34.351
641.95	29.6584
644.843	16.032
647.736	14.8691
650.628	16.0463
653.521	20.6089
656.414	17.9879
659.306	18.8991
662.199	19.8822
665.092	16.9633
667.985	15.9757
670.877	13.5293
673.77	9.19665
676.663	6.15253
679.555	2.86937
682.448	2.78345
685.341	4.43152
688.233	0.688995
691.126	0.479263
694.019	0.371613
696.912	0.073486
699.804	0.294479
702.697	1.55072
705.59	0.389191
708.482	1.13687
711.375	0.231461
714.268	2.09749
717.16	0.511169
720.053	0.927597
722.946	4.57787
725.839	4.83099
728.731	7.78095
731.624	7.4436
734.517	11.5648
737.409	12.3993
740.302	7.08588
743.195	5.11208
746.087	1.38223
748.98	3.57362
751.873	4.55754
754.766	4.96385
757.658	4.26007
760.551	3.64011
763.444	3.45918
766.336	3.0674
769.229	1.0622
772.122	2.33928
775.014	1.63602
777.907	0.991638
780.8	1.34497
783.693	0.675964
786.585	1.2798
789.478	1.97008
792.371	2.06912
795.263	6.36822
798.156	9.50157
801.049	15.2931
803.942	20.4381
806.834	26.1164
809.727	31.1544
812.62	30.0092
815.512	31.4113
818.405	36.6217
821.298	42.6462
824.19	46.0297
827.083	39.3119
829.976	36.9916
832.869	38.9376
835.761	39.5667
838.654	41.4913
841.547	38.2909
844.439	35.2228
847.332	30.8882
850.225	22.362
853.117	21.0295
856.01	16.3125
858.903	15.3056
861.795	15.0561
864.688	12.0948
867.581	11.3082
870.474	9.98569
873.366	9.64305
876.259	5.9324
879.152	5.14593
882.044	4.15012
884.937	4.59164
887.83	1.84311
890.722	1.1421
893.615	1.44627
896.508	0.198288
899.401	0.542007
902.293	3.41293
905.186	1.69466
908.079	0.50737
910.971	0.11879
913.864	2.46191
916.757	3.94463
919.65	3.62737
922.542	0.042252
925.435	0.609436
928.328	0.510147
931.22	2.58049
934.113	3.91003
937.006	7.00725
939.899	6.32149
942.791	6.62132
945.684	6.59987
948.577	8.6765
951.469	9.58022
954.362	9.77757
957.255	11.3551
960.147	14.1856
963.04	17.4095
965.933	22.9127
968.826	30.1331
971.718	41.2104
974.611	44.8864
977.504	45.5425
980.396	51.0405
983.289	55.989
986.182	65.2697
989.074	64.454
991.967	47.6525
994.86	28.4142
997.753	16.3905
1000.64	14.3548
1003.54	17.826
1006.43	24.1474
1009.32	37.9758
1012.22	52.3845
1015.11	71.5785
1018	83.006
1020.89	82.2498
1023.79	65.6979
1026.68	51.0103
1029.57	42.2363
1032.46	34.1746
1035.36	31.4439
1038.25	29.1505
1041.14	28.0044
1044.04	18.6876
1046.93	8.44539
1049.82	0.028488
1052.71	2.82364
1055.61	2.03737
1058.5	0.104675
1061.39	2.05931
1064.29	5.22694
1067.18	10.5577
1070.07	12.9042
1072.96	12.9983
1075.86	15.3726
1078.75	12.6193
1081.64	15.6438
1084.53	12.1984
1087.43	12.0651
1090.32	9.84611
1093.21	3.50835
1096.1	6.01865
1099	5.02782
1101.89	11.7434
1104.78	19.5627
1107.67	31.3405
1110.57	47.6567
1113.46	64.4292
1116.35	63.3542
1119.25	43.7452
1122.14	28.4265
1125.03	16.4551
1127.92	6.15135
1130.82	3.69449
1133.71	0.013351
1136.6	0.570862
1139.49	1.47775
1142.39	0.805466
1145.28	2.17487
1148.17	3.44705
1151.07	3.20195
1153.96	2.35297
1156.85	2.97325
1159.74	0.941025
1162.64	2.32489
1165.53	1.83495
1168.42	2.72635
1171.32	2.03487
1174.21	0.680817
1177.1	7.01903
1179.99	9.74232
1182.88	18.0701
1185.78	24.6555
1188.67	25.7569
1191.56	15.7374
1194.46	6.63676
1197.35	2.66626
1200.24	1.13858
1203.13	0.551086
1206.03	0.889343
1208.92	2.77557
1211.81	7.5806
1214.7	8.9225
1217.6	9.85966
1220.49	13.6373
1223.38	17.4856
1226.28	18.331
1229.17	18.7106
1232.06	18.0448
1234.95	17.4823
1237.85	14.3922
1240.74	11.8616
1243.63	12.4946
1246.53	12.0676
1249.42	10.4705
1252.31	9.63475
1255.2	8.95519
1258.1	9.6037
1260.99	6.02951
1263.88	3.63838
1266.77	3.92839
1269.67	1.97441
1272.56	1.19679
1275.45	2.41611
1278.35	1.89918
1281.24	1.9083
1284.13	0.402008
1287.02	0
