Measurement: Raman, 785 nm, unoriented, Raman Data Processed
Mineral: Breithauptite
Rruff sample: R060928
Ideal chemistry: NiSb
Locality: Cobalt, Ontario, Canada
Source: Royal Ontario Museum
Description: Massive aggregate of pinkish metallic crystals
Measured chemistry: Ni_1.00_(Sb_0.96_As_0.04_)_Î£=1_
Raman shift (cm-1)	intensity
89.2256	0
92.6004	20.8879
95.9752	23.144
99.35	33.9276
102.725	29.6925
106.1	38.8781
109.475	38.9551
112.849	80.0984
116.224	89.2766
119.599	84.9161
122.974	199.371
126.349	546.221
129.723	776.751
133.098	661.631
136.473	299.259
139.848	291.767
143.223	401.176
146.597	489.145
149.972	409.135
153.347	286.237
156.722	252.281
160.097	312.077
163.472	282.566
166.846	234.881
170.221	193.155
173.596	123.803
176.971	82.9261
180.346	98.5454
183.72	88.6078
187.095	39.4364
190.47	73.136
193.845	30.8419
197.22	58.9796
200.595	30.0775
203.969	29.5463
207.344	13.3594
210.719	12.1517
214.094	65.0434
217.469	32.1804
220.844	25.8784
224.218	28.2342
227.593	3.46684
230.968	8.55905
234.343	38.2317
237.718	7.0394
241.092	20.3779
244.467	7.62561
247.842	14.5962
251.217	19.8209
254.592	20.9764
257.966	42.0471
261.341	43.6296
264.716	35.667
268.091	10.596
271.466	40.6429
274.841	23.6611
278.215	31.9922
281.59	30.242
284.965	13.3413
288.34	18.2715
291.715	35.4322
295.089	21.928
298.464	18.9921
301.839	8.62373
305.214	32.7488
308.589	13.3408
311.964	32.5799
315.338	37.5262
318.713	40.2904
322.088	4.32779
325.463	30.1121
328.838	49.7494
332.212	21.6452
335.587	40.7535
338.962	27.0907
342.337	60.0391
345.712	44.623
349.087	32.7638
352.461	14.4124
355.836	47.7124
359.211	46.4832
362.586	51.0462
365.961	28.6936
369.335	21.3888
372.71	31.6606
376.085	44.3948
379.46	33.9678
382.835	15.0891
386.209	14.1836
389.584	44.8347
392.959	44.4674
396.334	3.02142
399.709	59.2806
403.084	9.53812
406.458	27.2199
409.833	48.346
413.208	10.7747
416.583	3.79358
419.958	4.40008
423.332	54.8301
426.707	31.0721
430.082	17.0086
433.457	29.7834
436.832	36.4582
440.207	11.3036
443.581	19.1143
446.956	37.9335
450.331	35.3996
453.706	13.6093
457.081	61.4606
460.455	18.043
463.83	22.8946
467.205	23.9765
470.58	30.1609
473.955	31.22
477.33	33.9806
480.704	26.2227
484.079	37.6486
487.454	43.5191
490.829	40.6071
494.204	47.5874
497.579	27.4217
500.953	47.289
504.328	43.279
507.703	2.10695
511.078	19.0615
514.453	49.1634
517.827	34.6255
521.202	32.8924
524.577	20.4667
527.952	47.2996
531.327	6.1709
534.702	21.1395
538.076	27.447
541.451	40.7816
544.826	26.3351
548.201	31.0789
551.576	23.1247
554.95	21.839
558.325	31.9512
561.7	62.2363
565.075	27.2344
568.45	7.34071
571.824	34.2743
575.199	10.1402
578.574	9.95221
581.949	27.1427
585.324	0.497604
588.699	20.5417
592.073	29.6241
595.448	58.3413
598.823	41.1292
602.198	63.8166
605.573	22.6493
608.947	36.3393
612.322	11.7441
615.697	8.49078
619.072	31.5999
622.447	30.3681
625.822	25.1769
629.196	41.167
632.571	40.4984
635.946	20.2783
639.321	34.2583
642.696	23.0778
646.071	28.9658
649.445	60.1034
652.82	29.4441
656.195	48.2925
659.57	21.6149
662.945	8.48048
666.319	21.6264
669.694	27.5986
673.069	28.8632
676.444	78.8828
679.819	37.5255
683.193	13.1541
686.568	59.686
689.943	33.9734
693.318	35.7549
696.693	57.0011
700.068	29.649
703.442	52.8984
706.817	62.8529
710.192	22.2829
713.567	30.2433
716.942	55.8866
720.317	31.0392
723.691	38.6146
727.066	9.7627
730.441	42.8415
733.816	1.43964
737.191	25.6794
740.565	9.48653
743.94	42.3365
747.315	39.5661
750.69	42.406
754.065	26.358
757.439	30.7288
760.814	60.499
764.189	23.383
767.564	20.4211
770.939	45.0126
774.313	23.6939
777.688	12.8209
781.063	16.9643
784.438	47.8593
787.813	18.061
791.188	47.6826
794.562	4.88603
797.937	9.82846
801.312	56.5108
804.687	12.3861
808.062	37.9246
811.437	33.1807
814.811	34.3623
818.186	21.9316
821.561	41.0429
824.936	19.7706
828.311	15.1104
831.685	37.6911
835.06	35.7375
838.435	22.6883
841.81	20.5973
845.185	54.7546
848.559	18.802
851.934	50.1263
855.309	47.5127
858.684	9.52943
862.059	6.81724
865.434	26.3585
868.808	12.4271
872.183	15.7555
875.558	50.8719
878.933	95.2977
882.308	35.1557
885.683	13.068
889.057	29.8385
892.432	89.4361
895.807	58.0041
899.182	21.1417
902.557	29.6094
905.931	26.1463
909.306	31.3151
912.681	34.6146
916.056	29.2376
919.431	11.3555
922.806	37.8684
926.18	0.049881
929.555	31.8028
932.93	28.4296
936.305	42.5774
939.68	37.421
943.054	19.1691
946.429	35.5971
949.804	41.3699
953.179	40.8844
956.554	47.1581
959.928	20.7875
963.303	55.0281
966.678	23.6539
970.053	49.7116
973.428	42.7285
976.803	25.1556
980.177	53.4188
983.552	45.1881
986.927	38.8784
990.302	7.0419
993.677	0.355606
997.052	85.7869
1000.43	15.6862
1003.8	44.0806
1007.18	33.3307
1010.55	8.09032
1013.93	3.69658
1017.3	43.6526
1020.67	34.8175
1024.05	37.0052
1027.42	11.7291
1030.8	66.7245
1034.17	38.6608
1037.55	81.7417
1040.92	26.5375
1044.3	71.278
1047.67	5.73438
1051.05	1.62541
1054.42	45.9112
1057.8	63.8263
1061.17	26.6914
1064.55	75.1589
1067.92	20.8906
1071.3	28.927
1074.67	35.5592
1078.05	61.3633
1081.42	46.6247
1084.8	30.4272
1088.17	19.4846
1091.55	46.425
1094.92	53.9844
1098.3	8.19005
1101.67	22.9441
1105.05	7.10504
1108.42	45.1785
1111.8	62.4982
1115.17	54.4071
1118.55	37.0204
1121.92	82.2725
1125.3	51.9738
1128.67	31.4345
1132.04	67.9952
1135.42	20.346
1138.79	61.5754
1142.17	11.7093
1145.54	37.3638
1148.92	8.62228
1152.29	53.526
1155.67	42.9193
1159.04	35.1336
1162.42	28.9381
1165.79	32.1288
1169.17	57.508
1172.54	45.868
1175.92	74.8375
1179.29	33.3731
1182.67	20.7655
1186.04	72.4793
1189.42	59.4138
1192.79	60.6541
1196.17	68.3694
1199.54	55.6287
1202.91	36.9811
1206.29	33.687
1209.66	42.3608
1213.04	33.4959
1216.41	6.49828
1219.79	73.816
1223.16	10.3957
1226.54	30.1137
1229.91	65.2588
1233.29	49.6216
1236.66	35.9038
1240.04	52.0066
1243.41	71.7971
1246.79	73.1561
1250.16	59.4858
1253.54	18.1296
1256.91	33.3332
1260.29	34.7976
1263.66	25.2343
1267.04	9.8163
1270.41	30.1261
