Measurement: Raman, 532 nm, unoriented, Raman Data Processed
Mineral: Breithauptite
Rruff sample: R060928
Ideal chemistry: NiSb
Locality: Cobalt, Ontario, Canada
Source: Royal Ontario Museum
Description: Massive aggregate of pinkish metallic crystals
Measured chemistry: Ni_1.00_(Sb_0.96_As_0.04_)_Î£=1_
Raman shift (cm-1)	intensity
87.7749	0
91.1497	7.18068
94.5245	37.8219
97.8993	16.4009
101.274	38.4175
104.649	3.85507
108.024	19.6725
111.399	22.0972
114.773	42.2572
118.148	47.3032
121.523	73.2451
124.898	120.165
128.273	117.825
131.648	146.391
135.022	121.078
138.397	124.657
141.772	128.76
145.147	112.576
148.522	118.724
151.896	90.3754
155.271	121.463
158.646	90.6937
162.021	113.316
165.396	95.7589
168.77	82.4562
172.145	76.3556
175.52	58.1477
178.895	59.4932
182.27	53.7198
185.644	59.3805
189.019	66.2609
192.394	48.9032
195.769	45.9383
199.144	25.6497
202.519	38.9881
205.893	17.7457
209.268	68.0202
212.643	12.6191
216.018	49.2875
219.393	74.2621
222.767	49.2634
226.142	12.9307
229.517	16.8182
232.892	21.5029
236.267	33.2112
239.642	13.0138
243.016	1.65964
246.391	43.7717
249.766	8.54016
253.141	4.86534
256.516	36.3984
259.89	12.6808
263.265	0.111649
266.64	22.3452
270.015	21.5521
273.39	12.7551
276.764	33.9644
280.139	28.4993
283.514	10.2242
286.889	10.1526
290.264	25.9318
293.639	17.3743
297.013	20.3179
300.388	24.6078
303.763	24.7809
307.138	21.9237
310.513	15.5741
313.887	13.3344
317.262	38.8619
320.637	22.7721
324.012	37.2164
327.387	48.7276
330.762	36.7576
334.136	20.8268
337.511	54.7246
340.886	31.6672
344.261	32.0253
347.635	24.4909
351.01	21.4511
354.385	19.6583
357.76	17.1871
361.135	18.656
364.51	24.8259
367.884	21.8977
371.259	30.7845
374.634	29.1452
378.009	24.9096
381.384	1.41586
384.759	39.6102
388.133	39.774
391.508	20.1299
394.883	34.491
398.258	46.5605
401.633	15.3685
405.007	13.8305
408.382	8.01237
411.757	19.5523
415.132	32.6132
418.507	7.54782
421.881	22.6665
425.256	34.2965
428.631	20.2666
432.006	50.1173
435.381	24.8855
438.755	32.579
442.13	19.1977
445.505	13.9989
448.88	13.072
452.255	51.8537
455.63	3.9742
459.004	2.31413
462.379	22.8156
465.754	49.3079
469.129	34.8443
472.504	13.4022
475.878	20.4195
479.253	2.54364
482.628	16.1012
486.003	11.0378
489.378	48.6747
492.752	27.6893
496.127	17.2131
499.502	24.4911
502.877	49.3681
506.252	24.0416
509.627	35.7025
513.001	18.6428
516.376	30.1833
519.751	22.6895
523.126	43.0888
526.501	25.445
529.875	26.337
533.25	31.9378
536.625	15.0761
540	15.8052
543.375	8.51363
546.75	25.3957
550.124	34.0627
553.499	37.7513
556.874	6.77123
560.249	13.085
563.624	5.47379
566.998	50.6213
570.373	4.77409
573.748	24.9174
577.123	23.8671
580.498	20.8118
583.872	50.3243
587.247	5.4417
590.622	38.3703
593.997	0.852509
597.372	1.49491
600.747	63.3346
604.121	32.034
607.496	37.5349
610.871	41.3356
614.246	17.5321
617.621	7.12521
620.995	11.2021
624.37	12.2109
627.745	21.069
631.12	33.851
634.495	21.9049
637.87	4.23507
641.244	41.7192
644.619	31.7669
647.994	35.5454
651.369	17.2426
654.744	26.3434
658.118	53.3927
661.493	41.0838
664.868	29.3397
668.243	25.1997
671.618	50.513
674.992	22.9426
678.367	22.9715
681.742	29.7113
685.117	30.1609
688.492	0.766434
691.866	31.8725
695.241	43.9533
698.616	18.2934
701.991	28.2681
705.366	25.8912
708.741	54.7305
712.115	15.7627
715.49	49.7656
718.865	23.6119
722.24	35.2574
725.615	22.8683
728.99	66.6045
732.364	36.4522
735.739	37.2866
739.114	29.2438
742.489	40.2611
745.864	11.7743
749.238	56.878
752.613	15.2576
755.988	14.3922
759.363	33.483
762.738	38.9723
766.112	51.4085
769.487	30.2938
772.862	46.58
776.237	8.5204
779.612	23.6287
782.986	24.945
786.361	16.0485
789.736	28.6971
793.111	15.6748
796.486	43.0167
799.861	37.8325
803.235	33.7353
806.61	1.09142
809.985	1.47903
813.36	25.2907
816.735	16.2621
820.109	13.1363
823.484	36.9543
826.859	28.0953
830.234	9.59923
833.609	37.6618
836.984	26.3536
840.358	13.3599
843.733	39.274
847.108	45.5203
850.483	10.6699
853.858	16.7749
857.232	35.8291
860.607	36.1105
863.982	31.6755
867.357	11.0935
870.732	64.7397
874.106	38.1188
877.481	15.6249
880.856	51.6283
884.231	33.7578
887.606	44.7257
890.981	5.74091
894.355	12.9235
897.73	14.1767
901.105	35.342
904.48	17.1442
907.855	36.5849
911.229	21.4707
914.604	36.8853
917.979	31.8074
921.354	42.4477
924.729	40.8549
928.104	9.62531
931.478	10.4249
934.853	16.0863
938.228	26.9984
941.603	12.7379
944.977	18.0609
948.352	38.0201
951.727	8.8322
955.102	13.1316
958.477	8.3925
961.852	33.555
965.226	13.0387
968.601	29.9469
971.976	36.7024
975.351	22.2156
978.726	13.9063
982.101	29.3847
985.475	37.6097
988.85	29.9471
992.225	2.74159
995.6	17.417
998.975	10.0666
1002.35	6.9745
1005.72	10.9902
1009.1	44.1973
1012.47	42.2796
1015.85	14.0486
1019.22	16.2462
1022.6	22.2438
1025.97	21.1891
1029.35	20.193
1032.72	16.3659
1036.1	31.8221
1039.47	19.7995
1042.85	43.9937
1046.22	35.7642
1049.6	46.5279
1052.97	40.7741
1056.35	49.0241
1059.72	58.4425
1063.1	22.7988
1066.47	24.141
1069.85	58.9284
1073.22	24.6842
1076.6	21.214
1079.97	24.0151
1083.35	27.4124
1086.72	48.8565
1090.09	49.2907
1093.47	17.5883
1096.84	30.459
1100.22	33.4536
1103.59	38.6453
1106.97	29.7215
1110.34	4.12784
1113.72	20.4342
1117.09	25.4784
1120.47	14.9196
1123.84	12.3784
1127.22	30.9549
1130.59	14.6409
1133.97	31.4589
1137.34	50.2768
1140.72	35.9762
1144.09	36.4831
1147.47	13.5561
1150.84	41.4406
1154.22	38.0193
1157.59	21.2328
1160.97	35.5705
1164.34	35.942
1167.71	27.216
1171.09	15.6516
1174.46	48.5351
1177.84	9.78218
1181.21	28.4983
1184.59	17.0744
1187.96	44.8415
1191.34	30.1044
1194.71	21.3907
1198.09	58.824
1201.46	55.6802
1204.84	55.7195
1208.21	22.9207
1211.59	22.0203
1214.96	40.8514
1218.34	47.6391
1221.71	43.995
1225.09	42.1233
1228.46	63.0232
1231.84	36.3868
1235.21	31.5525
1238.59	63.1118
1241.96	39.8877
1245.34	2.66756
1248.71	30.6287
1252.09	51.2705
1255.46	34.596
1258.84	45.0116
1262.21	3.84636
1265.59	4.30421
1268.96	36.9156
1272.33	23.3964
1275.71	28.1372
1279.08	51.4057
1282.46	36.2446
1285.83	24.9309
1289.21	46.1281
1292.58	32.6756
1295.96	5.35761
1299.33	2.01105
