Measurement: Raman, 780 nm, unoriented, Raman Data Processed
Mineral: Brianyoungite
Rruff sample: R060431
Ideal chemistry: Zn^2+^_3_CO_3_(OH)_4_
Locality: Brownley Hill mine, Nenthead, Cumbria, England
Source: Michael Scott
Description: Sprays of white bladed crystals, associated with colorless tabular or prismatic gypsum.
Measured chemistry: EDS analysis shows the presence of Zn, with trace S.
Raman shift (cm-1)	intensity
159.03	0
161.922	7.99292
164.815	7.74121
167.708	22.2783
170.6	30.2903
173.493	38.7773
176.386	16.1658
179.278	2.46558
182.171	5.60205
185.064	3.23999
187.957	3.12793
190.849	11.8545
193.742	29.1733
196.635	31.4507
199.527	42.7361
202.42	55.0178
205.313	62.3428
208.205	67.0352
211.098	76.0794
213.991	68.4648
216.884	72.7144
219.776	56.9053
222.669	49.6843
225.562	49.1323
228.454	32.8279
231.347	18.7046
234.24	21.3418
237.132	15.3496
240.025	17.1265
242.918	13.877
245.811	13.1438
248.703	11.0124
251.596	6.87134
254.489	10.6841
257.381	17.8574
260.274	17.5051
263.167	24.0261
266.059	25.1794
268.952	30.6704
271.845	30.7175
274.738	32.0298
277.63	35.4048
280.523	47.5923
283.416	41.3188
286.308	50.9995
289.201	59.7859
292.094	64.7634
294.986	45.8933
297.879	38.3999
300.772	24.7771
303.665	22.1008
306.557	8.4519
309.45	2.86157
312.343	0.032227
315.235	2.86841
318.128	3.11963
321.021	2.63403
323.913	2.85181
326.806	9.55396
329.699	19.6365
332.592	14.1055
335.484	22.6099
338.377	42.4077
341.27	33.9273
344.162	40.2966
347.055	39.425
349.948	29.1118
352.841	25.3423
355.733	32.8997
358.626	40.1389
361.519	49.7988
364.411	48.7966
367.304	45.8711
370.197	61.28
373.089	59.2432
375.982	57.0786
378.875	44.4062
381.767	35.5461
384.66	17.7717
387.553	13.0017
390.446	3.25269
393.338	0.745361
396.231	0.888184
399.124	6.91113
402.016	4.43481
404.909	1.01929
407.802	9.04712
410.695	11.8538
413.587	9.23901
416.48	17.2781
419.373	11.8259
422.265	17.3796
425.158	16.3081
428.051	20.4206
430.943	24.2146
433.836	10.5024
436.729	14.5903
439.622	14.7131
442.514	15.4521
445.407	13.3413
448.3	13.4075
451.192	11.0085
454.085	10.1719
456.978	5.1084
459.87	10.3757
462.763	12.3227
465.656	6.43872
468.548	14.4565
471.441	4.24023
474.334	5.50024
477.227	3.20557
480.119	6.24805
483.012	3.73242
485.905	4.35596
488.797	4.47339
491.69	9.49097
494.583	7.71851
497.476	7.06299
500.368	8.28955
503.261	3.15845
506.154	7.2666
509.046	9.73206
511.939	15.7897
514.832	11.8125
517.724	14.83
520.617	15.5575
523.51	8.34302
526.403	11.8048
529.295	3.46985
532.188	10.5746
535.081	7.13098
537.973	1.74561
540.866	11.9056
543.759	1.34619
546.651	1.87256
549.544	3.58374
552.437	1.83618
555.33	6.27637
558.222	5.34399
561.115	9.69482
564.008	3.57361
566.9	4.86292
569.793	8.36365
572.686	8.43469
575.578	12.5835
578.471	11.3636
581.364	11.5035
584.256	9.5321
587.149	17.7258
590.042	21.619
592.935	24.0998
595.827	17.3347
598.72	20.8069
601.613	21.4598
604.505	22.8275
607.398	23.7932
610.291	17.1206
613.183	18.7396
616.076	25.1314
618.969	13.3713
621.862	12.7498
624.754	17.9135
627.647	13.4239
630.54	18.0026
633.432	11.6043
636.325	16.6377
639.218	19.7159
642.111	11.1326
645.003	10.6184
647.896	6.84497
650.789	2.02368
653.681	5.27612
656.574	1.0105
659.467	8.60706
662.359	9.50061
665.252	1.00928
668.145	12.199
671.038	2.16907
673.93	4.07336
676.823	8.28931
679.716	10.1534
682.608	2.50891
685.501	7.16821
688.394	6.3905
691.286	8.18213
694.179	13.7086
697.072	17.1885
699.965	24.1191
702.857	23.8335
705.75	19.4225
708.643	23.2655
711.535	22.7994
714.428	21.9221
717.321	21.407
720.213	34.7443
723.106	39.0647
725.999	35.8718
728.891	38.5498
731.784	44.1298
734.677	36.9856
737.57	36.603
740.462	25.5572
743.355	19.1547
746.248	12.037
749.14	11.0088
752.033	8.77466
754.926	1.6908
757.818	5.90418
760.711	11.8721
763.604	3.60962
766.497	8.5033
769.389	5.36694
772.282	2.05542
775.175	1.63879
778.067	0.732422
780.96	3.41724
783.853	4.68091
786.745	5.78467
789.638	8.75403
792.531	6.3905
795.424	6.66028
798.316	8.64319
801.209	4.65576
804.102	0.368774
806.994	11.4736
809.887	3.0708
812.78	3.33582
815.673	8.97363
818.565	10.5598
821.458	14.0348
824.351	8.78662
827.243	9.08264
830.136	9.15723
833.029	6.56848
835.921	12.0267
838.814	10.1409
841.707	17.109
844.6	10.8785
847.492	14.9622
850.385	18.1653
853.278	15.7487
856.17	17.2363
859.063	11.8309
861.956	12.9028
864.848	11.3231
867.741	9.87036
870.634	8.20813
873.527	14.1457
876.419	12.3322
879.312	10.9388
882.205	10.8406
885.097	14.0328
887.99	8.97449
890.883	6.75513
893.775	9.76428
896.668	6.16138
899.561	10.7211
902.454	6.49194
905.346	0.367188
908.239	1.1709
911.132	3.17896
914.024	2.36926
916.917	5.52588
919.81	11.0111
922.702	4.83423
925.595	5.82715
928.488	0.520264
931.381	1.82861
934.273	7.36609
937.166	1.0874
940.059	1.33704
942.951	0.711182
945.844	3.62036
948.737	8.48791
951.63	4.59314
954.522	15.5049
957.415	28.2705
960.308	40.1669
963.2	42.9038
966.093	58.335
968.986	86.1263
971.878	107.29
974.771	102.639
977.664	88.978
980.557	79.631
983.449	67.496
986.342	40.7029
989.235	27.8203
992.127	16.2913
995.02	15.2809
997.913	9.32825
1000.8	2.12073
1003.7	4.68213
1006.59	4.14148
1009.48	2.76709
1012.38	1.69177
1015.27	9.24487
1018.16	4.0885
1021.05	6.37183
1023.95	5.0614
1026.84	10.5458
1029.73	13.1923
1032.62	17.1998
1035.52	19.2061
1038.41	30.7433
1041.3	32.2938
1044.2	46.1401
1047.09	60.3251
1049.98	74.7764
1052.87	92.2151
1055.77	98.2717
1058.66	71.5482
1061.55	45.2512
1064.44	31.6392
1067.34	23.9303
1070.23	30.749
1073.12	25.3334
1076.02	23.5458
1078.91	26.8763
1081.8	43.0951
1084.69	58.7782
1087.59	82.5187
1090.48	110.81
1093.37	147.895
1096.27	118.95
1099.16	61.5469
1102.05	28.7642
1104.94	15.0555
1107.84	8.08044
1110.73	10.6552
1113.62	4.71289
1116.51	0.624634
1119.41	4.17053
1122.3	3.65759
1125.19	7.13208
1128.08	3.76697
1130.98	1.39868
1133.87	1.61536
1136.76	8.54211
1139.65	2.328
1142.55	4.63257
1145.44	0.310791
1148.33	6.97937
1151.23	5.66052
1154.12	3.75159
1157.01	14.1162
1159.9	10.1415
1162.8	14.1223
1165.69	15.6201
1168.58	9.00134
1171.47	10.833
1174.37	16.2408
1177.26	9.31372
1180.15	6.46326
1183.05	6.08167
1185.94	5.80273
1188.83	8.06616
1191.72	13.5138
1194.62	6.67566
1197.51	8.2229
1200.4	4.31274
1203.29	5.91711
1206.19	2.7843
1209.08	4.78015
1211.97	10.2421
1214.87	9.47168
1217.76	3.99792
1220.65	4.70142
1223.54	1.47022
1226.44	2.98657
1229.33	3.10266
1232.22	8.9115
1235.11	2.85156
1238.01	0.697754
1240.9	7.89941
1243.79	2.97253
1246.68	5.48035
1249.58	0.155884
1252.47	2.50854
1255.36	7.7926
1258.26	3.69702
1261.15	10.754
1264.04	9.49023
1266.93	5.73608
1269.83	7.04163
1272.72	1.20581
1275.61	2.44727
1278.51	5.44714
1281.4	3.53088
1284.29	4.88452
