Measurement: Raman, 780 nm, unoriented, Raman Data Processed
Mineral: Brunogeierite
Rruff sample: R090012
Ideal chemistry: Fe^2+^_2_Ge^4+^O_4_
Locality: Tsumeb, Namibia
Source: William W. Pinch
Description: Sharp black octahedra with hematite plates and elongated Zn-rich siderite. Sample originally from John Innes, also the source of single crystal studied by Welch et al (2001)
Raman shift (cm-1)	intensity
110.697	0
114.072	4.96466
117.447	3.11835
120.822	5.1637
124.197	10.8758
127.572	8.35947
130.946	9.5242
134.321	9.47131
137.696	15.7747
141.071	12.7506
144.446	15.5676
147.82	21.2654
151.195	23.3094
154.57	18.2243
157.945	15.5944
161.32	12.3306
164.694	10.604
168.069	8.78427
171.444	2.37894
174.819	1.85254
178.194	0.662323
181.569	2.32147
184.943	1.87175
188.318	0.820908
191.693	1.01382
195.068	0.426651
198.443	2.49002
201.817	3.1089
205.192	4.18262
208.567	5.44086
211.942	2.8627
215.317	5.40913
218.691	5.99786
222.066	8.29518
225.441	8.33246
228.816	9.58896
232.191	9.94527
235.566	11.635
238.94	12.4686
242.315	9.66852
245.69	11.3294
249.065	10.2539
252.44	10.9479
255.815	9.02377
259.189	8.94008
262.564	10.5115
265.939	9.05716
269.314	5.91524
272.689	10.2846
276.063	9.63672
279.438	10.2407
282.813	7.79549
286.188	9.80559
289.563	10.2684
292.938	5.47752
296.312	6.32047
299.687	6.77019
303.062	3.33798
306.437	4.38573
309.812	2.80273
313.186	3.05605
316.561	3.28543
319.936	1.71657
323.311	1.82248
326.686	1.10867
330.06	0.819351
333.435	1.24132
336.81	0.959183
340.185	2.33311
343.56	0.213577
346.935	1.4174
350.309	0.33873
353.684	0.012543
357.059	0.364456
360.434	1.13386
363.809	0.8526
367.183	0.782593
370.558	0.543243
373.933	3.79913
377.308	3.48091
380.683	2.35553
384.058	2.32005
387.432	1.47965
390.807	3.57373
394.182	2.98506
397.557	5.41607
400.932	1.92581
404.306	5.12425
407.681	6.45274
411.056	3.47684
414.431	6.10023
417.806	5.88004
421.18	5.17638
424.555	8.37283
427.93	8.43575
431.305	7.79698
434.68	7.61424
438.055	8.493
441.429	9.08013
444.804	10.326
448.179	9.96137
451.554	9.10384
454.929	10.6811
458.303	9.71961
461.678	7.65541
465.053	9.01185
468.428	7.78502
471.803	7.35348
475.178	6.72243
478.552	7.00925
481.927	6.70287
485.302	5.18993
488.677	3.44261
492.052	2.24653
495.426	1.1427
498.801	2.58981
502.176	0.714912
505.551	1.53478
508.926	0.289932
512.301	1.31709
515.675	1.63821
519.05	1.3846
522.425	1.04768
525.8	0.153145
529.175	3.12621
532.549	0.415207
535.924	3.80288
539.299	0.045563
542.674	0.824348
546.049	1.21476
549.423	2.96125
552.798	2.32942
556.173	1.81821
559.548	2.93166
562.923	2.00946
566.298	1.76478
569.672	1.93178
573.047	0.103615
576.422	1.38489
579.797	0.97815
583.172	0.086197
586.546	3.80769
589.921	1.55702
593.296	2.18179
596.671	0.431519
600.046	2.3136
603.42	1.73493
606.795	1.30707
610.17	4.32742
613.545	2.43076
616.92	5.22623
620.295	5.28839
623.669	6.79951
627.044	7.41487
630.419	6.88046
633.794	6.15871
637.169	7.03862
640.543	7.42485
643.918	6.01775
647.293	5.59392
650.668	4.25706
654.043	2.89271
657.418	1.25154
660.792	2.68534
664.167	0.985512
667.542	2.90067
670.917	2.09413
674.292	2.40012
677.667	0.25872
681.041	1.50493
684.416	4.73895
687.791	0.428627
691.166	2.32056
694.541	1.15432
697.915	0.191757
701.29	1.56038
704.665	0.069603
708.04	2.17458
711.415	0.408348
714.789	1.08563
718.164	3.67557
721.539	3.46017
724.914	3.61559
728.289	3.41154
731.664	6.14848
735.038	10.5793
738.413	11.9134
741.788	14.2307
745.163	16.3972
748.538	18.5949
751.913	18.2563
755.287	18.2011
758.662	13.9758
762.037	5.45378
765.412	4.41163
768.787	4.90192
772.161	1.115
775.536	3.99968
778.911	0.816444
782.286	2.49754
785.661	1.20733
789.035	3.05349
792.41	2.32522
795.785	2.39777
799.16	0.082237
802.535	1.91634
805.909	0.668777
809.284	1.07135
812.659	1.69922
816.034	1.81995
819.409	2.01638
822.784	3.88213
826.158	0.49585
829.533	3.55514
832.908	3.44471
836.283	2.32157
839.658	4.27973
843.033	1.27898
846.407	2.59709
849.782	4.26545
853.157	6.55669
856.532	3.46583
859.907	5.55953
863.281	3.67291
866.656	5.27064
870.031	4.83511
873.406	4.44268
876.781	4.05465
880.155	3.72087
883.53	2.19632
886.905	2.19981
890.28	2.42828
893.655	1.42075
897.03	1.3527
900.404	1.91479
903.779	1.42014
907.154	0.843357
910.529	2.8668
913.904	1.4275
917.278	3.18726
920.653	0.857124
924.028	0.795597
927.403	1.49209
930.778	0.817314
934.153	2.25096
937.527	2.50723
940.902	1.17022
944.277	2.08704
947.652	3.23095
951.027	3.67088
954.401	2.43671
957.776	1.3902
961.151	5.18274
964.526	3.15549
967.901	1.88332
971.275	1.61449
974.65	0.190224
978.025	1.60052
981.4	4.30583
984.775	2.1768
988.15	0.708122
991.524	0.513805
994.899	2.93916
998.274	1.35387
1001.65	2.57856
1005.02	3.7136
1008.4	2.25875
1011.77	2.80295
1015.15	3.36554
1018.52	1.67561
1021.9	1.04256
1025.27	1.6009
1028.65	0.255165
1032.02	2.099
1035.4	3.37785
1038.77	0.835354
1042.15	1.52533
1045.52	2.51042
1048.9	2.90154
1052.27	2.8387
1055.65	1.46752
1059.02	3.70899
1062.4	2.0714
1065.77	2.33106
1069.14	0.149872
1072.52	1.50357
1075.89	3.33183
1079.27	1.54013
1082.64	1.5384
1086.02	1.3358
1089.39	1.96945
1092.77	1.7457
1096.14	1.58333
1099.52	0.896938
1102.89	1.31408
1106.27	2.95051
1109.64	1.34798
1113.02	0.742798
1116.39	1.93084
1119.77	0.711636
1123.14	2.35103
1126.52	2.38147
1129.89	3.11275
1133.27	0.362686
1136.64	1.69753
1140.02	1.57428
1143.39	0.232292
1146.77	1.07373
1150.14	1.78344
1153.52	2.45313
1156.89	1.28748
1160.27	1.27656
1163.64	3.86505
1167.02	2.31395
1170.39	0.389156
1173.77	1.83246
1177.14	1.1078
1180.51	0.08432
1183.89	2.19226
1187.26	2.67367
1190.64	0.562733
1194.01	3.60227
1197.39	1.04957
1200.76	1.37148
1204.14	0.341934
1207.51	0.604988
1210.89	3.578
1214.26	1.29413
1217.64	3.0024
1221.01	3.06982
1224.39	1.83558
1227.76	2.08424
1231.14	2.01228
1234.51	2.21035
1237.89	0.121197
1241.26	3.34715
1244.64	2.33805
1248.01	1.83664
1251.38	2.29576
1254.76	2.26893
1258.13	0.660557
1261.51	2.38788
1264.88	2.66033
1268.26	1.03192
1271.63	2.90508
1275.01	2.68144
1278.38	2.38624
1281.76	1.90584
1285.13	0.678745
