Measurement: Raman, 785 nm, unoriented, Raman Data Processed
Mineral: Bulachite
Rruff sample: R070243
Ideal chemistry: Al_6_(As^5+^O_4_)_3_(OH)_9_(H_2_O)_4_2H_2_O
Locality: Sa Malesa, Sarroch, Cagliari Province, Sardinia, Italy
Source: Michael Scott
Description: Tufts and batches of white acicular crystals with satin luster in iron oxide coated vugs
Raman shift (cm-1)	intensity
179.356	0
182.248	26.5005
185.141	4.9585
188.034	109.355
190.926	90.541
193.819	84.6348
196.712	133.379
199.604	119.109
202.497	146.167
205.39	129.132
208.282	124.187
211.175	52.1509
214.068	74.7061
216.961	30.6855
219.853	48.3335
222.746	76.6885
225.639	71.5425
228.531	81.7383
231.424	15.7315
234.317	15.4966
237.209	21.6006
240.102	37.4453
242.995	51.3706
245.888	45.9351
248.78	10.0176
251.673	46.4053
254.566	40.1499
257.458	12.0371
260.351	74.2051
263.244	23.8408
266.137	144.25
269.029	139.413
271.922	143.79
274.815	104.19
277.707	161.855
280.6	194.753
283.493	270.013
286.385	352.768
289.278	381.317
292.171	441.836
295.063	510.805
297.956	450.216
300.849	535.628
303.742	550.534
306.634	545.554
309.527	616.405
312.42	590.167
315.312	495.039
318.205	488.234
321.098	498.012
323.99	431.926
326.883	332.645
329.776	275.506
332.669	196.567
335.561	222.965
338.454	80.7207
341.347	12.1685
344.239	35.6567
347.132	8.26855
350.025	26.605
352.918	7.96338
355.81	25.8721
358.703	70.7305
361.596	55.4619
364.488	122.282
367.381	127.474
370.274	94.6919
373.166	111.413
376.059	116.923
378.952	159.065
381.844	119.655
384.737	185.064
387.63	122.943
390.523	195.167
393.415	180.98
396.308	157.635
399.201	199.181
402.093	212.374
404.986	153.957
407.879	203.168
410.772	204.06
413.664	156.073
416.557	109.314
419.45	77.5996
422.342	66.729
425.235	47.2734
428.128	4.59277
431.02	18.6045
433.913	23.4028
436.806	1.78223
439.699	16.2236
442.591	23.4663
445.484	3.69092
448.377	82.3843
451.269	77.7617
454.162	77.7422
457.055	29.7354
459.947	116.392
462.84	134.113
465.733	219.716
468.625	360.209
471.518	428.883
474.411	543.784
477.304	676.063
480.196	711.638
483.089	719.904
485.982	654.5
488.874	535.382
491.767	568.165
494.66	547.344
497.553	527.278
500.445	587.533
503.338	586.35
506.231	550.977
509.123	535.446
512.016	504.966
514.909	532.945
517.802	512.352
520.694	483.64
523.587	308.557
526.48	350.68
529.372	355.977
532.265	253.41
535.158	185.888
538.05	126.348
540.943	129.18
543.836	35.481
546.729	51.5454
549.621	21.5249
552.514	16.4355
555.407	30.9331
558.299	11.7642
561.192	61.3291
564.085	65.9419
566.977	139.65
569.87	128.705
572.763	156.736
575.655	199.608
578.548	231.548
581.441	212.347
584.333	211.596
587.226	283.099
590.119	307.718
593.012	279.584
595.904	331.707
598.797	282.812
601.69	283.178
604.582	192.535
607.475	146.495
610.368	142.608
613.26	92.0491
616.153	64.5261
619.046	79.5854
621.939	52.0747
624.831	35.2952
627.724	39.6169
630.617	19.3669
633.509	25.0076
636.402	22.0029
639.295	22.9675
642.188	86.8149
645.08	42.5076
647.973	32.6775
650.866	50.0742
653.758	93.5586
656.651	21.1472
659.544	34.2988
662.436	70.0981
665.329	8.70483
668.222	95.0278
671.115	40.4795
674.007	49.759
676.9	104.004
679.793	67.8672
682.685	63.1755
685.578	48.4297
688.471	50.2109
691.363	86.7083
694.256	49.0498
697.149	80.0007
700.042	56.5864
702.934	87.4951
705.827	96.95
708.72	96.1929
711.612	88.0193
714.505	105.288
717.398	121.755
720.29	95.5342
723.183	101.534
726.076	62.2385
728.968	90.697
731.861	79.8997
734.754	103.451
737.647	84.9055
740.539	34.7129
743.432	5.45312
746.325	82.9592
749.217	21.1558
752.11	44.2119
755.003	16.2986
757.895	6.42041
760.788	31.0957
763.681	2.73413
766.574	10.2551
769.466	26.9846
772.359	51.9077
775.252	25.4959
778.144	21.0112
781.037	39.6929
783.93	15.7998
786.822	27.6318
789.715	87.4805
792.608	108.216
795.501	194.568
798.393	231.875
801.286	242.91
804.179	216.652
807.071	247.519
809.964	243.75
812.857	216.524
815.75	208.31
818.642	211.551
821.535	240.964
824.428	236.903
827.32	241.628
830.213	271.635
833.106	313.938
835.998	377.87
838.891	407.565
841.784	524.526
844.677	452.85
847.569	467.104
850.462	550.606
853.355	466.548
856.247	466.555
859.14	392.387
862.033	416.566
864.925	432.027
867.818	402.758
870.711	485.031
873.604	563.061
876.496	605.399
879.389	678.678
882.282	759.445
885.174	854.954
888.067	863.265
890.96	914.245
893.852	947.609
896.745	906.941
899.638	1008.28
902.53	937.33
905.423	975.413
908.316	887.893
911.209	787.167
914.101	754.058
916.994	641.198
919.887	558.472
922.779	400.012
925.672	231.414
928.565	216.6
931.457	143.292
934.35	107.439
937.243	78.8396
940.136	55.8938
943.028	18.3127
945.921	43.5493
948.814	5.27246
951.706	3.22681
954.599	2.86694
957.492	2.67358
960.385	2.15381
963.277	16.9219
966.17	30.6096
969.063	29.377
971.955	19.5317
974.848	104.322
977.741	202.697
980.633	216.284
983.526	192.525
986.419	188.595
989.312	57.5532
992.204	64.3198
995.097	87.4221
997.99	7.00903
1000.88	66.6692
1003.77	27.2876
1006.67	58.2615
1009.56	48.8569
1012.45	55.8272
1015.35	69.3569
1018.24	69.0115
1021.13	47.4065
1024.02	4.96924
1026.92	21.197
1029.81	49.417
1032.7	50.0798
1035.6	64.3665
1038.49	83.2459
1041.38	50.136
1044.27	64.3784
1047.17	132.586
1050.06	75.9099
1052.95	82.6045
1055.84	69.0205
1058.74	71.3335
1061.63	35.3452
1064.52	82.7585
1067.41	77.4741
1070.31	42.8899
1073.2	54.6987
1076.09	95.4907
1078.98	15.0906
1081.88	27.6775
1084.77	9.56152
1087.66	15.9805
1090.56	45.5173
1093.45	26.2666
1096.34	22.9206
1099.23	33.4243
1102.13	39.3599
1105.02	92.7319
1107.91	29.7236
1110.81	7.13135
1113.7	47.4282
1116.59	17.2061
1119.48	14.241
1122.38	33.6499
1125.27	27.7756
1128.16	28.2339
1131.05	55.3914
1133.95	36.6804
1136.84	9.58472
1139.73	61.4358
1142.62	59.3049
1145.52	47.96
1148.41	33.096
1151.3	58.9976
1154.19	45.3608
1157.09	8.86841
1159.98	12.7256
1162.87	57.4326
1165.77	52.2412
1168.66	17.1655
1171.55	52.4585
1174.44	44.8364
1177.34	49.1904
1180.23	88.6177
1183.12	36.9514
1186.02	29.02
1188.91	37.3889
1191.8	22.5964
1194.69	30.6169
1197.59	49.9629
1200.48	94.6819
1203.37	8.83227
1206.26	25.5906
1209.16	49.0984
1212.05	28.2439
1214.94	54.1694
1217.84	33.0381
1220.73	43.6311
1223.62	92.1211
1226.51	27.9627
1229.41	60.2073
1232.3	30.3718
1235.19	11.9985
1238.08	24.9338
1240.98	34.6133
