Measurement: Raman, 532 nm, unoriented, Raman Data Processed
Mineral: Bulachite
Rruff sample: R070243
Ideal chemistry: Al_6_(As^5+^O_4_)_3_(OH)_9_(H_2_O)_4_2H_2_O
Locality: Sa Malesa, Sarroch, Cagliari Province, Sardinia, Italy
Source: Michael Scott
Description: Tufts and batches of white acicular crystals with satin luster in iron oxide coated vugs
Raman shift (cm-1)	intensity
173.286	0
176.178	64.584
179.071	35.8203
181.964	8.53125
184.856	154.025
187.749	210.041
190.642	242.217
193.535	314.496
196.427	426.334
199.32	306.613
202.213	402.617
205.105	322.435
207.998	429.117
210.891	280.435
213.783	162.217
216.676	155.57
219.569	121.522
222.462	91.2734
225.354	121.098
228.247	97.8633
231.14	111.207
234.032	86.3359
236.925	111.365
239.818	195.711
242.71	63.2773
245.603	154.57
248.496	150.107
251.388	142.5
254.281	107.93
257.174	75.9766
260.067	159.935
262.959	154.842
265.852	209.551
268.745	330.207
271.637	235.051
274.53	262.172
277.423	212.633
280.315	191.342
283.208	247.953
286.101	369.768
288.994	437.422
291.886	424.363
294.779	564.633
297.672	560.688
300.564	618.113
303.457	704.15
306.35	739.361
309.243	761.543
312.135	722.844
315.028	670.779
317.921	525.195
320.813	430.031
323.706	451.232
326.599	335.398
329.491	276.394
332.384	161.287
335.277	78.2324
338.17	83.0586
341.062	12.0781
343.955	56.0957
346.848	26.6523
349.74	21.6367
352.633	30.9434
355.526	142.203
358.418	232.315
361.311	181.713
364.204	389.398
367.097	311.41
369.989	339.756
372.882	278.353
375.775	266.85
378.667	196.947
381.56	196.853
384.453	86.4883
387.346	209.092
390.238	41.3848
393.131	142.006
396.024	168.023
398.916	67.7441
401.809	38.4707
404.702	120.25
407.594	14.1289
410.487	55.5273
413.38	24.541
416.272	32.3594
419.165	148.295
422.058	68.7148
424.951	124.91
427.843	6.18164
430.736	27.0781
433.629	358.037
436.521	11.2461
439.414	26.1699
442.307	128.871
445.2	110.717
448.092	216.084
450.985	164.496
453.878	295.469
456.77	399.846
459.663	380.699
462.556	732.967
465.448	600.482
468.341	1031.51
471.234	1309.03
474.127	1809.94
477.019	1906.97
479.912	1988.63
482.805	1941.43
485.697	1694.54
488.59	1523.79
491.483	1548.98
494.375	1379.29
497.268	1397.09
500.161	1391.24
503.053	1390.49
505.946	1432.62
508.839	1337.54
511.732	1497.82
514.624	1431.02
517.517	1298.16
520.41	1418.38
523.302	1233.11
526.195	1235.37
529.088	997.977
531.981	741.098
534.873	611.486
537.766	465.164
540.659	293.832
543.551	287.256
546.444	267.769
549.337	87.7207
552.229	87.1699
555.122	144.865
558.015	16.9434
560.908	32.7188
563.8	0.460938
566.693	32.3223
569.586	44.373
572.478	98.5098
575.371	101.941
578.264	150.123
581.156	133.674
584.049	108.279
586.942	172.394
589.835	286.379
592.727	264.451
595.62	365.853
598.513	373.453
601.405	452.783
604.298	290.629
607.191	331.422
610.083	288.315
612.976	285.342
615.869	32.3652
618.762	180.857
621.654	97.5234
624.547	55.5254
627.44	195.932
630.332	93.3711
633.225	36.5293
636.118	121.383
639.01	93.6934
641.903	65.1269
644.796	156.523
647.689	281.586
650.581	213.449
653.474	326.727
656.367	200.863
659.259	301.668
662.152	145.529
665.045	167.414
667.938	53.6992
670.83	52.3535
673.723	68.0215
676.616	205.006
679.508	198.268
682.401	235.906
685.294	176.219
688.186	86.3633
691.079	103.426
693.972	53.7031
696.865	120.785
699.757	7.05469
702.65	308.992
705.543	104.91
708.435	75.1641
711.328	212.539
714.221	149.125
717.113	120.07
720.006	166.543
722.899	75.3047
725.792	100.172
728.684	142.402
731.577	110.816
734.47	14.1641
737.362	89.9922
740.255	118.629
743.148	129.227
746.04	156.691
748.933	122.773
751.826	103.598
754.719	41.9062
757.611	14.9062
760.504	62.5391
763.397	26.1016
766.289	33.6172
769.182	53.5352
772.075	44.5703
774.967	79.3242
777.86	133.078
780.753	301.238
783.646	178.019
786.538	241.973
789.431	401.371
792.324	463.41
795.216	470.359
798.109	524.812
801.002	612.566
803.894	641.769
806.787	457.738
809.68	508.773
812.573	436.305
815.465	490.875
818.358	317.113
821.251	477.465
824.143	452.969
827.036	543.062
829.929	334.606
832.822	523.871
835.714	460.84
838.607	441.09
841.5	476.109
844.392	534.844
847.285	578.379
850.178	556.734
853.07	679.07
855.963	754.531
858.856	873.973
861.749	1184.76
864.641	1537.71
867.534	1759.19
870.427	2074.53
873.319	2482.03
876.212	2987.64
879.105	3200.85
881.997	3380.7
884.89	3668.19
887.783	3575.86
890.676	3484.53
893.568	3341.39
896.461	3047.02
899.354	2921.75
902.246	2519.52
905.139	2175.15
908.032	1850.6
910.924	1619.29
913.817	1423.8
916.71	1202.12
919.602	936.473
922.495	742.688
925.388	543.875
928.281	263.059
931.173	384.656
934.066	301.625
936.959	62.1602
939.851	14.2578
942.744	6.27734
945.637	6.91406
948.529	40.6133
951.422	69.9023
954.315	55.4922
957.208	41.0977
960.1	110.519
962.993	84.4023
965.886	6.94922
968.778	64.5625
971.671	181.879
974.564	432.785
977.457	471.168
980.349	626.656
983.242	653.496
986.135	775.43
989.027	468.406
991.92	338.488
994.813	403.277
997.705	373.668
1000.6	253.551
1003.49	157.508
1006.38	197.832
1009.28	307.141
1012.17	248.777
1015.06	233.113
1017.95	253.414
1020.85	197.891
1023.74	58.6992
1026.63	104.039
1029.53	179.188
1032.42	158.519
1035.31	123.316
1038.2	32.918
1041.1	140.894
1043.99	123.144
1046.88	201.688
1049.77	89.8008
1052.67	137.231
1055.56	207.488
1058.45	123.008
1061.35	244.922
1064.24	165.644
1067.13	206.086
1070.02	297.688
1072.92	269.035
1075.81	198.762
1078.7	200.68
1081.59	206.609
1084.49	197.519
1087.38	62.7109
1090.27	158.711
1093.16	308.195
1096.06	243.574
1098.95	108.461
1101.84	84.1523
1104.73	12.7578
1107.63	41.957
1110.52	112.562
1113.41	194.207
1116.31	4.73047
1119.2	127.086
1122.09	28.043
1124.98	96.1602
1127.88	89.1914
1130.77	113.422
1133.66	167.644
1136.56	131.918
1139.45	158.359
1142.34	180.414
1145.23	24.4805
1148.13	149.594
1151.02	239.949
1153.91	161.66
1156.8	112.711
1159.7	82.6602
1162.59	125.574
1165.48	129.117
1168.38	243.438
1171.27	154.922
1174.16	201.176
1177.05	176.688
1179.95	209.703
1182.84	327.254
1185.73	65.1914
1188.62	55.6719
1191.52	8.47266
1194.41	269.258
1197.3	222.906
1200.19	5.82031
1203.09	108.879
1205.98	77.9414
1208.87	75.5156
1211.77	185.812
1214.66	28.8945
1217.55	46.2812
1220.44	70.4453
1223.34	252.703
1226.23	84.082
1229.12	158.109
1232.01	41.5117
1234.91	37.1914
1237.8	60.9727
1240.69	160.238
1243.59	180.383
1246.48	110.785
1249.37	93.2812
1252.26	10.8281
1255.16	244.473
1258.05	131.141
1260.94	293.555
1263.83	188.672
1266.73	218.922
1269.62	173.438
1272.51	248.656
1275.4	228.199
1278.3	292.719
1281.19	76.5625
1284.08	350.441
1286.98	213.402
1289.87	129.008
1292.76	136.109
1295.65	161.496
1298.55	224.836
1301.44	143.887
1304.33	134.516
1307.22	131.231
1310.12	50.1836
1313.01	38.7734
