Measurement: Raman, 785 nm, unoriented, Raman Data Processed
Mineral: Burangaite
Rruff sample: R070408
Ideal chemistry: NaFe^2+^Al_5_(PO_4_)_4_(OH)_6_2H_2_O
Locality: Buranga pegmatite, Gatumba District, Gisenyi Province, Rwanda
Source: Michael Scott
Description: Blue to blue-green prismatic, co-type specimen. This is the piece used by Selway et al (1997) to determine structure.
Raman shift (cm-1)	intensity
146.089	0
148.982	217.507
151.875	395.429
154.768	326.539
157.66	158.94
160.553	395.673
163.446	734.857
166.338	1116.78
169.231	1408.05
172.124	1178.42
175.017	828.865
177.909	811.075
180.802	558.72
183.695	217.528
186.587	4.94556
189.48	47.0083
192.373	21.1475
195.265	31.6834
198.158	33.3257
201.051	57.0747
203.944	115.497
206.836	153.014
209.729	219.603
212.622	218.976
215.514	167.245
218.407	132.443
221.3	126.003
224.192	152.218
227.085	134.174
229.978	120.764
232.87	59.8503
235.763	7.06592
238.656	41.3059
241.549	2.65112
244.441	8.82764
247.334	31.7815
250.227	84.6936
253.119	149.241
256.012	302.485
258.905	544.891
261.798	603.585
264.69	382.375
267.583	273.372
270.476	153.787
273.368	122.348
276.261	102.816
279.154	48.3733
282.046	35.4793
284.939	18.8879
287.832	34.0251
290.724	4.51343
293.617	27.0046
296.51	2.59912
299.403	19.1277
302.295	66.4827
305.188	128.943
308.081	271.231
310.973	383.977
313.866	605.136
316.759	640.6
319.651	545.867
322.544	501.161
325.437	549.303
328.33	593.4
331.222	673.505
334.115	714.519
337.008	800.703
339.9	791.586
342.793	852.693
345.686	887.904
348.579	870.536
351.471	927.83
354.364	950.31
357.257	921.642
360.149	892.221
363.042	893.997
365.935	1041.83
368.827	1177.26
371.72	1297.38
374.613	1219.14
377.505	1012.67
380.398	884.685
383.291	820.21
386.184	852.739
389.076	835.174
391.969	768.746
394.862	591.431
397.754	473.487
400.647	372.409
403.54	276.027
406.433	142.82
409.325	53.0657
412.218	26.8545
415.111	2.34389
418.003	14.9787
420.896	17.8851
423.789	25.5071
426.681	52.686
429.574	75.3982
432.467	96.863
435.36	138.727
438.252	171.181
441.145	173.988
444.038	108.344
446.93	58.0903
449.823	46.4053
452.716	85.1028
455.608	129.775
458.501	274.237
461.394	428.194
464.286	467.498
467.179	431.56
470.072	342.58
472.965	351.283
475.857	340.289
478.75	399.233
481.643	491.548
484.535	571.072
487.428	678.332
490.321	761.696
493.214	896.061
496.106	988.251
498.999	1127.39
501.892	1274.92
504.784	1293.08
507.677	1333.09
510.57	1370.29
513.462	1363.31
516.355	1485.36
519.248	1539.16
522.14	1554.28
525.033	1374.02
527.926	1122.31
530.819	853.777
533.711	735.488
536.604	702.888
539.497	656.712
542.389	609.765
545.282	638.918
548.175	547.609
551.067	422.722
553.96	302.798
556.853	159.96
559.745	99.4309
562.638	30.4884
565.531	7.07795
568.424	13.5908
571.316	5.40935
574.209	9.70091
577.102	30.3944
579.994	67.4009
582.887	63.2268
585.78	117.793
588.673	154.946
591.565	131.107
594.458	149.25
597.351	202.725
600.243	303.889
603.136	430.396
606.029	538.948
608.921	529.709
611.814	544.598
614.707	584.53
617.6	626.611
620.492	600.558
623.385	634.381
626.278	618.431
629.17	631.896
632.063	650.6
634.956	659.086
637.848	606.752
640.741	534.131
643.634	403.238
646.527	295.523
649.419	176.955
652.312	90.0845
655.205	100.308
658.097	48.7527
660.99	68.3789
663.883	46.9465
666.775	85.8341
669.668	107.611
672.561	113.903
675.454	70.5537
678.346	92.3185
681.239	103.303
684.132	80.665
687.024	78.6547
689.917	61.3535
692.81	72.1736
695.702	67.564
698.595	55.3468
701.488	56.6063
704.381	9.10059
707.273	23.1361
710.166	9.82678
713.059	4.74658
715.951	0.634521
718.844	7.53943
721.737	4.09741
724.63	5.92517
727.522	9.31946
730.415	28.9575
733.308	10.2748
736.2	27.1715
739.093	2.17505
741.986	6.32703
744.878	19.8696
747.771	27.351
750.664	23.0044
753.557	20.1222
756.449	31.5459
759.342	1.0835
762.235	22.342
765.127	45.2053
768.02	44.6663
770.913	0.182495
773.805	34.5577
776.698	1.56091
779.591	6.23633
782.484	41.9756
785.376	24.7006
788.269	27.3619
791.162	33.6377
794.054	4.04028
796.947	46.9248
799.84	39.8401
802.732	92.1273
805.625	84.962
808.518	79.3503
811.41	78.7513
814.303	86.4304
817.196	37.6233
820.089	82.3563
822.981	50.0956
825.874	78.9509
828.767	24.1331
831.659	90.5525
834.552	101.492
837.445	71.8521
840.337	147.323
843.23	165.6
846.123	149.995
849.016	78.2908
851.908	77.9159
854.801	77.0682
857.694	55.7468
860.586	74.2125
863.479	71.2701
866.372	88.4252
869.264	95.4825
872.157	131.981
875.05	142.401
877.943	192.051
880.835	222.495
883.728	209.134
886.621	229.512
889.513	172.204
892.406	143.729
895.299	147.778
898.192	95.3341
901.084	96.8235
903.977	52.1471
906.87	50.4145
909.762	41.5656
912.655	24.7268
915.548	48.9697
918.44	30.189
921.333	20.9718
924.226	34.6124
927.119	17.0024
930.011	20.756
932.904	9.88892
935.797	6.33679
938.689	9.29163
941.582	2.35693
944.475	7.42871
947.367	1.75452
950.26	2.94019
953.153	23.9935
956.045	5.48706
958.938	33.0518
961.831	5.57507
964.724	15.24
967.616	31.7216
970.509	10.6362
973.402	27.6693
976.294	74.5343
979.187	153.845
982.08	208.465
984.972	229.616
987.865	141.061
990.758	99.4485
993.651	45.4419
996.543	32.6106
999.436	30.7205
1002.33	71.3394
1005.22	112.356
1008.11	240.508
1011.01	359.957
1013.9	615.25
1016.79	893.935
1019.68	1227.98
1022.58	1400.2
1025.47	1303.13
1028.36	1015.31
1031.26	849.62
1034.15	831.117
1037.04	921.737
1039.93	1196.12
1042.83	1548.79
1045.72	1696.22
1048.61	1378.87
1051.51	1011.78
1054.4	901.219
1057.29	971.787
1060.18	1057.77
1063.08	1183.73
1065.97	1165.79
1068.86	1050.02
1071.75	896.132
1074.65	736.922
1077.54	591.457
1080.43	597.099
1083.32	549.782
1086.22	598.927
1089.11	581.601
1092	557.764
1094.89	537.809
1097.79	449.782
1100.68	370.098
1103.57	255.604
1106.47	170.901
1109.36	41.0659
1112.25	75.1562
1115.14	31.6807
1118.04	35.6145
1120.93	19.158
1123.82	16.8313
1126.71	13.5762
1129.61	26.0088
1132.5	76.4446
1135.39	66.4528
1138.29	95.8485
1141.18	86.9331
1144.07	79.0326
1146.96	63.6942
1149.86	57.5967
1152.75	24.0128
1155.64	23.9648
1158.53	11.946
1161.43	22.918
1164.32	4.32336
1167.21	11.4331
1170.11	13.5114
1173	56.355
1175.89	40.3489
1178.78	59.1188
1181.68	41.6953
1184.57	53.4349
1187.46	41.9623
1190.35	68.3678
1193.25	12.1497
1196.14	98.0907
1199.03	104.786
1201.92	134.7
1204.82	134.589
1207.71	130.171
1210.6	101.975
1213.5	69.5853
1216.39	81.5737
1219.28	53.029
1222.17	43.7241
1225.07	57.7793
1227.96	25.3304
1230.85	73.7555
1233.74	17.3541
1236.64	27.6542
1239.53	13.9998
