Measurement: Raman, 532 nm, unoriented, Raman Data Processed
Mineral: Buserite
Rruff sample: R070067
Ideal chemistry: Na_4_Mn^3+^_6_Mn^4+^_8_O_27_21H_2_O
Locality: Oppu mine (Lower 7 level), Aomori-ken, Japan
Source: Michael Scott
Description: Smooth dark brown loose nodules stored in water
Raman shift (cm-1)	intensity
150.663	0
154.038	53.2808
157.412	35.9551
160.787	23.1977
164.162	56.9673
167.537	106.489
170.912	154.413
174.286	146.448
177.661	108.08
181.036	176.192
184.411	239.843
187.786	213.671
191.161	276.138
194.535	267.406
197.91	303.409
201.285	209.938
204.66	223.59
208.035	287.825
211.409	324.909
214.784	355.971
218.159	379.058
221.534	333.603
224.909	303.998
228.284	230.197
231.658	228.225
235.033	239.271
238.408	240.768
241.783	224.506
245.158	186.002
248.532	125.265
251.907	82.9019
255.282	45.5527
258.657	60.1065
262.032	57.3628
265.406	4.68555
268.781	42.1074
272.156	14.645
275.531	4.14795
278.906	28.4331
282.281	39.312
285.655	25.6802
289.03	18.4258
292.405	28.4844
295.78	60.7368
299.155	29.916
302.529	59.7168
305.904	59.707
309.279	8.11279
312.654	61.9038
316.029	53.3467
319.404	47.1987
322.778	54.8989
326.153	58.3491
329.528	10.0605
332.903	23.8657
336.278	37.2866
339.652	17.3189
343.027	32.3628
346.402	46.8706
349.777	23.602
353.152	36.0503
356.527	72.9741
359.901	104.243
363.276	49.79
366.651	52.0947
370.026	101.969
373.401	36.9585
376.776	131.459
380.15	80.9551
383.525	29.2637
386.9	82.7534
390.275	22.6626
393.65	47.9351
397.024	3.09912
400.399	60.814
403.774	35.3438
407.149	20.8496
410.524	25.4136
413.899	21.3618
417.273	15.021
420.648	99.5527
424.023	45.7554
427.398	35.2344
430.773	32.2275
434.147	57.7573
437.522	50.0801
440.897	33.0342
444.272	15.9243
447.647	25.208
451.022	52.3931
454.396	44.02
457.771	52.3154
461.146	66.6728
464.521	91.0879
467.896	125.645
471.27	170.555
474.645	251.48
478.02	194.18
481.395	316.834
484.77	390.655
488.144	503.625
491.519	526.415
494.894	676.266
498.269	834.138
501.644	785.644
505.019	628.207
508.393	462.654
511.768	382.457
515.143	262.726
518.518	328.996
521.893	282.224
525.268	189.158
528.642	67.2319
532.017	14.4717
535.392	10.3789
538.767	0.504883
542.141	27.4805
545.516	62.7334
548.891	55.1328
552.266	114.96
555.641	0.040039
559.016	123.662
562.39	123.69
565.765	183.664
569.14	217.425
572.515	256.136
575.89	307.95
579.264	352.086
582.639	328.128
586.014	348.379
589.389	433.055
592.764	500.454
596.139	518.08
599.514	435.675
602.888	441.19
606.263	423.534
609.638	408.981
613.013	511.9
616.388	422.261
619.762	484.955
623.137	628.38
626.512	657.188
629.887	802.231
633.262	995.306
636.636	1041.07
640.011	1213.2
643.386	1344.06
646.761	1536.49
650.136	1755.35
653.511	1826.34
656.885	1928.43
660.26	1584.08
663.635	1349.12
667.01	1008.08
670.385	795.136
673.76	618.771
677.134	529.504
680.509	390.077
683.884	334.466
687.259	230.829
690.634	78.9131
694.008	98.3691
697.383	33.6592
700.758	50.2607
704.133	14.1465
707.508	79.7559
710.882	9.97266
714.257	7.90039
717.632	28.2412
721.007	15.415
724.382	17.625
727.756	37.2725
731.131	7.07324
734.506	0.30957
737.881	39.5645
741.256	71.5928
744.631	53.3213
748.005	15.6494
751.38	39.6045
754.755	14.2344
758.13	50.1768
761.505	62.8447
764.88	50.7275
768.254	68.9111
771.629	60.4053
775.004	87.6807
778.379	89.1758
781.754	105.91
785.128	124.774
788.503	123.571
791.878	85.3477
795.253	50.0264
798.628	100.856
802.003	70.6494
805.377	102.939
808.752	27.959
812.127	78.5283
815.502	8.20508
818.877	51.4453
822.251	108.189
825.626	10.5947
829.001	14.7412
832.376	139.481
835.751	56.2871
839.125	49.0449
842.5	60.1572
845.875	129.514
849.25	10.835
852.625	44.5391
856	72.2529
859.374	22.5625
862.749	75.2324
866.124	36.1406
869.499	80.4453
872.874	72.9209
876.249	77.4824
879.623	131.252
882.998	206.505
886.373	403.181
889.748	672.597
893.123	888.519
896.497	674.732
899.872	293.2
903.247	101.288
906.622	18.0742
909.997	45.041
913.371	82.5586
916.746	177.928
920.121	76.5
923.496	114.009
926.871	128.372
930.246	59.0205
933.62	62.2852
936.995	19.4766
940.37	94.8594
943.745	18.3721
947.12	13.0146
950.495	143.744
953.869	62.0625
957.244	38.8223
960.619	59.2627
963.994	9.3291
967.369	61.5967
970.743	48.1397
974.118	49.0742
977.493	32.251
980.868	106.286
984.243	129.616
987.617	69.416
990.992	163.791
994.367	294.635
997.742	365.36
1001.12	715.913
1004.49	938.981
1007.87	1117.28
1011.24	1184.16
1014.62	934.851
1017.99	520.66
1021.37	221.789
1024.74	133.945
1028.12	88.25
1031.49	122.276
1034.87	71.6982
1038.24	94.1631
1041.62	42.7363
1044.99	11.4385
1048.36	8.2998
1051.74	7.49902
1055.11	24.6904
1058.49	33.3652
1061.86	1.4375
1065.24	2.00391
1068.61	90.8545
1071.99	61.0273
1075.36	20.8008
1078.74	138.352
1082.11	116.721
1085.49	59.3457
1088.86	62.3828
1092.24	86.3408
1095.61	17.417
1098.99	102.508
1102.36	27.1611
1105.74	67.043
1109.11	90.1074
1112.49	54.7764
1115.86	104.943
1119.23	130.477
1122.61	84.458
1125.98	92.0352
1129.36	8.04297
1132.73	59.5303
1136.11	172.645
1139.48	73.0225
1142.86	29.6484
1146.23	73.2578
1149.61	46.3174
1152.98	49.4346
1156.36	60.4258
1159.73	19.0918
1163.11	43.707
1166.48	85.6826
1169.86	78.0635
1173.23	47.4932
1176.61	83.2461
1179.98	50.0478
1183.36	4.24219
1186.73	11.5898
1190.11	8.11914
1193.48	53.7607
1196.86	1.54199
1200.23	70.6953
1203.61	80.2344
1206.98	24.9277
1210.36	24.7646
1213.73	65.0439
1217.11	101.837
1220.48	95.8125
1223.86	14.8701
1227.23	16.2314
1230.6	40.5576
1233.98	61.4658
1237.35	114.155
1240.73	87.1143
1244.1	111.956
1247.48	68.9912
1250.85	4.66992
1254.23	15.0986
1257.6	2.96582
1260.98	29.2656
1264.35	106.694
1267.73	58.3027
1271.1	158.037
1274.48	148.977
1277.85	110.608
1281.23	45.8652
1284.6	116.264
1287.98	173.051
1291.35	114.421
1294.73	59.7227
1298.1	145.867
1301.47	157.407
1304.85	89.042
1308.22	88.6728
1311.6	16.457
1314.97	126.535
1318.35	0
