Measurement: Raman, 532 nm, unoriented, Raman Data Processed
Mineral: Bussyite-(Ce)
Rruff sample: R120059
Ideal chemistry: (Na,H_2_O)_6_Ce^3+^_3_Be_5_Mn^2+^Si_9_(O,OH)_30_F_4_
Locality: Mont Saint-Hilaire, Rouville RCM, Montérégie, Québec, Canada
Source: Donald Doell
Description: Sprays of pale yellow, elongated crystals, associated with catapleiite, albite and aegirine
Raman shift (cm-1)	intensity
216.807	0
219.699	0.200562
222.592	3.05261
225.485	0.482422
228.377	2.06653
231.27	7.5155
234.163	11.8553
237.056	9.23737
239.948	6.45575
242.841	2.23651
245.734	2.1424
248.626	0.926697
251.519	3.85229
254.412	3.34357
257.305	3.62512
260.197	3.84296
263.09	4.008
265.983	2.11957
268.875	1.98163
271.768	1.05267
274.661	4.33887
277.553	7.30865
280.446	3.9942
283.339	1.1994
286.232	0.01355
289.124	1.44482
292.017	1.12231
294.91	3.57605
297.802	1.30505
300.695	2.03717
303.588	4.62122
306.481	4.11542
309.373	3.63489
312.266	2.97632
315.159	5.33728
318.051	4.27606
320.944	2.32733
323.837	7.16357
326.729	7.91852
329.622	5.828
332.515	9.13672
335.408	16.1337
338.3	22.2396
341.193	29.5082
344.086	34.0514
346.978	46.6205
349.871	64.1607
352.764	78.5367
355.656	89.8639
358.549	83.7484
361.442	74.1938
364.334	69.2292
367.227	57.2841
370.12	50.4086
373.012	39.1113
375.905	28.0701
378.798	21.3677
381.691	18.1222
384.583	20.5004
387.476	7.69873
390.369	2.01007
393.261	0.412048
396.154	1.74255
399.047	0.820801
401.94	4.47229
404.832	0.14386
407.725	0.597717
410.618	0.192871
413.51	1.44202
416.403	3.16638
419.296	3.75452
422.188	2.20941
425.081	5.1629
427.974	8.09155
430.866	5.6618
433.759	6.03455
436.652	2.93243
439.545	4.50708
442.437	3.49237
445.33	5.08734
448.223	3.61627
451.115	3.44598
454.008	4.47858
456.901	6.78729
459.793	9.70923
462.686	15.0178
465.579	12.8455
468.472	8.06671
471.364	9.87036
474.257	13.1673
477.15	18.0463
480.042	24.7133
482.935	32.5652
485.828	41.8447
488.721	45.4867
491.613	53.3868
494.506	58.2137
497.399	65.8124
500.291	67.2414
503.184	64.3535
506.077	56.624
508.969	46.1895
511.862	29.9535
514.755	17.9628
517.648	4.58374
520.54	1.94135
523.433	1.20581
526.326	8.27704
529.218	0.120605
532.111	0.244019
535.004	0.573303
537.896	1.60699
540.789	6.98804
543.682	5.0805
546.575	6.17682
549.467	9.94763
552.36	3.53949
555.253	4.08936
558.145	1.57861
561.038	4.2688
563.931	0.907715
566.823	2.79785
569.716	0.964539
572.609	0.567749
575.502	0.265137
578.394	5.53943
581.287	9.46002
584.18	7.33771
587.072	14.5403
589.965	13.7632
592.858	21.571
595.75	24.7277
598.643	30.4952
601.536	29.2136
604.428	30.5733
607.321	30.1379
610.214	30.2532
613.107	25.8658
615.999	19.605
618.892	17.6815
621.785	11.4162
624.677	6.35071
627.57	2.33551
630.463	2.97827
633.356	2.35492
636.248	5.85974
639.141	1.82733
642.034	1.55383
644.926	2.27588
647.819	1.21246
650.712	0.673157
653.604	2.88263
656.497	6.75775
659.39	9.40497
662.283	11.0818
665.175	7.68732
668.068	8.34112
670.961	8.59705
673.853	6.51117
676.746	4.95892
679.639	5.81909
682.531	8.85877
685.424	6.67041
688.317	7.14862
691.21	5.85028
694.102	4.49176
696.995	9.93549
699.888	7.88361
702.78	3.63013
705.673	5.2027
708.566	7.03314
711.458	8.37707
714.351	1.49628
717.244	2.40216
720.136	1.85321
723.029	0.75354
725.922	1.63245
728.815	7.96942
731.707	7.67914
734.6	4.56665
737.493	1.91302
740.385	3.07336
743.278	2.31665
746.171	1.617
749.063	2.41223
751.956	5.13391
754.849	15.3531
757.742	13.5242
760.634	9.44965
763.527	7.92749
766.42	10.5226
769.312	10.6175
772.205	10.4257
775.098	13.1554
777.99	8.97955
780.883	9.25464
783.776	8.3045
786.669	8.31934
789.561	4.00281
792.454	10.4033
795.347	8.11865
798.239	2.47455
801.132	9.1106
804.025	13.636
806.918	24.542
809.81	36.0531
812.703	44.3959
815.596	36.6634
818.488	17.408
821.381	15.021
824.274	7.40582
827.166	2.99835
830.059	1.26508
832.952	4.70282
835.845	0.838257
838.737	3.41656
841.63	11.8325
844.523	21.7857
847.415	34.4836
850.308	60.7694
853.201	87.727
856.093	108.599
858.986	112.054
861.879	97.4318
864.771	68.5619
867.664	40.8897
870.557	25.6074
873.45	19.456
876.342	13.788
879.235	6.78644
882.128	5.12842
885.02	4.96503
887.913	4.26196
890.806	1.0108
893.698	0.60614
896.591	3.1441
899.484	1.05933
902.377	2.65277
905.269	4.42456
908.162	3.21155
911.055	5.29236
913.947	3.00964
916.84	5.91077
919.733	1.56439
922.625	1.25012
925.518	0.107788
928.411	3.20581
931.304	1.84741
934.196	1.88007
937.089	2.74847
939.982	2.19428
942.875	0.225586
945.767	0.471008
948.66	2.8736
951.553	4.67248
954.445	5.96899
957.338	8.44867
960.231	11.8417
963.123	14.4962
966.016	21.2797
968.909	19.7739
971.802	16.2336
974.694	16.2853
977.587	18.2057
980.48	20.6865
983.372	28.5679
986.265	24.0356
989.158	26.1758
992.05	27.4054
994.943	25.181
997.836	26.021
1000.73	25.9917
1003.62	28.1791
1006.51	32.8093
1009.41	33.6888
1012.3	34.937
1015.19	33.3839
1018.09	36.2666
1020.98	29.5505
1023.87	31.3396
1026.76	27.6499
1029.66	29.8466
1032.55	34.188
1035.44	37.0817
1038.33	33.4727
1041.23	28.8663
1044.12	24.9442
1047.01	19.7782
1049.9	16.2754
1052.8	12.6924
1055.69	8.69727
1058.58	8.73682
1061.47	6.53076
1064.37	5.63452
1067.26	3.72766
1070.15	1.88306
1073.05	0.877075
1075.94	1.07483
1078.83	0.967285
1081.72	6.77344
1084.62	1.67834
1087.51	5.46704
1090.4	4.43213
1093.3	17.0055
1096.19	23.6643
1099.08	29.0491
1101.97	32.4457
1104.87	35.8256
1107.76	45.8263
1110.65	59.8925
1113.54	64.1385
1116.44	60.8312
1119.33	49.5266
1122.22	37.0792
1125.12	25.6757
1128.01	16.4352
1130.9	10.1545
1133.79	9.28467
1136.68	14.2395
1139.58	14.6082
1142.47	12.9623
1145.36	15.079
1148.26	17.9828
1151.15	25.7752
1154.04	28.0651
1156.93	24.8901
1159.83	28.5051
1162.72	28.1405
1165.61	21.9547
1168.51	18.016
1171.4	17.4142
1174.29	14.0895
1177.18	10.609
1180.08	6.68042
1182.97	8.48438
1185.86	10.4137
1188.75	5.69421
1191.65	1.38672
1194.54	0.14917
1197.43	0.987061
1200.33	3.04651
1203.22	0.52771
1206.11	3.8468
1209	5.90674
1211.9	6.91406
1214.79	2.3446
1217.68	0.248657
1220.57	2.62634
1223.47	5.14929
1226.36	6.45386
1229.25	7.27734
1232.14	10.6967
1235.04	2.04321
1237.93	8.52002
1240.82	9.83179
1243.71	11.2383
1246.61	11.2675
1249.5	11.7673
1252.39	17.2237
1255.29	11.2019
1258.18	17.5372
1261.07	16.1741
1263.96	15.2642
1266.86	13.1035
1269.75	21.9078
1272.64	17.9705
1275.54	20.3497
1278.43	12.7678
1281.32	5.93079
1284.21	4.7229
1287.11	2.01733
1290	0.194824
1292.89	1.00098
1295.78	12.0642
1298.68	12.3849
1301.57	0.049072
