Measurement: Raman, 532 nm, unoriented, Raman Data Processed
Mineral: Cacoxenite
Rruff sample: R070141
Ideal chemistry: Fe^3+^_24_AlO_6_(PO_4_)_17_(OH)_12_75H_2_O
Locality: Rotl√§ufchen Mine, Waldgirmes, Wetzlar, Hesse, Germany
Source: Michael Scott
Description: Radial aggregates of brownish yellow acicular crystals
Raman shift (cm-1)	intensity
153.556	0
156.931	1.36133
160.306	39.8346
163.681	40.5776
167.056	34.7989
170.43	17.8534
173.805	6.26019
177.18	2.25391
180.555	9.15973
183.93	25.7915
187.305	45.7694
190.679	75.1212
194.054	100.281
197.429	124.886
200.804	75.5467
204.179	69.7324
207.553	65.421
210.928	112.525
214.303	144.508
217.678	181.216
221.053	247.326
224.428	240.948
227.802	252.502
231.177	234.509
234.552	213.542
237.927	211.313
241.302	241.258
244.676	216.979
248.051	225.064
251.426	246.121
254.801	273.037
258.176	251.939
261.55	204.147
264.925	120.119
268.3	71.8868
271.675	31.8508
275.05	1.33997
278.425	18.8513
281.799	1.9682
285.174	7.81354
288.549	9.26428
291.924	22.2141
295.299	31.8899
298.673	0.001892
302.048	6.12146
305.423	42.1295
308.798	54.4723
312.173	88.037
315.548	69.4902
318.922	102.703
322.297	95.2648
325.672	90.8382
329.047	88.3368
332.421	43.762
335.796	64.5599
339.171	78.1372
342.546	88.08
345.921	61.4575
349.296	48.6591
352.67	58.1964
356.045	0.005493
359.42	6.59473
362.795	0.810608
366.17	21.3049
369.545	56.2035
372.919	51.0763
376.294	44.2574
379.669	57.4947
383.044	19.0232
386.418	1.78851
389.793	6.20679
393.168	0.788086
396.543	4.94458
399.918	14.6356
403.293	31.4752
406.667	45.2927
410.042	45.5801
413.417	64.2585
416.792	77.1729
420.167	58.1179
423.541	79.3461
426.916	94.6292
430.291	105.471
433.666	88.9514
437.041	100.765
440.416	85.8832
443.79	98.4519
447.165	61.2061
450.54	53.8159
453.915	60.5215
457.29	27.5433
460.664	36.8398
464.039	48.8759
467.414	60.9436
470.789	70.8519
474.164	107.527
477.538	101.635
480.913	120.278
484.288	144.818
487.663	159.314
491.038	142.705
494.413	140.718
497.787	107.759
501.162	65.4816
504.537	50.3533
507.912	52.8864
511.287	22.3129
514.662	5.20398
518.036	5.64136
521.411	14.159
524.786	17.422
528.161	3.95563
531.536	4.51147
534.91	7.33972
538.285	4.72559
541.66	12.6369
545.035	38.4938
548.41	48.8934
551.784	63.7066
555.159	100.102
558.534	130.129
561.909	137.956
565.284	222.565
568.659	252.019
572.033	242.496
575.408	222.772
578.783	233.082
582.158	179.195
585.533	154.945
588.907	141.785
592.282	77.074
595.657	72.4435
599.032	73.0382
602.407	75.8958
605.781	81.0294
609.156	69.6317
612.531	92.2836
615.906	90.0619
619.281	59.5557
622.655	52.9528
626.03	48.2653
629.405	63.4672
632.78	51.949
636.155	77.3803
639.53	29.0839
642.904	40.512
646.279	50.0607
649.654	7.43048
653.029	15.2418
656.404	21.424
659.779	24.4009
663.153	11.8777
666.528	18.2125
669.903	1.82568
673.278	29.3517
676.653	8.91565
680.027	7.96246
683.402	13.5719
686.777	19.583
690.152	12.1046
693.527	20.646
696.901	12.967
700.276	1.40015
703.651	33.9401
707.026	13.6743
710.401	16.8368
713.775	32.9777
717.15	22.587
720.525	11.975
723.9	2.73401
727.275	1.2019
730.649	10.8229
734.024	27.065
737.399	40.7524
740.774	12.6993
744.149	22.902
747.524	9.45538
750.898	17.1472
754.273	21.5492
757.648	17.0005
761.023	17.6937
764.398	4.66284
767.773	3.40607
771.147	31.8427
774.522	21.1924
777.897	18.8701
781.272	28.53
784.647	23.2007
788.021	41.6003
791.396	37.5691
794.771	20.8384
798.146	29.3817
801.521	43.0913
804.895	41.1327
808.27	20.6469
811.645	22.535
815.02	16.8278
818.395	46.5088
821.769	40.7142
825.144	32.6202
828.519	24.03
831.894	29.6981
835.269	31.6251
838.644	7.67609
842.018	35.2208
845.393	18.6638
848.768	7.70843
852.143	2.91711
855.518	11.8713
858.893	32.9583
862.267	13.2841
865.642	23.5435
869.017	3.37262
872.392	22.4625
875.766	33.8945
879.141	4.64941
882.516	8.23077
885.891	23.6863
889.266	12.8357
892.641	27.5144
896.015	2.10699
899.39	23.9151
902.765	10.51
906.14	69.2859
909.515	65.0007
912.889	89.6204
916.264	118.21
919.639	147.225
923.014	170.991
926.389	153.909
929.764	177.691
933.138	109.724
936.513	112.199
939.888	79.2506
943.263	47.1192
946.638	73.2892
950.013	57.1927
953.387	35.17
956.762	37.4222
960.137	62.4092
963.512	53.5245
966.886	87.8284
970.261	53.6761
973.636	46.2624
977.011	29.1616
980.386	15.909
983.761	6.75281
987.135	24.3997
990.51	10.0603
993.885	0.62616
997.26	13.2038
1000.63	47.6327
1004.01	92.2241
1007.38	122.131
1010.76	184.087
1014.13	171.646
1017.51	208.332
1020.88	198.99
1024.26	172.598
1027.63	149.855
1031.01	141.315
1034.38	98.04
1037.76	110.379
1041.13	103.903
1044.51	88.5568
1047.88	89.7153
1051.26	100.089
1054.63	69.0259
1058.01	111.67
1061.38	119.367
1064.76	125.297
1068.13	158.466
1071.51	214.02
1074.88	263.455
1078.26	254.649
1081.63	264.458
1085.01	256.926
1088.38	248.979
1091.76	209.978
1095.13	173.115
1098.5	132.635
1101.88	129.653
1105.25	118.531
1108.63	130.65
1112	92.9383
1115.38	92.7388
1118.75	75.4053
1122.13	3.9823
1125.5	9.61029
1128.88	2.19861
1132.25	12.4388
1135.63	21.7525
1139	8.81061
1142.38	9.97827
1145.75	57.59
1149.13	79.007
1152.5	121.303
1155.88	196.97
1159.25	188.703
1162.63	206.033
1166	193.358
1169.38	161.346
1172.75	113.852
1176.12	92.826
1179.5	40.489
1182.88	37.8534
1186.25	29.5984
1189.62	35.8623
1193	12.0215
1196.37	40.8942
1199.75	18.2312
1203.12	13.5739
1206.5	16.8657
1209.87	45.1262
1213.25	25.3265
1216.62	4.86987
1220	31.2971
1223.37	31.6616
1226.75	34.106
1230.12	40.325
1233.5	43.5109
1236.87	26.7936
1240.25	13.2808
1243.62	9.03143
1247	13.49
1250.37	8.92456
1253.75	22.0695
1257.12	6.11633
1260.49	20.3265
1263.87	5.02924
1267.24	22.877
1270.62	17.1301
1273.99	18.0034
1277.37	12.8571
1280.74	21.7189
1284.12	20.1782
1287.49	12.0897
1290.87	43.1275
1294.24	62.7357
1297.62	45.6764
1300.99	56.2465
1304.37	9.96222
1307.74	32.3668
1311.12	26.2141
1314.49	7.27472
