Measurement: Raman, 785 nm, unoriented, Raman Data Processed
Mineral: Cacoxenite
Rruff sample: R070141
Ideal chemistry: Fe^3+^_24_AlO_6_(PO_4_)_17_(OH)_12_75H_2_O
Locality: Rotl√§ufchen Mine, Waldgirmes, Wetzlar, Hesse, Germany
Source: Michael Scott
Description: Radial aggregates of brownish yellow acicular crystals
Raman shift (cm-1)	intensity
149.755	0
152.647	45.1156
155.54	59.1093
158.433	45.4608
161.325	25.4582
164.218	60.918
167.111	76.401
170.004	53.9232
172.896	13.8029
175.789	7.59689
178.682	7.23529
181.574	0.718903
184.467	16.3623
187.36	16.5645
190.252	47.6708
193.145	65.0619
196.038	54.2238
198.93	94.2873
201.823	107.664
204.716	116.642
207.609	143.53
210.501	187.286
213.394	233.303
216.287	309.621
219.179	327.312
222.072	369.279
224.965	384.358
227.857	380.519
230.75	343.605
233.643	302.472
236.536	269.684
239.428	289.157
242.321	273.653
245.214	313.726
248.106	277.437
250.999	309.087
253.892	347.457
256.784	351.654
259.677	338.712
262.57	272.229
265.463	189.273
268.355	107.518
271.248	71.3314
274.141	37.2276
277.033	29.1293
279.926	11.8647
282.819	5.12903
285.712	22.7401
288.604	4.46631
291.497	24.6417
294.39	23.0208
297.282	51.126
300.175	67.75
303.068	110.674
305.96	128.576
308.853	147.807
311.746	141.638
314.639	140.874
317.531	120.36
320.424	114.702
323.317	94.6686
326.209	96.0769
329.102	68.7071
331.995	46.7464
334.887	64.1576
337.78	82.6614
340.673	113.87
343.565	92.0657
346.458	76.5137
349.351	49.7247
352.244	38.9371
355.136	8.89471
358.029	14.7475
360.922	14.8267
363.814	6.36401
366.707	32.3304
369.6	52.8268
372.493	58.9143
375.385	64.5878
378.278	65.4573
381.171	71.6791
384.063	30.7288
386.956	42.6551
389.849	40.7754
392.741	39.3636
395.634	37.7377
398.527	58.6935
401.42	91.1428
404.312	130.149
407.205	132.189
410.098	136.076
412.99	148.716
415.883	114.643
418.776	87.6127
421.668	71.413
424.561	52.3703
427.454	41.9243
430.346	18.6922
433.239	38.493
436.132	24.9612
439.025	7.32379
441.917	3.16608
444.81	5.55676
447.703	7.47485
450.595	8.14383
453.488	17.4932
456.381	25.6779
459.274	38.9755
462.166	44.7789
465.059	47.6647
467.952	49.1172
470.844	65.5952
473.737	67.2005
476.63	75.2587
479.522	95.331
482.415	105.948
485.308	112.844
488.2	123.151
491.093	120.925
493.986	112.55
496.878	89.8183
499.771	82.2643
502.664	66.3557
505.557	50.112
508.449	49.875
511.342	25.4102
514.235	13.5496
517.127	8.54028
520.02	6.87311
522.913	21.9712
525.806	5.73373
528.698	4.00714
531.591	3.14865
534.484	4.04941
537.376	12.1467
540.269	3.23102
543.162	3.53488
546.054	10.2026
548.947	22.9371
551.84	39.0545
554.732	53.0307
557.625	87.7213
560.518	118.159
563.411	177.637
566.303	195.222
569.196	243.427
572.089	267.552
574.981	262.596
577.874	218.257
580.767	176.989
583.659	141.201
586.552	129.96
589.445	90.8211
592.338	81.3304
595.23	64.2722
598.123	61.6488
601.016	67.3722
603.908	56.5315
606.801	60.684
609.694	68.3124
612.587	70.7431
615.479	70.7953
618.372	68.4257
621.265	37.7319
624.157	45.302
627.05	31.1693
629.943	38.2907
632.835	23.3425
635.728	32.9294
638.621	40.9964
641.514	34.7766
644.406	24.6657
647.299	29.7338
650.192	10.724
653.084	13.2586
655.977	32.3104
658.87	3.1517
661.763	3.33469
664.655	6.36658
667.548	11.2844
670.441	3.49702
673.333	0.966476
676.226	3.23231
679.119	4.362
682.011	2.07155
684.904	3.88757
687.797	2.13968
690.689	2.83514
693.582	13.4039
696.475	5.01517
699.367	10.9647
702.26	1.92523
705.153	12.7248
708.046	27.1264
710.938	20.7283
713.831	23.335
716.724	17.1451
719.616	13.4905
722.509	3.18959
725.402	3.02544
728.294	16.4444
731.187	5.49062
734.08	13.5449
736.973	18.4769
739.865	2.40175
742.758	6.92636
745.651	17.4919
748.543	7.24153
751.436	9.56335
754.329	5.39886
757.221	0.077866
760.114	6.04239
763.007	12.2678
765.9	19.0394
768.792	12.2957
771.685	3.1384
774.578	16.3219
777.47	12.3878
780.363	2.04652
783.256	12.9807
786.149	9.39995
789.041	11.7368
791.934	10.0941
794.827	15.3072
797.719	23.3278
800.612	7.93552
803.505	13.2225
806.397	7.90353
809.29	13.2713
812.183	10.4194
815.076	14.3057
817.968	11.6465
820.861	13.8826
823.754	8.95174
826.646	18.1126
829.539	20.1287
832.432	9.68491
835.324	5.92708
838.217	15.3524
841.11	0.636307
844.003	12.8124
846.895	10.1679
849.788	16.9547
852.681	14.4995
855.573	3.88632
858.466	17.0461
861.359	14.0536
864.251	21.0634
867.144	6.33608
870.037	14.0356
872.929	24.375
875.822	9.08363
878.715	0.904556
881.608	12.424
884.5	9.9023
887.393	0.544266
890.286	11.8938
893.178	16.3306
896.071	10.9247
898.964	13.9312
901.856	6.21838
904.749	17.1665
907.642	6.04703
910.535	2.9435
913.427	10.7639
916.32	12.1794
919.213	2.20003
922.105	14.1457
924.998	13.3121
927.891	18.0352
930.783	23.6859
933.676	32.8009
936.569	34.8818
939.462	39.9147
942.354	62.0819
945.247	54.4295
948.14	57.4991
951.032	53.6348
953.925	56.7141
956.818	70.804
959.71	53.3927
962.603	31.1068
965.496	18.8669
968.389	40.7794
971.281	29.5579
974.174	30.2766
977.067	23.4092
979.959	28.5046
982.852	8.76425
985.745	18.9889
988.638	31.3263
991.53	38.9501
994.423	27.9582
997.316	1.2057
1000.21	4.99321
1003.1	6.85976
1005.99	13.8613
1008.89	11.5114
1011.78	24.472
1014.67	26.932
1017.56	28.8542
1020.46	56.5752
1023.35	54.9888
1026.24	68.9204
1029.13	49.3661
1032.03	47.0965
1034.92	52.6458
1037.81	29.1397
1040.71	46.1609
1043.6	38.0532
1046.49	41.1295
1049.38	36.816
1052.28	46.0464
1055.17	51.2426
1058.06	66.0471
1060.95	51.4497
1063.85	50.5239
1066.74	71.0711
1069.63	77.7168
1072.53	84.9105
1075.42	124.325
1078.31	122.767
1081.2	106.053
1084.1	96.4546
1086.99	73.5601
1089.88	46.5827
1092.78	28.8694
1095.67	10.6282
1098.56	19.3992
1101.45	14.0186
1104.35	28.0404
1107.24	43.8936
1110.13	60.3969
1113.02	84.4748
1115.92	62.8935
1118.81	53.5224
1121.7	30.8727
1124.59	9.49318
1127.49	14.001
1130.38	9.54033
1133.27	3.23671
1136.16	1.42862
1139.06	8.12932
1141.95	26.0938
1144.84	26.0248
1147.74	35.758
1150.63	60.2584
1153.52	74.4536
1156.41	80.6662
1159.31	63.5261
1162.2	56.264
1165.09	55.8683
1167.98	36.5666
1170.88	20.5093
1173.77	17.3228
1176.66	26.1517
1179.56	16.6809
1182.45	16.6548
1185.34	24.3172
1188.23	26.837
1191.13	34.6069
1194.02	37.8522
1196.91	23.2312
1199.81	25.8664
1202.7	24.5321
1205.59	9.88553
1208.48	11.0174
1211.38	28.1473
1214.27	33.9193
1217.16	42.6457
1220.05	38.1591
1222.95	27.1783
1225.84	21.1515
1228.73	15.263
1231.62	19.5002
1234.52	0.344604
1237.41	15.6547
1240.3	7.79077
