Measurement: Raman, 532 nm, unoriented, Raman Data Processed
Mineral: Cancrinite
Rruff sample: R100110
Ideal chemistry: (Na,Ca,[box])_8_(Al_6_Si_6_)O_24_(CO_3_,S^6+^O_4_)_2_2H_2_O
Locality: French River, Ontario, Canada
Source: Robert Woodside
Description: Brownish-orange massive. One of 4 specimens collected by Sam Gordon in 1932 for the Philadelphia Academy of Sciences (#21833)
Raman shift (cm-1)	intensity
172.452	0
175.345	5.07147
178.237	6.91061
181.13	6.28851
184.023	7.12589
186.916	10.0662
189.808	8.40747
192.701	8.06461
195.594	3.59039
198.486	4.43848
201.379	1.66324
204.272	1.46295
207.164	0.439148
210.057	0.65274
212.95	1.65616
215.843	6.00623
218.735	5.65591
221.628	14.9243
224.521	9.58517
227.413	14.6536
230.306	11.6653
233.199	11.9007
236.091	8.4097
238.984	9.26422
241.877	5.10315
244.769	5.5527
247.662	7.65308
250.555	17.1832
253.448	24.9163
256.34	34.7715
259.233	42.1218
262.126	58.456
265.018	71.8712
267.911	88.5481
270.804	105.665
273.697	117.692
276.589	126.133
279.482	122.569
282.375	107.994
285.267	87.5352
288.16	70.0342
291.053	62.9434
293.945	57.4499
296.838	46.8887
299.731	34.3402
302.623	22.2018
305.516	14.3795
308.409	5.15509
311.302	6.20075
314.194	0.304077
317.087	1.53601
319.98	4.0929
322.872	8.87872
325.765	11.5133
328.658	16.6959
331.55	20.2076
334.443	29.9877
337.336	30.4909
340.229	38.1337
343.121	39.7219
346.014	46.2097
348.907	46.5707
351.799	40.0331
354.692	33.5176
357.585	18.828
360.478	11.2944
363.37	6.39777
366.263	1.53076
369.156	0.356201
372.048	0.992493
374.941	3.42487
377.834	4.25867
380.726	0.177856
383.619	1.50653
386.512	4.97046
389.404	9.08881
392.297	11.614
395.19	13.939
398.083	16.9445
400.975	25.8865
403.868	30.1574
406.761	34.8077
409.653	42.011
412.546	52.6751
415.439	60.7011
418.332	63.0773
421.224	57.2755
424.117	46.6815
427.01	37.2076
429.902	29.3543
432.795	24.7935
435.688	18.282
438.58	15.8042
441.473	16.6616
444.366	10.747
447.259	11.738
450.151	13.3641
453.044	18.4945
455.937	23.003
458.829	27.4761
461.722	24.3392
464.615	21.8346
467.507	16.8514
470.4	15.5561
473.293	13.9413
476.185	15.5258
479.078	20.3489
481.971	25.7161
484.864	36.6532
487.756	44.1326
490.649	56.7158
493.542	73.5815
496.434	78.8792
499.327	84.9373
502.22	80.3564
505.113	75.1193
508.005	60.2781
510.898	47.3046
513.791	39.3107
516.683	28.9713
519.576	22.5347
522.469	13.2089
525.361	12.9927
528.254	15.7838
531.147	13.761
534.04	13.408
536.932	7.12079
539.825	5.67718
542.718	3.65881
545.61	0.888794
548.503	1.25623
551.396	1.83765
554.288	0.459167
557.181	0.161133
560.074	1.80328
562.967	0.729919
565.859	0.348938
568.752	1.72022
571.645	4.0791
574.537	3.0058
577.43	0.154724
580.323	0.528809
583.216	5.91882
586.108	8.12036
589.001	4.88831
591.894	7.20282
594.786	5.29468
597.679	4.06934
600.572	4.36145
603.464	3.45917
606.357	4.04645
609.25	7.05402
612.142	4.70203
615.035	5.32336
617.928	2.33636
620.821	3.52307
623.713	2.35467
626.606	2.19183
629.499	0.731995
632.391	0.660156
635.284	0.586182
638.177	2.88086
641.069	0.754089
643.962	0.250488
646.855	0.220215
649.747	2.18652
652.64	2.74445
655.533	1.96704
658.426	6.88867
661.318	3.07605
664.211	0.165527
667.104	0.887878
669.996	1.90045
672.889	1.36206
675.782	3.42908
678.674	6.97516
681.567	4.63293
684.46	7.55493
687.353	8.96576
690.245	8.4411
693.138	3.73517
696.031	5.18829
698.923	5.61609
701.816	5.11035
704.709	3.35236
707.601	7.27228
710.494	4.39954
713.387	4.51904
716.28	5.95428
719.172	9.45618
722.065	5.82227
724.958	11.4326
727.85	10.4717
730.743	2.60626
733.636	3.31622
736.529	2.38208
739.421	4.94531
742.314	2.68262
745.207	8.40002
748.099	8.47327
750.992	8.48651
753.885	5.02319
756.777	5.32037
759.67	8.88348
762.563	11.648
765.456	15.4513
768.348	17.4067
771.241	14.4641
774.134	13.0747
777.026	11.13
779.919	8.13446
782.812	3.39777
785.704	0.968811
788.597	1.81519
791.49	4.37689
794.383	4.93878
797.275	0.384399
800.168	1.22613
803.061	1.2381
805.953	2.95203
808.846	1.08124
811.739	0.639709
814.631	0.962952
817.524	4.52222
820.417	0.50885
823.309	5.98346
826.202	4.56604
829.095	2.19836
831.988	2.86102
834.88	2.81146
837.773	0.935181
840.666	2.30701
843.558	4.8573
846.451	5.36426
849.344	3.31232
852.236	3.57764
855.129	2.237
858.022	4.2876
860.915	3.27844
863.807	3.19922
866.7	0.576843
869.593	0.064331
872.485	4.14697
875.378	3.66858
878.271	5.42139
881.163	3.51471
884.056	0.671753
886.949	1.56952
889.842	0.148865
892.734	4.10089
895.627	5.87115
898.52	1.30084
901.412	2.21002
904.305	1.54981
907.198	0.571716
910.091	2.1546
912.983	0.436829
915.876	3.27283
918.769	1.64697
921.661	2.68555
924.554	0.589844
927.447	3.5957
930.339	3.31323
933.232	2.97217
936.125	2.87225
939.018	6.69214
941.91	8.88464
944.803	5.0918
947.696	5.59814
950.588	7.73901
953.481	12.4257
956.374	16.5855
959.266	22.7323
962.159	22.9863
965.052	19.0509
967.944	17.6276
970.837	19.8636
973.73	16.4799
976.623	16.0418
979.515	13.5612
982.408	13.5428
985.301	15.4012
988.193	13.6191
991.086	19.0067
993.979	14.1802
996.871	14.7944
999.764	13.0867
1002.66	11.8884
1005.55	11.054
1008.44	7.94672
1011.34	12.7267
1014.23	6.08185
1017.12	4.07336
1020.01	6.65326
1022.91	6.19446
1025.8	5.40747
1028.69	8.95166
1031.58	18.5643
1034.48	27.1593
1037.37	44.5928
1040.26	63.1929
1043.15	96.7091
1046.05	124.379
1048.94	129.147
1051.83	140.04
1054.73	148.364
1057.62	129.013
1060.51	60.7989
1063.4	14.2909
1066.3	0.803772
1069.19	4.71069
1072.08	1.40625
1074.97	1.28522
1077.87	2.54376
1080.76	0.507141
1083.65	1.1781
1086.55	3.52454
1089.44	5.0827
1092.33	3.26727
1095.22	5.76404
1098.12	2.80011
1101.01	3.49066
1103.9	2.14612
1106.79	6.09558
1109.69	4.05872
1112.58	5.21674
1115.47	4.08203
1118.37	4.49341
1121.26	5.2738
1124.15	0.151794
1127.04	3.41803
1129.94	0.182739
1132.83	3.02423
1135.72	3.96643
1138.61	1.93304
1141.51	1.6604
1144.4	4.74335
1147.29	3.14471
1150.18	1.1897
1153.08	2.12225
1155.97	9.40015
1158.86	2.74414
1161.76	1.24609
1164.65	1.64508
1167.54	4.70038
1170.43	1.9845
1173.33	6.80505
1176.22	7.84699
1179.11	3.83685
1182	2.33081
1184.9	5.20172
1187.79	0.924255
1190.68	0.149414
1193.58	4.518
1196.47	3.60309
1199.36	5.47382
1202.25	4.88483
1205.15	2.53674
1208.04	3.82678
1210.93	5.94049
1213.82	5.69049
1216.72	4.18982
1219.61	0.221252
1222.5	3.99695
1225.39	3.10919
1228.29	5.62592
1231.18	7.29382
1234.07	7.5014
1236.97	8.43896
1239.86	2.58673
1242.75	0.07843
1245.64	3.92481
1248.54	0.513
1251.43	6.84448
1254.32	6.1709
1257.21	0.127747
1260.11	3.97736
1263	7.4057
1265.89	0.750488
1268.79	5.61456
1271.68	6.12384
1274.57	3.81268
1277.46	5.76166
1280.36	4.81763
1283.25	0.647705
1286.14	3.22565
1289.03	2.57605
1291.93	1.25708
1294.82	5.44074
1297.71	5.37006
1300.61	4.45593
