Measurement: Raman, 514 nm, unoriented, Raman Data Processed
Mineral: Cancrinite
Rruff sample: R050352
Ideal chemistry: (Na,Ca,[box])_8_(Al_6_Si_6_)O_24_(CO_3_,S^6+^O_4_)_2_2H_2_O
Locality: York River, quarry #2, Dungannon Township, Ontario, Canada
Source: California Institute of Technology
Description: Pink fragment
Measured chemistry: (Na_6.07_Ca_1.62_[box]_0.31_)_Σ=8_(Al_0.99_Si_1.01_O_4_)_6_((CO_3_)_0.84_[box]_0.16_)_Σ=2_·2H_2_O
Raman shift (cm-1)	intensity
91.981	0
96.161	544.092
100.34	1051.38
104.516	1609.19
108.691	2506.27
112.864	3448.83
117.034	4884.38
121.203	4391.55
125.369	3724.45
129.534	2994.04
133.696	2654.72
137.857	2034.12
142.016	1116.23
146.172	545.713
150.327	303.796
154.48	409.774
158.63	191.643
162.779	161.125
166.926	70.467
171.07	299.778
175.213	239.028
179.354	133.524
183.493	119.256
187.63	134.371
191.765	262.791
195.898	312.524
200.029	578.858
204.158	989.519
208.285	1545.45
212.41	2122.5
216.533	2863.75
220.654	3282.1
224.773	3570.03
228.891	3380.74
233.006	3047.02
237.119	2623.84
241.231	2157.28
245.34	1953.85
249.448	2128.65
253.553	2523.78
257.657	3445.85
261.758	4788.06
265.858	7045.54
269.956	9456.96
274.052	11425.1
278.146	10593.4
282.237	7336.99
286.327	4912.1
290.416	4167.09
294.502	4501.14
298.586	4713.2
302.668	4220.45
306.749	3340.23
310.827	2297.83
314.903	1562.09
318.978	1196.99
323.051	1040.57
327.121	1410.19
331.19	1843.68
335.257	2493.24
339.322	3145.78
343.385	4006.47
347.446	4807.86
351.505	4605.65
355.563	3030.53
359.618	1734.58
363.672	790.721
367.723	255.757
371.773	31.388
375.821	1.979
379.866	256.469
383.91	59.91
387.952	80.769
391.992	135.657
396.031	229.241
400.067	532.878
404.101	807.188
408.134	1301.84
412.165	2077.54
416.193	3306.53
420.22	4365.65
424.245	4225.65
428.268	3258.16
432.289	2549.94
436.309	2217.26
440.326	2219.89
444.342	1964.35
448.355	1698.96
452.367	1803.46
456.377	3017.57
460.385	4442.68
464.391	3974.01
468.395	3112.37
472.398	2501.28
476.398	2550.44
480.397	2744.95
484.394	2786.56
488.389	3125.73
492.382	3956.62
496.373	5003.33
500.362	5680.57
504.349	5571.59
508.335	4975.28
512.319	4010.93
516.3	3171.22
520.28	2368.92
524.259	2151.07
528.235	2101.23
532.209	1759.47
536.182	1369.96
540.152	960.84
544.121	395.116
548.088	332.872
552.053	261.717
556.017	194.141
559.978	194.77
563.938	13.581
567.895	19.772
571.851	101.404
575.805	86.749
579.758	60.233
583.708	169.174
587.657	69.647
591.603	40.838
595.548	240.448
599.491	56.523
603.432	46.363
607.372	95.432
611.309	89.28
615.245	88.071
619.179	18.343
623.111	118.391
627.041	86.745
630.97	337.233
634.896	46.491
638.821	0.154
642.744	157.023
646.665	42.232
650.584	111.664
654.502	145.578
658.418	93.339
662.331	87.452
666.244	14.288
670.154	360.702
674.062	529.055
677.969	486.045
681.874	464.84
685.777	594.693
689.678	405.338
693.577	152.072
697.475	441.201
701.371	294.711
705.265	487.557
709.157	188.637
713.047	526.666
716.936	161.959
720.823	485.23
724.708	248.48
728.591	194.584
732.472	306.057
736.352	295.418
740.23	364.908
744.106	269.654
747.98	277.324
751.853	514.846
755.723	496.092
759.592	579.754
763.459	1290.73
767.325	1857.45
771.188	2658.82
775.05	2689.69
778.91	1905.1
782.768	967.084
786.625	727.58
790.479	458.855
794.332	244.5
798.183	258.012
802.033	254.027
805.88	118.158
809.726	146.334
813.57	54.531
817.413	102.668
821.253	142.211
825.092	39.551
828.929	116.002
832.764	81.383
836.598	60.453
840.429	146.125
844.259	146.023
848.088	166.004
851.914	135.693
855.739	192.988
859.562	114.141
863.383	110.891
867.203	36.561
871.02	7.697
874.836	170.867
878.65	156.592
882.463	104.314
886.274	148.486
890.083	240.32
893.89	98.75
897.695	62.818
901.499	239.012
905.301	161.973
909.102	327.373
912.9	525.717
916.697	748.572
920.492	1003
924.285	1412.02
928.077	1698.57
931.867	2044.71
935.655	2069.42
939.442	1612.98
943.226	1646.61
947.009	2233.93
950.791	2663.24
954.57	3104.08
958.348	3470.58
962.124	2805.6
965.899	2540.43
969.671	2474.81
973.442	2691.96
977.211	2804.97
980.979	2692.26
984.745	2255.18
988.509	2453.72
992.271	2754.32
996.032	2764.26
999.791	2222.95
1003.55	2623.76
1007.3	2562.39
1011.06	2208.48
1014.81	1964.4
1018.56	1803.39
1022.31	1739.12
1026.06	1410.43
1029.8	1729.75
1033.55	1365.01
1037.29	1685.69
1041.03	3384.61
1044.77	3255.44
1048.5	3879.82
1052.24	7991.08
1055.97	9783.09
1059.7	8431.55
1063.43	3544.71
1067.16	1511.12
1070.89	978.057
1074.61	869.838
1078.34	703.914
1082.06	973.117
1085.78	626.428
1089.5	543.025
1093.21	581.416
1096.93	499.113
1100.64	599.566
1104.35	381.857
1108.06	627.098
1111.77	437.893
1115.48	256.25
1119.18	356.258
1122.89	631.457
1126.59	47.332
1130.29	243.74
1133.99	33.35
1137.68	35.656
1141.38	3.943
1145.07	106.73
1148.76	156.068
1152.45	55.988
1156.14	374.545
1159.83	74.51
1163.51	116.949
1167.19	208.664
1170.88	131.26
1174.56	4.504
1178.23	32.453
1181.91	97.371
1185.59	253.004
1189.26	134.613
1192.93	493.461
1196.6	297.496
1200.27	467.773
1203.94	221.207
1207.6	545.828
1211.27	688.75
1214.93	530.613
1218.59	551.418
1222.25	718.734
1225.9	797.949
1229.56	860.102
1233.21	457.852
1236.86	468.113
1240.51	622.367
1244.16	424.797
1247.81	354.926
1251.45	397.191
1255.1	377.262
1258.74	73.887
1262.38	319.684
1266.02	136.113
1269.66	231.934
1273.29	200.035
1276.93	324.922
1280.56	287.332
1284.19	236.562
1287.82	279.504
1291.45	319.75
1295.07	195.59
1298.7	155.23
1302.32	257.043
1305.94	19.141
1309.56	84.945
1313.18	2.152
