Measurement: Raman, 780 nm, unoriented, Raman Data Processed
Mineral: Carlosturanite
Rruff sample: R060259
Ideal chemistry: (Mg,Fe^2+^,Ti^4+^)_21_(Si,Al)_12_O_28_(OH)_34_H_2_O
Locality: Val Varaita, near Sempeyre, Piedmont, Italy
Source: Michael Scott
Description: Pale green fibrous bundle
Raman shift (cm-1)	intensity
114.675	0
118.05	11.0183
121.424	10.2295
124.799	23.6013
128.174	33.4695
131.549	45.2854
134.924	10.0998
138.298	11.3035
141.673	0.950195
145.048	13.9185
148.423	13.4453
151.798	4.5625
155.173	7.17261
158.547	15.2109
161.922	10.1692
165.297	9.70215
168.672	8.00195
172.047	1.75024
175.422	2.31274
178.796	21.6963
182.171	11.0195
185.546	11.7263
188.921	17.6904
192.296	14.9712
195.67	22.0083
199.045	23.0046
202.42	11.3716
205.795	19.8181
209.17	28.283
212.544	24.074
215.919	50.5454
219.294	50.7754
222.669	70.0915
226.044	83.6977
229.419	85.8591
232.793	78.7449
236.168	67.0488
239.543	66.5132
242.918	36.6829
246.293	15.0068
249.667	10.7197
253.042	16.5264
256.417	9.71851
259.792	10.9851
263.167	22.3123
266.542	15.8569
269.916	7.99439
273.291	0.168945
276.666	8.08496
280.041	1.05225
283.416	12.6934
286.791	0.109619
290.165	1.11426
293.54	4.16138
296.915	0.489014
300.29	1.74414
303.665	6.04004
307.039	20.6951
310.414	14.4324
313.789	12.9783
317.164	13.1062
320.539	19.2109
323.913	29.8967
327.288	14.4824
330.663	8.63745
334.038	0.540283
337.413	20.2317
340.788	17.8904
344.162	12.9692
347.537	13.2664
350.912	13.3367
354.287	14.4912
357.662	15.9187
361.036	20.6172
364.411	28.0334
367.786	35.4714
371.161	56.0481
374.536	65.1174
377.911	88.4751
381.285	105.248
384.66	105.842
388.035	123.596
391.41	105.589
394.785	63.1138
398.159	29.6255
401.534	14.074
404.909	2.53613
408.284	11.4627
411.659	7.69653
415.034	2.54346
418.408	2.18408
421.783	4.67969
425.158	0.264404
428.533	5.11108
431.908	8.08765
435.282	2.99609
438.657	0.20166
442.032	2.43506
445.407	7.26978
448.782	8.75977
452.156	17.4324
455.531	9.31372
458.906	11.5305
462.281	18.7903
465.656	17.7651
469.031	17.7568
472.405	9.6167
475.78	16.0652
479.155	3.45654
482.53	6.23779
485.905	1.20996
489.279	15.2087
492.654	11.1333
496.029	16.7419
499.404	15.7561
502.779	13.3489
506.154	13.9893
509.528	8.89526
512.903	12.9592
516.278	16.321
519.653	5.68896
523.028	7.41284
526.403	7.60425
529.777	11.3621
533.152	5.13501
536.527	9.60181
539.902	1.70435
543.277	6.59985
546.651	3.97925
550.026	4.07642
553.401	8.56812
556.776	5.02832
560.151	15.7127
563.525	7.8938
566.9	4.71851
570.275	0.9021
573.65	3.6875
577.025	0.891602
580.399	9.4707
583.774	6.06274
587.149	13.7319
590.524	15.7021
593.899	1.70898
597.274	9.38379
600.649	4.6521
604.023	9.95068
607.398	12.0508
610.773	14.7559
614.148	11.4944
617.523	21.093
620.897	24.4145
624.272	15.3115
627.647	17.9724
631.022	18.7329
634.397	20.9844
637.771	12.2876
641.146	16.866
644.521	15.4285
647.896	11.1421
651.271	8.78833
654.646	13.3384
658.02	21.5252
661.395	32.8743
664.77	33.1418
668.145	40.7009
671.52	48.0879
674.894	63.3452
678.269	72.3926
681.644	90.7456
685.019	100.557
688.394	106.557
691.769	95.6438
695.143	66.9221
698.518	45.9998
701.893	35.686
705.268	20.9209
708.643	23.2639
712.018	14.4619
715.392	2.60571
718.767	8.53271
722.142	9.91211
725.517	9.07237
728.891	8.0813
732.266	9.1294
735.641	1.29419
739.016	2.70996
742.391	2.13159
745.766	0.233643
749.14	7.32227
752.515	3.02246
755.89	6.84766
759.265	11.9436
762.64	7.41577
766.014	11.0647
769.389	3.71924
772.764	11.0947
776.139	10.9858
779.514	11.1536
782.889	16.2056
786.263	8.24683
789.638	16.3054
793.013	17.6199
796.388	13.0991
799.763	3.03125
803.138	13.3882
806.512	8.99634
809.887	13.3933
813.262	7.396
816.637	11.7471
820.012	9.72778
823.386	8.74341
826.761	10.6836
830.136	7.13354
833.511	10.5259
836.886	16.8701
840.26	16.3108
843.635	19.6089
847.01	18.1116
850.385	16.4773
853.76	14.9399
857.135	22.3594
860.509	14.2993
863.884	8.52246
867.259	3.98901
870.634	7.41797
874.009	8.43848
877.384	3.82471
880.758	12.2932
884.133	14.5459
887.508	11.3872
890.883	3.47705
894.258	10.3042
897.632	0.194092
901.007	6.03589
904.382	0.510498
907.757	3.10474
911.132	2.16724
914.506	3.39819
917.881	1.35083
921.256	3.45288
924.631	4.12842
928.006	2.07373
931.381	6.91431
934.755	9.24927
938.13	4.91479
941.505	11.6185
944.88	10.1006
948.255	10.5712
951.63	5.5863
955.004	4.51416
958.379	9.22766
961.754	4.34058
965.129	5.29834
968.504	1.28943
971.878	2.28674
975.253	11.8374
978.628	7.11206
982.003	3.07068
985.378	5.25446
988.752	0.983398
992.127	2.84485
995.502	4.50867
998.877	10.3467
1002.25	13.0314
1005.63	15.2419
1009	24.3719
1012.38	31.9465
1015.75	14.0906
1019.13	11.0739
1022.5	1.86438
1025.88	10.9863
1029.25	5.46216
1032.62	6.47559
1036	8.88171
1039.38	14.0824
1042.75	13.4085
1046.12	11.1128
1049.5	21.001
1052.87	11.5299
1056.25	8.63232
1059.62	5.15271
1063	5.09412
1066.37	6.98486
1069.75	7.79382
1073.12	8.35632
1076.5	9.62158
1079.87	11.5021
1083.25	17.0865
1086.62	15.7533
1090	16.4301
1093.37	24.0265
1096.75	7.92993
1100.12	9.63062
1103.5	10.0862
1106.87	0.973999
1110.25	8.13477
1113.62	5.73486
1116.99	1.85169
1120.37	0.782349
1123.74	5.5387
1127.12	1.2207
1130.49	2.71313
1133.87	1.47827
1137.24	0.826416
1140.62	0.804321
1143.99	10.8038
1147.37	6.07202
1150.74	3.83472
1154.12	0.928711
1157.49	6.99146
1160.87	18.5289
1164.24	4.50867
1167.62	19.3755
1170.99	6.6405
1174.37	16.14
1177.74	14.7036
1181.12	15.0214
1184.49	7.05701
1187.87	12.0604
1191.24	13.57
1194.62	9.73096
1197.99	7.49768
1201.37	9.48828
1204.74	6.41138
1208.12	10.318
1211.49	11.2852
1214.87	13.9672
1218.24	11.8489
1221.62	4.55847
1224.99	4.00928
1228.37	10.5485
1231.74	8.12817
1235.11	9.59815
1238.49	2.42395
1241.86	2.2793
1245.24	4.0011
1248.61	4.82349
1251.99	3.99365
1255.36	3.65576
1258.74	6.77991
1262.11	13.7405
1265.49	8.91162
1268.86	6.6228
1272.24	0.226807
1275.61	4.81848
1278.99	6.46899
1282.36	2.38159
1285.74	0
