Measurement: Raman, 532 nm, unoriented, Raman Data Processed
Mineral: Carlosturanite
Rruff sample: R060259
Ideal chemistry: (Mg,Fe^2+^,Ti^4+^)_21_(Si,Al)_12_O_28_(OH)_34_H_2_O
Locality: Val Varaita, near Sempeyre, Piedmont, Italy
Source: Michael Scott
Description: Pale green fibrous bundle
Raman shift (cm-1)	intensity
167.631	0
170.524	3.52734
173.416	0.739258
176.309	26.3904
179.202	61.377
182.094	80.825
184.987	108.164
187.88	87.8975
190.773	99.3735
193.665	106.3
196.558	111.662
199.451	131.362
202.343	140.623
205.236	126.918
208.129	117.201
211.021	120.096
213.914	127.396
216.807	165.061
219.699	191.404
222.592	246.742
225.485	297.619
228.377	359.995
231.27	384.563
234.163	392.742
237.056	347.376
239.948	281.351
242.841	188.811
245.734	114.522
248.626	69.1328
251.519	74.5483
254.412	63.2315
257.305	50.6494
260.197	52.1519
263.09	32.2129
265.983	35.6035
268.875	29.3843
271.768	10.4858
274.661	7.6167
277.553	7.67236
280.446	2.55713
283.339	21.1553
286.232	4.63672
289.124	8.37695
292.017	21.7798
294.91	11.6182
297.802	14.2944
300.695	8.88477
303.588	12.7861
306.481	2.92529
309.373	11.8462
312.266	22.686
315.159	26.5566
318.051	41.729
320.944	58.5742
323.837	60.748
326.729	44.2944
329.622	19.7241
332.515	2.86719
335.408	19.5439
338.3	26.3672
341.193	37.5273
344.086	57.9834
346.978	57.2837
349.871	40.0068
352.764	27.4155
355.656	26.8711
358.549	31.8208
361.442	46.7461
364.334	63.8804
367.227	73.6382
370.12	102.749
373.012	129.407
375.905	180.078
378.798	251.138
381.691	312.291
384.583	394.196
387.476	462.637
390.369	514.96
393.261	443.117
396.154	263.134
399.047	137.163
401.94	75.4097
404.832	41.0576
407.725	37.9292
410.618	26.7085
413.51	24.9756
416.403	20.9316
419.296	9.38672
422.188	1.43262
425.081	3.51758
427.974	2.71631
430.866	9.56738
433.759	22.8462
436.652	12.6138
439.545	16.9497
442.437	8.75049
445.33	0.005371
448.223	6.67383
451.115	12.2456
454.008	25
456.901	15.9263
459.793	32.9941
462.686	46.2739
465.579	56.0947
468.472	49.2344
471.364	22.9946
474.257	12.3101
477.15	8.33594
480.042	7.20898
482.935	13.7398
485.828	2.58154
488.721	4.5376
491.613	2.3706
494.506	4.67529
497.399	4.64307
500.291	24.8643
503.184	32.5527
506.077	42.7451
508.969	30.0825
511.862	32.6616
514.755	37.7549
517.648	34.3887
520.54	38.4883
523.433	45.9692
526.326	56.7988
529.218	53.5732
532.111	41.8569
535.004	34.8696
537.896	37.772
540.789	39.2769
543.682	30.9072
546.575	22.4116
549.467	27.6289
552.36	26.9697
555.253	20.6445
558.145	17.4912
561.038	24.8018
563.931	14.8935
566.823	20.0151
569.716	15.6977
572.609	7.71436
575.502	3.33057
578.394	11.6992
581.287	4.42481
584.18	8.97266
587.072	18.8984
589.965	18.9453
592.858	12.5581
595.75	7.29297
598.643	10.0015
601.536	14.5054
604.428	14.3418
607.321	26.3423
610.214	37.0557
613.107	51.9326
615.999	34.9414
618.892	47.3301
621.785	43.0493
624.677	50.7817
627.57	51.8232
630.463	46.6484
633.356	47.6602
636.248	41.4595
639.141	16.189
642.034	0.808594
644.926	6.59961
647.819	10.6836
650.712	27.3604
653.604	38.4062
656.497	45.252
659.39	66.2085
662.283	87.0161
665.175	113.212
668.068	112.119
670.961	133.732
673.853	129.627
676.746	159.706
679.639	215.698
682.531	297.634
685.424	367.679
688.317	438.459
691.21	465.812
694.102	381.782
696.995	286.486
699.888	205.867
702.78	140.471
705.673	90.8144
708.566	84.833
711.458	65.7441
714.351	56.3442
717.244	39.6187
720.136	11.624
723.029	6.854
725.922	5.271
728.815	14.8784
731.707	0.075195
734.6	6.43896
737.493	0.223145
740.385	10.6216
743.278	1.84814
746.171	9.2793
749.063	19.3423
751.956	23.3989
754.849	8.91162
757.742	18.1719
760.634	26.8472
763.527	37.1148
766.42	37.3872
769.312	36.4365
772.205	41.9634
775.098	58.519
777.99	60.3491
780.883	56.6602
783.776	34.8154
786.669	40.9727
789.561	34.2207
792.454	43.2734
795.347	37.3276
798.239	11.8403
801.132	6.54199
804.025	6.6665
806.918	11.0845
809.81	8.26416
812.703	6.40576
815.596	11.478
818.488	10.669
821.381	19.6953
824.274	7.03369
827.166	9.56445
830.059	12.4873
832.952	20.1025
835.845	22.7246
838.737	23.0557
841.63	19.0102
844.523	35.0098
847.415	53.2495
850.308	31.9131
853.201	31.938
856.093	17.7476
858.986	25.4482
861.879	26.1777
864.771	28.3208
867.664	11.1699
870.557	3.44531
873.45	21.9258
876.342	12.686
879.235	16.1328
882.128	17.3061
885.02	4.2041
887.913	1.7417
890.806	10.4863
893.698	17.9956
896.591	14.2812
899.484	33.6977
902.377	33.3657
905.269	10.3306
908.162	9.23535
911.055	18.2993
913.947	13.9097
916.84	28.584
919.733	29.4473
922.625	25.6348
925.518	32.127
928.411	25.8267
931.304	11.8975
934.196	13.812
937.089	9.2456
939.982	16.898
942.875	14.6069
945.767	13.0146
948.66	14.6387
951.553	25.8242
954.445	30.8442
957.338	28.498
960.231	25.8193
963.123	14.1187
966.016	8.49658
968.909	20.1553
971.802	9.25244
974.694	19.1416
977.587	33.6968
980.48	42.0024
983.372	33.7876
986.265	44.3345
989.158	39.5708
992.05	35.9468
994.943	16.4263
997.836	11.4785
1000.73	40.7637
1003.62	56.0244
1006.51	68.3716
1009.41	104.365
1012.3	132.912
1015.19	116.881
1018.09	59.9727
1020.98	30.6895
1023.87	22.9077
1026.76	2.78418
1029.66	9.11865
1032.55	19.1953
1035.44	34.5757
1038.33	20.1509
1041.23	0.923828
1044.12	0.170898
1047.01	8.02979
1049.9	20.2871
1052.8	9.32568
1055.69	3.33447
1058.58	26.9351
1061.47	8.41748
1064.37	8.73096
1067.26	7.20215
1070.15	5.27295
1073.05	7.06299
1075.94	26.2388
1078.83	33.5503
1081.72	46.813
1084.62	54.0161
1087.51	36.6289
1090.4	52.8833
1093.3	70.2607
1096.19	69.9824
1099.08	50.8223
1101.97	79.2773
1104.87	74.8262
1107.76	55.9492
1110.65	49.5605
1113.54	20.3633
1116.44	24.6284
1119.33	29.9819
1122.22	30.8169
1125.12	3.94678
1128.01	16.4565
1130.9	16.0127
1133.79	10.9961
1136.68	24.5102
1139.58	9.8291
1142.47	19.9629
1145.36	2.93164
1148.26	6.72217
1151.15	14.4634
1154.04	23.6314
1156.93	27.1001
1159.83	7.36328
1162.72	7.01269
1165.61	6.67627
1168.51	25.2388
1171.4	35.8931
1174.29	14.8823
1177.18	10.2168
1180.08	5.08789
1182.97	3.65283
1185.86	12.415
1188.75	6.31641
1191.65	6.42529
1194.54	10.8159
1197.43	15.9717
1200.33	24.4717
1203.22	9.28955
1206.11	20.772
1209	22.0508
1211.9	28.2241
1214.79	28.4233
1217.68	19.915
1220.57	12.1773
1223.47	8.21484
1226.36	18.2607
1229.25	18.2207
1232.14	33.4722
1235.04	24.6929
1237.93	18.8477
1240.82	17.0479
1243.71	8.76172
1246.61	9.35986
1249.5	31.0757
1252.39	37.2563
1255.29	10.3389
1258.18	16.2876
1261.07	19.9644
1263.96	29.2817
1266.86	24.0894
1269.75	39.2656
1272.64	7.479
1275.54	29.3008
1278.43	7.51318
1281.32	9.37207
1284.21	8.28955
1287.11	4.08936
1290	1.48828
1292.89	8.44141
1295.78	17.3071
1298.68	26.9624
1301.57	24.3501
