Measurement: Raman, 532 nm, unoriented, Raman Data Processed
Mineral: Carnallite
Rruff sample: R070291
Ideal chemistry: KMgCl_3_6H_2_O
Locality: Leopoldshall, Stassfurt, Stassfurt Deposit, Saxony-Anhalt, Germany
Source: Michael Scott
Description: Pink to grey coarse grained, poorly consolidated, melted surface, associated with kainite R100021 and pentahydrite R100022.
Raman shift (cm-1)	intensity
155.929	0
158.822	0.883789
161.715	32.3281
164.607	8.22949
167.5	62.8711
170.393	98.0637
173.286	85.6099
176.178	91.3169
179.071	99.6335
181.964	60.988
184.856	54.8494
187.749	103.221
190.642	76.7832
193.535	72.0898
196.427	35.6182
199.32	72.0725
202.213	57.5598
205.105	66.5803
207.998	26.2803
210.891	53.3657
213.783	8.02002
216.676	106.798
219.569	72.8127
222.462	88.2764
225.354	47.8943
228.247	111.242
231.14	127.816
234.032	150.923
236.925	69.375
239.818	50.6206
242.71	25.5923
245.603	4.13257
248.496	11.2634
251.388	33.7661
254.281	0.716797
257.174	50.1924
260.067	110.291
262.959	12.9668
265.852	63.6838
268.745	37.7776
271.637	87.0112
274.53	62.9168
277.423	110.618
280.315	65.5576
283.208	72.4788
286.101	82.364
288.994	81.1045
291.886	88.0112
294.779	124.47
297.672	118.908
300.564	130.693
303.457	129.182
306.35	137.37
309.243	169.757
312.135	181.905
315.028	246.237
317.921	223.442
320.813	261.918
323.706	312.908
326.599	264.627
329.491	264.488
332.384	316.376
335.277	307.22
338.17	378.665
341.062	465.304
343.955	483.94
346.848	471.333
349.74	445.83
352.633	484.964
355.526	427.193
358.418	381.619
361.311	306.531
364.204	310.802
367.097	209.276
369.989	140.771
372.882	30.9463
375.775	91.3408
378.667	96.9397
381.56	79.2461
384.453	41.6006
387.346	39.5867
390.238	0.74707
393.131	7.00195
396.024	25.4553
398.916	16.7444
401.809	2.85352
404.702	12.6257
407.594	3.00977
410.487	1.96728
413.38	48.4136
416.272	55.4145
419.165	90.4985
422.058	57.8359
424.951	72.9561
427.843	79.0996
430.736	79.2541
433.629	56.3835
436.521	68.1643
439.414	25.4568
442.307	89.989
445.2	87.8235
448.092	96.3115
450.985	51.7048
453.878	61.0295
456.77	101.199
459.663	58.7869
462.556	24.3806
465.448	31.6606
468.341	25.4888
471.234	74.0693
474.127	49.0793
477.019	55.9875
479.912	18.2739
482.805	75.0139
485.697	62.7361
488.59	66.283
491.483	46.7239
494.375	38.1177
497.268	47.5991
500.161	6.83765
503.053	41.0102
505.946	39.8953
508.839	3.07153
511.732	60.8953
514.624	13.2412
517.517	39.667
520.41	22.0847
523.302	13.811
526.195	17.73
529.088	23.3694
531.981	18.3901
534.873	10.8411
537.766	10.0496
540.659	0.701416
543.551	30.5176
546.444	0.098389
549.337	32.3372
552.229	73.1558
555.122	35.3726
558.015	1.09058
560.908	31.2854
563.8	32.9294
566.693	9.38672
569.586	4.44971
572.478	29.3977
575.371	70.104
578.264	47.1462
581.156	0.628174
584.049	32.4365
586.942	3.49536
589.835	41.9602
592.727	12.196
595.62	49.9939
598.513	5.4624
601.405	70.4546
604.298	14.2207
607.191	1.29761
610.083	9.90039
612.976	6.48926
615.869	31.0815
618.762	50.3899
621.654	47.2725
624.547	51.6619
627.44	74.2739
630.332	73.3845
633.225	96.4673
636.118	47.3015
639.01	43.1128
641.903	50.5395
644.796	43.229
647.689	51.4783
650.581	45.7476
653.474	7.94385
656.367	56.2681
659.259	3.51343
662.152	46.9028
665.045	78.8425
667.938	111.677
670.83	16.7993
673.723	68.1829
676.616	94.8511
679.508	57.2542
682.401	19.2329
685.294	29.343
688.186	70.4202
691.079	21.2669
693.972	40.3352
696.865	41.8347
699.757	19.9788
702.65	27.0288
705.543	57.4609
708.435	13.7258
711.328	20.7297
714.221	68.1125
717.113	44.4009
720.006	27.7812
722.899	87.6245
725.792	11.9346
728.684	32.8281
731.577	29.303
734.47	63.8828
737.362	39.7595
740.255	13.5193
743.148	23.9885
746.04	12.6216
748.933	18.4905
751.826	113.573
754.719	81.9465
757.611	28.6379
760.504	45.9624
763.397	23.8953
766.289	32.2353
769.182	37.0698
772.075	84.7363
774.967	60.2827
777.86	54.5784
780.753	97.7956
783.646	30.2612
786.538	57.6418
789.431	76.7165
792.324	21.5794
795.216	71.1006
798.109	80.8721
801.002	61.3918
803.894	21.1843
806.787	46.6091
809.68	47.2246
812.573	32.3023
815.465	50.4631
818.358	15.6838
821.251	6.37915
824.143	17.6174
827.036	47.2043
829.929	14.9426
832.822	27.3411
835.714	56.1775
838.607	80.3843
841.5	20.4155
844.392	21.4551
847.285	41.398
850.178	42.6797
853.07	57.2009
855.963	31.334
858.856	11.6853
861.749	15.8584
864.641	73.6716
867.534	83.1577
870.427	41.8831
873.319	68.8267
876.212	60.8613
879.105	13.4019
881.997	42.1631
884.89	11.1194
887.783	2.36401
890.676	59.602
893.568	39.8726
896.461	64.0413
899.354	60.814
902.246	39.3108
905.139	50.0398
908.032	27.6533
910.924	41.1411
913.817	55.0935
916.71	33.3252
919.602	38.0105
922.495	34.0249
925.388	27.3237
928.281	47.8777
931.173	39.364
934.066	45.292
936.959	27.7595
939.851	63.0972
942.744	26.2222
945.637	2.65967
948.529	90.625
951.422	34.0732
954.315	39.979
957.208	2.28906
960.1	31.1201
962.993	30.5127
965.886	88.2519
968.778	47.7983
971.671	0.906738
974.564	70.5669
977.457	16.7935
980.349	21.5054
983.242	32.5376
986.135	17.7105
989.027	58.5088
991.92	12.7549
994.813	29.7588
997.705	33.3994
1000.6	32.8096
1003.49	42.1392
1006.38	70.8359
1009.28	46.4175
1012.17	90.0806
1015.06	15.5308
1017.95	25.5215
1020.85	46.9624
1023.74	44.4233
1026.63	69.1284
1029.53	65.6108
1032.42	169.002
1035.31	124.54
1038.2	161.381
1041.1	158.409
1043.99	55.2222
1046.88	79.3149
1049.77	12.7192
1052.67	8.33496
1055.56	12.5366
1058.45	23.7803
1061.35	59.2261
1064.24	61.0859
1067.13	52.7534
1070.02	83.6738
1072.92	7.42969
1075.81	36.8603
1078.7	52.6895
1081.59	34.7105
1084.49	28.5474
1087.38	45.3711
1090.27	41.9092
1093.16	1.39404
1096.06	81.4531
1098.95	35.6206
1101.84	73.0845
1104.73	40.7207
1107.63	42.3179
1110.52	48.375
1113.41	19.6211
1116.31	70.5225
1119.2	11.8887
1122.09	20.3296
1124.98	81.5718
1127.88	9.01562
1130.77	41.417
1133.66	40.8296
1136.56	51.0332
1139.45	0.912598
1142.34	55.3662
1145.23	66.2964
1148.13	33.1875
1151.02	67.0493
1153.91	47.9243
1156.8	109.147
1159.7	77.3008
1162.59	94.7588
1165.48	12.147
1168.38	75.5967
1171.27	36.498
1174.16	54.7647
1177.05	22.3833
1179.95	10.2139
1182.84	51.6172
1185.73	37.2974
1188.62	69.1367
1191.52	49.7539
1194.41	77.665
1197.3	42.0718
1200.19	102.234
1203.09	3.19482
1205.98	4.97314
1208.87	4.83203
1211.77	12.4575
1214.66	28.0859
1217.55	9.62695
1220.44	47.2319
1223.34	59.4683
1226.23	42.4082
1229.12	47.7744
1232.01	19.2681
1234.91	24.062
1237.8	73.9702
1240.69	32.3491
1243.59	9.78613
1246.48	37.3579
1249.37	51.8999
1252.26	65.7358
1255.16	63.2017
1258.05	20.8477
1260.94	85.3286
1263.83	84.7168
1266.73	48.5078
1269.62	24.7744
1272.51	75.936
1275.4	59.8477
1278.3	19.3882
1281.19	11.8848
1284.08	64.5347
1286.98	10.9404
1289.87	0
