Measurement: Raman, 780 nm, unoriented, Raman Data Processed
Mineral: Carrollite
Rruff sample: R040165
Ideal chemistry: Cu^1+^Co^3+^_2_S_4_
Locality: Katanga, Democratic Republic of the Congo
Source: University of Arizona Mineral Museum
Description: Steel gray octahedral crystals that have a tarnished exterior
Measured chemistry: (Cu_0.97_Fe_0.03_)Co_1.98_S_4_
Raman shift (cm-1)	intensity
153.797	0
156.689	0.893799
159.582	0.936859
162.475	2.44067
165.367	1.78525
168.26	2.07629
171.153	4.21216
174.046	2.2131
176.938	3.668
179.831	2.25211
182.724	6.01816
185.616	4.88037
188.509	1.16635
191.402	3.98688
194.294	4.35245
197.187	0.734741
200.08	0.13028
202.972	0.316406
205.865	0.488708
208.758	1.45944
211.651	1.18109
214.543	0.899536
217.436	2.62976
220.329	4.43286
223.221	4.90118
226.114	3.86084
229.007	6.18869
231.899	6.64114
234.792	6.75784
237.685	11.3582
240.578	11.7056
243.47	14.9646
246.363	17.7643
249.256	20.6915
252.148	21.47
255.041	22.4293
257.934	20.5301
260.827	20.4379
263.719	20.8305
266.612	16.3758
269.505	13.6115
272.397	10.1595
275.29	7.20664
278.183	5.02686
281.075	6.16605
283.968	2.31528
286.861	2.86389
289.753	3.04343
292.646	2.18445
295.539	1.36063
298.432	3.67575
301.324	2.03992
304.217	2.85898
307.11	2.27585
310.002	0.069519
312.895	1.78305
315.788	0.280792
318.68	0.22934
321.573	2.57269
324.466	0.599274
327.359	1.56546
330.251	3.65112
333.144	2.54019
336.037	3.4007
338.929	4.77902
341.822	4.9913
344.715	4.08112
347.608	3.96271
350.5	5.52072
353.393	4.03009
356.286	5.63626
359.178	5.0864
362.071	2.62906
364.964	2.05356
367.856	2.15665
370.749	4.38669
373.642	1.59341
376.534	2.03061
379.427	1.02762
382.32	0.406158
385.213	2.71948
388.105	2.83301
390.998	2.76257
393.891	0.078583
396.783	0.39325
399.676	0.821625
402.569	0.016144
405.462	2.34277
408.354	1.0267
411.247	0.397003
414.14	0.376587
417.032	1.03388
419.925	0.592743
422.818	2.25256
425.71	1.79587
428.603	3.26416
431.496	2.7775
434.389	1.98477
437.281	3.9956
440.174	3.7005
443.067	5.91077
445.959	8.42319
448.852	10.9454
451.745	13.3043
454.637	17.1989
457.53	22.4906
460.423	26.8047
463.315	31.4144
466.208	36.0073
469.101	39.5168
471.994	34.5335
474.886	23.2585
477.779	15.2762
480.672	9.74899
483.564	6.87976
486.457	5.94702
489.35	4.39288
492.243	3.90247
495.135	4.14752
498.028	4.07282
500.921	1.26025
503.813	3.6217
506.706	0.834137
509.599	3.21759
512.491	3.02759
515.384	3.09015
518.277	0.987946
521.169	0.556427
524.062	1.36609
526.955	2.07004
529.848	2.09375
532.74	2.38663
535.633	0.281067
538.526	1.74631
541.418	1.50116
544.311	0.3414
547.204	0.220856
550.096	0.788086
552.989	1.85309
555.882	1.10019
558.775	0.087982
561.667	1.72498
564.56	0.132477
567.453	1.2016
570.345	2.75784
573.238	0.555634
576.131	0.958374
579.024	1.23502
581.916	2.32816
584.809	1.69379
587.702	1.30664
590.594	2.01648
593.487	1.28622
596.38	1.56796
599.272	0.602448
602.165	1.92673
605.058	2.77597
607.951	2.42807
610.843	0.924591
613.736	1.12949
616.629	2.34833
619.521	1.71625
622.414	2.76157
625.307	2.94812
628.199	2.7016
631.092	1.69363
633.985	1.65558
636.878	2.08252
639.77	2.06702
642.663	1.60065
645.556	3.00894
648.448	1.93247
651.341	3.98312
654.234	1.35113
657.126	2.53427
660.019	3.07724
662.912	0.668213
665.804	0.391876
668.697	1.62027
671.59	2.50769
674.483	1.14356
677.375	0.6315
680.268	2.08682
683.161	2.46442
686.053	1.47958
688.946	2.22809
691.839	2.02167
694.731	0.403442
697.624	1.09735
700.517	0.427582
703.41	0.035156
706.302	0.455292
709.195	2.95499
712.088	0.906525
714.98	1.74387
717.873	1.3277
720.766	1.32974
723.659	1.16891
726.551	0.427124
729.444	1.88959
732.337	2.53854
735.229	0.392883
738.122	1.46399
741.015	1.43796
743.907	1.70325
746.8	0.50885
749.693	0.062317
752.586	1.27472
755.478	1.24826
758.371	1.41309
761.264	0.286926
764.156	0.910278
767.049	1.19724
769.942	0.466522
772.834	2.9274
775.727	1.2728
778.62	1.66678
781.513	1.25391
784.405	0.710968
787.298	0.196198
790.191	2.17154
793.083	3.08893
795.976	3.04596
798.869	1.29279
801.761	1.33046
804.654	0.016312
807.547	1.14712
810.439	2.03769
813.332	1.22632
816.225	2.58864
819.118	1.8228
822.01	3.45155
824.903	0.93808
827.796	2.13785
830.688	1.39081
833.581	2.30051
836.474	3.16006
839.366	2.6514
842.259	1.43478
845.152	3.43359
848.045	2.99045
850.937	1.05859
853.83	0.248474
856.723	2.69864
859.615	3.40053
862.508	0.82431
865.401	1.99219
868.293	2.37952
871.186	2.16388
874.079	1.58492
876.972	1.43564
879.864	0.229004
882.757	0.249298
885.65	2.58553
888.542	1.18793
891.435	0.106064
894.328	1.5601
897.221	0.000977
900.113	0.943146
903.006	1.13164
905.899	0.61351
908.791	2.06705
911.684	0.143753
914.577	0.709183
917.469	2.77386
920.362	2.56139
923.255	0.236328
926.148	0.080963
929.04	0.724365
931.933	2.14049
934.826	3.05612
937.718	1.70402
940.611	1.40611
943.504	1.29643
946.396	0.381958
949.289	0.927612
952.182	0.329758
955.074	1.25914
957.967	1.27683
960.86	1.79047
963.753	1.12442
966.645	2.80698
969.538	2.31696
972.431	0.313019
975.323	0.146698
978.216	1.6871
981.109	2.57042
984.001	1.85318
986.894	1.59428
989.787	2.23784
992.68	1.33798
995.572	2.01376
998.465	0.011749
1001.36	1.20341
1004.25	0.429901
1007.14	0.055649
1010.04	0.604187
1012.93	1.64053
1015.82	1.17776
1018.71	1.14151
1021.61	1.88182
1024.5	1.83052
1027.39	1.00702
1030.29	2.3772
1033.18	2.53191
1036.07	2.50343
1038.96	1.67676
1041.86	1.72256
1044.75	1.53865
1047.64	1.15585
1050.53	1.1349
1053.43	0.404556
1056.32	3.7726
1059.21	3.18088
1062.1	1.85729
1065	0.840363
1067.89	0.363159
1070.78	1.36085
1073.67	1.0605
1076.57	1.7671
1079.46	0.249695
1082.35	0.519958
1085.25	0.163651
1088.14	1.90689
1091.03	0.765381
1093.92	2.55493
1096.82	0.28627
1099.71	0.483643
1102.6	1.95654
1105.49	0.835373
1108.39	0.019958
1111.28	0.567307
1114.17	0.896286
1117.07	0.687195
1119.96	1.96127
1122.85	2.2942
1125.74	0.053925
1128.64	2.11966
1131.53	0.046463
1134.42	1.94203
1137.32	2.55022
1140.21	3.13864
1143.1	2.31708
1145.99	2.22694
1148.88	3.0237
1151.78	2.841
1154.67	2.08298
1157.56	1.58987
1160.46	2.27206
1163.35	2.47679
1166.24	1.8746
1169.13	4.3056
1172.03	1.51611
1174.92	3.43773
1177.81	1.78716
1180.7	2.51973
1183.6	0.950363
1186.49	1.94934
1189.38	2.02391
1192.28	0.762955
1195.17	2.86589
1198.06	1.44751
1200.95	2.91414
1203.85	2.51169
1206.74	3.39003
1209.63	1.74506
1212.53	2.24983
1215.42	1.45363
1218.31	2.31984
1221.2	1.61057
1224.1	1.79109
1226.99	4.73009
1229.88	0.709213
1232.77	0.706985
1235.67	0.686646
1238.56	0.293457
1241.45	0.224014
1244.34	0.098465
1247.24	0.600494
1250.13	1.93527
1253.02	2.81404
1255.91	0.612915
1258.81	1.74046
1261.7	2.15198
1264.59	3.45401
1267.49	2.70779
1270.38	3.60072
1273.27	2.16962
1276.16	1.34111
1279.06	0.076111
1281.95	0.964981
1284.84	0.679153
