Measurement: Raman, 532 nm, unoriented, Raman Data Processed
Mineral: Carrollite
Rruff sample: R130024
Ideal chemistry: Cu^1+^Co^3+^_2_S_4_
Locality: Kisanfu, Katanga, Democratic Republic of the Congo
Source: Isabel Fay
Description: Silver metallic, massive, associated with chalcocite, bornite, digenite and magnesite
Raman shift (cm-1)	intensity
198.802	0
201.695	0.804634
204.588	0.190842
207.48	1.97268
210.373	0.873188
213.266	1.2341
216.158	1.20202
219.051	0.775654
221.944	1.70839
224.836	0.308052
227.729	0.942263
230.622	1.53707
233.514	0.083889
236.407	0.417553
239.3	0.815144
242.193	1.72531
245.085	1.54494
247.978	2.39676
250.871	1.58648
253.763	0.492994
256.656	0.663265
259.549	1.30109
262.442	1.75759
265.334	1.13384
268.227	1.43867
271.12	0.719168
274.012	0.069147
276.905	0.862869
279.798	0.701824
282.69	0.594681
285.583	1.03328
288.476	1.10504
291.368	0.394711
294.261	0.826408
297.154	0.329073
300.047	0.407708
302.939	0.38757
305.832	1.28699
308.725	1.17124
311.617	2.1351
314.51	0.699026
317.403	1.25415
320.296	1.16594
323.188	0.576288
326.081	0.27276
328.974	1.15202
331.866	0.81956
334.759	0.865526
337.652	1.05185
340.544	1.27545
343.437	1.61039
346.33	2.0526
349.223	2.43739
352.115	2.92952
355.008	3.61194
357.901	2.5906
360.793	1.71898
363.686	1.00719
366.579	1.45781
369.471	1.00948
372.364	0.894948
375.257	0.330524
378.149	0.974746
381.042	0.686504
383.935	0.627524
386.828	0.441635
389.72	0.449244
392.613	0.349265
395.506	0.446182
398.398	0.106463
401.291	0.178116
404.184	0.068876
407.077	0.453785
409.969	0.736144
412.862	0.357604
415.755	0.094411
418.647	0.055733
421.54	0.360128
424.433	0.369095
427.325	0.318246
430.218	0.243548
433.111	0.390256
436.003	0.269959
438.896	0.711876
441.789	0.650568
444.682	0.407445
447.574	1.00409
450.467	0.672761
453.36	0.485511
456.252	0.446357
459.145	0.66323
462.038	0.277747
464.93	0.221258
467.823	0.366247
470.716	0.523119
473.609	0.54207
476.501	0.521821
479.394	0.711285
482.287	0.302408
485.179	0.080578
488.072	0.115656
490.965	0.197623
493.858	0.183583
496.75	0.495479
499.643	0.322656
502.536	0.123805
505.428	0.653228
508.321	0.072838
511.214	0.083732
514.106	0.37986
516.999	0.02519
519.892	0.606932
522.784	0.126946
525.677	0.287159
528.57	0.871465
531.463	0.30837
534.355	0.32539
537.248	0.099638
540.141	0.14728
543.033	0.477824
545.926	0.269783
548.819	0.282443
551.712	0.373944
554.604	0.240199
557.497	0.536151
560.39	0.599146
563.282	0.581791
566.175	0.144926
569.068	0.204864
571.96	0.336927
574.853	0.580876
577.746	0.670475
580.639	0.272253
583.531	0.063479
586.424	0.240228
589.317	0.057605
592.209	0.498399
595.102	0.250326
597.995	0.300303
600.888	0.325815
603.78	0.307691
606.673	0.740646
609.566	0.465625
612.458	0.20804
615.351	0.268505
618.244	0.076087
621.136	0.545107
624.029	0.269338
626.922	0.256396
629.814	0.282319
632.707	0.181429
635.6	0.188976
638.493	0.290379
641.385	0.360641
644.278	0.235282
647.171	0.581726
650.063	0.247591
652.956	0.09632
655.849	0.279439
658.741	0.342829
661.634	0.062982
664.527	0.617648
667.42	0.44544
670.312	0.464959
673.205	0.40461
676.098	0.099207
678.99	0.18288
681.883	0.075472
684.776	0.407612
687.668	0.349032
690.561	0.391349
693.454	0.209194
696.347	0.020253
699.239	0.073909
702.132	0.30875
705.025	0.658846
707.917	0.249851
710.81	0.162617
713.703	0.13535
716.596	0.126118
719.488	0.083055
722.381	0.480866
725.274	0.209118
728.166	0.378482
731.059	0.165921
733.952	0.06858
736.844	0.314436
739.737	0.470695
742.63	0.205586
745.523	0.20746
748.415	0.251979
751.308	0.246354
754.201	0.149311
757.093	0.265481
759.986	0.041811
762.879	0.363769
765.771	0.665261
768.664	0.097979
771.557	0.494188
774.449	0.492831
777.342	0.362465
780.235	0.323239
783.128	0.445566
786.02	0.265771
788.913	0.186325
791.806	0.377752
794.698	0.441622
797.591	0.633698
800.484	0.541875
803.376	0.444232
806.269	0.502059
809.162	0.441574
812.055	0.600007
814.947	0.54654
817.84	0.308056
820.733	0.442018
823.625	0.721286
826.518	0.786177
829.411	0.800416
832.303	0.859418
835.196	0.675169
838.089	0.77155
840.982	0.723367
843.874	0.731752
846.767	0.794932
849.66	0.740175
852.552	0.885045
855.445	1.02388
858.338	0.908875
861.231	0.683275
864.123	0.80928
867.016	0.697977
869.909	0.542315
872.801	0.504482
875.694	0.716042
878.587	0.655644
881.479	0.484934
884.372	0.377627
887.265	0.306078
890.158	0.378201
893.05	0.313432
895.943	0.254972
898.836	0.237904
901.728	0.166927
904.621	0.527487
907.514	0.165383
910.406	0.245069
913.299	0.314737
916.192	0.040167
919.085	0.13887
921.977	0.664107
924.87	0.073505
927.763	0.175891
930.655	0.383248
933.548	0.196934
936.441	0.156436
939.333	0.470456
942.226	0.576674
945.119	0.362795
948.011	0.111157
950.904	0.087851
953.797	0.065515
956.69	0.369857
959.582	0.289722
962.475	0.294461
965.368	0.591928
968.26	0.399581
971.153	0.454773
974.046	0.081675
976.938	0.271752
979.831	0.633148
982.724	0.378561
985.617	0.548729
988.509	0.301436
991.402	0.223963
994.295	0.238447
997.187	0.342827
1000.08	0.392694
1002.97	0.141964
1005.87	0.433875
1008.76	0.189739
1011.65	0.429121
1014.54	0.37926
1017.44	0.223562
1020.33	0.307278
1023.22	0.429122
1026.11	0.36044
1029.01	0.629943
1031.9	0.585249
1034.79	0.120822
1037.68	0.553515
1040.58	0.425018
1043.47	0.601104
1046.36	0.566117
1049.26	0.516805
1052.15	0.48416
1055.04	0.382278
1057.93	0.161899
1060.83	0.138899
1063.72	0.48921
1066.61	0.289593
1069.51	0.312664
1072.4	0.187582
1075.29	0.266831
1078.18	0.162271
1081.08	0.344066
1083.97	0.25531
1086.86	0.417974
1089.75	0.111008
1092.65	0.476532
1095.54	0.102764
1098.43	0.275859
1101.33	0.354305
1104.22	0.254709
1107.11	0.031911
1110	0.057838
1112.89	0.127728
1115.79	0.133492
1118.68	0.24045
1121.57	0.29396
1124.47	0.083436
1127.36	0.241231
1130.25	0.08049
1133.14	0.079741
1136.04	0.369714
1138.93	0.230492
1141.82	0.097066
1144.71	0.324905
1147.61	0.212802
1150.5	0.010655
1153.39	0.548107
1156.29	0.152839
1159.18	0.550726
1162.07	0.266578
1164.96	0.198066
1167.86	0.221319
1170.75	0.178561
1173.64	0.157205
1176.54	0.378875
1179.43	0.119033
1182.32	0.250849
1185.21	0.229168
1188.11	0.270225
1191	0.046673
1193.89	0.565146
1196.78	0.214697
1199.68	0.203829
1202.57	0.747057
1205.46	0.369028
1208.35	0.134732
1211.25	0.279809
1214.14	0.211284
1217.03	0.468266
1219.92	0.100558
1222.82	0.436122
1225.71	0.382384
1228.6	0.301791
1231.5	0.551452
1234.39	0.336183
1237.28	0.315038
1240.17	0.231131
1243.07	0.027461
1245.96	0.224931
1248.85	0.097075
1251.74	0.428207
1254.64	0.343876
1257.53	0.255495
1260.42	0.116125
1263.32	0.233908
1266.21	0.502106
1269.1	0.322155
1271.99	0.401218
1274.89	0.573838
1277.78	0.5748
1280.67	0.268165
1283.57	0.092928
1286.46	0.204956
1289.35	0.239707
1292.24	0.162852
1295.13	0.066947
1298.03	0.116417
1300.92	0.090846
