Measurement: Raman, 785 nm, unoriented, Raman Data Processed
Mineral: Caryopilite
Rruff sample: R070180
Ideal chemistry: Mn^2+^_3_Si_2_O_5_(OH)_4_
Locality: Gambatesa Mine, Graveglia Valley, Ne, Genova Province, Liguria, Italy
Source: Michael Scott
Description: Spherical aggregates of brown thin platelets
Raman shift (cm-1)	intensity
185.431	0
188.324	65.7236
191.217	1.57031
194.109	55.8843
197.002	91.2793
199.895	84.6035
202.787	91.2969
205.68	51.3149
208.573	108.172
211.465	42.8389
214.358	76.4268
217.251	88.5049
220.144	103.019
223.036	182.412
225.929	130.724
228.822	156.937
231.714	68.5176
234.607	119.706
237.5	110.009
240.393	218.641
243.285	126.515
246.178	129.331
249.071	146.821
251.963	94.561
254.856	31.1348
257.749	13.6655
260.641	112.51
263.534	67.6279
266.427	86.895
269.32	112.39
272.212	122.39
275.105	69.6113
277.998	85.4268
280.89	153.092
283.783	161.617
286.676	172.136
289.568	129.351
292.461	138.499
295.354	135.429
298.247	70.8027
301.139	186.664
304.032	172.844
306.925	180.744
309.817	156.307
312.71	255.766
315.603	244.273
318.495	121.409
321.388	99.3774
324.281	97.5425
327.173	131.127
330.066	82.3115
332.959	68.5615
335.852	47.0454
338.744	39.4785
341.637	43.4228
344.53	74.7104
347.422	31.8154
350.315	15.7324
353.208	63.6035
356.101	17.1528
358.993	4.70215
361.886	86.0112
364.779	38.834
367.671	51.3755
370.564	14.5815
373.457	122.455
376.349	105.108
379.242	120.894
382.135	165.502
385.027	232.412
387.92	148.644
390.813	194.066
393.706	331.865
396.598	315.959
399.491	362.502
402.384	299.447
405.276	360.962
408.169	314.332
411.062	238.883
413.954	213.101
416.847	185.373
419.74	113.645
422.633	142.464
425.525	82.3232
428.418	68.0142
431.311	74.6743
434.203	83.6362
437.096	99.353
439.989	72.5249
442.882	132.976
445.774	78.1543
448.667	38.2476
451.56	43.2632
454.452	24.4995
457.345	6.73438
460.238	13.8394
463.13	90.7261
466.023	52.1528
468.916	93.645
471.808	43.8394
474.701	77.436
477.594	42.9976
480.487	40.9121
483.379	78.8438
486.272	102.921
489.165	91.1401
492.057	151.544
494.95	214.815
497.843	233.826
500.736	295.62
503.628	292.079
506.521	252.128
509.414	280.588
512.306	276.027
515.199	232.731
518.092	201.465
520.984	90.6328
523.877	130.274
526.77	74.1279
529.663	56.4741
532.555	60.2602
535.448	69.0312
538.341	35.6934
541.233	66.9644
544.126	34.0786
547.019	13.9692
549.911	1.64795
552.804	27.3286
555.697	42.1621
558.59	60.2222
561.482	14.6069
564.375	28.6606
567.268	32.3789
570.16	3.91065
573.053	75.9194
575.946	80.7988
578.838	146.523
581.731	101.122
584.624	227.004
587.516	202.132
590.409	271.933
593.302	307.036
596.195	340.91
599.087	360.762
601.98	515.086
604.873	462.096
607.765	551.881
610.658	575.558
613.551	623.982
616.443	661.151
619.336	559.921
622.229	529.527
625.122	520.601
628.014	503.832
630.907	545.459
633.8	468.299
636.692	455.669
639.585	439.507
642.478	418.229
645.37	412.536
648.263	274.641
651.156	360.965
654.049	340.941
656.941	224.112
659.834	306.362
662.727	251.607
665.619	200.924
668.512	190.494
671.405	78.4985
674.297	133.481
677.19	77.854
680.083	79.5073
682.976	57.5566
685.868	57.77
688.761	3.94385
691.654	21.7021
694.546	75.4951
697.439	68.6894
700.332	1.95947
703.224	21.8501
706.117	82.396
709.01	72.1079
711.903	16.7881
714.795	18.5337
717.688	10.3989
720.581	58.6133
723.473	34.979
726.366	68.7842
729.259	36.2529
732.151	36.71
735.044	32.626
737.937	13.5435
740.83	35.2871
743.722	74.0698
746.615	23.0825
749.508	38.1797
752.4	13.8457
755.293	78.6196
758.186	40.2075
761.078	90.0508
763.971	74.2202
766.864	74.4273
769.756	72.0796
772.649	77.708
775.542	99.2065
778.435	83.8979
781.327	51.0772
784.22	76.2363
787.113	131.392
790.005	61.7676
792.898	32.75
795.791	130.695
798.683	19.249
801.576	41.9331
804.469	4.62354
807.362	51.0737
810.254	23.5234
813.147	46.3403
816.04	36.2451
818.932	77.1865
821.825	94.3354
824.718	5.60449
827.611	21.3384
830.503	4.38965
833.396	77.6167
836.289	50.2031
839.181	140.625
842.074	67.1064
844.967	49.2949
847.859	72.6143
850.752	18.0889
853.645	75.0312
856.538	105.089
859.43	22.542
862.323	40.25
865.216	13.1528
868.108	22.8584
871.001	43.9727
873.894	61.21
876.786	31.6494
879.679	7.25781
882.572	18.8227
885.465	35.9209
888.357	97.9062
891.25	24.8242
894.143	62.0493
897.035	55.2358
899.928	60.4722
902.821	105.336
905.713	38.042
908.606	81.1074
911.499	78.29
914.391	41.5347
917.284	40.0703
920.177	12.501
923.07	69.9463
925.962	26.7485
928.855	60.6606
931.748	25.0527
934.64	21.3052
937.533	35.2305
940.426	13.7524
943.318	54.8682
946.211	26.8584
949.104	20.6436
951.997	25.5996
954.889	14.6055
957.782	60.5742
960.675	14.8672
963.567	38.0015
966.46	72.1958
969.353	3.92188
972.245	37.02
975.138	15.9209
978.031	0.433594
980.924	85.3848
983.816	13.8257
986.709	20.5449
989.602	6.08301
992.494	55.3569
995.387	81.3442
998.28	69.4902
1001.17	105.533
1004.07	86.3325
1006.96	139.781
1009.85	118.076
1012.74	183.929
1015.64	174.48
1018.53	278.604
1021.42	388.742
1024.31	418.213
1027.21	482.294
1030.1	438.832
1032.99	295.507
1035.88	175.363
1038.78	139.331
1041.67	40.9966
1044.56	55.5864
1047.46	35.2925
1050.35	39.02
1053.24	62.8252
1056.13	103.998
1059.03	58.1606
1061.92	64.4731
1064.81	104.645
1067.7	26.7871
1070.6	100.326
1073.49	20.2148
1076.38	100.731
1079.28	50.8799
1082.17	92.9556
1085.06	68.6035
1087.95	8.01953
1090.85	31.7773
1093.74	27.1445
1096.63	51.2075
1099.52	25.8311
1102.42	73.6724
1105.31	13.8569
1108.2	50.2876
1111.1	34.5645
1113.99	47.9429
1116.88	51.7607
1119.77	9.99951
1122.67	44.873
1125.56	17.8438
1128.45	43.0342
1131.34	26.1811
1134.24	11.9121
1137.13	4.95215
1140.02	26.3672
1142.91	97.1924
1145.81	48.1777
1148.7	62.9868
1151.59	36.3252
1154.49	45.4746
1157.38	8.81982
1160.27	32.52
1163.16	10.6821
1166.06	0.914551
1168.95	1.98828
1171.84	57.2305
1174.73	24.4185
1177.63	31.8311
1180.52	5.26074
1183.41	40.5938
1186.31	18.2324
1189.2	3.14356
1192.09	51.3481
1194.98	62.5352
1197.88	71.9819
1200.77	36.8911
1203.66	48.7026
1206.55	30.2598
1209.45	35.3281
1212.34	43.3223
1215.23	73.311
1218.12	39.3696
1221.02	89.8779
1223.91	51.6221
1226.8	31.3105
1229.7	6.28857
1232.59	50.5605
1235.48	44.1089
1238.37	51.2534
1241.27	9.66065
