Measurement: Raman, 532 nm, unoriented, Raman Data Processed
Mineral: Caryopilite
Rruff sample: R070180
Ideal chemistry: Mn^2+^_3_Si_2_O_5_(OH)_4_
Locality: Gambatesa Mine, Graveglia Valley, Ne, Genova Province, Liguria, Italy
Source: Michael Scott
Description: Spherical aggregates of brown thin platelets
Raman shift (cm-1)	intensity
163.681	0
166.573	110.052
169.466	172.211
172.359	235.009
175.252	337.477
178.144	312.536
181.037	348.393
183.93	367.432
186.822	377.077
189.715	389.654
192.608	302.083
195.5	282.929
198.393	334.907
201.286	245.398
204.179	202.381
207.071	175.797
209.964	280.144
212.857	192.278
215.749	244.391
218.642	161.948
221.535	145.557
224.428	122.633
227.32	141.211
230.213	141.856
233.106	239.052
235.998	120.362
238.891	122.233
241.784	56.2285
244.676	34.46
247.569	91.9863
250.462	6.50098
253.355	38.3565
256.247	19
259.14	25.0986
262.033	32.0752
264.925	51.5898
267.818	25.2109
270.711	64.3857
273.603	44.1494
276.496	59.2002
279.389	37.706
282.281	99.6836
285.174	48.2559
288.067	56.1875
290.959	14.8486
293.852	147.503
296.745	143.486
299.638	140.698
302.53	104.531
305.423	228.8
308.316	195.209
311.208	127.308
314.101	134.273
316.994	126.427
319.887	171.93
322.779	77.584
325.672	91.8897
328.565	53.915
331.457	143.665
334.35	29.4443
337.243	78.7793
340.135	57.0156
343.028	68.2148
345.921	80.1445
348.813	38.7988
351.706	9.58008
354.599	27.5312
357.492	135.773
360.384	31.7734
363.277	97.7227
366.17	114.436
369.062	163.857
371.955	164.268
374.848	236.348
377.74	282.699
380.633	303.57
383.526	291.303
386.418	313.912
389.311	351.449
392.204	485.598
395.097	531.215
397.989	446.602
400.882	463.137
403.775	560.127
406.667	471.701
409.56	376.853
412.453	277.486
415.346	315.006
418.238	177.445
421.131	220.731
424.024	230.568
426.916	183.283
429.809	94.1699
432.702	134.785
435.594	71.4199
438.487	2.03125
441.38	47.7656
444.272	25.6758
447.165	2.98633
450.058	110.834
452.951	7.91211
455.843	21.043
458.736	60.8555
461.629	135.793
464.521	0.898438
467.414	40.6289
470.307	2.67188
473.2	147.016
476.092	256.451
478.985	238.643
481.878	264.865
484.77	283.699
487.663	424.42
490.556	485.631
493.448	679.232
496.341	812.76
499.234	835.117
502.127	932.412
505.019	946.35
507.912	981.529
510.805	963.238
513.697	712.543
516.59	614.131
519.483	594.947
522.375	441.828
525.268	370.084
528.161	184.152
531.053	169.289
533.946	133.574
536.839	195.469
539.731	206.006
542.624	64.1231
545.517	3.55273
548.41	29.5332
551.302	60.4844
554.195	38.498
557.088	5.18555
559.98	15.0625
562.873	5.24609
565.766	11.9512
568.659	41.7539
571.551	53.4043
574.444	43.1348
577.337	146.369
580.229	86.4609
583.122	201.977
586.015	223.705
588.907	201.695
591.8	333.01
594.693	399.451
597.585	574.633
600.478	674.412
603.371	822.348
606.264	754.027
609.156	798.535
612.049	885.707
614.942	953.393
617.834	831.508
620.727	942.981
623.62	923.117
626.513	865.127
629.405	838.537
632.298	852.178
635.191	860.521
638.083	786.242
640.976	772.019
643.869	698.838
646.761	640.932
649.654	680.812
652.547	767.697
655.439	662.481
658.332	622.93
661.225	644.197
664.117	535.307
667.01	387.549
669.903	364.279
672.796	303.305
675.688	111.59
678.581	223.818
681.474	231.736
684.366	149.113
687.259	211.828
690.152	85.1172
693.044	105.859
695.937	56.4121
698.83	65.0273
701.723	18.3418
704.615	73.4434
707.508	27.0996
710.401	47.1211
713.293	27.0371
716.186	32.498
719.079	93.0801
721.971	99.2305
724.864	71.9727
727.757	65.9727
730.649	89.0117
733.542	116.894
736.435	49.2695
739.328	29.3105
742.22	96.3203
745.113	96.4453
748.006	76.9004
750.898	108.475
753.791	168.072
756.684	89.4004
759.577	75.0254
762.469	100.709
765.362	21.3848
768.255	64.0391
771.147	151.918
774.04	121.981
776.933	80.2012
779.825	99.9766
782.718	49.4688
785.611	66.4824
788.504	196.004
791.396	165.639
794.289	30.8711
797.182	178.318
800.074	154.912
802.967	139.812
805.86	71.4629
808.752	74.3769
811.645	25.2227
814.538	160.967
817.431	88.1484
820.323	222.611
823.216	59.8262
826.109	62.1523
829.001	37.1797
831.894	135.957
834.787	120.504
837.679	160.055
840.572	41.1543
843.465	123.609
846.357	22.9219
849.25	71.8027
852.143	100.619
855.036	7.5293
857.928	115.723
860.821	13.9707
863.714	100.74
866.606	113.322
869.499	113.932
872.392	144.65
875.284	114.484
878.177	114.898
881.07	40.8203
883.962	82.5156
886.855	38.7363
889.748	128.898
892.641	69.834
895.533	239.074
898.426	153.232
901.319	74.4512
904.211	68.9102
907.104	65.5586
909.997	105.307
912.889	72.75
915.782	162.43
918.675	172.279
921.568	37.832
924.46	206.42
927.353	101.496
930.246	43.127
933.138	42.2227
936.031	117.228
938.924	160.984
941.817	129.328
944.709	160.641
947.602	34.6133
950.495	105.879
953.387	84.375
956.28	27.8965
959.173	25.3359
962.065	161.176
964.958	79.8555
967.851	184.236
970.744	53.7754
973.636	123.756
976.529	42.0996
979.422	189.328
982.314	73.5762
985.207	110.904
988.1	43.2344
990.992	231.332
993.885	67.4941
996.778	265.242
999.67	216.357
1002.56	275.701
1005.46	173.822
1008.35	325.693
1011.24	297.389
1014.13	376.022
1017.03	652.219
1019.92	787.617
1022.81	901.451
1025.7	1032.29
1028.6	1022.98
1031.49	607.826
1034.38	462.785
1037.28	411.596
1040.17	230.5
1043.06	58.3223
1045.95	163.867
1048.85	105.621
1051.74	104.945
1054.63	158.195
1057.52	179.707
1060.42	177.482
1063.31	198.312
1066.2	114.811
1069.1	1.65625
1071.99	139.736
1074.88	112.109
1077.77	99.209
1080.67	6.97461
1083.56	153.742
1086.45	97.6582
1089.34	114.297
1092.24	64.707
1095.13	134.621
1098.02	100.363
1100.91	52.2637
1103.81	28.5078
1106.7	62.291
1109.59	18.9746
1112.49	105.269
1115.38	234.32
1118.27	148.191
1121.16	91.2012
1124.06	35.1484
1126.95	13.7598
1129.84	8.73047
1132.73	244.455
1135.63	10.9766
1138.52	97.3633
1141.41	50.7363
1144.31	194.262
1147.2	185.191
1150.09	94.8594
1152.98	139.447
1155.88	43.6406
1158.77	288.551
1161.66	172.418
1164.55	87.9062
1167.45	150.953
1170.34	153.412
1173.23	91.8926
1176.12	100.254
1179.02	43.5801
1181.91	131.584
1184.8	95.8691
1187.7	155.141
1190.59	69.2227
1193.48	45.4316
1196.37	193.342
1199.27	159.756
1202.16	139.006
1205.05	173.486
1207.94	97.25
1210.84	1.43555
1213.73	73.7617
1216.62	49.9863
1219.52	65.5156
1222.41	99.6094
1225.3	78.7578
1228.19	8.35156
1231.09	28.0176
1233.98	8.54102
1236.87	239.994
1239.76	220.82
1242.66	104.084
1245.55	11.2324
1248.44	122.297
1251.34	26.9824
1254.23	69.9941
1257.12	110.766
1260.01	38.1211
1262.91	75.1328
1265.8	93.8184
1268.69	197.094
1271.58	133.57
1274.48	66.709
1277.37	165.129
1280.26	23.9141
1283.15	133.102
1286.05	242.99
1288.94	211.269
1291.83	24.9629
1294.73	138.18
1297.62	92.7402
1300.51	168.918
1303.4	192.711
1306.3	33.0273
1309.19	168.152
1312.08	8.75781
1314.97	41.0391
