Measurement: Raman, 532 nm, unoriented, Raman Data Processed
Mineral: Cassiterite
Rruff sample: R040017
Ideal chemistry: SnO_2_
Locality: Bolivia
Source: University of Arizona Mineral Museum
Description: Dark brown short prismatic single crystals
Measured chemistry: Sn_1.00_O_2_; trace amounts of Fe
Raman shift (cm-1)	intensity
139.361	0
141.771	1.69299
144.182	1.86844
146.593	23.6923
149.003	16.0222
151.414	13.345
153.824	12.5005
156.235	9.43378
158.645	29.949
161.056	43.415
163.467	39.0897
165.877	28.224
168.288	15.7436
170.698	39.2792
173.109	25.1331
175.519	10.8108
177.93	9.24323
180.341	6.16678
182.751	27.0684
185.162	15.3094
187.572	7.63187
189.983	0.609436
192.393	7.08737
194.804	4.96521
197.215	4.44055
199.625	13.8287
202.036	4.29089
204.446	4.69846
206.857	16.1413
209.268	19.9771
211.678	40.1322
214.089	62.195
216.499	131.44
218.91	178.117
221.321	185.61
223.731	173.205
226.142	177.629
228.552	170.274
230.963	178.678
233.373	187.355
235.784	184.399
238.195	178.519
240.605	201.731
243.016	237.304
245.426	206.949
247.837	225.381
250.248	220.901
252.658	198.886
255.069	205.532
257.479	185.734
259.89	171.404
262.3	173.474
264.711	170.302
267.122	186.869
269.532	189.012
271.943	174.468
274.353	92.2736
276.764	51.4782
279.175	52.8155
281.585	47.3695
283.996	36.7276
286.406	31.2596
288.817	11.8602
291.227	10.7527
293.638	4.53674
296.048	4.159
298.459	26.2162
300.87	33.6018
303.28	56.5514
305.691	45.4236
308.101	48.2994
310.512	39.1113
312.923	72.1692
315.333	73.2875
317.744	78.0193
320.154	106.566
322.565	132.233
324.976	134.551
327.386	105.531
329.797	118.541
332.207	128.861
334.618	108.254
337.028	92.2675
339.439	117.815
341.85	88.135
344.26	96.9394
346.671	89.2727
349.081	73.4956
351.492	63.0808
353.902	44.0446
356.313	20.856
358.724	31.0435
361.134	14.7875
363.545	15.9106
365.955	2.34784
368.366	10.4256
370.777	16.1139
373.187	4.75903
375.598	2.91754
378.008	6.07153
380.419	11.5197
382.829	1.91431
385.24	8.62274
387.651	11.8973
390.061	27.415
392.472	12.9262
394.882	0.957947
397.293	2.44665
399.704	10.2902
402.114	16.2427
404.525	14.568
406.935	0.41095
409.346	14.5617
411.756	11.5193
414.167	47.0184
416.578	30.4328
418.988	23.8902
421.399	26.1501
423.809	60.7572
426.22	67.1379
428.63	106.079
431.041	152.919
433.452	223.68
435.862	274.573
438.273	268.224
440.683	218.025
443.094	137.427
445.505	82.8546
447.915	68.157
450.326	88.28
452.736	96.1406
455.147	134.082
457.558	156.944
459.968	197.099
462.379	294.165
464.789	532.481
467.2	864.803
469.61	1348.36
472.021	2165.04
474.432	3136.83
476.842	2674.02
479.253	1254.83
481.663	645.135
484.074	464.991
486.485	433.361
488.895	492.558
491.306	424.948
493.716	505.24
496.127	605.349
498.537	637.135
500.948	576.458
503.359	542.541
505.769	480.05
508.18	421.596
510.59	398.602
513.001	324.284
515.411	283.427
517.822	200.446
520.233	113.349
522.643	68.0684
525.054	36.7567
527.464	61.5889
529.875	85.9352
532.285	125.693
534.696	185.527
537.107	303.329
539.517	374.536
541.928	387.964
544.338	340.24
546.749	273.23
549.16	198.464
551.57	183.716
553.981	141.186
556.391	123.162
558.802	80.7638
561.212	58.6493
563.623	56.9559
566.034	18.3666
568.444	4.66553
570.855	33.2192
573.265	23.8649
575.676	31.5186
578.087	18.7946
580.497	33.8758
582.908	28.5968
585.318	1.7326
587.729	16.4998
590.139	40.0677
592.55	80.0347
594.961	128.272
597.371	167.604
599.782	252.319
602.192	345.365
604.603	492.894
607.014	616.971
609.424	779.087
611.835	1041.56
614.245	1297.45
616.656	1789.38
619.067	2510.36
621.477	3576.74
623.888	5157.73
626.298	7580.3
628.709	10989.1
631.119	15378.6
633.53	18235
635.941	15458.6
638.351	10166
640.762	6193.71
643.172	3909.22
645.583	2689.17
647.994	1955.12
650.404	1419.15
652.815	1135.62
655.225	846.961
657.636	684.639
660.046	565.836
662.457	462.555
664.867	400.755
667.278	385.94
669.689	363.354
672.099	341.318
674.51	336.222
676.92	320.295
679.331	385.049
681.742	400.801
684.152	452.268
686.563	545.506
688.973	607.297
691.384	670.733
693.794	746.725
696.205	729.179
698.616	615.399
701.026	371.663
703.437	185.353
705.847	62.2921
708.258	27.1956
710.669	28.1796
713.079	5.90875
715.49	11.5497
717.9	33.9389
720.311	48.3018
722.721	16.4702
725.132	27.533
727.543	1.07733
729.953	6.61078
732.364	5.92242
734.774	9.58185
737.185	21.4119
739.596	10.8001
742.006	0.13739
744.417	11.382
746.827	0.913269
749.238	29.8536
751.648	5.27551
754.059	43.6397
756.47	129.652
758.88	244.797
761.291	404.204
763.701	650.994
766.112	1053.83
768.523	1640.16
770.933	2341.35
773.344	2884.74
775.754	3004.05
778.165	2767.47
780.575	2202.11
782.986	1670.44
785.397	1253.54
787.807	963.513
790.218	805.284
792.628	675.647
795.039	586.431
797.449	506.868
799.86	453.658
802.271	427.548
804.681	373.988
807.092	311.443
809.502	279.841
811.913	244.104
814.323	219.039
816.734	166.968
819.145	136.948
821.555	95.0153
823.966	80.5249
826.376	57.0397
828.787	42.1309
831.198	13.4016
833.608	6.36066
836.019	28.1439
838.429	33.1883
840.84	98.4302
843.25	102.127
845.661	149.454
848.072	211.006
850.482	215.243
852.893	223.421
855.303	226.019
857.714	235.158
860.125	263.477
862.535	273.411
864.946	262.879
867.356	238.694
869.767	225.222
872.178	217.524
874.588	186.268
876.999	171.277
879.409	152.128
881.82	132.706
884.23	96.8086
886.641	83.5302
889.052	66.1665
891.462	61.1268
893.873	47.2703
896.283	33.3685
898.694	16.5664
901.105	7.44885
903.515	2.90265
905.926	2.08466
908.336	1.63849
910.747	13.614
913.157	15.2731
915.568	2.53314
917.979	17.8786
920.389	4.45721
922.8	7.27066
925.21	16.1041
927.621	8.23441
930.032	25.4833
932.442	20.68
934.853	17.8133
937.263	30.3438
939.674	29.0686
942.084	36.3616
944.495	25.3063
946.906	57.8472
949.316	54.3801
951.727	73.4525
954.137	71.9448
956.548	85.8752
958.958	113.307
961.369	114.414
963.78	126.322
966.19	148.141
968.601	148.142
971.011	159.304
973.422	154.801
975.832	157.021
978.243	136.381
980.654	96.584
983.064	66.2266
985.475	55.7107
987.885	25.6801
990.296	32.524
992.707	7.25021
995.117	7.18326
997.528	7.61932
999.938	3.74448
1002.35	6.11481
1004.76	17.5512
1007.17	10.7614
1009.58	17.6563
1011.99	21.9561
1014.4	16.0608
1016.81	14.7617
1019.22	4.97528
1021.63	5.8226
1024.04	15.256
1026.45	7.25263
1028.87	7.96829
