Measurement: Raman, 785 nm, unoriented, Raman Data Processed
Mineral: Cassiterite
Rruff sample: R040072
Ideal chemistry: SnO_2_
Locality: Bolivia
Source: University of Arizona Mineral Museum
Description: Black fragment
Measured chemistry: Sn_0.99_O_2_
Raman shift (cm-1)	intensity
150.074	0
152.967	31.0863
155.86	34.1044
158.752	47.8586
161.645	71.6849
164.538	36.1335
167.43	72.6561
170.323	93.8325
173.216	80.2492
176.109	102.779
179.001	60.2637
181.894	49.9326
184.787	14.9113
187.679	41.0185
190.572	8.4978
193.465	21.2944
196.357	9.91333
199.25	35.0219
202.143	15.9257
205.036	6.77179
207.928	17.6994
210.821	1.02887
213.714	57.2398
216.606	78.7862
219.499	128.686
222.392	136.733
225.285	125.84
228.177	92.4264
231.07	111.233
233.963	96.9985
236.855	107.747
239.748	120.17
242.641	98.9758
245.533	137.589
248.426	128.94
251.319	139.29
254.212	133.579
257.104	71.3663
259.997	109.123
262.89	97.0012
265.782	111.587
268.675	103.188
271.568	94.118
274.46	55.2998
277.353	36.1888
280.246	35.9398
283.139	33.0859
286.031	2.45477
288.924	3.74988
291.817	32.8281
294.709	63.7353
297.602	65.84
300.495	59.3333
303.387	51.2284
306.28	68.8447
309.173	56.3475
312.065	67.97
314.958	64.1091
317.851	49.6273
320.744	33.3544
323.636	27.0964
326.529	55.7375
329.422	58.8284
332.314	52.7142
335.207	67.5131
338.1	50.9134
340.992	31.9213
343.885	35.3306
346.778	12.8285
349.671	44.0687
352.563	21.7297
355.456	2.61908
358.349	17.1432
361.241	31.2132
364.134	7.39075
367.027	18.316
369.919	27.9367
372.812	10.8278
375.705	10.7985
378.598	6.24512
381.49	13.3371
384.383	8.31665
387.276	3.94482
390.168	11.568
393.061	7.03369
395.954	5.60034
398.846	6.30461
401.739	6.04236
404.632	24.2001
407.524	41.2428
410.417	35.0191
413.31	62.5722
416.203	33.3879
419.095	32.6407
421.988	32.6145
424.881	61.1648
427.773	65.6932
430.666	125.067
433.559	154.588
436.452	144.713
439.344	128.977
442.237	53.2411
445.13	54.9573
448.022	52.3514
450.915	39.9547
453.808	56.6876
456.7	72.3518
459.593	125.54
462.486	184.26
465.378	386.481
468.271	824.06
471.164	1392.94
474.057	1721.16
476.949	1142.74
479.842	477.544
482.735	246.328
485.627	167.85
488.52	183.949
491.413	202.259
494.305	217.786
497.198	244.694
500.091	244.547
502.984	222.054
505.876	173.588
508.769	156.942
511.662	148.635
514.554	122.574
517.447	90.8969
520.34	42.5158
523.232	57.1384
526.125	50.7516
529.018	58.1263
531.911	43.3387
534.803	95.5452
537.696	165.907
540.589	181.268
543.481	154
546.374	112.632
549.267	98.2052
552.159	64.66
555.052	59.0803
557.945	41.2852
560.838	44.8412
563.73	27.3829
566.623	2.08997
569.516	10.8848
572.408	9.65588
575.301	9.89368
578.194	29.2112
581.087	9.77667
583.979	5.88269
586.872	0.757507
589.765	2.36499
592.657	7.72443
595.55	12.6099
598.443	34.9706
601.335	54.0742
604.228	87.8435
607.121	96.6148
610.014	128.621
612.906	162.455
615.799	244.962
618.692	358.248
621.584	587.106
624.477	980.587
627.37	1559.84
630.262	2192.64
633.155	2341.05
636.048	1749.93
638.941	1076.82
641.833	674.276
644.726	478.259
647.619	374.065
650.511	331.942
653.404	304.818
656.297	313.667
659.189	342.184
662.082	384.75
664.975	417.748
667.867	442.675
670.76	497.807
673.653	536.695
676.546	529.192
679.438	514.652
682.331	556.914
685.224	506.232
688.116	537.38
691.009	559.67
693.902	525.773
696.794	455.582
699.687	319.154
702.58	253.469
705.473	163.883
708.365	97.8196
711.258	98.0359
714.151	71.8071
717.043	77.8082
719.936	59.396
722.829	70.6722
725.721	26.8675
728.614	44.1982
731.507	16.5367
734.4	14.7222
737.292	42.8402
740.185	13.2957
743.078	1.88513
745.97	12.7358
748.863	3.11066
751.756	4.09546
754.649	15.0267
757.541	1.69373
760.434	11.945
763.327	3.47005
766.219	9.95868
769.112	57.7704
772.005	92.805
774.897	114.907
777.79	82.7125
780.683	83.6144
783.576	48.0637
786.468	27.7279
789.361	26.568
792.254	13.0615
795.146	2.78113
798.039	4.55457
800.932	5.57129
803.824	24.9106
806.717	40.2625
809.61	2.29706
812.503	56.0583
815.395	16.7038
818.288	28.9241
821.181	50.5328
824.073	30.3712
826.966	46.4778
829.859	48.6282
832.751	53.5218
835.644	53.2664
838.537	72.1442
841.429	73.5241
844.322	65.9733
847.215	115.8
850.108	115.311
853	122.998
855.893	109.844
858.786	127.261
861.678	113.768
864.571	105.667
867.464	65.2843
870.356	76.7628
873.249	84.4838
876.142	82.7616
879.035	61.1338
881.927	49.1714
884.82	74.0233
887.713	26.8509
890.605	43.9955
893.498	36.3003
896.391	18.805
899.284	1.61212
902.176	27.9867
905.069	40.5322
907.962	3.73819
910.854	9.24558
913.747	40.8847
916.64	14.6506
919.532	8.85977
922.425	23.3851
925.318	28.9809
928.21	7.53143
931.103	4.1745
933.996	26.986
936.889	12.8129
939.781	34.9627
942.674	30.3852
945.567	27.1367
948.459	40.3594
951.352	61.0125
954.245	44.2388
957.138	55.8637
960.03	43.3844
962.923	54.0698
965.816	51.183
968.708	76.2734
971.601	66.1171
974.494	48.2344
977.386	78.1264
980.279	38.8114
983.172	32.9715
986.064	36.8066
988.957	12.5407
991.85	4.14346
994.743	16.8926
997.635	43.583
1000.53	11.2629
1003.42	51.3765
1006.31	30.4076
1009.21	31.7104
1012.1	51.5511
1014.99	61.3979
1017.88	35.9977
1020.78	7.79645
1023.67	6.77734
1026.56	15.1932
1029.45	15.7471
1032.35	5.22711
1035.24	39.1644
1038.13	60.3002
1041.03	46.1282
1043.92	51.6846
1046.81	30.5085
1049.7	37.966
1052.6	7.24283
1055.49	29.4129
1058.38	37.2441
1061.28	30.9036
1064.17	24.1984
1067.06	19.3683
1069.95	44.1496
1072.85	26.7158
1075.74	12.8855
1078.63	36.5181
1081.52	1.43936
1084.42	12.6812
1087.31	13.6668
1090.2	32.2357
1093.09	19.2882
1095.99	8.83823
1098.88	29.2817
1101.77	13.9388
1104.66	3.18439
1107.56	9.47635
1110.45	0.392761
1113.34	38.6228
1116.24	41.2816
1119.13	31.4633
1122.02	34.7384
1124.91	15.8475
1127.81	38.3955
1130.7	20.2156
1133.59	47.3647
1136.48	28.4363
1139.38	37.9456
1142.27	33.5104
1145.16	15.2279
1148.06	54.323
1150.95	55.0641
1153.84	19.0393
1156.73	41.5954
1159.63	37.1149
1162.52	34.0331
1165.41	35.6429
1168.31	64.9594
1171.2	1.62924
1174.09	12.014
1176.98	11.9432
1179.88	18.2011
1182.77	50.8649
1185.66	6.18985
1188.55	40.1624
1191.45	43.9872
1194.34	25.6432
1197.23	15.9861
1200.12	39.8357
1203.02	14.3753
1205.91	12.704
1208.8	16.6935
1211.69	22.4036
1214.59	35.9139
1217.48	8.81808
1220.37	61.5843
1223.27	62.8433
1226.16	48.5821
1229.05	61.0703
1231.94	27.9963
1234.84	14.2164
1237.73	10.6404
1240.62	49.0128
1243.52	51.2915
1246.41	34.7924
1249.3	21.6688
1252.19	8.34726
1255.09	9.56546
1257.98	7.58814
