Measurement: Raman, 785 nm, unoriented, Raman Data Processed
Mineral: Cassiterite
Rruff sample: R040017
Ideal chemistry: SnO_2_
Locality: Bolivia
Source: University of Arizona Mineral Museum
Description: Dark brown short prismatic single crystals
Measured chemistry: Sn_1.00_O_2_; trace amounts of Fe
Raman shift (cm-1)	intensity
137.438	0
139.849	1.67423
142.259	30.4693
144.67	39.9864
147.08	47.4579
149.491	104.219
151.901	128.422
154.312	143.308
156.723	100.701
159.133	100.533
161.544	83.5266
163.954	66.3293
166.365	72.5326
168.776	90.493
171.186	88.0375
173.597	86.0845
176.007	51.487
178.418	23.7944
180.828	10.3599
183.239	18.7592
185.65	21.2799
188.06	11.9887
190.471	6.42618
192.881	12.5819
195.292	11.7374
197.703	5.8305
200.113	2.47894
202.524	2.82251
204.934	18.0471
207.345	6.32886
209.756	20.1842
212.166	47.3723
214.577	75.8325
216.987	105.29
219.398	171.158
221.808	185.44
224.219	160.701
226.63	163.088
229.04	193.521
231.451	188.458
233.861	200.514
236.272	212.05
238.683	220.167
241.093	222.457
243.504	210.208
245.914	208.495
248.325	182.107
250.735	176.049
253.146	171.613
255.557	180.559
257.967	162.293
260.378	146.912
262.788	141.289
265.199	142.067
267.61	133.059
270.02	148.783
272.431	98.9218
274.841	57.8348
277.252	33.0523
279.662	33.1961
282.073	70.3149
284.484	69.3234
286.894	26.0301
289.305	7.27512
291.715	4.27097
294.126	16.7135
296.536	17.0108
298.947	15.217
301.358	46.3985
303.768	38.4256
306.179	34.2203
308.589	35.9653
311	24.0597
313.411	42.4336
315.821	67.0939
318.232	59.0201
320.642	57.7604
323.053	86.8296
325.464	105.55
327.874	84.8796
330.285	75.872
332.695	84.424
335.106	90.6963
337.516	85.7437
339.927	93.2901
342.338	79.4334
344.748	64.1272
347.159	82.8024
349.569	58.4398
351.98	45.3322
354.39	40.7252
356.801	28.0913
359.212	43.7898
361.622	18.5543
364.033	24.4913
366.443	4.73083
368.854	16.3839
371.265	10.2837
373.675	2.17481
376.086	1.79437
378.496	13.6487
380.907	5.79987
383.317	5.04089
385.728	0.748474
388.139	0.688965
390.549	7.2561
392.96	14.8386
395.37	0.086914
397.781	8.27954
400.192	19.3878
402.602	7.54816
405.013	19.844
407.423	20.2242
409.834	19.8182
412.245	30.5624
414.655	39.3085
417.066	30.9645
419.476	20.4274
421.887	24.5389
424.297	40.4916
426.708	80.5122
429.119	106.179
431.529	148.298
433.94	200.968
436.35	230.751
438.761	216.476
441.171	145.955
443.582	110.426
445.993	72.9129
448.403	86.6735
450.814	104.325
453.224	112.1
455.635	155.226
458.046	154.686
460.456	213.249
462.867	308.141
465.277	607.321
467.688	1024.95
470.098	1790.92
472.509	2820.97
474.92	3605.69
477.33	2537.17
479.741	1224.06
482.151	635.332
484.562	465.57
486.973	424.05
489.383	396.458
491.794	402.279
494.204	458.729
496.615	556.946
499.026	570.082
501.436	492.184
503.847	436.159
506.257	388.185
508.668	356.499
511.078	336.144
513.489	278.625
515.899	232.26
518.31	159.489
520.721	115.898
523.131	61.1393
525.542	49.86
527.952	63.1433
530.363	66.7797
532.774	119.343
535.184	188.723
537.595	257.718
540.005	331.703
542.416	337.212
544.827	281.325
547.237	211.746
549.648	161.853
552.058	154.25
554.469	127.152
556.88	95.6973
559.29	64.6664
561.701	54.8897
564.111	32.8732
566.522	13.7841
568.932	4.71832
571.343	7.93854
573.754	11.4771
576.164	39.2139
578.575	27.2845
580.985	31.7925
583.396	20.7482
585.807	6.87384
588.217	21.6417
590.628	19.1943
593.038	47.3986
595.449	86.2891
597.859	125.333
600.27	180.511
602.681	258.302
605.091	339.809
607.502	432.405
609.912	561.535
612.323	722.169
614.734	993.921
617.144	1320.25
619.555	1866.41
621.965	2733.34
624.376	4238.6
626.786	6422.59
629.197	9502.65
631.607	12727.2
634.018	13694
636.429	10769.9
638.839	6868.67
641.25	4162.52
643.66	2752.5
646.071	1918.86
648.482	1391.87
650.892	1057.52
653.303	824.616
655.713	650.698
658.124	527.283
660.534	411.642
662.945	375.522
665.356	324.104
667.766	306.783
670.177	268.867
672.587	275.394
674.998	293.953
677.409	292.418
679.819	319.274
682.23	364.164
684.64	380.396
687.051	484.053
689.462	518.609
691.872	588.412
694.283	641.103
696.693	596.648
699.104	444.248
701.514	268.264
703.925	119.163
706.336	51.4755
708.746	17.4895
711.157	6.35553
713.567	34.3625
715.978	31.9961
718.389	49.5981
720.799	39.6412
723.21	34.1745
725.62	5.35297
728.031	6.00586
730.442	27.0224
732.852	5.69635
735.263	16.1285
737.673	15.6183
740.084	13.4598
742.494	15.43
744.905	10.4897
747.316	8.89764
749.726	7.42841
752.137	13.2217
754.547	50.3314
756.958	72.2552
759.369	156.206
761.779	281.842
764.19	495.569
766.6	767.759
769.011	1190.45
771.421	1691.89
773.832	2001.1
776.243	1986.82
778.653	1735.78
781.064	1340.52
783.474	1013.75
785.885	772.629
788.295	604.9
790.706	496.629
793.117	433.198
795.527	388.642
797.938	331.376
800.348	271.03
802.759	248.394
805.17	220.876
807.58	193.588
809.991	165.294
812.401	128.194
814.812	132.028
817.222	94.3852
819.633	72.7028
822.044	47.5971
824.454	27.3159
826.865	27.5277
829.275	7.08368
831.686	16.6459
834.096	14.1177
836.507	6.95782
838.918	33.7539
841.328	55.2353
843.739	92.3445
846.149	115.335
848.56	138.326
850.971	147.222
853.381	167.986
855.792	142.235
858.202	164.74
860.613	180.209
863.024	191.033
865.434	148.956
867.845	165.632
870.255	130.38
872.666	148.334
875.076	140.481
877.487	125.363
879.898	110.285
882.308	77.8146
884.719	55.4151
887.129	54.6801
889.54	48.308
891.951	26.3533
894.361	20.0844
896.772	24.2971
899.182	5.88748
901.593	6.33527
904.003	6.20493
906.414	0.20517
908.825	2.95523
911.235	9.78061
913.646	0.685486
916.056	15.6029
918.467	6.29858
920.878	12.9345
923.288	12.9182
925.699	9.91144
928.109	9.21588
930.52	3.82812
932.93	7.96399
935.341	9.76929
937.752	14.1724
940.162	21.3138
942.573	26.7404
944.983	43.8201
947.394	41.5739
949.804	39.4464
952.215	48.3962
954.626	58.1122
957.036	61.8843
959.447	78.4546
961.857	75.1112
964.268	88.095
966.679	96.9908
969.089	91.5481
971.5	107.84
973.91	129.107
976.321	98.8954
978.731	87.0491
981.142	75.1568
983.553	50.6472
985.963	34.6526
988.374	42.2143
990.784	12.2537
993.195	3.35883
995.606	30.5475
998.016	13.8693
1000.43	21.2501
