Measurement: Raman, 514 nm, unoriented, Raman Data Processed
Mineral: Cassiterite
Rruff sample: R040017
Ideal chemistry: SnO_2_
Locality: Bolivia
Source: University of Arizona Mineral Museum
Description: Dark brown short prismatic single crystals
Measured chemistry: Sn_1.00_O_2_; trace amounts of Fe
Raman shift (cm-1)	intensity
58.464	0
62.661	11.726
66.856	8.309
71.048	123.619
75.239	138.649
79.427	115.57
83.614	127.697
87.798	152.726
91.981	132.05
96.161	114.818
100.34	109.816
104.516	114.162
108.691	178.84
112.864	149.883
117.034	146.306
121.203	97.558
125.369	94.443
129.534	101.648
133.696	104.022
137.857	112.516
142.016	106.029
146.172	75.562
150.327	51.237
154.48	66.199
158.63	45.347
162.779	58.129
166.926	69.064
171.07	34.689
175.213	13.746
179.354	1.526
183.493	2.274
187.63	38.136
191.765	51.398
195.898	72.428
200.029	57.234
204.158	99.791
208.285	155.114
212.41	131.706
216.533	298.727
220.654	368.651
224.773	359.127
228.891	362.846
233.006	372.7
237.119	367.091
241.231	409.38
245.34	438.833
249.448	418.162
253.553	419.993
257.657	382.65
261.758	398.169
265.858	421.895
269.956	370.944
274.052	249.568
278.146	183.124
282.237	170.65
286.327	129.209
290.416	83.475
294.502	92.668
298.586	135.794
302.668	154.854
306.749	87.839
310.827	87.745
314.903	91.571
318.978	138.317
323.051	159.982
327.121	191.564
331.19	190.058
335.257	155.471
339.322	175.784
343.385	171.086
347.446	113.18
351.505	84.443
355.563	67.47
359.618	43.519
363.672	18.518
367.723	6.547
371.773	26.709
375.821	11.018
379.866	20.45
383.91	28.659
387.952	16.759
391.992	15.825
396.031	26.157
400.067	35.242
404.101	14.45
408.134	43.784
412.165	4.73
416.193	14.819
420.22	79.506
424.245	85.47
428.268	21.719
432.289	10.95
436.309	42.662
440.326	23.436
444.342	10.719
448.355	14.196
452.367	26.086
456.377	78.023
460.385	202.221
464.391	395.544
468.395	560.968
472.398	789.478
476.398	673.993
480.397	677.859
484.394	843.881
488.389	960.064
492.382	1073.42
496.373	1312.94
500.362	1293.65
504.349	1087.56
508.335	961.675
512.319	814.998
516.3	583.529
520.28	381.488
524.259	262.94
528.235	230.794
532.209	430.921
536.182	696.595
540.152	929.497
544.121	877.096
548.088	694.192
552.053	609.775
556.017	520.603
559.978	406.403
563.938	337.359
567.895	282.221
571.851	263.656
575.805	217.393
579.758	162.915
583.708	237.364
587.657	258.488
591.603	430.878
595.548	611.229
599.491	902.078
603.432	1332.21
607.372	1923.12
611.309	2711.57
615.245	4074.58
619.179	6866.13
623.111	12369.2
627.041	26148.8
630.97	46429.9
634.896	45031.5
638.821	23867.6
642.744	11540
646.665	6534.85
650.584	4198.07
654.502	2896.67
658.418	2104.65
662.331	1604.02
666.244	1368.77
670.154	1144.9
674.062	1097.41
677.969	1009.3
681.874	955.589
685.777	1108.3
689.678	1221.46
693.577	1447.11
697.475	1222.21
701.371	708.72
705.265	304.612
709.157	219.881
713.047	212.545
716.936	271.618
720.823	261.102
724.708	197.012
728.591	162.326
732.472	124.026
736.352	153.162
740.23	215.79
744.106	220.872
747.98	307.986
751.853	443.376
755.723	814.381
759.592	1531.34
763.459	2954.95
767.325	6067.19
771.188	10910.4
775.05	12988.7
778.91	10767.9
782.768	7080.59
786.625	4800.98
790.479	3540.18
794.332	2809.61
798.183	2379.66
802.033	2093.39
805.88	1728.27
809.726	1332.28
813.57	1002.42
817.413	747.674
821.253	495.041
825.092	303.492
828.929	179.042
832.764	137.676
836.598	119.384
840.429	141.16
844.259	249.036
848.088	383.926
851.914	386.894
855.739	387.848
859.562	481.826
863.383	487.822
867.203	410.831
871.02	367.844
874.836	373.851
878.65	313.846
882.463	192.819
886.274	125.76
890.083	95.663
893.89	38.518
897.695	12.686
901.499	53.026
905.301	52.648
909.102	32.151
912.9	48.611
916.697	55.162
920.492	43.026
924.285	57.96
928.077	48.31
931.867	15.686
935.655	28.855
939.442	10.176
943.226	41.486
947.009	49.245
950.791	77.777
954.57	111.967
958.348	149.8
962.124	209.438
965.899	255.624
969.671	299.63
973.442	327.455
977.211	332.097
980.979	249.554
984.745	213.823
988.509	120.901
992.271	115.785
996.032	120.472
999.791	143.959
1003.55	145.287
1007.3	163.508
1011.06	183.656
1014.81	194.822
1018.56	224.795
1022.31	249.574
1026.06	265.188
1029.8	278.574
1033.55	329.681
1037.29	312.629
1041.03	389.012
1044.77	308.131
1048.5	255.75
1052.24	208.838
1055.97	142.064
1059.7	107.924
1063.43	64.626
1067.16	67.165
1070.89	29.127
1074.61	30.232
1078.34	15.83
1082.06	4.897
1085.78	13.815
1089.5	20.119
1093.21	30.684
1096.93	37.428
1100.64	42.892
1104.35	46.642
1108.06	52.027
1111.77	83.399
1115.48	108.655
1119.18	130.801
1122.89	160.153
1126.59	157.845
1130.29	134.745
1133.99	112.529
1137.68	132.199
1141.38	100.741
1145.07	91.108
1148.76	100.383
1152.45	90.474
1156.14	66.466
1159.83	55.306
1163.51	48.99
1167.19	45.512
1170.88	66.885
1174.56	40.23
1178.23	30.675
1181.91	38.148
1185.59	23.646
1189.26	37.184
1192.93	42.618
1196.6	24.102
1200.27	36.59
1203.94	24.051
1207.6	31.011
1211.27	47.055
1214.93	63.215
1218.59	81.962
1222.25	102.585
1225.9	69.92
1229.56	118.914
1233.21	108.434
1236.86	111.594
1240.51	95.811
1244.16	111.523
1247.81	100.383
1251.45	116.564
1255.1	126.79
1258.74	116.258
1262.38	138.694
1266.02	151.67
1269.66	150.489
1273.29	151.308
1276.93	148.755
1280.56	174.942
1284.19	184.101
1287.82	152.745
1291.45	154.361
1295.07	165.836
1298.7	159.484
1302.32	167.53
1305.94	159.172
1309.56	173.327
1313.18	135.022
1316.8	133.425
1320.41	82.361
1324.02	85.882
1327.63	79.98
1331.24	54.367
1334.85	61.301
1338.46	38.128
1342.06	29.264
1345.67	39.184
1349.27	21.51
1352.87	4.348
1356.47	0.073
1360.07	15.86
1363.66	28.055
1367.25	12.724
1370.85	52.861
1374.44	55.618
1378.03	53.121
1381.61	65.442
1385.2	61.741
1388.78	63.894
1392.37	51.793
1395.95	17.314
1399.53	10.144
1403.1	6.094
1406.68	6.916
1410.26	1.96
1413.83	12.44
1417.4	9.615
1420.97	17.089
1424.54	8.984
1428.1	29.582
1431.67	30.895
1435.23	21.051
1438.8	51.54
1442.36	68.01
1445.91	76.392
1449.47	80.129
1453.03	128.145
1456.58	139.801
1460.13	138.707
1463.68	129.666
1467.23	133.858
1470.78	89.198
1474.33	76.871
1477.87	45.443
1481.42	45.915
1484.96	26.302
1488.5	22.478
1492.04	32.381
1495.57	20.769
1499.11	28.699
1502.64	24.653
1506.17	27.749
1509.71	61.132
1513.23	81.846
1516.76	48.457
1520.29	45.799
