Measurement: Raman, 532 nm, unoriented, Raman Data Processed
Mineral: Catapleiite
Rruff sample: R040005
Ideal chemistry: Na_2_Zr^4+^Si_3_O_9_2H_2_O
Locality: Langesundsfjord Eikaholmen Vestfold, Norway
Source: University of Arizona Mineral Museum
Description: Brown thin tabular crystal
Measured chemistry: (Na_1.28_Ca_0.36_[box]_0.36_)_Σ=2_Zr_1.00_Si_3.00_O_9_·2H_2_O
Raman shift (cm-1)	intensity
160.573	0
163.466	157.888
166.359	165.318
169.251	70.6973
172.144	81.042
175.037	39.3184
177.929	76.3389
180.822	115.596
183.715	118.981
186.607	181.392
189.5	171.559
192.393	180.909
195.286	110.831
198.178	207.12
201.071	143.431
203.964	128.569
206.857	94.0225
209.749	139.384
212.642	125.899
215.535	116.619
218.427	152.062
221.32	189.439
224.213	180.581
227.105	228.262
229.998	230.676
232.891	269.938
235.783	283.918
238.676	234.09
241.569	270.315
244.462	212.609
247.354	240.412
250.247	129.355
253.14	148.184
256.032	69.1172
258.925	1.42383
261.818	83.5762
264.711	186.102
267.603	109.619
270.496	24.0176
273.389	6.69727
276.281	24.1914
279.174	74.3691
282.067	21.0918
284.959	198.076
287.852	123.324
290.745	191.949
293.638	192.969
296.53	159.301
299.423	268.381
302.316	412.022
305.208	507.812
308.101	483.512
310.994	506.389
313.886	513.271
316.779	391.998
319.672	296.291
322.565	275.627
325.457	345.057
328.35	294.877
331.243	457.379
334.135	295.447
337.028	193.69
339.921	266.94
342.813	138.682
345.706	23.7734
348.599	9.14648
351.491	119.711
354.384	221.963
357.277	82.4629
360.17	8.64453
363.062	14.332
365.955	149.893
368.848	97.2012
371.741	64.8301
374.633	93.3125
377.526	233.416
380.419	141.139
383.311	14.5312
386.204	87.1934
389.097	114.67
391.989	116.272
394.882	94.5977
397.775	13.5
400.668	-2.05988
403.56	74.9961
406.453	57.1152
409.346	24.3418
412.238	137.266
415.131	203.184
418.024	309.06
420.916	367.014
423.809	461.904
426.702	581.49
429.595	637.568
432.487	892.764
435.38	1133.21
438.273	1303.59
441.165	1376.52
444.058	1387.1
446.951	1233.58
449.843	1087.23
452.736	807.211
455.629	709.469
458.522	389.291
461.414	390.611
464.307	285.234
467.2	242.473
470.092	187.674
472.985	217.166
475.878	70.457
478.77	63.7988
481.663	62.6719
484.556	148.76
487.448	114.25
490.341	3.53516
493.234	51.7852
496.127	38.7441
499.019	114.356
501.912	28.9707
504.805	27.2422
507.698	94.7539
510.59	30.8027
513.483	96.3438
516.375	185.062
519.268	240.422
522.161	257.99
525.054	349.459
527.946	262.109
530.839	164.66
533.732	119.807
536.625	109.088
539.517	27.8066
542.41	173.508
545.303	219.062
548.195	219.891
551.088	183.065
553.981	237.875
556.873	307.978
559.766	526.76
562.659	668.533
565.552	1039.41
568.444	1387.68
571.337	1681.57
574.23	1858.53
577.122	2097.88
580.015	1905.43
582.908	1435.43
585.8	1087.24
588.693	728.473
591.586	427.598
594.479	261.943
597.371	147.426
600.264	110.389
603.157	118.115
606.049	237.475
608.942	310.02
611.835	226.12
614.727	409.173
617.62	469.512
620.513	546.502
623.406	1074.76
626.298	1588.69
629.191	1838.7
632.084	2096.86
634.976	2145.61
637.869	1765.88
640.762	1195.56
643.654	558.383
646.547	522.242
649.44	327.871
652.333	221.394
655.225	205.59
658.118	177.967
661.011	76.7441
663.903	20.9844
666.796	56.8867
669.689	20.7207
672.581	69.8047
675.474	77.8008
678.367	21.2188
681.26	108.199
684.152	149.531
687.045	167.682
689.938	90.4199
692.83	174.838
695.723	173.154
698.616	148.109
701.508	107.432
704.401	93.7812
707.294	11.8457
710.187	89.5057
713.079	13.5176
715.972	122.502
718.865	148.412
721.757	216.992
724.65	307.857
727.543	228.912
730.435	375.022
733.328	304.016
736.221	286.623
739.114	244.871
742.006	288.438
744.899	315.504
747.792	363.719
750.684	443.885
753.577	267.609
756.47	194.91
759.362	260.533
762.255	113.877
765.148	11.8438
768.041	203.305
770.933	118.506
773.826	447.707
776.719	92.8594
779.612	107.275
782.504	66.2969
785.397	42.5996
788.29	160.031
791.182	99.2305
794.075	180.877
796.968	280.656
799.86	164.707
802.753	10.9961
805.646	153.369
808.539	136.809
811.431	17.3027
814.324	85.7695
817.217	151.815
820.109	76.7441
823.002	49.5254
825.895	108.54
828.787	180.441
831.68	164.434
834.573	196.666
837.466	153.006
840.358	107.783
843.251	165.981
846.144	163.709
849.036	224.66
851.929	182.998
854.822	31.0352
857.714	29.6172
860.607	91.4707
863.5	234.199
866.393	51.8086
869.285	8.95312
872.178	76.9043
875.071	128.58
877.963	3.68945
880.856	66.3359
883.749	99.8161
886.641	163.623
889.534	196.996
892.427	445.441
895.32	741.879
898.212	824.027
901.105	834.359
903.998	902.283
906.89	1251.16
909.783	1438.99
912.676	1780.96
915.568	1940.6
918.461	2090.4
921.354	2524.16
924.247	3193.53
927.139	3868.53
930.032	4524.08
932.925	4926.42
935.817	4894.62
938.71	4775.23
941.603	4094.92
944.495	3114.77
947.388	2107.23
950.281	1285.24
953.174	983.332
956.066	428.279
958.959	268.611
961.852	39.8145
964.744	71.7051
967.637	110.695
970.53	-13.5
973.422	102.4
976.315	93.334
979.208	541.914
982.101	610.256
984.993	852.197
987.886	1038.67
990.779	1242.01
993.671	1555.36
996.564	1719.98
999.457	2060.32
1002.35	1997.7
1005.24	1757.59
1008.13	1410.62
1011.03	1112.78
1013.92	961.316
1016.81	762.428
1019.71	469.965
1022.6	369.254
1025.49	363.66
1028.38	341.59
1031.28	328.426
1034.17	152.594
1037.06	152.711
1039.95	254.789
1042.85	225.555
1045.74	199.707
1048.63	172.945
1051.53	80.5859
1054.42	244.723
1057.31	239.203
1060.2	154.066
1063.1	0.460938
1065.99	27.2422
1068.88	69.0781
1071.77	84.3267
1074.67	140.113
1077.56	153.219
1080.45	279.824
1083.35	105.883
1086.24	369.922
1089.13	386.023
1092.02	459.488
1094.92	369.59
1097.81	537.695
1100.7	319.801
1103.59	431.555
1106.49	469.418
1109.38	347.691
1112.27	317.582
1115.16	220.977
1118.06	175.102
1120.95	151.738
1123.84	42.4023
1126.74	139.727
1129.63	264.062
1132.52	443.844
1135.41	264.41
1138.31	322.531
1141.2	369.125
1144.09	216.168
1146.98	139.477
1149.88	77.6484
1152.77	157.566
1155.66	352.199
1158.56	375.165
1161.45	138.289
1164.34	232.391
1167.23	34.6445
1170.13	48.9648
1173.02	120.996
1175.91	199.769
1178.8	156.434
1181.7	188.953
1184.59	315.144
1187.48	252.055
1190.38	148.004
1193.27	206.059
1196.16	110.812
1199.05	119.09
1201.95	72.3906
1204.84	27.2148
1207.73	76.8984
1210.62	9.19141
1213.52	56.8516
1216.41	114.391
1219.3	131.43
1222.19	126.066
1225.09	37.0859
1227.98	55.293
1230.87	99.1602
1233.77	21.5508
