Measurement: Raman, 785 nm, unoriented, Raman Data Processed
Mineral: Cattierite
Rruff sample: R061039
Ideal chemistry: Co^2+^(S_2_)^2-^
Locality: Shinkolobwe, Belgian Congo
Source: Michael Scott
Description: Pinkish silver metallic
Raman shift (cm-1)	intensity
123.456	0
126.349	68.5773
129.242	261.45
132.134	354.638
135.027	182.796
137.92	61.2476
140.812	11.8845
143.705	89.7188
146.598	144.174
149.491	183.984
152.383	182.248
155.276	157.654
158.169	84.6985
161.061	98.4307
163.954	86.3337
166.847	82.3247
169.739	81.6112
172.632	44.0555
175.525	55.1038
178.418	50.1774
181.31	0.450134
184.203	23.2476
187.096	28.4163
189.988	16.4417
192.881	3.88141
195.774	4.73099
198.667	4.62552
201.559	20.6828
204.452	60.1936
207.345	45.1878
210.237	17.8391
213.13	9.69659
216.023	5.11307
218.915	36.4833
221.808	18.7682
224.701	26.3484
227.594	29.1666
230.486	8.12955
233.379	33.2587
236.272	47.1619
239.164	32.9579
242.057	21.62
244.95	29.6946
247.842	41.6965
250.735	21.4981
253.628	37.0335
256.521	12.5078
259.413	26.1862
262.306	24.6194
265.199	12.2962
268.091	45.8562
270.984	31.5993
273.877	33.2699
276.769	22.0713
279.662	41.8931
282.555	60.8224
285.447	128.372
288.34	150.561
291.233	257.941
294.126	212.765
297.018	130.939
299.911	80.4716
302.804	51.8594
305.696	61.3309
308.589	28.6213
311.482	28.0654
314.375	28.1226
317.267	48.7238
320.16	33.2693
323.053	60.0221
325.945	47.8336
328.838	42.6867
331.731	24.6959
334.623	7.03964
337.516	28.1073
340.409	12.4819
343.301	0.426178
346.194	1.57022
349.087	15.6044
351.98	35.0284
354.872	14.8685
357.765	27.3961
360.658	11.0215
363.55	19.839
366.443	40.9042
369.336	59.3611
372.228	103.749
375.121	184.09
378.014	319.629
380.907	501.869
383.799	632.898
386.692	761.08
389.585	665.471
392.477	515.932
395.37	372.961
398.263	302.895
401.156	223.278
404.048	203.966
406.941	155.912
409.834	131.575
412.726	112.425
415.619	118.735
418.512	81.4494
421.404	103.346
424.297	81.424
427.19	99.9418
430.082	59.6934
432.975	66.924
435.868	15.1413
438.761	11.6678
441.653	39.4252
444.546	27.6585
447.439	18.6762
450.331	22.7797
453.224	38.3461
456.117	18.4339
459.01	24.5463
461.902	11.8347
464.795	1.14502
467.688	18.2294
470.58	37.8176
473.473	37.1937
476.366	35.8229
479.258	35.7109
482.151	27.5478
485.044	43.7741
487.937	4.3219
490.829	54.9533
493.722	39.9505
496.615	40.9641
499.507	36.7382
502.4	56.3831
505.293	40.4057
508.185	16.3544
511.078	8.93054
513.971	33.5449
516.864	19.731
519.756	48.6976
522.649	40.4167
525.542	9.55392
528.434	56.0974
531.327	15.0476
534.22	24.4084
537.112	13.2799
540.005	62.375
542.898	25.4872
545.79	22.3526
548.683	7.22403
551.576	51.3952
554.469	39.5053
557.361	78.2432
560.254	46.4036
563.147	47.2706
566.039	25.9521
568.932	8.76358
571.825	4.87262
574.717	54.6116
577.61	37.5047
580.503	3.09332
583.396	25.7087
586.288	31.447
589.181	19.0011
592.074	0.485687
594.966	39.3324
597.859	27.4319
600.752	23.2613
603.644	14.2306
606.537	47.2605
609.43	11.8825
612.323	6.26016
615.215	46.0078
618.108	51.1364
621.001	38.9863
623.893	58.407
626.786	45.1229
629.679	30.6849
632.572	32.3822
635.464	22.2977
638.357	33.8087
641.25	5.20709
644.142	22.919
647.035	28.963
649.928	47.082
652.82	35.1637
655.713	54.7169
658.606	15.6832
661.499	54.1061
664.391	2.93472
667.284	63.4674
670.177	14.3702
673.069	45.4218
675.962	4.28833
678.855	30.4157
681.747	12.134
684.64	3.64975
687.533	23.173
690.426	25.3498
693.318	27.3834
696.211	78.3945
699.104	31.0246
701.996	16.08
704.889	13.8427
707.782	13.5366
710.674	14.0887
713.567	9.20496
716.46	36.784
719.352	41.384
722.245	44.3991
725.138	49.4359
728.031	57.3055
730.923	0.957092
733.816	55.7289
736.709	32.5782
739.601	66.6866
742.494	64.734
745.387	14.7239
748.279	57.9128
751.172	90.6451
754.065	28.412
756.958	38.5291
759.85	28.7627
762.743	60.8406
765.636	20.4576
768.528	8.20401
771.421	43.6885
774.314	41.4421
777.207	15.1472
780.099	7.56552
782.992	46.4398
785.885	70.9935
788.777	62.8636
791.67	37.8946
794.563	72.3866
797.455	64.3891
800.348	50.9065
803.241	47.0598
806.134	77.1332
809.026	56.4201
811.919	47.5171
814.812	67.8805
817.704	56.2153
820.597	55.2441
823.49	16.1713
826.382	59.7056
829.275	65.385
832.168	54.406
835.061	52.5818
837.953	41.1823
840.846	21.6408
843.739	12.7054
846.631	7.79138
849.524	11.3828
852.417	33.3158
855.309	43.459
858.202	17.3841
861.095	39.8804
863.988	16.825
866.88	4.78214
869.773	3.59927
872.666	49.6496
875.558	65.4047
878.451	54.4745
881.344	38.7455
884.236	47.1956
887.129	7.30405
890.022	30.2006
892.915	31.4789
895.807	31.5394
898.7	76.9005
901.593	35.745
904.485	40.5097
907.378	36.1011
910.271	32.2782
913.163	20.5113
916.056	28.7137
918.949	4.29413
921.842	26.1516
924.734	11.0273
927.627	28.1025
930.52	38.9618
933.412	37.6354
936.305	22.8228
939.198	32.1668
942.091	16.8286
944.983	21.6867
947.876	36.9565
950.769	36.9949
953.661	50.2974
956.554	36.4689
959.447	26.6597
962.339	4.5846
965.232	17.3152
968.125	45.6281
971.018	20.3703
973.91	5.82626
976.803	27.6709
979.696	44.8732
982.588	12.8959
985.481	22.872
988.374	4.54981
991.266	30.0267
994.159	14.582
997.052	9.79849
999.944	48.6081
1002.84	37.7406
1005.73	35.5848
1008.62	61.4099
1011.51	48.5027
1014.41	48.6118
1017.3	61.8475
1020.19	50.3807
1023.09	33.5434
1025.98	25.8957
1028.87	52.7301
1031.76	23.0193
1034.66	30.1512
1037.55	36.4573
1040.44	58.3596
1043.34	58.0504
1046.23	50.6505
1049.12	27.4277
1052.01	5.71335
1054.91	44.274
1057.8	58.8285
1060.69	1.70099
1063.58	43.7465
1066.48	50.3904
1069.37	13.0648
1072.26	1.52014
1075.15	21.1346
1078.05	1.28061
1080.94	45.6475
1083.83	23.083
1086.73	6.54925
1089.62	15.5486
1092.51	38.1693
1095.4	34.9728
1098.3	26.7436
1101.19	19.9931
1104.08	25.7149
1106.97	2.83044
1109.87	34.9802
1112.76	14.1913
1115.65	37.4359
1118.55	24.9907
1121.44	31.8477
1124.33	12.7611
1127.22	31.8608
1130.12	30.701
1133.01	26.5749
1135.9	27.7451
1138.79	46.4877
1141.69	19.8166
1144.58	31.2929
1147.47	4.98444
1150.37	8.68158
1153.26	27.4374
1156.15	37.3188
1159.04	41.5844
1161.94	26.8633
1164.83	34.3049
1167.72	49.6556
1170.61	52.2746
1173.51	40.0657
1176.4	39.9776
1179.29	67.1494
1182.18	85.6035
1185.08	96.1153
1187.97	81.4916
1190.86	23.7998
1193.76	75.4235
1196.65	76.9479
1199.54	77.8729
1202.43	44.9828
1205.33	59.8409
1208.22	25.7073
1211.11	62.7681
1214	78.6576
1216.9	45.831
1219.79	45.9088
1222.68	62.2132
1225.58	82.1224
1228.47	66.8949
1231.36	93.0137
1234.25	44.8286
1237.15	1.48077
1240.04	7.3364
1242.93	55.5813
