Measurement: Raman, 532 nm, unoriented, Raman Data Processed
Mineral: Cechite
Rruff sample: R070363
Ideal chemistry: Pb^2+^Fe^2+^V^5+^O_4_(OH)
Locality: Alexander mine, Vrancice, Příbram, Central Bohemia Region, Bohemia, Czech Republic
Source: Michael Scott
Description: Black submetallic fragments associated with calcite and with R120086, goethite
Raman shift (cm-1)	intensity
141.17	0
144.544	0.546265
147.919	9.0968
151.294	12.2776
154.669	19.9717
158.044	5.44238
161.418	1.55475
164.793	8.21442
168.168	3.3114
171.543	9.44305
174.918	9.5625
178.293	10.1278
181.667	11.1531
185.042	9.56574
188.417	7.72662
191.792	7.17621
195.167	6.83752
198.542	4.65448
201.916	3.57092
205.291	3.82935
208.666	0.015686
212.041	2.40985
215.416	4.49463
218.79	4.47668
222.165	3.88489
225.54	7.38641
228.915	0.269043
232.29	1.45508
235.664	0.160889
239.039	0.506592
242.414	1.38641
245.789	0.212036
249.164	1.84943
252.538	0.138916
255.913	0.273987
259.288	1.84546
262.663	3.83929
266.038	5.36353
269.413	6.07629
272.787	11.1534
276.162	17.7872
279.537	29.1113
282.912	37.123
286.287	47.9678
289.661	54.6923
293.036	53.3434
296.411	50.6051
299.786	44.3679
303.161	33.9492
306.536	29.8325
309.91	31.8997
313.285	35.95
316.66	43.6752
320.035	54.734
323.41	61.0292
326.784	67.2546
330.159	65.4147
333.534	60.6417
336.909	51.2643
340.284	43.2306
343.659	42.1663
347.033	42.6187
350.408	44.443
353.783	44.1031
357.158	32.8922
360.533	27.482
363.908	21.8278
367.282	20.5713
370.657	16.1006
374.032	14.1214
377.407	11.2294
380.782	7.84393
384.156	0.529602
387.531	0.048828
390.906	1.56836
394.281	1.14728
397.656	5.0636
401.031	7.68756
404.405	8.33856
407.78	7.66467
411.155	8.09668
414.53	9.08826
417.905	9.3465
421.279	6.8504
424.654	6.66522
428.029	7.02069
431.404	1.97913
434.779	0.541687
438.154	0.954468
441.528	3.66699
444.903	2.35852
448.278	2.61462
451.653	0.020386
455.028	1.31299
458.402	1.45465
461.777	2.72357
465.152	1.69544
468.527	5.97888
471.902	6.37836
475.276	11.132
478.651	10.7767
482.026	11.0761
485.401	11.521
488.776	9.79608
492.151	9.73895
495.525	9.99316
498.9	10.0463
502.275	8.99799
505.65	10.7437
509.025	7.94165
512.399	7.47784
515.774	7.44318
519.149	7.91388
522.524	7.81909
525.899	9.22675
529.274	7.90167
532.648	12.4714
536.023	12.2767
539.398	12.6359
542.773	11.2098
546.148	11.2042
549.523	11.6273
552.897	10.8403
556.272	12.061
559.647	12.4405
563.022	7.86499
566.396	8.83624
569.771	9.08069
573.146	8.49701
576.521	6.91425
579.896	9.8822
583.271	9.18799
586.645	7.28406
590.02	8.4212
593.395	9.85126
596.77	7.32733
600.145	8.66528
603.519	7.5824
606.894	5.90375
610.269	6.01184
613.644	3.52148
617.019	1.74219
620.394	0.954895
623.768	3.14807
627.143	0.418457
630.518	1.73688
633.893	0.071899
637.268	0.60498
640.643	2.02502
644.017	0.12262
647.392	1.46533
650.767	1.01532
654.142	1.95593
657.517	2.53168
660.891	4.25275
664.266	3.53198
667.641	10.7551
671.016	13.6527
674.391	13.9611
677.765	17.9854
681.14	19.2062
684.515	22.1054
687.89	21.7048
691.265	24.3682
694.64	27.1932
698.014	27.2625
701.389	25.1556
704.764	21.1183
708.139	17.4753
711.514	14.1666
714.889	6.58875
718.263	2.93591
721.638	0.919983
725.013	2.224
728.388	5.85492
731.763	5.6106
735.137	2.15863
738.512	5.97461
741.887	17.985
745.262	36.0605
748.637	59.8906
752.011	87.4881
755.386	106.592
758.761	106.475
762.136	99.6794
765.511	88.8804
768.886	77.3368
772.26	73.7498
775.635	69.6874
779.01	61.8917
782.385	57.387
785.76	52.5897
789.135	45.3002
792.509	47.5522
795.884	44.6976
799.259	45.0654
802.634	47.8013
806.009	53.1091
809.383	57.1141
812.758	67.9869
816.133	78.3911
819.508	89.3716
822.883	100.894
826.257	108.271
829.632	118.283
833.007	128.149
836.382	135.955
839.757	138.605
843.132	129.202
846.506	109.964
849.881	94.1951
853.256	81.0239
856.631	68.0815
860.006	61.514
863.38	54.3357
866.755	50.5857
870.13	44.6587
873.505	38.3701
876.88	30.299
880.255	22.4318
883.629	17.9937
887.004	16.072
890.379	11.691
893.754	14.8123
897.129	11.9755
900.504	3.83429
903.878	1.5332
907.253	1.2179
910.628	4.71332
914.003	1.28357
917.378	4.03821
920.752	3.88837
924.127	0.101074
927.502	0.215942
930.877	0.672424
934.252	1.00983
937.626	2.6933
941.001	5.40234
944.376	7.0871
947.751	5.57776
951.126	7.67657
954.5	6.78796
957.875	9.59143
961.25	12.3514
964.625	11.583
968	11.9058
971.375	8.91461
974.75	10.4662
978.124	8.60175
981.499	6.1441
984.874	7.82867
988.249	8.39209
991.624	7.72583
994.998	6.36585
998.373	6.36218
1001.75	3.9527
1005.12	6.19385
1008.5	8.64795
1011.87	8.46478
1015.25	6.45679
1018.62	5.53125
1022	8.54169
1025.37	9.7265
1028.75	10.087
1032.12	9.69684
1035.5	9.30206
1038.87	8.38342
1042.25	10.6904
1045.62	15.5446
1048.99	10.8728
1052.37	10.4891
1055.74	9.42938
1059.12	9.78388
1062.49	7.93976
1065.87	3.82342
1069.24	5.43066
1072.62	5.43372
1075.99	5.67371
1079.37	3.96442
1082.74	3.7182
1086.12	3.26312
1089.49	3.27692
1092.87	3.54608
1096.24	4.30481
1099.62	2.24023
1102.99	0.688965
1106.37	1.82239
1109.74	3.27527
1113.12	1.66333
1116.49	1.21851
1119.87	2.94031
1123.24	0.031372
1126.62	2.12714
1129.99	1.39679
1133.37	0.307861
1136.74	0.661255
1140.12	1.81934
1143.49	0.369141
1146.87	0.581909
1150.24	0.954285
1153.62	0.430298
1156.99	1.79797
1160.36	3.39362
1163.74	1.73114
1167.11	1.9978
1170.49	2.75989
1173.86	0.28479
1177.24	1.50702
1180.61	4.5221
1183.99	4.20721
1187.36	3.10693
1190.74	4.37018
1194.11	4.50678
1197.49	4.36292
1200.86	2.21399
1204.24	3.06299
1207.61	2.37952
1210.99	2.60492
1214.36	4.27698
1217.74	2.14203
1221.11	3.36761
1224.49	3.47003
1227.86	0.948364
1231.24	1.05212
1234.61	2.88165
1237.98	2.95142
1241.36	0.395447
1244.73	0.59375
1248.11	1.53992
1251.48	3.52179
1254.86	1.77429
1258.23	1.52686
1261.61	0.621216
1264.98	2.16406
1268.36	3.47461
1271.73	1.3468
1275.11	0.537964
1278.48	0.633301
1281.86	1.63928
1285.23	0.425232
1288.61	2.37915
1291.98	1.08398
1295.36	2.89862
1298.73	3.4646
