Measurement: Raman, 532 nm, unoriented, Raman Data Processed
Mineral: Cerite-(Ce)
Rruff sample: R060708
Ideal chemistry: (Ce,La,Ca)_9_(Mg,Fe^3+^)(SiO_4_)_3_(SiO_3_OH)_4_(OH)_3_
Locality: Bastnas, Riddarhyttan, Sweden
Source: Bob Jenkins
Description: Pink thin but massive crystalline coating
Measured chemistry: (Ce_4.01_Nd_1.78_La_1.76_Ca_0.73_Pr_0.48_Y_0.14_Sm^+2^_0.10_Eu^+2^_0.09_)_Σ=9.09_(Mg_0.78_Fe_0.23_)_Σ=1.01_(Si_1.07_O_4_)_6.000_(SiO_3_OH)(OH_1.66_F_1.31_Cl_0.03_)_Σ=3.00_; OH by stoichiometry
Raman shift (cm-1)	intensity
149.486	0
152.378	179.09
155.271	463.373
158.164	639.412
161.057	1152.51
163.949	1618.17
166.842	1857.24
169.735	2096.37
172.627	2259.65
175.52	2535.64
178.413	2672.82
181.305	2814.31
184.198	2998.22
187.091	2959.13
189.984	3148.34
192.876	3082.77
195.769	3231.38
198.662	3295.96
201.554	3541.66
204.447	3787.26
207.34	3979.84
210.232	4154.36
213.125	4182.81
216.018	4273.95
218.911	4340.56
221.803	4525.79
224.696	4775.97
227.589	4824.32
230.481	4956.41
233.374	5169.02
236.267	5280.91
239.159	5388.25
242.052	5506.43
244.945	5766.5
247.837	5791.61
250.73	5767.39
253.623	5611.19
256.516	5499.04
259.408	5402.69
262.301	5341.71
265.194	5203.22
268.086	4920.57
270.979	4724.56
273.872	4520.63
276.764	4293.72
279.657	4209.89
282.55	4182.97
285.443	4106.62
288.335	3917.03
291.228	3896.68
294.121	3851.7
297.013	3790.24
299.906	3735.49
302.799	3845.99
305.691	3855.1
308.584	3700.14
311.477	3396.47
314.37	3144.09
317.262	2872.49
320.155	2649.7
323.048	2508.12
325.94	2568.24
328.833	2495.35
331.726	2513.11
334.618	2436.6
337.511	2598.34
340.404	2888.31
343.297	3207.88
346.189	3614.31
349.082	4312.8
351.975	5059.41
354.867	6033.7
357.76	6825
360.653	7795.65
363.545	8821.53
366.438	9605.67
369.331	10181
372.224	10412.8
375.116	10529.8
378.009	10143.6
380.902	9603.65
383.794	9136.69
386.687	8679.15
389.58	8149.31
392.472	7310
395.365	6498.02
398.258	5556.01
401.151	4634.02
404.043	3766.28
406.936	3039.57
409.828	2532.74
412.721	2003.02
415.614	1637.35
418.507	1270.28
421.399	1043.96
424.292	694.486
427.185	505.297
430.077	312.537
432.97	187.097
435.863	48.225
438.755	49.122
441.648	7.154
444.541	13.752
447.434	40.044
450.326	74.406
453.219	72.268
456.112	70.763
459.004	31.386
461.897	72.832
464.79	110.394
467.682	108.157
470.575	124.1
473.468	157.599
476.361	104.052
479.253	119.701
482.146	180.841
485.039	117.754
487.931	91.456
490.824	192.2
493.717	162.745
496.609	177.701
499.502	262.431
502.395	289.323
505.288	374.887
508.18	386.542
511.073	327.366
513.966	382.489
516.858	318.164
519.751	329.568
522.644	251.481
525.536	228.507
528.429	129.361
531.322	173.348
534.214	132.387
537.107	73.883
540	161.384
542.893	306.357
545.785	328.536
548.678	299.47
551.571	299.514
554.463	255.008
557.356	191.104
560.249	217.922
563.141	265.1
566.034	328.169
568.927	411.948
571.82	559.214
574.712	691.238
577.605	763.795
580.498	695.969
583.39	580.827
586.283	487.318
589.176	269.946
592.068	91.059
594.961	0.752
597.854	119.855
600.747	91.38
603.639	42.088
606.532	53.641
609.425	9.812
612.317	44.316
615.21	70.746
618.103	60.574
620.995	17.904
623.888	115.137
626.781	82.48
629.674	142.989
632.566	173.63
635.459	185.501
638.352	138.708
641.244	140.746
644.137	171.929
647.03	108.656
649.922	99.484
652.815	124.755
655.708	69.088
658.601	73.024
661.493	79.917
664.386	114.804
667.279	7.139
670.171	66.807
673.064	48.955
675.957	53.457
678.849	62.81
681.742	15.912
684.635	54.912
687.528	27.063
690.42	4.123
693.313	8.845
696.206	32.849
699.098	16.891
701.991	17.455
704.884	26.603
707.776	33.58
710.669	84.828
713.562	62.784
716.455	93.336
719.347	60.635
722.24	82.976
725.133	104.692
728.025	136.132
730.918	140.611
733.811	153.032
736.703	134.325
739.596	142.937
742.489	147.651
745.381	140.133
748.274	136.309
751.167	164.764
754.06	192.819
756.952	174.583
759.845	119.078
762.738	161.129
765.63	184.369
768.523	145.838
771.416	109.319
774.308	44.51
777.201	26.194
780.094	65.314
782.987	165.382
785.879	279.74
788.772	454.956
791.665	611.64
794.557	811.427
797.45	930.896
800.343	1043.43
803.235	1099.74
806.128	1255.04
809.021	1293.49
811.914	1369.66
814.806	1501.7
817.699	1819.29
820.592	2095.75
823.484	2469.64
826.377	2976.83
829.27	3525.84
832.162	4105.35
835.055	4759.16
837.948	5632.15
840.841	6489.62
843.733	7825.02
846.626	9113.1
849.519	10671.9
852.411	12395.4
855.304	14053.6
858.197	15149.3
861.089	15453.9
863.982	14473
866.875	12627.4
869.767	10492.1
872.66	8740.55
875.553	7309.07
878.445	6284.73
881.338	5474.08
884.231	4922.9
887.124	4390.21
890.016	4117.32
892.909	3818.9
895.802	3574.55
898.694	3394.73
901.587	3111
904.48	2873.6
907.372	2749.26
910.265	2593.87
913.158	2472.38
916.051	2344.78
918.943	2266.52
921.836	2231.79
924.729	2289
927.621	2289.64
930.514	2269.05
933.407	2227.67
936.299	2245.01
939.192	2320.51
942.085	2308.05
944.977	2289.05
947.87	2199.99
950.763	2154.49
953.656	2107.29
956.548	1999.71
959.441	1871.56
962.334	1752.28
965.226	1603.99
968.119	1459.85
971.012	1453.44
973.904	1326.02
976.797	1335.6
979.69	1321.73
982.583	1327.75
985.475	1329.22
988.368	1223.13
991.261	1245.69
994.153	1190.54
997.046	1048.07
999.939	1048.37
1002.83	955.439
1005.72	836.183
1008.62	797.863
1011.51	677.906
1014.4	583.29
1017.29	521.97
1020.19	409.42
1023.08	377.329
1025.97	269.199
1028.87	185.325
1031.76	118.033
1034.65	69.7
1037.54	1.617
1040.44	9.977
1043.33	65.143
1046.22	117.157
1049.12	157.302
1052.01	152.114
1054.9	143.6
1057.79	180.998
1060.68	175.062
1063.58	132.639
1066.47	188.273
1069.36	129.41
1072.26	158.702
1075.15	161.006
1078.04	141.952
1080.93	140.356
1083.83	122.219
1086.72	97.026
1089.61	108.754
1092.51	82.8
1095.4	59.59
1098.29	64.776
1101.18	68.531
1104.08	69.421
1106.97	79.302
1109.86	81.188
1112.75	82.735
1115.65	56.923
1118.54	95.902
1121.43	105.908
1124.33	85.858
1127.22	86.731
1130.11	95.145
1133	74.042
1135.9	49.575
1138.79	57.141
1141.68	28.752
1144.57	59.958
1147.47	69.987
1150.36	46.168
1153.25	95.412
1156.14	47.314
1159.04	88.487
1161.93	94.734
1164.82	92.608
1167.71	81.272
1170.61	95.62
1173.5	87.827
1176.39	75.409
1179.29	122.259
1182.18	101.009
1185.07	116.287
1187.96	151.362
1190.86	122.972
1193.75	159.317
1196.64	124.819
1199.54	144.844
1202.43	157.047
1205.32	132.725
1208.21	104.807
1211.11	118.35
1214	119.394
1216.89	111.048
1219.78	142.841
1222.68	129.666
1225.57	111.416
1228.46	106.425
1231.36	128.418
1234.25	95.016
1237.14	113.931
1240.03	72.343
1242.92	99.59
1245.82	36.91
1248.71	46.897
1251.6	10.904
1254.5	32.164
1257.39	23.32
1260.28	49.634
1263.17	24.165
1266.07	32.75
1268.96	14.214
1271.85	0.638
1274.74	11.323
1277.64	12.704
1280.53	15.814
1283.42	50.964
1286.32	8.314
