Measurement: Raman, 532 nm, unoriented, Raman Data Processed
Mineral: Cervandonite-(Ce)
Rruff sample: R110070
Ideal chemistry: (Ce^3+^,Nd^3+^,La^3+^)(Fe^3+^,Ti^4+^,Fe^2+^,Al)_3_O_2_(Si_2_O_7_)_0.8_(As^3+^O_3_)_1.2_(OH)_0.6_
Locality: Monte Cervandone, Val d'Ossola, Piedmont, Italy
Source: Renato & Adriana Pagano
Description: Rosettes of black platy crystals associated with microcline, quartz and rutile
Raman shift (cm-1)	intensity
294.91	0
297.802	19.842
300.695	34.8394
303.588	38.6008
306.481	5.10352
309.373	36.6892
312.266	32.632
315.159	29.4136
318.051	58.6951
320.944	62.2805
323.837	36.7399
326.729	81.5861
329.622	72.5952
332.515	55.5331
335.408	87.3347
338.3	131.37
341.193	113.834
344.086	101.521
346.978	87.8976
349.871	129.587
352.764	116.045
355.656	118.563
358.549	99.5447
361.442	108.836
364.334	120.813
367.227	89.564
370.12	87.3474
373.012	99.7051
375.905	85.3257
378.798	74.9014
381.691	47.7959
384.583	45.8171
387.476	95.9532
390.369	120.906
393.261	110.833
396.154	120.285
399.047	129.872
401.94	127.563
404.832	122.162
407.725	136.127
410.618	143.932
413.51	103.819
416.403	115.329
419.296	98.6904
422.188	58.6705
425.081	53.2069
427.974	78.3562
430.866	82.8663
433.759	76.0947
436.652	63.4574
439.545	77.6066
442.437	33.7992
445.33	56.4751
448.223	53.0653
451.115	54.8021
454.008	54.4921
456.901	37.0793
459.793	45.0709
462.686	64.8926
465.579	44.3041
468.472	9.3678
471.364	17.3575
474.257	9.42151
477.15	21.39
480.042	9.7262
482.935	10.4299
485.828	23.5604
488.721	10.4442
491.613	7.72485
494.506	19.2322
497.399	8.5481
500.291	8.42102
503.184	18.0463
506.077	43.627
508.969	64.8833
511.862	42.2621
514.755	42.4196
517.648	64.1857
520.54	70.1597
523.433	72.9817
526.326	129.865
529.218	155.893
532.111	159.481
535.004	191.336
537.896	199.674
540.789	248.845
543.682	295.051
546.575	313.421
549.467	365.226
552.36	375.301
555.253	419.382
558.145	389.777
561.038	405.1
563.931	368.078
566.823	336.552
569.716	297.252
572.609	265.357
575.502	206.156
578.394	179.554
581.287	139.525
584.18	92.8893
587.072	74.2551
589.965	70.5535
592.858	60.3827
595.75	57.816
598.643	20.4956
601.536	22.6122
604.428	20.1582
607.321	11.9719
610.214	14.5393
613.107	10.5586
615.999	22.4191
618.892	12.4443
621.785	6.01685
624.677	13.4631
627.57	7.83032
630.463	3.3363
633.356	10.1691
636.248	25.9039
639.141	16.2052
642.034	32.5886
644.926	46.6622
647.819	23.9329
650.712	42.6766
653.604	78.2654
656.497	111.242
659.39	76.1476
662.283	107.193
665.175	127.652
668.068	121.395
670.961	126.457
673.853	137.489
676.746	147.444
679.639	156.599
682.531	145.61
685.424	154.708
688.317	150.538
691.21	161.099
694.102	138.73
696.995	136.703
699.888	155.244
702.78	126.816
705.673	141.594
708.566	130.066
711.458	137.822
714.351	132.105
717.244	124.984
720.136	169.629
723.029	121.814
725.922	125.434
728.815	135.1
731.707	129.086
734.6	139.348
737.493	126.864
740.385	126.971
743.278	135.122
746.171	146.731
749.063	116.756
751.956	116.613
754.849	112.782
757.742	118.067
760.634	114.553
763.527	102.48
766.42	116.988
769.312	95.8014
772.205	95.1835
775.098	71.3674
777.99	77.4996
780.883	49.3457
783.776	52.1095
786.669	33.7366
789.561	49.2043
792.454	26.2063
795.347	38.7523
798.239	5.49915
801.132	32.8923
804.025	1.26648
806.918	7.55408
809.81	5.94238
812.703	0.849243
815.596	14.9624
818.488	19.9021
821.381	18.1799
824.274	19.4071
827.166	4.55359
830.059	5.62524
832.952	7.87842
835.845	13.2906
838.737	13.1945
841.63	17.2756
844.523	19.0219
847.415	2.50476
850.308	22.0429
853.201	6.23364
856.093	50.9697
858.986	18.7739
861.879	57.8387
864.771	41.3211
867.664	33.1334
870.557	41.732
873.45	46.806
876.342	58.8417
879.235	64.359
882.128	59.0236
885.02	46.5414
887.913	45.8761
890.806	38.2863
893.698	40.1991
896.591	33.9679
899.484	34.0012
902.377	43.5942
905.269	40.0258
908.162	20.6003
911.055	3.2652
913.947	42.269
916.84	20.1649
919.733	41.0266
922.625	39.3394
925.518	61.8035
928.411	34.0831
931.304	29.6486
934.196	42.7294
937.089	58.3815
939.982	22.3658
942.875	70.7313
945.767	81.7484
948.66	78.8516
951.553	69.6403
954.445	72.7366
957.338	91.3097
960.231	63.9482
963.123	87.0804
966.016	67.0443
968.909	88.8489
971.802	71.9645
974.694	62.5207
977.587	69.2338
980.48	71.8923
983.372	95.6346
986.265	58.6606
989.158	69.7593
992.05	60.7685
994.943	67.5736
997.836	47.691
1000.73	29.3789
1003.62	41.5513
1006.51	35.8852
1009.41	12.0742
1012.3	26.3297
1015.19	16.019
1018.09	25.6039
1020.98	10.4279
1023.87	13.3401
1026.76	17.7592
1029.66	21.624
1032.55	12.6329
1035.44	27.4704
1038.33	26.0619
1041.23	0.351624
1044.12	16.9283
1047.01	23.9835
1049.9	16.9855
1052.8	10.2432
1055.69	13.0571
1058.58	32.3094
1061.47	36.7562
1064.37	33.8997
1067.26	26.3473
1070.15	8.13196
1073.05	44.0721
1075.94	35.9268
1078.83	33.313
1081.72	23.5821
1084.62	20.2166
1087.51	5.11194
1090.4	41.3972
1093.3	33.1942
1096.19	12.5348
1099.08	38.9952
1101.97	27.0581
1104.87	32.7567
1107.76	8.47894
1110.65	24.3033
1113.54	10.6658
1116.44	23.6614
1119.33	38.9034
1122.22	25.2891
1125.12	36.7596
1128.01	14.8868
1130.9	32.7115
1133.79	34.831
1136.68	20.196
1139.58	22.7547
1142.47	16.9226
1145.36	26.3662
1148.26	3.6698
1151.15	29.8191
1154.04	74.8305
1156.93	40.5227
1159.83	15.5866
1162.72	42.1456
1165.61	36.0926
1168.51	4.26239
1171.4	29.7412
1174.29	17.8153
1177.18	50.7088
1180.08	49.273
1182.97	46.278
1185.86	45.6619
1188.75	39.71
1191.65	43.4473
1194.54	41.117
1197.43	68.2717
1200.33	38.6085
1203.22	41.4512
1206.11	22.1822
1209	63.4776
1211.9	29.8773
1214.79	26.7091
1217.68	31.1102
1220.57	10.4835
1223.47	20.2189
1226.36	18.5674
1229.25	12.0637
1232.14	16.3911
1235.04	21.2052
1237.93	21.64
1240.82	12.2369
1243.71	51.5086
1246.61	14.8247
1249.5	6.15588
1252.39	24.6242
1255.29	24.6693
1258.18	22.5554
1261.07	36.2398
1263.96	34.7989
1266.86	45.0543
1269.75	10.669
1272.64	12.3579
1275.54	17.9949
1278.43	31.5994
1281.32	30.3201
1284.21	15.7812
1287.11	40.1398
1290	14.0107
1292.89	14.4492
1295.78	4.20435
1298.68	29.3662
1301.57	4.12567
