Measurement: Raman, 780 nm, unoriented, Raman Data Processed
Mineral: Cervandonite-(Ce)
Rruff sample: R110070
Ideal chemistry: (Ce^3+^,Nd^3+^,La^3+^)(Fe^3+^,Ti^4+^,Fe^2+^,Al)_3_O_2_(Si_2_O_7_)_0.8_(As^3+^O_3_)_1.2_(OH)_0.6_
Locality: Monte Cervandone, Val d'Ossola, Piedmont, Italy
Source: Renato & Adriana Pagano
Description: Rosettes of black platy crystals associated with microcline, quartz and rutile
Raman shift (cm-1)	intensity
298.914	0
301.806	5.89423
304.699	5.99414
307.592	1.625
310.485	9.99921
313.377	7.29834
316.27	5.87952
319.163	7.98022
322.055	11.7153
324.948	5.60858
327.841	20.4127
330.733	14.5099
333.626	6.13281
336.519	13.3373
339.411	20.4493
342.304	13.2634
345.197	19.7185
348.09	11.4573
350.982	20.7038
353.875	14.7625
356.768	15.2694
359.66	11.9092
362.553	11.9069
365.446	11.2247
368.339	9.32019
371.231	14.8765
374.124	14.6998
377.017	13.568
379.909	11.4162
382.802	11.3782
385.695	13.8553
388.587	17.6267
391.48	18.9915
394.373	24.7684
397.265	26.3547
400.158	23.4658
403.051	26.8622
405.944	27.757
408.836	22.6292
411.729	25.05
414.622	17.2113
417.514	21.2145
420.407	21.8586
423.3	18.1147
426.192	14.5757
429.085	17.1667
431.978	13.1858
434.871	15.6611
437.763	14.6768
440.656	10.9882
443.549	12.7878
446.441	13.1215
449.334	11.8498
452.227	13.5501
455.12	9.96289
458.012	10.4139
460.905	13.6786
463.798	9.56317
466.69	7.03845
469.583	4.10248
472.476	3.46362
475.368	3.16943
478.261	0.28186
481.154	0.463257
484.046	4.33661
486.939	0.149048
489.832	2.58301
492.725	1.46124
495.617	2.91303
498.51	6.63812
501.403	2.41187
504.295	3.36603
507.188	9.51959
510.081	9.21735
512.973	8.53217
515.866	8.13928
518.759	13.2904
521.652	10.1848
524.544	18.4518
527.437	17.3411
530.33	24.9753
533.222	22.7311
536.115	28.4924
539.008	32.3
541.9	41.3635
544.793	41.8171
547.686	46.8365
550.579	45.0194
553.471	51.8516
556.364	41.9804
559.257	46.4893
562.149	37.1273
565.042	39.351
567.935	32.3592
570.827	23.599
573.72	18.6005
576.613	16.2576
579.506	11.5039
582.398	6.47119
585.291	10.583
588.184	4.61859
591.077	6.89258
593.969	6.12817
596.862	2.12903
599.755	0.401733
602.647	3.81934
605.54	0.572021
608.433	2.75665
611.325	1.39313
614.218	5.79633
617.111	2.86041
620.004	4.11627
622.896	4.4906
625.789	8.97699
628.682	10.4172
631.574	9.03766
634.467	16.7292
637.36	12.5922
640.252	11.363
643.145	13.2861
646.038	12.42
648.931	11.5056
651.823	19.0514
654.716	17.4475
657.609	15.4731
660.501	18.5318
663.394	14.1232
666.287	13.7562
669.179	17.8196
672.072	15.1954
674.965	18.2213
677.857	19.0635
680.75	14.7624
683.643	14.1244
686.536	19.7937
689.428	11.5948
692.321	11.1993
695.214	9.83002
698.106	15.3331
700.999	8.11346
703.892	11.1873
706.784	7.48914
709.677	10.0282
712.57	9.81238
715.463	13.237
718.355	4.23419
721.248	3.87427
724.141	6.46594
727.033	5.97742
729.926	6.36841
732.819	8.94989
735.712	7.78491
738.604	7.95734
741.497	3.22845
744.39	5.41473
747.282	3.02936
750.175	0.950073
753.068	4.44641
755.96	2.21472
758.853	0.435913
761.746	1.96246
764.639	2.29364
767.531	1.60986
770.424	2.37909
773.317	0.262878
776.209	1.69757
779.102	4.63733
781.995	0.381104
784.887	6.27356
787.78	0.656799
790.673	1.93396
793.566	2.55115
796.458	9.43292
799.351	2.54303
802.244	2.80878
805.136	2.79327
808.029	4.43701
810.922	7.40002
813.814	0.624451
816.707	6.55048
819.6	13.7524
822.492	10.7238
825.385	8.52838
828.278	8.2453
831.171	10.609
834.063	7.29645
836.956	3.56042
839.849	13.0529
842.741	7.98254
845.634	9.02008
848.527	13.8047
851.419	16.3442
854.312	14.3782
857.205	10.6562
860.098	18.7403
862.99	9.63843
865.883	12.8087
868.776	15.7889
871.668	9.76355
874.561	13.0655
877.454	11.4635
880.346	6.66022
883.239	4.73218
886.132	9.03412
889.025	1.36365
891.917	3.07867
894.81	2.39032
897.703	1.78064
900.595	0.407837
903.488	2.51483
906.381	7.47839
909.274	2.75641
912.166	5.15015
915.059	1.43878
917.952	7.15662
920.844	0.180908
923.737	1.89227
926.63	2.03705
929.522	3.87915
932.415	1.54004
935.308	8.66168
938.201	6.16577
941.093	6.24127
943.986	2.12347
946.879	2.91711
949.771	9.49005
952.664	3.85754
955.557	9.64539
958.449	0.216003
961.342	7.92334
964.235	9.2323
967.128	10.8294
970.02	10.1437
972.913	5.98254
975.806	6.10791
978.698	11.355
981.591	7.38354
984.484	7.11328
987.376	9.41058
990.269	7.2879
993.162	5.4516
996.054	5.65839
998.947	5.53394
1001.84	5.10529
1004.73	1.81622
1007.62	11.342
1010.52	3.81308
1013.41	2.58997
1016.3	8.57727
1019.2	6.59726
1022.09	8.07278
1024.98	6.8392
1027.87	4.93918
1030.77	4.08087
1033.66	1.63238
1036.55	8.45053
1039.44	5.01901
1042.34	1.0831
1045.23	3.06052
1048.12	5.453
1051.02	6.83282
1053.91	6.62875
1056.8	10.9081
1059.69	2.13846
1062.59	12.2922
1065.48	2.66168
1068.37	5.60364
1071.27	1.95019
1074.16	12.0221
1077.05	3.27118
1079.94	5.75153
1082.84	5.56689
1085.73	7.58484
1088.62	2.07471
1091.51	9.08295
1094.41	9.77341
1097.3	0.214325
1100.19	10.2238
1103.08	5.98926
1105.98	2.87579
1108.87	5.20163
1111.76	4.5369
1114.65	1.32611
1117.55	4.42194
1120.44	8.38144
1123.33	3.87936
1126.23	0.71698
1129.12	4.12741
1132.01	6.2568
1134.9	1.67627
1137.8	7.87631
1140.69	12.2682
1143.58	8.17133
1146.47	1.55984
1149.37	4.966
1152.26	5.50375
1155.15	1.30109
1158.05	6.75131
1160.94	2.04166
1163.83	8.30521
1166.72	12.8883
1169.62	11.5064
1172.51	8.9968
1175.4	7.72958
1178.3	6.08011
1181.19	10.0389
1184.08	14.8937
1186.97	7.88843
1189.87	14.0896
1192.76	5.64786
1195.65	7.40582
1198.54	10.5732
1201.44	7.38882
1204.33	5.81781
1207.22	5.62207
1210.11	9.2099
1213.01	10.5241
1215.9	5.60617
1218.79	8.3971
1221.68	3.57968
1224.58	7.2392
1227.47	14.7385
1230.36	4.42261
1233.26	6.33057
1236.15	2.88321
1239.04	3.86987
1241.93	1.08008
1244.83	3.60608
1247.72	8.22098
1250.61	9.46368
1253.51	1.94565
1256.4	8.06558
1259.29	3.64792
1262.18	7.45166
1265.08	10.1971
1267.97	6.91577
1270.86	6.69864
1273.75	6.68292
1276.65	10.2169
1279.54	5.38171
1282.43	7.01538
1285.33	4.49603
