Measurement: Raman, 785 nm, unoriented, Raman Data Processed
Mineral: Cesbronite
Rruff sample: R070198
Ideal chemistry: Cu^2+^_3_Te^6+^O_4_(OH)_4_
Locality: Bambollita mine, Moctezuma, Municipio de Moctezuma, Sonora, Mexico
Source: Michael Scott
Description: Dark green prismatic crystals associated with quartz
Raman shift (cm-1)	intensity
189.288	0
192.181	2.07959
195.074	4.80884
197.966	28.5908
200.859	54.3286
203.752	38.4817
206.644	46.856
209.537	56.852
212.43	5.24512
215.322	30.0586
218.215	38.9033
221.108	88.3648
224.001	72.354
226.893	111.829
229.786	91.9819
232.679	149.007
235.571	182.449
238.464	161.724
241.357	209.312
244.25	264.467
247.142	273.432
250.035	218.157
252.928	247.592
255.82	216.539
258.713	205.101
261.606	139.873
264.498	106.076
267.391	105.062
270.284	76.0178
273.176	63.6243
276.069	92.9919
278.962	63.394
281.855	38.5906
284.747	23.5034
287.64	27.5645
290.533	22.5911
293.425	50.6592
296.318	41.8345
299.211	29.0339
302.103	40.4778
304.996	29.2595
307.889	29.7319
310.781	37.0159
313.674	18.1621
316.567	20.2817
319.46	47.2451
322.352	7.90625
325.245	25.4736
328.138	36.2527
331.03	28.4255
333.923	29.4087
336.816	44.4028
339.709	13.8052
342.601	35.9434
345.494	19.3589
348.387	27.9863
351.279	21.4119
354.172	45.313
357.065	26.1995
359.957	27.759
362.85	7.89624
365.743	12.8477
368.635	16.853
371.528	6.24707
374.421	37.8499
377.314	5.93774
380.206	33.5759
383.099	13.0859
385.992	29.675
388.884	10.2305
391.777	3.37451
394.67	10.3809
397.562	4.94653
400.455	2.33325
403.348	63.1389
406.241	35.0298
409.133	21.2564
412.026	3.34473
414.919	41.5969
417.811	40.7551
420.704	1.89795
423.597	40.3257
426.49	44.0986
429.382	41.2029
432.275	77.9094
435.168	78.5772
438.06	61.0466
440.953	113.735
443.846	74.9163
446.738	125.742
449.631	106.29
452.524	107.675
455.416	119.114
458.309	143.736
461.202	80.4548
464.095	112.083
466.987	111.433
469.88	121.891
472.773	80.4661
475.665	105.883
478.558	39.2783
481.451	77.1821
484.344	77.1602
487.236	61.4434
490.129	80.6245
493.022	130.115
495.914	120.998
498.807	125.183
501.7	87.8215
504.592	82.2747
507.485	85.8748
510.378	72.9522
513.27	101.355
516.163	76.6926
519.056	40.3355
521.949	69.7427
524.841	66.6802
527.734	44.0784
530.627	33.5378
533.519	7.44482
536.412	42.6152
539.305	11.5688
542.197	17.0483
545.09	20.2293
547.983	10.7864
550.875	5.46924
553.768	6.12476
556.661	18.9409
559.554	34.9849
562.446	0.186279
565.339	3.50391
568.232	29.9358
571.125	33.3079
574.017	18.3811
576.91	40.9853
579.803	15.8674
582.695	37.4785
585.588	81.5745
588.481	106.662
591.373	87.0205
594.266	132.654
597.159	130.776
600.052	152.005
602.944	139.115
605.837	173.55
608.73	159.598
611.622	149.006
614.515	166.041
617.408	130.799
620.3	154.433
623.193	189.741
626.086	157.123
628.979	192.656
631.871	181.493
634.764	199.794
637.657	247.482
640.549	251.401
643.442	310.011
646.335	304.271
649.227	315.99
652.12	344.768
655.013	383.127
657.905	418.386
660.798	419.473
663.691	395.929
666.584	402.386
669.476	390.425
672.369	395.315
675.262	352.452
678.154	351.945
681.047	306.628
683.94	274.637
686.832	235.897
689.725	175.48
692.618	221.039
695.511	172.999
698.403	104.357
701.296	85.0068
704.189	89.0601
707.081	78.603
709.974	40.1345
712.867	32.2595
715.76	10.6897
718.652	47.7847
721.545	14.8784
724.438	84.3235
727.33	42.1711
730.223	17.1746
733.116	11.6174
736.008	10.1374
738.901	21.9258
741.794	1.90845
744.687	6.31177
747.579	47.3953
750.472	6.4021
753.365	4.82153
756.257	14.731
759.15	52.7368
762.043	18.7534
764.935	11.2893
767.828	17.4002
770.721	19.3208
773.613	8.62451
776.506	9.50317
779.399	0.37793
782.292	26.1448
785.184	33.1477
788.077	16.3242
790.97	31.3848
793.862	30.1249
796.755	43.419
799.648	16.0586
802.54	19.6396
805.433	62.9321
808.326	11.6812
811.218	32.0403
814.111	39.5945
817.004	29.019
819.897	21.76
822.789	23.727
825.682	6.12134
828.575	35.1011
831.467	26.4556
834.36	16.4605
837.253	40.5498
840.145	35.0879
843.038	13.4963
845.931	43.8875
848.824	50.2778
851.716	15.5288
854.609	41.6587
857.502	42.7109
860.394	43.5071
863.287	45.0068
866.18	14.0591
869.072	42.6443
871.965	17.5193
874.858	21.7593
877.751	14.1482
880.643	28.9951
883.536	27.344
886.429	23.5547
889.321	31.0383
892.214	18.2773
895.107	60.3804
898	5.34497
900.892	28.3591
903.785	14.783
906.678	52.1072
909.57	8.48047
912.463	16.968
915.356	37.158
918.248	7.16992
921.141	36.1135
924.034	34.772
926.927	0.773682
929.819	44.9734
932.712	44.6318
935.605	22.4414
938.497	34.2593
941.39	7.62903
944.283	26.0966
947.175	61.4701
950.068	49.4739
952.961	28.978
955.854	34.6831
958.746	63.4793
961.639	20.3411
964.532	50.2311
967.424	47.8445
970.317	20.6049
973.21	3.58667
976.102	42.8486
978.995	33.1941
981.888	3.49597
984.78	20.7938
987.673	32.6951
990.566	39.0183
993.459	39.9875
996.351	3.34265
999.244	11.394
1002.14	27.1912
1005.03	13.7689
1007.92	51.796
1010.82	48.9526
1013.71	50.1386
1016.6	45.5099
1019.49	24.0783
1022.39	43.2315
1025.28	79.2561
1028.17	25.083
1031.06	73.9142
1033.96	30.6802
1036.85	65.3778
1039.74	30.8081
1042.63	42.4103
1045.53	28.7413
1048.42	19.6237
1051.31	17.3478
1054.2	18.4183
1057.1	4.62158
1059.99	58.2573
1062.88	35.048
1065.78	23.4945
1068.67	8.38452
1071.56	26.071
1074.45	50.5283
1077.35	36.8878
1080.24	28.344
1083.13	50.8193
1086.03	34.7657
1088.92	26.5935
1091.81	65.7065
1094.7	41.6602
1097.6	35.4708
1100.49	24.619
1103.38	29.3043
1106.27	14.4091
1109.17	19.389
1112.06	43.0677
1114.95	45.7428
1117.85	45.5165
1120.74	30.7202
1123.63	12.8761
1126.52	22.8806
1129.41	47.4543
1132.31	52.1475
1135.2	12.155
1138.09	37.6771
1140.99	44.1194
1143.88	44.1534
1146.77	10.4634
1149.66	13.0048
1152.56	38.0405
1155.45	45.3603
1158.34	13.3536
1161.23	43.6245
1164.13	54.7484
1167.02	25.2052
1169.91	41.3043
1172.81	22.2034
1175.7	43.4949
1178.59	61.0737
1181.48	17.325
1184.38	12.6882
1187.27	25.6614
1190.16	33.3543
1193.06	4.87378
1195.95	22.6883
1198.84	29.0631
1201.73	45.0206
1204.63	12.6323
1207.52	0.446167
1210.41	0.02478
