Measurement: Raman, 532 nm, unoriented, Raman Data Processed
Mineral: Chabazite-Na
Rruff sample: R070440
Ideal chemistry: (Na_3_K)Al_4_Si_8_O_24_11H_2_O
Locality: Faraglione dei Ciclopi, Aci Castello, Catania Province, Sicily, Italy
Source: Michael Scott
Description: Group of colorless blocky crystals associated with phillipsite-Na, R061094
Measured chemistry: Na_2.00_(Ca_0.75_Na_0.25_)_Σ=1_(Si_7.88_Al_4.12_)O_24_·((H_2_O)_11.64_K_0.21_Na_0.15_)_Σ=12_; H_2_O estimated by difference
Raman shift (cm-1)	intensity
143.173	0
146.548	36.671
149.923	58.465
153.298	131.294
156.672	193.4
160.047	311.196
163.422	298.39
166.797	315.303
170.172	341.527
173.547	334.311
176.921	335.593
180.296	322.955
183.671	293.278
187.046	245.954
190.421	216.134
193.795	233.536
197.17	242.336
200.545	224.328
203.92	174.475
207.295	180.209
210.669	149.436
214.044	120.478
217.419	99.6511
220.794	59.0981
224.169	42.8972
227.544	35.4067
230.918	21.365
234.293	30.397
237.668	6.63452
241.043	10.4146
244.418	23.8416
247.792	4.62134
251.167	3.90698
254.542	16.2339
257.917	4.42871
261.292	35.6362
264.667	66.928
268.041	47.3755
271.416	26.1301
274.791	70.7639
278.166	40.5476
281.541	83.7886
284.916	41.6245
288.29	65.9814
291.665	86.3677
295.04	43.3332
298.415	46.9585
301.79	73.7353
305.164	71.6995
308.539	97.2444
311.914	116.452
315.289	132.088
318.664	142.353
322.038	194.975
325.413	196.257
328.788	192.436
332.163	215.754
335.538	206.141
338.913	209.398
342.287	160.906
345.662	114.568
349.037	109.204
352.412	108.169
355.787	75.5601
359.161	85.1894
362.536	29.0225
365.911	9.7876
369.286	16.1094
372.661	26.4224
376.036	5.77368
379.41	32.5923
382.785	28.6716
386.16	8.1748
389.535	33.2961
392.91	29.302
396.284	8.18872
399.659	2.42676
403.034	16.6194
406.409	81.644
409.784	29.0186
413.159	19.2856
416.533	26.6582
419.908	22.0657
423.283	25.384
426.658	42.5117
430.033	81.4702
433.408	142.172
436.782	180.731
440.157	300.056
443.532	356.193
446.907	440.271
450.282	651.789
453.656	724.264
457.031	830.401
460.406	929.303
463.781	1023.04
467.156	1185.31
470.531	1337.82
473.905	1489.66
477.28	1640.2
480.655	1790.84
484.03	1832.62
487.405	1826.46
490.779	1652.63
494.154	1491.93
497.529	1271.42
500.904	1065.97
504.279	813.602
507.654	669.826
511.028	449.856
514.403	327.733
517.778	232.495
521.153	153.11
524.528	100.785
527.903	68.032
531.277	56.1489
534.652	36.2744
538.027	6.75854
541.402	15.2334
544.777	20.2224
548.151	1.9834
551.526	18.8352
554.901	13.2688
558.276	13.2739
561.651	50.1475
565.025	45.2129
568.4	32.9526
571.775	20.563
575.15	18.4334
578.525	72.8584
581.899	58.8396
585.274	22.2588
588.649	50.6433
592.024	58.9231
595.399	69.6892
598.774	22.4187
602.148	31.8201
605.523	37.3716
608.898	39.429
612.273	26.9316
615.648	78.8726
619.023	7.46973
622.397	5.23901
625.772	55.6018
629.147	36.5752
632.522	1.98584
635.897	55.2903
639.271	92.6323
642.646	56.0207
646.021	88.0195
649.396	95.3579
652.771	56.7312
656.145	72.6533
659.52	59.2336
662.895	41.1431
666.27	37.4915
669.645	36.2085
673.02	17.1099
676.394	17.8235
679.769	4.40723
683.144	12.9009
686.519	41.3586
689.894	31.2764
693.269	6.67773
696.643	43.2307
700.018	3.70703
703.393	56.1768
706.768	27.5305
710.143	20.8821
713.518	68.6443
716.892	10.387
720.267	38.773
723.642	1.14038
727.017	30.1528
730.391	30.5776
733.766	34.5371
737.141	39.3332
740.516	20.1387
743.891	36.6792
747.266	31.2375
750.64	35.1365
754.015	35.6182
757.39	42.0374
760.765	15.0723
764.14	60.6643
767.514	71.9795
770.889	43.1809
774.264	54.5984
777.639	50.8462
781.014	55.8997
784.389	64.593
787.763	54.1392
791.138	66.0791
794.513	47.167
797.888	50.2559
801.263	58.3489
804.638	54.7903
808.012	74.6338
811.387	6.97095
814.762	28.792
818.137	11.2363
821.512	7.89502
824.886	56.7026
828.261	17.998
831.636	28.0198
835.011	15.5525
838.386	12.3491
841.76	13.6643
845.135	23.9995
848.51	44.5532
851.885	32.717
855.26	42.0803
858.635	63.1279
862.01	49.4233
865.384	32.595
868.759	7.2334
872.134	31.3572
875.509	28.8623
878.884	30.0647
882.258	39.9573
885.633	56.7102
889.008	41.7893
892.383	7.33374
895.758	42.3977
899.132	41.5772
902.507	35.385
905.882	45.688
909.257	54.71
912.632	42.8423
916.006	29.4705
919.381	72.2205
922.756	17.5535
926.131	39.7029
929.506	23.3562
932.881	39.9729
936.255	6.56665
939.63	5.71704
943.005	61.5217
946.38	8.3916
949.755	4.71265
953.13	12.7646
956.504	38.3779
959.879	9.10425
963.254	3.76196
966.629	3.92725
970.004	72.896
973.378	37.6008
976.753	25.9443
980.128	35.4106
983.503	68.7319
986.878	23.2812
990.253	59.654
993.627	77.8398
997.002	50.1401
1000.38	85.2944
1003.75	52.8181
1007.13	51.2542
1010.5	21.2688
1013.88	56.2112
1017.25	57.2156
1020.63	90.2917
1024	41.9934
1027.38	32.498
1030.75	26.3184
1034.12	31.6128
1037.5	38.1028
1040.88	19.6155
1044.25	20.1211
1047.62	6.22095
1051	19.1272
1054.37	22.2979
1057.75	39.8648
1061.12	15.7322
1064.5	99.1025
1067.87	113.985
1071.25	113.594
1074.62	82.0854
1078	111.981
1081.37	88.2644
1084.75	136.256
1088.12	116.511
1091.5	167.988
1094.87	169.07
1098.25	130.371
1101.62	165.404
1105	165.584
1108.37	168.341
1111.75	130.689
1115.12	156.414
1118.5	143.237
1121.87	119.288
1125.24	128.97
1128.62	142.856
1131.99	83.4438
1135.37	117.053
1138.74	156.843
1142.12	142.816
1145.49	105.797
1148.87	68.3633
1152.24	52.3555
1155.62	38.1868
1158.99	75.9048
1162.37	45.6951
1165.74	32.4712
1169.12	44.4053
1172.49	12.718
1175.87	51.3533
1179.24	3.37451
1182.62	33.4482
1185.99	19.2629
1189.37	38.302
1192.74	50.668
1196.12	21.6831
1199.49	5.16235
1202.87	60.6492
1206.24	48.9248
1209.62	1.97632
1212.99	35.1516
1216.37	34.0178
1219.74	59.3284
1223.12	5.47339
1226.49	30.3254
1229.87	49.0652
1233.24	24.1235
1236.61	43.2769
1239.99	91.0354
1243.36	4.57397
1246.74	69.5339
1250.11	64.9192
1253.49	16.624
1256.86	59.2051
1260.24	36.669
1263.61	58.4553
1266.99	44.4839
1270.36	34.4961
1273.74	16.6799
1277.11	18.4026
1280.49	59.8071
1283.86	45.6902
1287.24	46.3948
1290.61	10.7644
1293.99	20.0776
1297.36	45.7688
1300.74	46.8499
1304.11	24.7637
1307.48	50.2629
1310.86	35.0945
1314.23	24.2749
1317.61	0
