Measurement: Raman, 785 nm, unoriented, Raman Data Processed
Mineral: Chabazite-Na
Rruff sample: R070440
Ideal chemistry: (Na_3_K)Al_4_Si_8_O_24_11H_2_O
Locality: Faraglione dei Ciclopi, Aci Castello, Catania Province, Sicily, Italy
Source: Michael Scott
Description: Group of colorless blocky crystals associated with phillipsite-Na, R061094
Measured chemistry: Na_2.00_(Ca_0.75_Na_0.25_)_Σ=1_(Si_7.88_Al_4.12_)O_24_·((H_2_O)_11.64_K_0.21_Na_0.15_)_Σ=12_; H_2_O estimated by difference
Raman shift (cm-1)	intensity
159.599	0
162.491	53.9353
165.384	156.98
168.277	255.722
171.169	279.918
174.062	312.271
176.955	261.889
179.847	224.609
182.74	249.403
185.633	184
188.525	258.877
191.418	213.399
194.311	180.988
197.204	250.234
200.096	265.599
202.989	246.489
205.882	200.414
208.774	146.334
211.667	130.679
214.56	89.2129
217.452	76.3806
220.345	49.3657
223.238	64.2449
226.131	12.5645
229.023	20.406
231.916	59.2517
234.809	4.48071
237.701	3.79394
240.594	32.9324
243.487	7.94727
246.38	42.9477
249.272	56.6533
252.165	52.3071
255.058	82.1064
257.95	74.9209
260.843	107.687
263.736	95.0847
266.628	112.29
269.521	128.027
272.414	89.6725
275.307	143.548
278.199	138.852
281.092	139.158
283.985	176.376
286.877	179.382
289.77	214.458
292.663	139.194
295.555	179.565
298.448	180.904
301.341	131.092
304.233	128.102
307.126	173.884
310.019	178.682
312.912	244.669
315.804	229.881
318.697	328.155
321.59	309.149
324.482	347.134
327.375	405.242
330.268	417.261
333.161	391.227
336.053	404.25
338.946	390.874
341.839	374.101
344.731	291.94
347.624	268.652
350.517	182.616
353.409	183.807
356.302	81.0352
359.195	105.792
362.087	76.4595
364.98	23.1821
367.873	6.34448
370.766	11.9834
373.658	25.0884
376.551	4.0918
379.444	8.23608
382.336	1.0769
385.229	34.064
388.122	28.3149
391.014	37.689
393.907	3.82129
396.8	2.6438
399.693	39.3201
402.585	24.6189
405.478	87.3037
408.371	126.162
411.263	136.283
414.156	116.654
417.049	106.21
419.942	89.6531
422.834	90.6794
425.727	169.29
428.62	187.32
431.512	238.992
434.405	331.726
437.298	437.8
440.19	595.933
443.083	774.431
445.976	910.849
448.868	1127.17
451.761	1246.66
454.654	1449.02
457.547	1563.35
460.439	1736.74
463.332	1914.7
466.225	2095.04
469.117	2349.58
472.01	2551.79
474.903	2849.4
477.796	3138.39
480.688	3296.05
483.581	3405.09
486.474	3331.51
489.366	3287.6
492.259	3013.09
495.152	2773.53
498.044	2455.44
500.937	2071.6
503.83	1725.1
506.723	1370.87
509.615	1076.22
512.508	805.929
515.401	631.848
518.293	495.491
521.186	287.06
524.079	224.768
526.971	135.395
529.864	88.8207
532.757	58.217
535.649	49.2301
538.542	14.0124
541.435	6.5166
544.328	19.5391
547.22	6.33594
550.113	33.6346
553.006	30.3697
555.898	15.4714
558.791	31.9762
561.684	15.1935
564.577	45.1666
567.469	34.6547
570.362	18.7589
573.255	61.546
576.147	50.3008
579.04	36.4014
581.933	70.3801
584.825	65.1349
587.718	87.2125
590.611	76.186
593.504	73.4254
596.396	78.2695
599.289	92.6002
602.182	81.6143
605.074	77.1748
607.967	63.852
610.86	54.9794
613.752	46.897
616.645	15.1316
619.538	1.98669
622.431	15.3837
625.323	2.13892
628.216	24.3585
631.109	6.52979
634.001	46.7332
636.894	85.2875
639.787	79.715
642.679	53.8257
645.572	44.8949
648.465	56.7664
651.357	77.4635
654.25	74.9279
657.143	74.9814
660.036	49.8298
662.928	48.2058
665.821	22.1256
668.714	60.6185
671.606	36.2751
674.499	35.8668
677.392	28.1664
680.284	23.298
683.177	20.1687
686.07	20.9181
688.963	22.3441
691.855	12.3494
694.748	29.9104
697.641	32.6958
700.533	4.09412
703.426	8.60217
706.319	52.4381
709.212	46.8466
712.104	49.0707
714.997	26.8408
717.89	46.365
720.782	32.8415
723.675	30.1925
726.568	82.5754
729.46	42.5305
732.353	3.38879
735.246	4.70032
738.139	26.8234
741.031	44.0668
743.924	33.66
746.817	55.3774
749.709	47.821
752.602	70.4562
755.495	86.5028
758.387	101.318
761.28	70.2549
764.173	84.6686
767.066	63.3816
769.958	77.7584
772.851	70.1976
775.744	49.1626
778.636	77.0173
781.529	56.9392
784.422	91.7014
787.314	98.7371
790.207	102.238
793.1	80.7247
795.992	88.182
798.885	75.1474
801.778	53.6773
804.671	32.8152
807.563	37.4908
810.456	5.14203
813.349	24.0622
816.241	17.9844
819.134	7.60156
822.027	20.0148
824.919	10.8303
827.812	4.04083
830.705	28.9893
833.598	24.5148
836.49	17.736
839.383	3.53626
842.276	30.8264
845.168	60.6041
848.061	39.9252
850.954	32.3454
853.846	22.3304
856.739	62.4404
859.632	21.4859
862.525	25.5424
865.417	19.0341
868.31	34.1818
871.203	54.5094
874.095	37.9694
876.988	33.7035
879.881	39.6456
882.774	43.2856
885.666	29.4031
888.559	54.617
891.452	43.0932
894.344	45.11
897.237	24.7429
900.13	22.2007
903.022	19.0478
905.915	81.4826
908.808	64.9797
911.701	23.4968
914.593	85.0499
917.486	40.4015
920.379	21.5033
923.271	32.0524
926.164	24.2757
929.057	0.423584
931.949	21.9409
934.842	12.625
937.735	32.5994
940.628	23.7198
943.52	5.74335
946.413	36.135
949.306	24.2128
952.198	15.6619
955.091	50.6173
957.984	19.864
960.876	12.0715
963.769	29.0406
966.662	25.5243
969.554	13.2837
972.447	22.1225
975.34	23.722
978.233	65.5112
981.125	44.2112
984.018	66.8049
986.911	66.9363
989.803	31.2944
992.696	89.3013
995.589	84.4932
998.481	63.9739
1001.37	67.279
1004.27	80.4141
1007.16	40.8704
1010.05	60.5898
1012.95	56.078
1015.84	41.0294
1018.73	33.3913
1021.62	36.6186
1024.52	43.7852
1027.41	23.3393
1030.3	47.0252
1033.19	32.2355
1036.09	11.908
1038.98	10.1755
1041.87	11.871
1044.77	0.8078
1047.66	7.0329
1050.55	14.673
1053.44	21.1891
1056.34	36.9057
1059.23	75.1544
1062.12	126.626
1065.01	107.846
1067.91	139.165
1070.8	146.776
1073.69	146.139
1076.58	164.646
1079.48	194.722
1082.37	158.053
1085.26	228.529
1088.15	196.059
1091.05	177.375
1093.94	178.731
1096.83	206.739
1099.73	217.158
1102.62	196.017
1105.51	193.635
1108.4	203.223
1111.3	149.074
1114.19	146.859
1117.08	170.065
1119.97	146.45
1122.87	133.231
1125.76	136.872
1128.65	133.98
1131.55	142.178
1134.44	122.217
1137.33	122.141
1140.22	117.561
1143.12	91.9831
1146.01	81.6697
1148.9	75.8215
1151.8	50.3561
1154.69	63.6427
1157.58	21.4329
1160.47	2.59399
1163.37	35.0635
1166.26	21.0543
1169.15	31.4337
1172.04	32.2643
1174.94	50.0533
1177.83	15.283
1180.72	16.7642
1183.61	27.4958
1186.51	29.8408
1189.4	21.7685
1192.29	32.1418
1195.18	21.342
1198.08	36.3818
1200.97	16.8479
1203.86	7.18091
1206.76	43.8362
1209.65	40.8966
1212.54	51.5193
1215.43	73.7891
1218.33	37.8223
1221.22	49.3223
1224.11	12.4815
1227.01	12.7825
1229.9	19.6896
1232.79	25.4667
1235.68	49.7009
1238.58	12.4596
1241.47	5.83124
