Measurement: Raman, 780 nm, unoriented, Raman Data Processed
Mineral: Chalcophanite
Rruff sample: R050451
Ideal chemistry: Zn^2+^Mn^4+^_3_O_7_3H_2_O
Locality: Morenci mine, Morenci, Greenlee County, Arizona, USA
Source: University of Arizona Mineral Museum
Description: A mass of small black hexagonal plates, not homogeneous
Measured chemistry: (Zn_0.60_Fe^2+^_0.20_Cu_0.12_Fe^3+^_0.08_)_Σ=1_(Mn^4+^_2.92_Fe^3+^_0.08_)_Σ=3_O_7_·3H_2_O ; = bright phase. The gray phase is jacobsite (Mn_0.65_Zn_0.25_Cu_0.09_)_Σ=1_(Fe^3+^_1.58_Mn^3+^_0.42_)_Σ=2_O_4_; dark phase: K-feldspar
Raman shift (cm-1)	intensity
186.35	0
189.242	0.329456
192.135	0.414185
195.028	0.328091
197.921	0.24588
200.813	0.661667
203.706	0.455524
206.599	1.05356
209.491	1.30825
212.384	0.778366
215.277	1.44063
218.169	1.81381
221.062	3.02002
223.955	3.88874
226.847	3.67178
229.74	3.5795
232.633	3.60914
235.526	3.05108
238.418	3.24798
241.311	3.32974
244.204	1.55631
247.096	1.51797
249.989	1.2394
252.882	0.110527
255.774	0.178612
258.667	0.189449
261.56	0.357544
264.453	0.579399
267.345	0.455112
270.238	0.604523
273.131	1.22934
276.023	0.182911
278.916	1.08896
281.809	0.953461
284.702	1.81501
287.594	1.22542
290.487	1.81265
293.38	2.58257
296.272	1.79148
299.165	3.8289
302.058	5.31334
304.95	5.23027
307.843	6.65194
310.736	8.04653
313.629	9.27064
316.521	9.73567
319.414	9.4416
322.307	7.80276
325.199	5.32843
328.092	3.26205
330.985	2.29017
333.877	1.07072
336.77	0.043705
339.663	0.016312
342.556	0.155266
345.448	0.613873
348.341	0.19405
351.234	0.457092
354.126	1.32642
357.019	2.36538
359.912	3.34635
362.805	4.86949
365.697	6.73144
368.59	7.6164
371.483	7.09766
374.375	6.43388
377.268	4.78088
380.161	4.58399
383.053	4.47412
385.946	4.95372
388.839	5.7936
391.731	6.95149
394.624	5.37632
397.517	3.88394
400.41	2.05176
403.302	0.785904
406.195	0.449066
409.088	0.914066
411.98	0.188427
414.873	0.08807
417.766	0.521927
420.659	1.15742
423.551	0.275948
426.444	0.169048
429.337	0.351604
432.229	0.126106
435.122	1.00503
438.015	1.02707
440.907	0.862469
443.8	0.544571
446.693	0.035862
449.586	0.385517
452.478	0.230217
455.371	0.109318
458.264	0.083691
461.156	0.331631
464.049	0.358704
466.942	0.849079
469.834	0.598938
472.727	1.68438
475.62	1.81284
478.513	1.18913
481.405	2.08942
484.298	2.5396
487.191	1.96174
490.083	1.59543
492.976	1.86227
495.869	3.3825
498.762	3.45598
501.654	4.05447
504.547	4.04023
507.44	3.129
510.332	2.89834
513.225	1.89113
516.118	1.2505
519.01	2.90269
521.903	4.75781
524.796	8.61773
527.688	10.9718
530.581	16.7284
533.474	20.874
536.367	19.3351
539.259	15.0057
542.152	10.1178
545.045	8.1677
547.937	5.59933
550.83	4.18906
553.723	2.75168
556.615	2.12786
559.508	0.990803
562.401	0.845833
565.294	0.582241
568.186	0.548393
571.079	0.41153
573.972	0.624516
576.864	0.154079
579.757	0.455765
582.65	0.243992
585.543	0.208687
588.435	0.282421
591.328	0.317848
594.221	0.56279
597.113	0.583534
600.006	0.83252
602.899	1.63925
605.791	2.06356
608.684	2.78205
611.577	2.43381
614.47	2.6038
617.362	3.08513
620.255	3.44177
623.148	3.75895
626.04	4.45589
628.933	4.43151
631.826	5.53381
634.718	7.21406
637.611	7.04328
640.504	7.13841
643.397	8.02388
646.289	8.58226
649.182	8.46836
652.075	8.87535
654.967	10.2281
657.86	11.5042
660.753	13.279
663.645	16.6143
666.538	20.0783
669.431	22.9331
672.324	25.7215
675.216	29.7442
678.109	31.9246
681.002	31.0357
683.894	28.7049
686.787	23.7323
689.68	18.4354
692.572	14.1846
695.465	10.1831
698.358	7.55961
701.251	5.3441
704.143	4.01446
707.036	3.88192
709.929	2.83346
712.821	2.52602
715.714	1.93583
718.607	0.823563
721.5	1.28852
724.392	0.360413
727.285	0.800728
730.178	0.354179
733.07	0.25082
735.963	0.099712
738.856	0.17067
741.749	0.026783
744.641	0.000919
747.534	0.00391
750.427	0.325344
753.319	0.600845
756.212	0.525909
759.105	0.091911
761.997	0.519413
764.89	0.088795
767.783	0.195641
770.676	0.484833
773.568	0.339214
776.461	0.299259
779.354	0.270592
782.246	0.622349
785.139	0.208153
788.032	0.224964
790.924	0.685135
793.817	0.35355
796.71	0.942768
799.602	0.862667
802.495	0.746521
805.388	0.236267
808.281	0.425781
811.173	0.761021
814.066	1.36921
816.959	0.804195
819.851	0.75124
822.744	0.801861
825.637	0.767139
828.529	0.78809
831.422	1.13149
834.315	0.972515
837.208	1.01475
840.1	1.20956
842.993	0.887897
845.886	1.1502
848.778	0.646042
851.671	1.04741
854.564	0.353321
857.457	0.480362
860.349	0.750961
863.242	0.971405
866.135	0.649761
869.027	0.666142
871.92	0.652611
874.813	0.629234
877.705	0.870895
880.598	0.442871
883.491	0.581375
886.384	0.327118
889.276	0.812405
892.169	0.297947
895.062	0.246532
897.954	0.514645
900.847	0.891788
903.74	0.538261
906.632	0.498184
909.525	0.71138
912.418	0.655014
915.311	0.332706
918.203	0.570385
921.096	0.196056
923.989	0.564106
926.881	0.015739
929.774	0.691235
932.667	0.670021
935.559	0.147133
938.452	0.448471
941.345	0.978153
944.238	0.183292
947.13	0.706253
950.023	0.472172
952.916	0.077705
955.808	0.245266
958.701	0.781315
961.594	0.791718
964.486	0.720196
967.379	0.782452
970.272	0.931023
973.165	0.732193
976.057	0.285862
978.95	0.143978
981.843	0.397789
984.735	0.460464
987.628	0.616997
990.521	0.586784
993.413	0.084934
996.306	1.00735
999.199	0.94178
1002.09	0.330082
1004.98	0.720718
1007.88	0.674923
1010.77	0.345806
1013.66	0.366558
1016.55	0.743584
1019.45	0.534599
1022.34	0.723873
1025.23	0.166538
1028.13	0.213196
1031.02	0.090267
1033.91	0.244228
1036.8	0.527641
1039.7	0.660107
1042.59	0.675419
1045.48	0.569199
1048.38	0.749645
1051.27	0.669678
1054.16	0.348248
1057.05	0.313488
1059.95	0.630215
1062.84	0.064278
1065.73	0.795776
1068.62	0.426224
1071.52	0.798485
1074.41	0.038467
1077.3	0.726795
1080.19	0.238674
1083.09	0.769901
1085.98	0.263729
1088.87	0.455425
1091.77	0.079475
1094.66	0.488758
1097.55	0.311401
1100.44	0.757946
1103.34	0.046017
1106.23	0.073357
1109.12	0.347523
1112.01	0.419659
1114.91	0.11356
1117.8	0.114662
1120.69	0.160728
1123.59	0.518387
1126.48	0.545692
1129.37	0.304337
1132.26	0.493851
1135.16	0.283192
1138.05	0.241646
1140.94	0.639519
1143.83	0.476559
1146.73	0.116264
1149.62	0.67482
1152.51	0.58667
1155.4	0.548023
1158.3	0.896072
1161.19	0.62006
1164.08	1.14578
1166.98	0.754364
1169.87	0.83931
1172.76	1.1169
1175.65	1.32163
1178.55	1.44227
1181.44	1.02605
1184.33	1.46173
1187.22	0.761021
1190.12	0.896557
1193.01	0.62999
1195.9	0.99295
1198.8	0.770081
1201.69	1.23957
1204.58	1.06919
1207.47	0.632187
1210.37	0.37796
1213.26	0.285984
1216.15	0.258102
1219.04	0.309334
1221.94	0.277824
1224.83	0.223206
1227.72	1.04163
1230.62	0.357582
1233.51	0.75806
1236.4	0.851368
1239.29	0.418941
1242.19	0.18932
1245.08	0.69632
1247.97	0.139767
1250.86	0.633469
1253.76	0.183659
1256.65	0.698334
1259.54	0.444244
1262.43	0.853695
1265.33	0.512501
1268.22	0.03228
1271.11	0.734585
1274.01	0.101051
1276.9	0.730686
1279.79	0.146378
1282.68	0.631966
