Measurement: Raman, 780 nm, unoriented, Raman Data Processed
Mineral: Chalcophanite
Rruff sample: R050605
Ideal chemistry: Zn^2+^Mn^4+^_3_O_7_3H_2_O
Locality: Mina Ojuela, Mapimi, Durango, Mexico
Source: University of Arizona Mineral Museum
Description: Druse of grayish black pseudo-octahedra
Raman shift (cm-1)	intensity
149.919	0
152.812	0.425449
155.705	1.74035
158.597	2.53398
161.49	3.50312
164.383	2.87958
167.276	0.835588
170.168	3.83194
173.061	4.45229
175.954	3.37568
178.846	2.8616
181.739	1.08932
184.632	4.03761
187.524	0.343466
190.417	2.8783
193.31	0.59514
196.203	4.02647
199.095	1.08471
201.988	1.0245
204.881	4.1568
207.773	4.8492
210.666	5.28868
213.559	6.04306
216.451	6.85773
219.344	5.70943
222.237	7.06813
225.13	0.400343
228.022	3.76846
230.915	3.85621
233.808	1.66427
236.7	3.07903
239.593	1.96624
242.486	4.48985
245.378	2.52985
248.271	2.58148
251.164	2.32144
254.056	1.08145
256.949	2.17165
259.842	0.108719
262.735	2.57346
265.627	0.575306
268.52	2.90163
271.413	3.99478
274.305	3.37035
277.198	6.97829
280.091	8.72202
282.983	12.151
285.876	12.2281
288.769	15.3127
291.662	15.9302
294.554	21.2295
297.447	18.162
300.34	15.5257
303.232	9.54768
306.125	9.90237
309.018	6.7725
311.911	2.36603
314.803	3.55842
317.696	2.53187
320.589	2.44095
323.481	1.7218
326.374	1.9645
329.267	2.21271
332.159	0.505108
335.052	1.22978
337.945	1.34914
340.837	1.03069
343.73	0.020653
346.623	5.64316
349.516	2.68658
352.408	2.03307
355.301	2.62961
358.194	7.07717
361.086	9.30694
363.979	9.2502
366.872	11.0321
369.764	14.1262
372.657	15.1343
375.55	13.4011
378.442	17.0462
381.335	11.511
384.228	9.09598
387.121	7.56482
390.013	4.81729
392.906	0.204594
395.799	3.012
398.691	2.66675
401.584	0.611485
404.477	0.107491
407.37	0.057907
410.262	1.03699
413.155	2.19989
416.048	1.35334
418.94	1.67283
421.833	1.96135
424.726	1.23981
427.618	2.96917
430.511	1.84319
433.404	0.038139
436.296	4.54917
439.189	4.08005
442.082	1.86919
444.975	3.1682
447.867	4.85415
450.76	0.795879
453.653	0.358406
456.545	0.744087
459.438	2.62911
462.331	2.65432
465.224	3.55928
468.116	4.6455
471.009	8.28754
473.902	9.70238
476.794	12.7358
479.687	11.4741
482.58	9.66456
485.472	7.70956
488.365	5.91209
491.258	6.08873
494.151	7.25481
497.043	9.16598
499.936	12.5932
502.829	13.233
505.721	19.7256
508.614	20.4235
511.507	18.166
514.399	7.24979
517.292	4.78517
520.185	0.88662
523.077	4.92042
525.97	2.57595
528.863	1.02281
531.756	0.255875
534.648	1.69672
537.541	0.257393
540.434	0.175846
543.326	2.28139
546.219	6.78089
549.112	10.1733
552.004	17.2196
554.897	26.2042
557.79	35.3347
560.683	48.6308
563.575	60.7081
566.468	67.485
569.361	63.4322
572.253	47.362
575.146	27.9115
578.039	18.0889
580.931	12.7625
583.824	9.57026
586.717	7.99221
589.61	7.05469
592.502	3.45101
595.395	2.35488
598.288	0.383877
601.18	0.790844
604.073	0.137753
606.966	2.25063
609.858	2.2701
612.751	2.49811
615.644	0.918575
618.537	0.913803
621.429	8.59628
624.322	1.42372
627.215	5.89053
630.107	6.73726
633	9.107
635.893	9.78192
638.785	9.31099
641.678	15.0149
644.571	15.817
647.463	18.9238
650.356	23.8254
653.249	31.3483
656.141	42.9358
659.034	52.2239
661.927	63.6044
664.82	71.4539
667.712	73.0568
670.605	64.6414
673.498	51.4175
676.39	34.2168
679.283	25.9381
682.176	19.0495
685.068	13.3835
687.961	9.19782
690.854	8.06498
693.747	6.30044
696.639	4.54068
699.532	3.80399
702.425	3.77706
705.317	1.07422
708.21	2.5513
711.103	2.43071
713.995	2.56082
716.888	1.09297
719.781	2.98946
722.674	1.02831
725.566	3.22175
728.459	2.78113
731.352	0.12571
734.244	0.893028
737.137	2.22342
740.03	1.07225
742.923	2.83589
745.815	0.740913
748.708	2.71246
751.601	2.51517
754.493	0.800816
757.386	0.396275
760.279	1.49484
763.171	2.63385
766.064	1.4893
768.957	1.25229
771.85	3.6409
774.742	2.48009
777.635	3.92526
780.528	5.59996
783.42	4.94592
786.313	3.8337
789.206	2.76428
792.098	3.91345
794.991	3.87251
797.884	5.62042
800.776	4.97653
803.669	5.70147
806.562	3.35262
809.455	6.84419
812.347	3.44976
815.24	3.81252
818.133	0.933277
821.025	0.212543
823.918	2.88825
826.811	3.41689
829.703	0.176723
832.596	3.01395
835.489	2.95538
838.381	4.24943
841.274	0.269428
844.167	4.31749
847.06	2.1098
849.952	4.81472
852.845	3.96861
855.738	5.64079
858.63	2.93335
861.523	2.03743
864.416	0.647045
867.308	5.45177
870.201	5.52356
873.094	1.51643
875.987	4.51616
878.879	2.1176
881.772	2.43714
884.665	3.3806
887.557	1.48364
890.45	1.9137
893.343	0.799889
896.236	1.92222
899.128	2.16141
902.021	2.31507
904.914	3.17403
907.806	1.62151
910.699	1.42702
913.592	0.097168
916.484	2.85193
919.377	2.15022
922.27	3.43226
925.163	5.52782
928.055	4.63757
930.948	3.72204
933.841	1.70256
936.733	2.62542
939.626	0.525352
942.519	1.25772
945.411	3.85442
948.304	2.99482
951.197	2.73806
954.09	2.61655
956.982	4.34711
959.875	2.39603
962.768	2.1655
965.66	1.76704
968.553	4.36934
971.446	1.98293
974.338	4.21213
977.231	3.21784
980.124	0.906586
983.016	1.03561
985.909	5.63512
988.802	2.8298
991.694	3.00514
994.587	4.79179
997.48	5.67104
1000.37	3.37752
1003.26	4.57906
1006.16	4.70247
1009.05	3.77635
1011.94	3.76856
1014.84	6.2552
1017.73	5.2894
1020.62	3.68204
1023.51	2.78435
1026.41	2.83725
1029.3	4.33145
1032.19	4.64461
1035.09	3.17426
1037.98	8.24496
1040.87	5.9155
1043.76	5.33832
1046.66	2.85148
1049.55	3.62642
1052.44	3.16274
1055.33	2.29047
1058.23	5.65436
1061.12	4.44015
1064.01	4.66625
1066.9	0.074318
1069.8	3.58968
1072.69	4.07284
1075.58	0.977005
1078.47	0.366341
1081.37	5.4333
1084.26	1.55138
1087.15	3.50803
1090.05	4.65391
1092.94	3.8495
1095.83	2.4967
1098.72	2.656
1101.62	1.60526
1104.51	5.25727
1107.4	2.50436
1110.3	2.86365
1113.19	2.66898
1116.08	2.24464
1118.97	6.18013
1121.87	2.00545
1124.76	0.425339
1127.65	0.371452
1130.54	2.11121
1133.44	1.89893
1136.33	0.902382
1139.22	1.20217
1142.12	3.21182
1145.01	2.05248
1147.9	3.45428
1150.79	1.90069
1153.69	1.61909
1156.58	1.78249
1159.47	2.42983
1162.36	1.15048
1165.26	0.428947
1168.15	1.52927
1171.04	2.05863
1173.93	2.75583
1176.83	4.18003
1179.72	1.78134
1182.61	4.22407
1185.51	0.937538
1188.4	4.01697
1191.29	3.79883
1194.18	3.22413
1197.08	4.55639
1199.97	4.51856
1202.86	3.86
1205.75	1.61505
1208.65	0.507019
1211.54	4.04465
1214.43	3.32419
1217.33	1.36425
1220.22	2.64838
1223.11	2.19633
1226	0.809418
1228.9	4.08347
1231.79	1.102
1234.68	2.27696
1237.57	1.55085
1240.47	1.96144
1243.36	1.5945
1246.25	3.25615
1249.14	0.745163
1252.04	0.494789
1254.93	2.23542
1257.82	0.767281
1260.71	1.98117
1263.61	3.44513
1266.5	3.21793
1269.39	0.493118
1272.29	1.59688
1275.18	2.69273
1278.07	0.172226
1280.96	2.52428
1283.86	4.50642
