Measurement: Raman, 780 nm, unoriented, Raman Data Processed
Mineral: Chalcosiderite
Rruff sample: R060339
Ideal chemistry: Cu^2+^Fe^3+^_6_(PO_4_)_4_(OH)_8_4H_2_O
Locality: Gunheath Pit, St. Austell, Cornwall, England
Source: Michael Scott
Description: Sheafs of green platy crystals associated with white leucophosphite, R060338, and orange cyrilovite, R060504
Measured chemistry: Cu_1.00_(Fe^3+^_4.84_Al_1.16_)_Σ=6_(P_1.00_O_4_)_4_(OH)_8_·4H_2_O; H_2_O estimated by difference; (OH) by charge balance
Raman shift (cm-1)	intensity
104.068	0
107.443	0.160919
110.818	3.81189
114.193	12.0117
117.567	14.1044
120.942	10.5604
124.317	4.32349
127.692	2.67715
131.067	3.3793
134.442	2.12604
137.816	1.20023
141.191	2.14822
144.566	5.54922
147.941	4.12613
151.316	1.47154
154.69	4.2236
158.065	9.67502
161.44	17.8214
164.815	23.1439
168.19	26.682
171.565	30.1578
174.939	38.5368
178.314	45.2537
181.689	50.7648
185.064	54.5106
188.439	55.282
191.814	58.2652
195.188	61.1271
198.563	61.1786
201.938	54.5797
205.313	52.8447
208.688	46.5779
212.062	37.0224
215.437	33.5166
218.812	29.4386
222.187	29.6661
225.562	23.6188
228.936	20.141
232.311	14.794
235.686	11.3498
239.061	13.0725
242.436	11.8639
245.811	11.1147
249.185	9.47942
252.56	5.56885
255.935	2.19316
259.31	0.982559
262.685	0.646362
266.059	0.741409
269.434	0.310272
272.809	2.12595
276.184	3.79056
279.559	9.34483
282.933	10.9694
286.308	18.6029
289.683	22.8093
293.058	34.4567
296.433	41.1928
299.808	46.705
303.182	49.8055
306.557	54.6848
309.932	52.0944
313.307	54.0204
316.682	48.4975
320.057	45.0233
323.431	38.9477
326.806	35.1296
330.181	32.4527
333.556	30.4842
336.931	24.652
340.305	24.8903
343.68	21.5796
347.055	16.0034
350.43	12.6865
353.805	7.2614
357.18	2.49966
360.554	0.23468
363.929	2.22737
367.304	2.11108
370.679	1.25139
374.054	1.9561
377.428	6.12492
380.803	10.4017
384.178	13.4855
387.553	20.3327
390.928	19.1445
394.303	20.1326
397.677	17.1389
401.052	14.4933
404.427	9.94543
407.802	6.31459
411.177	4.65449
414.551	4.3954
417.926	1.5081
421.301	1.27496
424.676	5.08505
428.051	5.71695
431.425	8.18463
434.8	8.32471
438.175	12.2426
441.55	16.879
444.925	17.9241
448.3	16.4374
451.674	17.1341
455.049	15.6331
458.424	10.7926
461.799	8.64464
465.174	5.17218
468.548	3.68306
471.923	3.13315
475.298	5.09511
478.673	0.175674
482.048	1.60991
485.423	2.3878
488.797	1.35806
492.172	0.989944
495.547	0.242691
498.922	1.76268
502.297	0.313293
505.671	0.813171
509.046	4.99213
512.421	4.94453
515.796	6.81963
519.171	10.5726
522.545	13.1355
525.92	13.2613
529.295	14.2203
532.67	16.9062
536.045	13.7989
539.42	15.0388
542.794	13.2904
546.169	14.0127
549.544	16.0644
552.919	14.0538
556.294	15.5769
559.668	15.4011
563.043	15.7829
566.418	12.4973
569.793	8.77834
573.168	7.38756
576.543	8.01079
579.917	4.9138
583.292	5.06985
586.667	2.26688
590.042	5.24997
593.417	2.29057
596.792	5.4841
600.166	5.37149
603.541	8.39622
606.916	8.82323
610.291	8.00264
613.666	7.13968
617.04	6.28709
620.415	6.01582
623.79	3.60149
627.165	4.28256
630.54	6.53388
633.915	2.47524
637.289	2.96138
640.664	1.47212
644.039	1.91185
647.414	0.923447
650.789	1.474
654.163	1.92931
657.538	1.44202
660.913	1.04257
664.288	0.966385
667.663	1.1572
671.038	0.339844
674.412	0.143967
677.787	0.064316
681.162	2.06195
684.537	0.892792
687.912	2.83122
691.286	1.72986
694.661	0.513474
698.036	2.3983
701.411	1.23659
704.786	2.04922
708.16	1.90266
711.535	4.68959
714.91	2.15344
718.285	3.70236
721.66	2.67371
725.035	2.71121
728.409	2.22864
731.784	0.423508
735.159	0.379532
738.534	0.397705
741.909	1.04524
745.284	0.55661
748.658	1.25465
752.033	0.459229
755.408	0.821304
758.783	2.32925
762.158	1.3306
765.532	1.68486
768.907	2.85167
772.282	5.22125
775.657	5.02455
779.032	6.50201
782.407	5.09933
785.781	2.6927
789.156	2.10674
792.531	4.72412
795.906	3.72958
799.281	2.13774
802.655	1.07109
806.03	2.67265
809.405	2.01208
812.78	2.53925
816.155	3.40187
819.529	2.24417
822.904	3.69917
826.279	3.84227
829.654	4.29793
833.029	4.10504
836.404	2.95076
839.778	1.98625
843.153	2.54074
846.528	5.12913
849.903	5.15453
853.278	2.35361
856.653	3.80072
860.027	4.04726
863.402	1.69194
866.777	3.90796
870.152	3.397
873.527	3.659
876.901	1.58911
880.276	4.38774
883.651	3.13483
887.026	1.70775
890.401	0.392929
893.775	0.128098
897.15	1.87605
900.525	1.92168
903.9	2.34622
907.275	1.23019
910.649	0.881439
914.024	0.854248
917.399	0.681107
920.774	0.742691
924.149	0.013535
927.524	1.67864
930.898	0.974716
934.273	2.87132
937.648	0.23085
941.023	0.630524
944.398	0.613205
947.773	3.17668
951.147	2.24278
954.522	1.38016
957.897	2.43761
961.272	7.08217
964.647	7.67432
968.021	7.54131
971.396	12.4052
974.771	13.8595
978.146	17.8974
981.521	21.0463
984.895	28.2274
988.27	32.9913
991.645	40.9911
995.02	46.1554
998.395	55.9407
1001.77	59.492
1005.14	66.0522
1008.52	66.9393
1011.89	64.8362
1015.27	61.6366
1018.64	60.9666
1022.02	62.5453
1025.39	62.2198
1028.77	58.1543
1032.14	49.3878
1035.52	40.2552
1038.89	35.5744
1042.27	26.538
1045.64	23.888
1049.02	17.4311
1052.39	13.4629
1055.77	9.82172
1059.14	3.1871
1062.52	1.89003
1065.89	1.70842
1069.27	0.833054
1072.64	1.03769
1076.02	0.202774
1079.39	0.709305
1082.77	5.95615
1086.14	7.5667
1089.52	13.4092
1092.89	18.5698
1096.27	19.6188
1099.64	22.7037
1103.01	24.2548
1106.39	21.1582
1109.76	18.45
1113.14	9.93367
1116.51	6.87555
1119.89	7.0661
1123.26	6.77266
1126.64	2.01337
1130.01	2.7475
1133.39	2.78426
1136.76	2.38843
1140.14	0.164032
1143.51	1.38342
1146.89	3.33739
1150.26	0.273865
1153.64	2.49675
1157.01	1.55635
1160.39	1.25583
1163.76	1.52838
1167.14	0.629745
1170.51	2.4066
1173.88	0.470657
1177.26	2.11174
1180.63	2.88388
1184.01	1.97516
1187.38	3.66591
1190.76	1.49297
1194.13	1.92529
1197.51	5.55655
1200.88	1.94217
1204.26	0.944305
1207.63	5.50911
1211.01	2.46025
1214.38	5.54216
1217.76	2.74522
1221.13	4.2267
1224.51	4.23911
1227.88	3.80925
1231.26	2.90697
1234.63	3.20419
1238.01	4.79321
1241.38	2.83295
1244.76	4.97188
1248.13	2.42734
1251.51	4.02783
1254.88	3.84706
1258.26	4.80154
1261.63	5.11868
1265.01	2.73636
1268.38	0.446823
1271.76	4.06445
1275.13	2.3494
1278.51	1.39651
1281.88	0.332138
1285.25	0.004074
