Measurement: Raman, 532 nm, unoriented, Raman Data Processed
Mineral: Chalcopyrite
Rruff sample: R050018
Ideal chemistry: Cu^1+^Fe^3+^S^2-^_2_
Locality: Sudbury, Ontario, Canada
Source: Eugene Schlepp
Description: Massive fragment
Measured chemistry: Cu_1.00_Fe_1.00_S_2.00_
Raman shift (cm-1)	intensity
136.163	0
139.537	30.0614
142.912	8.07678
146.287	3.63767
149.662	9.40979
153.037	42.635
156.411	40.48
159.786	42.3241
163.161	54.5177
166.536	55.8621
169.911	75.0226
173.286	75.5013
176.66	46.3267
180.035	42.2136
183.41	37.0178
186.785	55.4894
190.16	39.7119
193.535	32.1005
196.909	13.4654
200.284	28.4404
203.659	22.795
207.034	5.37332
210.409	4.54501
213.783	2.74524
217.158	5.14981
220.533	9.08923
223.908	3.18723
227.283	2.46759
230.657	15.7842
234.032	1.73123
237.407	15.6631
240.782	32.8683
244.157	32.4617
247.532	54.6939
250.906	68.9334
254.281	109.447
257.656	124.837
261.031	142.055
264.406	159.952
267.781	149.769
271.155	160.213
274.53	214.768
277.905	313.847
281.28	509.507
284.655	842.948
288.029	1208.14
291.404	1367.06
294.779	532.553
298.154	144.29
301.529	69.3977
304.904	47.9937
308.278	61.8425
311.653	88.314
315.028	130.128
318.403	195.993
321.778	143.092
325.152	141.969
328.527	112.611
331.902	62.5906
335.277	67.9698
338.652	72.1497
342.026	88.9702
345.401	146.568
348.776	208.874
352.151	254.309
355.526	240.788
358.901	158.514
362.275	81.5037
365.65	77.2065
369.025	91.8867
372.4	77.6971
375.775	42.3073
379.149	8.4277
382.524	2.90286
385.899	8.10956
389.274	11.6385
392.649	2.70541
396.024	2.19418
399.398	9.26804
402.773	8.74106
406.148	0.920898
409.523	9.95169
412.898	20.4302
416.272	27.9598
419.647	31.6685
423.022	35.2724
426.397	44.5867
429.772	36.5757
433.147	40.9644
436.521	40.7932
439.896	56.2867
443.271	43.7343
446.646	55.9061
450.021	59.3671
453.396	81.1312
456.77	85.8979
460.145	110.137
463.52	125.765
466.895	137.733
470.27	148.703
473.644	145.346
477.019	110.78
480.394	64.6125
483.769	45.3961
487.144	26.8246
490.519	17.9458
493.893	26.4978
497.268	9.23334
500.643	6.82053
504.018	5.32831
507.393	5.26865
510.767	9.5506
514.142	9.76404
517.517	11.3173
520.892	5.70825
524.267	7.91281
527.641	4.70407
531.016	1.54627
534.391	20.9197
537.766	3.72867
541.141	3.44101
544.516	1.4324
547.89	5.58978
551.265	12.7548
554.64	9.10052
558.015	7.38431
561.39	9.62216
564.764	11.2068
568.139	5.77212
571.514	15.9142
574.889	8.44397
578.264	11.9013
581.639	20.9131
585.013	9.56128
588.388	11.6104
591.763	14.9442
595.138	24.1013
598.513	14.5013
601.888	16.2359
605.262	10.3298
608.637	14.1054
612.012	13.0952
615.387	10.8562
618.762	11.3774
622.136	17.7742
625.511	12.3733
628.886	8.6492
632.261	11.8064
635.636	7.9985
639.01	13.7009
642.385	16.3423
645.76	7.09256
649.135	4.83603
652.51	22.868
655.885	22.7817
659.259	11.9241
662.634	17.1371
666.009	23.3709
669.384	14.9657
672.759	1.53513
676.134	3.74121
679.508	24.9196
682.883	5.59021
686.258	13.2373
689.633	17.4945
693.008	18.2281
696.382	32.3373
699.757	19.5419
703.132	10.732
706.507	24.9994
709.882	31.1589
713.256	21.6156
716.631	12.6023
720.006	25.4439
723.381	24.7175
726.756	21.3333
730.131	1.3884
733.505	16.0946
736.88	17.1596
740.255	18.7013
743.63	2.80017
747.005	3.45749
750.38	8.40726
753.754	2.44369
757.129	1.20801
760.504	10.3009
763.879	20.6831
767.254	4.97235
770.628	2.28006
774.003	8.88358
777.378	12.5585
780.753	9.46591
784.128	1.55127
787.503	23.1079
790.877	20.4896
794.252	13.451
797.627	8.38959
801.002	21.1111
804.377	18.1115
807.751	4.05637
811.126	17.0187
814.501	10.6497
817.876	5.99414
821.251	1.43423
824.625	9.86591
828	10.3999
831.375	14.65
834.75	15.0045
838.125	7.42319
841.5	4.76724
844.874	12.2722
848.249	18.4394
851.624	11.7785
854.999	10.0661
858.374	14.2835
861.749	1.72052
865.123	16.6263
868.498	14.2172
871.873	12.7934
875.248	10.0654
878.623	10.3624
881.997	20.2784
885.372	9.61414
888.747	21.9922
892.122	12.7653
895.497	14.5563
898.871	11.0771
902.246	22.0417
905.621	21.2672
908.996	33.0709
912.371	15.2973
915.746	24.82
919.12	8.33575
922.495	13.8474
925.87	23.7214
929.245	18.959
932.62	19.2977
935.995	8.11646
939.369	11.6344
942.744	17.2014
946.119	3.72763
949.494	9.81424
952.869	4.31622
956.243	4.83957
959.618	20.7564
962.993	7.18323
966.368	3.90787
969.743	12.7685
973.117	19.0677
976.492	6.40741
979.867	5.05078
983.242	23.5389
986.617	18.628
989.992	10.1961
993.366	8.53949
996.741	7.01306
1000.12	16.282
1003.49	18.4625
1006.87	15.7685
1010.24	27.9577
1013.62	22.1764
1016.99	29.5439
1020.37	5.10059
1023.74	2.45593
1027.12	2.75369
1030.49	9.64767
1033.86	5.93131
1037.24	27.0911
1040.61	6.17596
1043.99	3.48227
1047.36	20.7375
1050.74	15.2991
1054.11	35.126
1057.49	12.4723
1060.86	12.9383
1064.24	25.0161
1067.61	11.6043
1070.99	16.915
1074.36	15.3384
1077.74	23.6429
1081.11	22.1539
1084.49	20.8988
1087.86	7.92718
1091.24	8.80127
1094.61	18.9402
1097.99	2.5932
1101.36	13.4174
1104.73	13.1379
1108.11	23.1996
1111.48	14.379
1114.86	17.7888
1118.23	19.3302
1121.61	1.20352
1124.98	13.3563
1128.36	14.8509
1131.73	4.57007
1135.11	9.12549
1138.48	7.60059
1141.86	16.6313
1145.23	7.44144
1148.61	23.2976
1151.98	14.1374
1155.36	9.6539
1158.73	12.5731
1162.11	3.51471
1165.48	18.7786
1168.86	15.8376
1172.23	8.86609
1175.61	1.646
1178.98	14.1633
1182.36	12.1862
1185.73	6.67313
1189.11	10.2654
1192.48	11.0195
1195.86	2.8747
1199.23	2.24081
1202.61	12.6853
1205.98	19.5655
1209.36	16.0553
1212.73	19.2004
1216.1	3.32816
1219.48	32.5939
1222.85	6.56433
1226.23	0.946655
1229.6	19.4109
1232.98	0.749237
1236.35	16.2395
1239.73	13.2156
1243.1	0.149872
1246.48	12.0403
1249.85	30.4694
1253.23	9.33209
1256.6	18.853
1259.98	30.832
1263.35	9.31937
1266.73	16.4933
1270.1	13.9292
1273.48	18.9805
1276.85	19.808
1280.23	17.372
1283.6	11.5274
1286.98	1.38074
1290.35	13.0117
1293.72	14.9128
1297.1	6.69699
1300.47	16.6246
1303.85	0
