Measurement: Raman, 514 nm, unoriented, Raman Data Processed
Mineral: Chalcopyrite
Rruff sample: R050018
Ideal chemistry: Cu^1+^Fe^3+^S^2-^_2_
Locality: Sudbury, Ontario, Canada
Source: Eugene Schlepp
Description: Massive fragment
Measured chemistry: Cu_1.00_Fe_1.00_S_2.00_
Raman shift (cm-1)	intensity
161.396	0
165.544	1.664
169.689	203.193
173.833	52.867
177.974	22.711
182.114	178.422
186.251	350.566
190.387	463.469
194.52	611.219
198.652	835.326
202.782	987.791
206.909	950.607
211.035	410.373
215.159	34.938
219.281	39.527
223.4	51.822
227.518	13.584
231.634	33.887
235.748	12.42
239.86	118.592
243.97	111.973
248.079	251.084
252.185	408.85
256.289	626.887
260.391	786.439
264.492	1043.18
268.59	1077.12
272.687	1313.15
276.781	1615.61
280.874	3063.43
284.964	7281.53
289.053	16298.7
293.14	11276.2
297.225	3445.51
301.308	1691.85
305.389	773.86
309.468	586.467
313.545	542.654
317.62	878.423
321.693	760.725
325.765	413.621
329.834	253.776
333.902	309.442
337.967	501.291
342.031	314.2
346.093	555.589
350.153	968.616
354.21	1043.85
358.267	890.223
362.321	550.762
366.373	395.268
370.423	675.461
374.471	413.427
378.518	275.227
382.563	198.328
386.605	54.43
390.646	45.006
394.685	33.233
398.722	34.308
402.757	40.087
406.79	11.217
410.821	51.587
414.851	291.708
418.878	38.89
422.904	127.949
426.927	194.706
430.949	283.146
434.969	360.881
438.987	450.625
443.003	681.556
447.018	651.565
451.03	700.193
455.041	880.182
459.049	1057.21
463.056	1604.79
467.061	1983.04
471.064	2222.54
475.065	1988.96
479.064	1374.8
483.062	813.343
487.057	522.51
491.051	426.335
495.043	469.032
499.032	349.353
503.02	337.822
507.007	266.332
510.991	334.124
514.973	356.472
518.954	318.982
522.933	336.603
526.91	375.496
530.885	456.671
534.858	827.614
538.829	350.792
542.799	349.272
546.766	399.668
550.732	282.776
554.696	238.992
558.658	224.614
562.618	293.692
566.576	276.058
570.533	251.772
574.488	365.592
578.44	256.407
582.391	24.1
586.341	128.002
590.288	43.031
594.233	13.184
598.177	33.133
602.119	35.555
606.059	532.83
609.997	56.631
613.933	6.871
617.868	117.689
621.801	93.977
625.731	132.783
629.66	53.723
633.588	168.23
637.513	128.9
641.437	56.191
645.358	1.217
649.278	51.562
653.196	172.207
657.113	50.643
661.027	184.168
664.94	155.156
668.851	120.426
672.76	114.271
676.667	4.092
680.572	95.656
684.476	206.068
688.378	77.271
692.278	59.793
696.176	48.385
700.072	151.463
703.967	183.695
707.86	61.07
711.751	64.992
715.64	238.594
719.527	147.479
723.413	233.787
727.297	172.33
731.179	538.902
735.059	156.375
738.937	216.826
742.814	114.488
746.689	245.682
750.562	65.096
754.433	201.182
758.303	316.361
762.17	66.15
766.036	103.463
769.901	185.107
773.763	207.029
777.624	33.896
781.482	103.939
785.339	113.613
789.195	169.742
793.048	201.555
796.9	176.936
800.75	86.164
804.598	184.15
808.445	88.033
812.289	14.889
816.132	56.51
819.973	49.246
823.813	149.141
827.65	10.08
831.486	169.08
835.32	141.76
839.152	109.289
842.983	134.656
846.812	56.914
850.639	11.637
854.464	117.217
858.288	54.707
862.11	20.426
865.93	18.301
869.748	143.367
873.564	63.037
877.379	22.789
881.192	145.584
885.004	202.914
888.813	212.781
892.621	254.48
896.427	178.717
900.232	221.15
904.034	272.791
907.835	323.076
911.634	253.963
915.432	413.779
919.227	336.711
923.021	274.555
926.813	373.475
930.604	282.312
934.393	336.99
938.18	440.637
941.965	338.484
945.749	202.596
949.53	349.898
953.311	289.441
957.089	305.531
960.866	286.25
964.641	288.477
968.414	288.922
972.185	181.824
975.955	360.982
979.723	333.865
983.49	291.85
987.254	450.637
991.017	468.756
994.779	368.074
998.538	565.803
1002.3	744.488
1006.05	452.451
1009.81	455.211
1013.56	521.428
1017.31	712.98
1021.06	488.418
1024.81	485.484
1028.55	412.32
1032.3	372.268
1036.04	504.834
1039.78	626.387
1043.52	615.711
1047.26	485.311
1050.99	579.992
1054.73	572.648
1058.46	610.783
1062.19	442.537
1065.92	534.396
1069.65	497.893
1073.37	395.656
1077.1	476.244
1080.82	551.637
1084.54	519.123
1088.26	490.867
1091.97	596.174
1095.69	512.732
1099.4	349.18
1103.12	313.627
1106.83	246.508
1110.54	469.738
1114.24	235.271
1117.95	128.258
1121.65	344.502
1125.35	156.129
1129.06	41.008
1132.75	208.988
1136.45	195.256
1140.15	187.602
1143.84	104.205
1147.53	110.797
1151.22	0.844
1154.91	95.879
1158.6	25.338
1162.28	157.129
1165.97	174.221
1169.65	53.709
1173.33	56.26
1177.01	137.949
1180.69	139.162
1184.36	189.24
1188.04	36.676
1191.71	56.908
1195.38	22.436
1199.05	18.406
1202.71	209.236
1206.38	57.939
1210.04	179.311
1213.71	317.059
1217.37	21.678
1221.03	8.938
1224.68	143.346
1228.34	170.227
1231.99	105.676
1235.65	27.686
1239.3	192.766
1242.95	302.447
1246.59	196.176
1250.24	267.078
1253.88	324.848
1257.53	87.094
1261.17	207.506
1264.81	217.459
1268.45	104.955
1272.08	36.328
1275.72	247.369
1279.35	123.025
1282.98	117.926
1286.61	102.264
1290.24	101.734
1293.87	156.109
1297.49	40.066
1301.11	81.436
1304.73	28.398
1308.36	214.086
1311.97	136.621
1315.59	250.264
1319.2	104.756
1322.82	39.719
1326.43	344.146
1330.04	156.988
1333.65	157.42
1337.26	128.961
1340.86	137.727
1344.47	155.93
1348.07	180.115
1351.67	140.074
1355.27	201.021
1358.87	194.178
1362.46	76.859
1366.06	5.625
1369.65	99.441
1373.24	0.764
