Measurement: Raman, 780 nm, unoriented, Raman Data Processed
Mineral: Chalcocite
Rruff sample: R120090
Ideal chemistry: Cu^1+^_2_S^2-^
Locality: Tsumeb, Namibia
Source: William W Pinch
Description: Grey metallic hexagonal tablets associated with stottite R120089, siderite and tennantite
Measured chemistry: Cu_1.99_S
Raman shift (cm-1)	intensity
196.705	0
199.598	0.129753
202.49	1.68507
205.383	5.68597
208.276	0.567932
211.168	5.16999
214.061	3.76771
216.954	1.40706
219.847	2.78535
222.739	3.01449
225.632	5.11818
228.525	2.34631
231.417	5.81698
234.31	6.22885
237.203	5.28713
240.095	9.14969
242.988	10.2157
245.881	15.3975
248.774	12.3035
251.666	12.235
254.559	16.3513
257.452	17.8288
260.344	18.4357
263.237	26.4134
266.13	32.6734
269.022	36.1771
271.915	40.115
274.808	44.521
277.701	52.3712
280.593	54.6099
283.486	54.9329
286.379	51.8922
289.271	43.6721
292.164	34.8909
295.057	24.0775
297.95	17.5392
300.842	10.7885
303.735	7.09701
306.628	7.29375
309.52	4.68117
312.413	2.73971
315.306	2.59379
318.198	3.93533
321.091	3.6927
323.984	7.00597
326.877	9.94092
329.769	5.25712
332.662	6.39654
335.555	7.88926
338.447	5.57738
341.34	4.31031
344.233	7.86162
347.125	2.26011
350.018	3.2342
352.911	5.22821
355.803	0.390732
358.696	0.611336
361.589	4.25094
364.482	6.24237
367.374	0.656029
370.267	1.04278
373.16	3.26619
376.052	0.911827
378.945	0.433174
381.838	0.395233
384.731	1.44994
387.623	1.6797
390.516	2.48902
393.409	2.96783
396.301	2.48508
399.194	3.49159
402.087	4.45007
404.979	0.889008
407.872	4.07181
410.765	3.77581
413.658	3.06335
416.55	4.43132
419.443	3.55112
422.336	2.81087
425.228	2.71529
428.121	2.07416
431.014	3.65849
433.906	1.82746
436.799	1.64688
439.692	3.73149
442.584	4.14767
445.477	4.62199
448.37	4.92481
451.263	6.97585
454.155	3.83417
457.048	6.22154
459.941	4.07785
462.833	2.65216
465.726	6.22641
468.619	3.60017
471.512	2.83619
474.404	3.24722
477.297	7.31717
480.19	1.74315
483.082	3.82843
485.975	4.77161
488.868	3.08073
491.76	1.96741
494.653	2.14146
497.546	0.980537
500.438	1.82295
503.331	2.44463
506.224	3.95263
509.117	2.23643
512.009	0.448391
514.902	1.2742
517.795	1.74436
520.687	1.59288
523.58	1.57284
526.473	1.9471
529.365	3.28387
532.258	0.001324
535.151	2.44632
538.044	0.502434
540.936	2.90533
543.829	3.39019
546.722	4.82118
549.614	2.61652
552.507	3.20231
555.4	4.10664
558.293	6.07622
561.185	6.44034
564.078	3.87488
566.971	6.16031
569.863	4.60257
572.756	4.45859
575.649	7.44727
578.541	3.47229
581.434	1.99858
584.327	1.8664
587.22	6.44153
590.112	4.96725
593.005	6.03371
595.898	2.62654
598.79	5.14274
601.683	4.08813
604.576	4.70996
607.468	3.0411
610.361	5.08241
613.254	6.92308
616.146	3.2737
619.039	4.82714
621.932	4.65773
624.825	2.10062
627.717	5.13396
630.61	2.47764
633.503	5.29823
636.395	3.54057
639.288	2.84283
642.181	2.96492
645.073	4.58549
647.966	3.06577
650.859	2.73273
653.752	4.31042
656.644	0.304424
659.537	4.98235
662.43	1.87105
665.322	1.1711
668.215	1.72633
671.108	0.013584
674	0.874088
676.893	3.73947
679.786	5.00624
682.679	4.87985
685.571	3.97965
688.464	1.94032
691.357	0.727863
694.249	3.81297
697.142	3.3536
700.035	3.07345
702.928	2.13839
705.82	5.10475
708.713	6.52385
711.606	5.67476
714.498	3.44262
717.391	2.48182
720.284	4.93695
723.176	3.09451
726.069	2.10555
728.962	4.3254
731.855	0.746735
734.747	0.920513
737.64	0.108009
740.533	4.00544
743.425	1.06787
746.318	0.511761
749.211	1.46504
752.103	3.91891
754.996	1.5533
757.889	1.58749
760.782	3.95047
763.674	1.00869
766.567	0.204926
769.46	0.765083
772.352	0.331474
775.245	2.38919
778.138	4.25274
781.03	4.15694
783.923	4.43801
786.816	1.69984
789.708	3.41306
792.601	4.56424
795.494	3.61004
798.387	5.18662
801.279	5.25512
804.172	4.81458
807.065	13.8859
809.957	3.62971
812.85	8.58606
815.743	6.57008
818.635	6.84373
821.528	11.2187
824.421	7.98323
827.314	6.47346
830.206	5.95636
833.099	12.1316
835.992	9.65389
838.884	11.2337
841.777	9.69477
844.67	12.3227
847.562	13.2292
850.455	11.2402
853.348	12.9493
856.241	9.78725
859.133	11.6914
862.026	11.9442
864.919	11.8178
867.811	10.5894
870.704	9.2722
873.597	12.7486
876.49	9.27399
879.382	9.98299
882.275	6.81132
885.168	10.3024
888.06	8.54736
890.953	6.71294
893.846	5.50295
896.738	3.92103
899.631	4.87024
902.524	4.68681
905.417	0.142281
908.309	1.33573
911.202	3.98908
914.095	1.02508
916.987	0.379341
919.88	0.021347
922.773	1.14911
925.665	0.304146
928.558	0.406181
931.451	1.24382
934.343	1.09862
937.236	1.14618
940.129	1.45645
943.022	0.982056
945.914	2.26229
948.807	4.41002
951.7	7.26918
954.592	6.28934
957.485	0.390312
960.378	3.63889
963.27	5.01799
966.163	3.86293
969.056	2.94283
971.949	3.66544
974.841	4.87144
977.734	2.16397
980.627	3.89849
983.519	3.08275
986.412	2.57902
989.305	3.26565
992.197	3.50239
995.09	3.39325
997.983	0.782684
1000.88	2.36871
1003.77	0.71891
1006.66	0.783165
1009.55	2.45157
1012.45	5.92201
1015.34	0.858749
1018.23	1.36096
1021.12	4.09735
1024.02	2.0455
1026.91	3.32095
1029.8	1.25954
1032.69	1.14581
1035.59	3.7636
1038.48	4.87875
1041.37	4.38342
1044.27	0.085297
1047.16	1.90069
1050.05	1.11739
1052.94	3.70085
1055.84	0.431572
1058.73	3.26162
1061.62	7.77084
1064.52	6.21677
1067.41	2.52664
1070.3	3.62567
1073.19	5.14981
1076.09	4.80096
1078.98	3.12177
1081.87	4.9629
1084.76	5.06066
1087.66	3.13644
1090.55	7.35371
1093.44	5.85314
1096.34	3.00483
1099.23	1.20743
1102.12	1.46442
1105.01	1.42947
1107.91	1.28756
1110.8	4.76409
1113.69	6.89537
1116.58	1.61905
1119.48	2.39893
1122.37	4.17587
1125.26	0.308792
1128.15	1.21867
1131.05	2.71334
1133.94	3.84164
1136.83	3.55048
1139.72	4.25935
1142.62	3.41006
1145.51	0.412941
1148.4	1.1844
1151.3	6.08657
1154.19	1.02326
1157.08	3.7411
1159.97	2.86605
1162.87	2.0565
1165.76	5.20289
1168.65	6.65559
1171.55	3.10208
1174.44	4.5862
1177.33	4.6422
1180.22	3.13058
1183.12	1.57259
1186.01	2.14528
1188.9	9.47906
1191.79	5.75854
1194.69	2.40705
1197.58	4.71585
1200.47	6.09335
1203.37	3.24454
1206.26	5.49402
1209.15	2.6678
1212.04	0.75428
1214.93	5.51542
1217.83	3.67335
1220.72	6.49277
1223.61	4.99545
1226.51	2.96505
1229.4	2.94146
1232.29	4.02927
1235.18	1.46141
1238.08	1.41277
1240.97	1.40237
1243.86	4.0925
1246.76	0.571518
1249.65	2.53617
1252.54	1.11023
1255.43	4.92343
1258.33	0.205673
1261.22	2.96673
1264.11	1.95366
1267	0.31842
1269.9	2.7081
1272.79	1.62653
1275.68	2.12304
1278.58	2.3079
1281.47	2.54552
1284.36	0.031319
