Measurement: Raman, 785 nm, unoriented, Raman Data Processed
Mineral: Chalcopyrite
Rruff sample: R050018
Ideal chemistry: Cu^1+^Fe^3+^S^2-^_2_
Locality: Sudbury, Ontario, Canada
Source: Eugene Schlepp
Description: Massive fragment
Measured chemistry: Cu_1.00_Fe_1.00_S_2.00_
Raman shift (cm-1)	intensity
113.305	0
116.198	19.7164
119.091	84.302
121.984	65.8609
124.876	83.1214
127.769	132.494
130.662	476.433
133.554	885.045
136.447	889.848
139.34	485.018
142.232	317.847
145.125	490.184
148.018	731.323
150.911	924.984
153.803	648.545
156.696	374.02
159.589	341.694
162.481	288.463
165.374	250.395
168.267	195.73
171.16	184.392
174.052	160.771
176.945	122.218
179.838	70.7571
182.73	56.8587
185.623	77.3992
188.516	81.8692
191.408	59.0563
194.301	43.6546
197.194	19.9641
200.087	15.4057
202.979	14.6166
205.872	12.7028
208.765	4.47502
211.657	4.59405
214.55	8.85435
217.443	0.455353
220.335	2.45909
223.228	3.21338
226.121	4.89825
229.013	19.6271
231.906	3.66991
234.799	15.4421
237.692	24.9525
240.584	15.8223
243.477	20.0364
246.37	34.3288
249.262	55.0093
252.155	71.5588
255.048	97.7523
257.941	99.0336
260.833	96.9456
263.726	106.713
266.619	118.833
269.511	111.353
272.404	86.6134
275.297	107.538
278.19	168.224
281.082	236.697
283.975	304.493
286.868	435.56
289.76	643.343
292.653	615.939
295.546	261.876
298.438	69.8798
301.331	23.3773
304.224	16.7334
307.116	11.1037
310.009	2.08507
312.902	10.0875
315.795	22.6488
318.687	28.4129
321.58	29.9649
324.473	42.3449
327.365	34.8339
330.258	17.6251
333.151	21.8303
336.043	25.666
338.936	19.5398
341.829	11.2354
344.721	12.9981
347.614	13.4927
350.507	12.3753
353.4	8.64907
356.292	18.8852
359.185	11.0266
362.078	3.22701
364.97	17.2576
367.863	12.5408
370.756	22.5265
373.649	33.4974
376.541	20.9279
379.434	1.86192
382.327	12.1664
385.219	6.60074
388.112	13.9319
391.005	2.68015
393.897	5.65629
396.79	5.01598
399.683	9.38739
402.575	3.49796
405.468	1.23754
408.361	3.11905
411.254	12.1661
414.146	9.89041
417.039	23.5254
419.932	10.28
422.824	11.6922
425.717	24.2599
428.61	20.5481
431.502	22.7399
434.395	9.59979
437.288	19.0249
440.181	17.9962
443.073	14.0476
445.966	10.2951
448.859	19.7901
451.751	16.2271
454.644	22.1064
457.537	18.2893
460.43	7.63302
463.322	17.583
466.215	17.7891
469.108	8.15723
472	3.08912
474.893	5.05412
477.786	12.6298
480.678	10.5429
483.571	0.383942
486.464	6.92584
489.356	0.514763
492.249	1.43999
495.142	6.07369
498.035	9.63026
500.927	11.9787
503.82	0.12056
506.713	5.72628
509.605	6.60001
512.498	4.63988
515.391	2.33015
518.284	10.8099
521.176	7.33741
524.069	0.834747
526.962	3.02284
529.854	20.3428
532.747	17.7005
535.64	13.3805
538.533	10.7939
541.425	16.1828
544.318	4.56303
547.211	9.24391
550.103	11.0281
552.996	0.74427
555.889	14.6935
558.781	8.00741
561.674	6.33993
564.567	7.60367
567.459	18.8379
570.352	3.69947
573.245	14.3299
576.138	6.76543
579.03	9.3381
581.923	7.93675
584.816	6.64869
587.708	14.5148
590.601	2.33842
593.494	2.70478
596.386	0.15329
599.279	22.9269
602.172	5.87492
605.064	10.7487
607.957	4.42414
610.85	12.8179
613.743	8.12759
616.635	21.5677
619.528	5.90694
622.421	2.63387
625.313	27.0404
628.206	11.0057
631.099	12.7826
633.991	1.31326
636.884	11.6819
639.777	13.2711
642.67	10.1032
645.562	11.4629
648.455	8.02559
651.348	16.1082
654.24	19.0138
657.133	17.0732
660.026	5.63925
662.918	14.9247
665.811	15.8926
668.704	4.24876
671.597	11.2798
674.489	7.66081
677.382	4.70725
680.275	2.71143
683.167	3.40564
686.06	6.24937
688.953	2.9764
691.846	12.3233
694.738	15.5112
697.631	5.10307
700.524	21.2645
703.416	22.3191
706.309	23.0328
709.202	19.4104
712.094	14.7827
714.987	10.6024
717.88	26.1479
720.773	9.93262
723.665	9.75427
726.558	14.496
729.451	10.8544
732.343	21.7435
735.236	13.7579
738.129	5.01379
741.021	15.7919
743.914	13.0635
746.807	7.23817
749.699	4.56526
752.592	13.9726
755.485	0.755203
758.378	17.8942
761.27	3.77592
764.163	3.42792
767.056	7.9769
769.948	11.2092
772.841	3.72701
775.734	13.5009
778.626	14.8289
781.519	5.85789
784.412	0.779465
787.305	13.1668
790.197	24.7293
793.09	6.38406
795.983	3.15734
798.875	3.89928
801.768	17.7473
804.661	6.69698
807.553	14.8782
810.446	16.3932
813.339	2.86325
816.232	6.4753
819.124	4.35944
822.017	7.10901
824.91	4.4575
827.802	19.2488
830.695	10.973
833.588	16.0452
836.481	16.695
839.373	6.63895
842.266	13.2208
845.159	11.287
848.051	7.74966
850.944	15.1968
853.837	10.2076
856.729	12.8868
859.622	8.98264
862.515	16.2239
865.408	13.7914
868.3	4.76524
871.193	13.7261
874.086	6.5959
876.978	13.8605
879.871	0.777611
882.764	12.1545
885.656	14.2357
888.549	10.2963
891.442	5.24011
894.335	4.71169
897.227	10.8822
900.12	4.97417
903.013	16.1708
905.905	10.1086
908.798	4.1104
911.691	16.4956
914.583	4.02238
917.476	16.3105
920.369	12.3787
923.261	1.17182
926.154	9.64417
929.047	11.9363
931.94	2.08275
934.832	1.79861
937.725	26.6619
940.618	4.16754
943.51	11.9511
946.403	9.08547
949.296	5.10839
952.188	18.8618
955.081	9.24618
957.974	5.00065
960.867	4.41959
963.759	6.54868
966.652	14.7014
969.545	15.1192
972.437	16.4891
975.33	1.87831
978.223	5.86559
981.115	8.29311
984.008	13.1689
986.901	5.94724
989.794	13.4665
992.686	12.6842
995.579	0.586823
998.472	7.40984
1001.36	3.12223
1004.26	5.91606
1007.15	8.96195
1010.04	8.19019
1012.93	11.9916
1015.83	5.0753
1018.72	2.48037
1021.61	9.99853
1024.51	0.013641
1027.4	12.1982
1030.29	2.92552
1033.18	9.63368
1036.08	14.5379
1038.97	25.719
1041.86	8.48483
1044.76	17.9289
1047.65	2.50513
1050.54	5.90249
1053.43	7.80302
1056.33	14.2881
1059.22	11.3287
1062.11	18.6098
1065	0.566093
1067.9	8.94578
1070.79	5.12361
1073.68	16.688
1076.58	22.2616
1079.47	8.2146
1082.36	1.52483
1085.25	10.1879
1088.14	25.8923
1091.04	18.0303
1093.93	18.2559
1096.82	9.18836
1099.72	20.1952
1102.61	17.5479
1105.5	0.042664
1108.39	12.2959
1111.29	8.36843
1114.18	9.83979
1117.07	11.0905
1119.96	6.4695
1122.86	13.9258
1125.75	14.699
1128.64	10.8067
1131.54	9.62052
1134.43	9.30234
1137.32	12.5119
1140.21	4.82059
1143.11	4.89556
1146	5.98363
1148.89	12.5007
1151.79	9.42927
1154.68	19.0366
1157.57	14.8815
1160.46	9.677
1163.36	1.15881
1166.25	8.64832
1169.14	8.26235
1172.03	9.50375
1174.93	4.82488
1177.82	14.9895
1180.71	6.91351
1183.6	15.621
1186.5	13.7628
1189.39	12.0543
1192.28	10.7752
1195.17	9.73087
1198.07	18.5335
1200.96	13.007
1203.85	4.86979
1206.75	12.6186
1209.64	15.5499
1212.53	11.2222
1215.42	3.37927
1218.32	6.56122
1221.21	23.0862
1224.1	1.93478
1226.99	12.7611
1229.89	14.8662
1232.78	12.2124
1235.67	6.98324
