Measurement: Raman, 780 nm, unoriented, Raman Data Processed
Mineral: Chalcophanite
Rruff sample: R060271
Ideal chemistry: Zn^2+^Mn^4+^_3_O_7_3H_2_O
Locality: Glory Hole, Gold Hill mine, Tooele County, Utah, USA
Source: Michael Scott
Description: Black hexagonal plates
Measured chemistry: (Zn_0.97_Mn^2+^_0.03_)_Σ=1_Mn^4+^_3.00_O_7_·3(H_2_O)
Raman shift (cm-1)	intensity
149.919	0
152.812	0.431023
155.705	2.14177
158.597	2.94105
161.49	3.52494
164.383	1.56632
167.276	1.03588
170.168	2.89541
173.061	2.57847
175.954	3.30023
178.846	0.702934
181.739	0.20005
184.632	3.24719
187.524	0.62203
190.417	1.99931
193.31	0.412481
196.203	1.47728
199.095	1.18118
201.988	0.575689
204.881	4.0448
207.773	2.70024
210.666	3.47348
213.559	5.81205
216.451	3.63139
219.344	4.05907
222.237	5.30805
225.13	0.26918
228.022	3.46289
230.915	3.57588
233.808	2.2015
236.7	2.98567
239.593	1.06281
242.486	4.3562
245.378	2.44052
248.271	0.795761
251.164	2.31051
254.056	2.53206
256.949	0.982916
259.842	1.65603
262.735	2.66287
265.627	0.385519
268.52	3.17292
271.413	4.77256
274.305	3.85131
277.198	6.85173
280.091	9.51124
282.983	10.3754
285.876	10.2172
288.769	12.7981
291.662	11.5397
294.554	17.4333
297.447	14.2192
300.34	11.8775
303.232	7.86469
306.125	9.50842
309.018	4.77471
311.911	2.60204
314.803	3.81187
317.696	2.2756
320.589	2.37511
323.481	0.03109
326.374	1.0727
329.267	1.5978
332.159	0.141872
335.052	1.61696
337.945	0.11318
340.837	1.67012
343.73	0.670137
346.623	4.22541
349.516	2.78173
352.408	2.01932
355.301	3.20196
358.194	5.08734
361.086	7.0569
363.979	6.13602
366.872	6.05241
369.764	9.20717
372.657	11.439
375.55	9.09334
378.442	13.1243
381.335	9.05545
384.228	7.31878
387.121	5.8698
390.013	4.53269
392.906	1.75411
395.799	1.62432
398.691	2.60911
401.584	2.90143
404.477	0.757555
407.37	0.797651
410.262	0.19739
413.155	1.78766
416.048	1.64202
418.94	0.820038
421.833	2.87167
424.726	1.36087
427.618	3.20829
430.511	1.09903
433.404	0.611723
436.296	2.63832
439.189	4.25213
442.082	1.55565
444.975	3.0431
447.867	4.3276
450.76	0.139669
453.653	0.404472
456.545	0.778633
459.438	1.6975
462.331	2.52753
465.224	1.63493
468.116	1.49249
471.009	7.55317
473.902	5.65449
476.794	8.74874
479.687	5.47735
482.58	5.78562
485.472	4.97582
488.365	4.49793
491.258	3.70521
494.151	4.94241
497.043	5.41684
499.936	4.47707
502.829	5.88768
505.721	10.5722
508.614	8.75559
511.507	7.73335
514.399	3.50997
517.292	2.22571
520.185	2.12764
523.077	3.47116
525.97	2.18448
528.863	0.542664
531.756	0.10528
534.648	1.57854
537.541	0.427757
540.434	1.06639
543.326	0.627396
546.219	3.41683
549.112	4.06149
552.004	10.2219
554.897	17.6886
557.79	20.8479
560.683	30.4887
563.575	39.7934
566.468	47.1225
569.361	46.4261
572.253	34.7
575.146	17.9655
578.039	11.2663
580.931	7.43502
583.824	5.88564
586.717	5.26684
589.61	4.8499
592.502	1.91137
595.395	2.11529
598.288	0.207729
601.18	1.23731
604.073	2.36427
606.966	3.27509
609.858	2.59456
612.751	3.05096
615.644	1.90317
618.537	3.19211
621.429	9.54123
624.322	3.66412
627.215	7.2177
630.107	9.1573
633	11.3002
635.893	9.79065
638.785	11.0649
641.678	13.0259
644.571	14.0696
647.463	15.4283
650.356	19.1621
653.249	23.9679
656.141	30.3098
659.034	35.6929
661.927	42.0295
664.82	49.5355
667.712	50.0181
670.605	43.8973
673.498	33.5327
676.39	20.9933
679.283	16.4294
682.176	12.5112
685.068	7.50906
687.961	4.10068
690.854	4.77695
693.747	3.13123
696.639	2.41096
699.532	1.79036
702.425	1.71323
705.317	0.776304
708.21	1.54516
711.103	1.19686
713.995	2.62583
716.888	1.25296
719.781	1.7728
722.674	0.481623
725.566	1.96119
728.459	1.22729
731.352	0.050455
734.244	0.334583
737.137	1.46937
740.03	0.103779
742.923	1.89355
745.815	2.16998
748.708	2.47566
751.601	3.34225
754.493	0.74843
757.386	0.060593
760.279	0.626194
763.171	0.802481
766.064	2.52765
768.957	1.17235
771.85	3.01499
774.742	2.06444
777.635	3.26931
780.528	3.64208
783.42	3.36821
786.313	1.87401
789.206	3.30408
792.098	4.57262
794.991	2.53783
797.884	5.2357
800.776	4.76132
803.669	5.06465
806.562	3.50436
809.455	5.97814
812.347	4.07839
815.24	3.81512
818.133	4.19963
821.025	0.207285
823.918	1.53042
826.811	1.84765
829.703	0.184923
832.596	2.45226
835.489	1.10157
838.381	3.568
841.274	0.520327
844.167	3.31137
847.06	2.24994
849.952	3.52326
852.845	4.02622
855.738	2.01617
858.63	0.816612
861.523	1.75516
864.416	1.53477
867.308	3.28694
870.201	4.93769
873.094	1.49029
875.987	4.24041
878.879	2.59011
881.772	2.28275
884.665	3.45593
887.557	1.74797
890.45	3.35083
893.343	0.014467
896.236	1.89603
899.128	2.56846
902.021	1.72032
904.914	1.4591
907.806	2.85216
910.699	0.392555
913.592	1.49887
916.484	4.15426
919.377	2.81719
922.27	1.81822
925.163	4.54214
928.055	2.42652
930.948	2.7052
933.841	2.55139
936.733	2.83469
939.626	0.074976
942.519	3.02978
945.411	2.36011
948.304	2.26508
951.197	0.832857
954.09	2.67937
956.982	3.718
959.875	1.51639
962.768	2.55116
965.66	2.21816
968.553	5.46451
971.446	2.54852
974.338	4.90344
977.231	3.12757
980.124	1.20175
983.016	0.825796
985.909	4.77636
988.802	4.70648
991.694	3.13703
994.587	6.32593
997.48	5.54652
1000.37	4.02572
1003.26	5.32717
1006.16	3.94964
1009.05	4.08793
1011.94	3.95067
1014.84	5.87811
1017.73	4.20865
1020.62	3.91807
1023.51	2.86303
1026.41	1.81011
1029.3	4.19987
1032.19	3.82798
1035.09	1.03757
1037.98	6.79976
1040.87	5.83641
1043.76	6.03175
1046.66	3.17797
1049.55	4.16128
1052.44	4.07357
1055.33	3.07555
1058.23	5.21922
1061.12	4.5541
1064.01	2.74089
1066.9	0.115978
1069.8	4.38938
1072.69	4.60847
1075.58	0.966362
1078.47	2.11262
1081.37	4.49394
1084.26	2.63246
1087.15	4.01954
1090.05	5.1504
1092.94	3.18021
1095.83	1.84414
1098.72	3.48964
1101.62	2.60162
1104.51	5.34964
1107.4	0.36953
1110.3	2.75826
1113.19	3.01936
1116.08	2.59609
1118.97	2.99385
1121.87	1.78045
1124.76	0.774206
1127.65	0.153776
1130.54	3.35732
1133.44	0.675091
1136.33	0.146303
1139.22	2.86285
1142.12	2.99425
1145.01	1.02068
1147.9	2.79176
1150.79	0.381733
1153.69	1.3691
1156.58	3.0352
1159.47	5.95838
1162.36	0.600763
1165.26	0.749889
1168.15	2.74624
1171.04	1.10106
1173.93	1.49934
1176.83	2.82536
1179.72	3.56687
1182.61	4.04131
1185.51	0.694029
1188.4	4.07837
1191.29	1.8452
1194.18	2.19734
1197.08	3.46481
1199.97	4.38961
1202.86	4.09747
1205.75	0.196619
1208.65	0.688995
1211.54	2.2931
1214.43	2.88733
1217.33	1.80362
1220.22	2.76831
1223.11	2.11649
1226	0.566263
1228.9	2.38043
1231.79	0.439743
1234.68	1.85028
1237.57	1.71204
1240.47	1.58949
1243.36	2.72117
1246.25	1.28482
1249.14	3.46114
1252.04	0.220436
1254.93	2.73325
1257.82	0.046207
1260.71	3.42064
1263.61	3.68589
1266.5	3.49648
1269.39	1.72937
1272.29	2.80714
1275.18	2.03879
1278.07	0.084949
1280.96	4.1874
1283.86	4.08176
