Measurement: Raman, 532 nm, unoriented, Raman Data Processed
Mineral: Chalcopyrite
Rruff sample: R050222
Ideal chemistry: Cu^1+^Fe^3+^S^2-^_2_
Locality: Iron Cap mine, Landsman Camp, Graham County, Arizona, USA
Source: Bob Downs
Description: Group of brass yellow metallic tetrahedra, dark streaks represent alteration by bacteria where S is left behind
Measured chemistry: Cu_1.00_Fe_1.00_S_2.00_
Raman shift (cm-1)	intensity
140.636	0
143.529	48.33
146.421	4.182
149.314	24.201
152.207	6.233
155.1	42.492
157.992	76.343
160.885	106.927
163.778	127.076
166.67	152.569
169.563	171.859
172.456	132.755
175.348	96.813
178.241	89.353
181.134	79.628
184.027	56.994
186.919	72.13
189.812	50.306
192.705	39.043
195.597	24.597
198.49	5.275
201.383	32.557
204.275	23.958
207.168	3.155
210.061	31.482
212.954	32.043
215.846	24.991
218.739	8.667
221.632	7.791
224.524	10.61
227.417	29.158
230.31	66.303
233.202	85.571
236.095	77.376
238.988	127.807
241.88	159.408
244.773	221.462
247.666	279.427
250.559	374.932
253.451	456.665
256.344	592.626
259.237	655.788
262.129	745.282
265.022	776.158
267.915	769.983
270.807	728.154
273.7	685.851
276.593	764.71
279.486	1090.09
282.378	1750.72
285.271	2745.95
288.164	4005.63
291.056	4872.37
293.949	3081.11
296.842	1256.14
299.735	508.63
302.627	303.763
305.52	208.264
308.413	250.585
311.305	382.575
314.198	611.777
317.091	825.828
319.983	838.54
322.876	496.945
325.769	274.8
328.662	150.813
331.554	49.459
334.447	58.989
337.34	75.093
340.232	171.658
343.125	292.531
346.018	484.904
348.91	724.311
351.803	761.797
354.696	652.826
357.589	512.001
360.481	426.276
363.374	384.248
366.267	369.281
369.159	344.825
372.052	275.816
374.945	188.955
377.837	75.123
380.73	11.558
383.623	19.318
386.516	23.055
389.408	23.958
392.301	25.993
395.194	11.25
398.086	5.28
400.979	14.607
403.872	43.372
406.764	72.822
409.657	89.203
412.55	99.588
415.443	121.549
418.335	124.996
421.228	125.528
424.121	151.815
427.013	176.218
429.906	159.084
432.799	179.543
435.691	197.469
438.584	240.69
441.477	260.062
444.37	323.371
447.262	376.373
450.155	451.476
453.048	591.597
455.94	716.811
458.833	908.599
461.726	1087.04
464.619	1281.85
467.511	1444.96
470.404	1385.63
473.297	1175.92
476.189	910.162
479.082	622.367
481.975	365.68
484.867	220.385
487.76	166.336
490.653	108.213
493.546	83.583
496.438	57.092
499.331	53.915
502.224	26.968
505.116	25.231
508.009	23.807
510.902	21.879
513.794	7.785
516.687	14.18
519.58	11.212
522.473	3.187
525.365	5.663
528.258	23.38
531.151	10.666
534.043	4.587
536.936	7.828
539.829	2.545
542.721	0.523
545.614	9.889
548.507	10.031
551.4	14.504
554.292	9.989
557.185	15.546
560.078	3.515
562.97	8.725
565.863	0.953
568.756	34.393
571.648	12.764
574.541	9.366
577.434	12.74
580.327	12.955
583.219	20.194
586.112	8.399
589.005	21.087
591.898	30.053
594.79	39.158
597.683	0.577
600.576	23.423
603.468	24.042
606.361	15.745
609.254	6.411
612.146	18.965
615.039	32.753
617.932	30.335
620.825	31.591
623.717	14.765
626.61	2.41
629.503	4.973
632.395	5.915
635.288	8.599
638.181	16.989
641.073	30.647
643.966	17.925
646.859	15.814
649.752	28.189
652.644	15.998
655.537	9.282
658.43	12.558
661.322	9.611
664.215	2.029
667.108	2.429
670	1.721
672.893	26.008
675.786	10.844
678.679	4.004
681.571	6.298
684.464	17.614
687.357	36.735
690.249	34.98
693.142	42.071
696.035	38.457
698.927	42.928
701.82	52.298
704.713	64.324
707.606	65.378
710.498	57.78
713.391	41.773
716.284	36.506
719.176	43.217
722.069	28.433
724.962	43.541
727.854	31.755
730.747	27.517
733.64	21.502
736.532	18.97
739.425	13.032
742.318	16.087
745.211	18.185
748.103	9.894
750.996	23.694
753.889	12.696
756.781	9.222
759.674	1.439
762.567	20.772
765.459	18.801
768.352	10.403
771.245	13.312
774.138	9.439
777.03	4.665
779.923	11.675
782.816	4.09
785.708	5.424
788.601	16.11
791.494	2.731
794.386	4.879
797.279	3.163
800.172	20.607
803.065	5.567
805.957	13.525
808.85	11.871
811.743	21.837
814.635	5.018
817.528	11.832
820.421	5.464
823.314	9.261
826.206	7.977
829.099	15.051
831.992	19.699
834.884	19.831
837.777	7.715
840.67	16.384
843.562	23.667
846.455	1.381
849.348	12.767
852.241	10.813
855.133	12.994
858.026	11.205
860.919	17.692
863.811	0
866.704	4.935
869.597	3.765
872.49	4.822
875.382	7.341
878.275	32.643
881.168	24.123
884.06	27.651
886.953	34.458
889.846	30.396
892.738	34.026
895.631	29.101
898.524	35.516
901.417	55.069
904.309	66.587
907.202	51.81
910.095	75.985
912.987	50.678
915.88	60.884
918.773	70.858
921.666	40.742
924.558	35.664
927.451	34.413
930.344	48.295
933.236	44.619
936.129	24.874
939.022	22.1
941.914	24.74
944.807	13.124
947.7	1.417
950.593	14.702
953.485	0.535
956.378	14.356
959.271	18.372
962.163	9.25
965.056	23.265
967.949	1.941
970.841	9.232
973.734	22.392
976.627	16.491
979.519	20.118
982.412	17.596
985.305	25.94
988.198	3.014
991.09	42.426
993.983	0.637
996.876	31.866
999.768	12.402
1002.66	22.236
1005.55	26.778
1008.45	4.396
1011.34	4.52
1014.23	6.953
1017.12	15.53
1020.02	9.647
1022.91	7.132
1025.8	19.383
1028.69	2.593
1031.59	4.196
1034.48	3.797
1037.37	7.52
1040.27	12.505
1043.16	0.163
1046.05	17.828
1048.94	16.22
1051.84	15.418
1054.73	20.648
1057.62	20.308
1060.52	9.245
1063.41	17.104
1066.3	29.283
1069.19	35.241
1072.09	25.566
1074.98	14.016
1077.87	32.809
1080.76	30.998
1083.66	27.156
1086.55	25.814
1089.44	28.756
1092.34	28.749
1095.23	20.234
1098.12	32.571
1101.01	23.065
1103.91	17.329
1106.8	6.674
1109.69	51.87
1112.58	19.138
1115.48	46.103
1118.37	34.161
1121.26	37.98
1124.15	37.253
1127.05	30.339
1129.94	51.421
1132.83	39.125
1135.72	51.478
1138.62	27.865
1141.51	47.087
1144.4	55.344
1147.3	47.419
1150.19	61.92
1153.08	57.687
1155.97	45.78
1158.87	14.838
1161.76	20.752
1164.65	52.307
1167.55	46.624
1170.44	67.728
1173.33	42.455
1176.22	43.085
1179.12	49.881
1182.01	24.347
1184.9	22.157
1187.79	29.395
1190.69	17.83
1193.58	7.13
1196.47	11.47
1199.37	2.023
