Measurement: Raman, 780 nm, unoriented, Raman Data Processed
Mineral: Chalcomenite
Rruff sample: R060586
Ideal chemistry: Cu^2+^Se^4+^O_3_2H_2_O
Locality: El Dragon mine, Potosi, Bolivia
Source: Michael Scott
Description: Blue crystalline mass, associated with white needle calcite
Measured chemistry: Cu_1.00_Se^4+^_1.00_O_3_Â·1.84H_2_O ; trace amounts of Fe
Raman shift (cm-1)	intensity
186.581	0
189.473	0.02552
192.366	1.94299
195.259	2.65214
198.151	2.84647
201.044	6.38812
203.937	2.61515
206.829	2.92828
209.722	2.72451
212.615	8.12169
215.507	6.71943
218.4	9.86799
221.293	4.93737
224.186	6.0893
227.078	0.34832
229.971	8.97282
232.864	4.37482
235.756	0.94212
238.649	2.85264
241.542	3.3404
244.435	5.66423
247.327	2.12142
250.22	3.73084
253.113	2.7557
256.005	0.776843
258.898	7.05555
261.791	8.5256
264.683	3.93365
267.576	4.61985
270.469	4.81459
273.361	5.12813
276.254	5.25143
279.147	7.78433
282.04	4.72115
284.932	2.33147
287.825	10.0066
290.718	4.98525
293.61	4.69949
296.503	2.13839
299.396	5.28519
302.288	2.86087
305.181	4.04599
308.074	6.8662
310.967	2.33442
313.859	1.31808
316.752	1.5224
319.645	2.58301
322.537	4.10008
325.43	0.475676
328.323	3.33716
331.216	2.04765
334.108	6.50027
337.001	0.337
339.894	4.50537
342.786	3.47149
345.679	2.98831
348.572	6.80275
351.464	2.40631
354.357	8.67835
357.25	3.1091
360.142	0.215513
363.035	2.47559
365.928	3.18533
368.821	6.01081
371.713	3.69042
374.606	2.37862
377.499	5.65026
380.391	1.37808
383.284	1.17526
386.177	4.34932
389.07	4.59736
391.962	4.74578
394.855	1.83668
397.748	2.32224
400.64	3.73916
403.533	3.46127
406.426	1.5597
409.318	4.98028
412.211	1.52368
415.104	0.933815
417.997	4.93756
420.889	5.06915
423.782	0.608259
426.675	4.11852
429.567	8.69538
432.46	3.12684
435.353	6.94934
438.245	4.11372
441.138	5.15508
444.031	4.93773
446.923	5.13487
449.816	3.32008
452.709	3.87968
455.602	6.68417
458.494	1.61196
461.387	2.49437
464.28	4.97153
467.172	5.27265
470.065	5.93394
472.958	3.85671
475.851	1.11593
478.743	4.63289
481.636	6.17671
484.529	4.07942
487.421	4.63989
490.314	1.31676
493.207	2.25766
496.099	2.44822
498.992	5.63287
501.885	1.6065
504.777	7.51478
507.67	2.40143
510.563	5.55471
513.456	2.27063
516.348	5.37003
519.241	5.86202
522.134	2.65794
525.026	6.35686
527.919	3.51121
530.812	4.67269
533.705	9.43818
536.597	9.68261
539.49	6.77546
542.383	7.48398
545.275	8.27563
548.168	9.11781
551.061	11.5672
553.953	8.71238
556.846	11.9594
559.739	10.1996
562.631	6.79918
565.524	9.80954
568.417	5.74165
571.31	9.20506
574.202	6.6461
577.095	3.68889
579.988	8.38959
582.88	0.705864
585.773	1.37807
588.666	3.03893
591.558	0.551194
594.451	0.233761
597.344	5.86089
600.237	4.59466
603.129	4.51566
606.022	3.87298
608.915	5.50881
611.807	3.03414
614.7	0.041572
617.593	4.97134
620.486	4.80324
623.378	2.06562
626.271	5.49611
629.164	3.06442
632.056	3.92275
634.949	5.66903
637.842	7.32435
640.734	3.15425
643.627	3.93253
646.52	4.09498
649.413	1.46264
652.305	5.07984
655.198	4.44997
658.091	1.94679
660.983	3.40972
663.876	0.319533
666.769	8.65211
669.661	3.24419
672.554	4.7234
675.447	2.16617
678.34	1.10106
681.232	7.21899
684.125	1.82962
687.018	2.94748
689.91	3.31037
692.803	3.14312
695.696	6.75441
698.588	5.60545
701.481	1.17829
704.374	3.53721
707.266	5.62014
710.159	3.96001
713.052	3.57753
715.945	3.14039
718.837	8.00621
721.73	3.84221
724.623	4.13205
727.515	4.77076
730.408	5.53177
733.301	9.92469
736.193	5.09952
739.086	5.99638
741.979	3.83961
744.872	4.02218
747.764	4.34968
750.657	0.9188
753.55	2.58662
756.442	6.6416
759.335	5.72302
762.228	2.48694
765.12	2.3863
768.013	2.84792
770.906	6.25949
773.799	1.27164
776.691	1.47282
779.584	2.2531
782.477	2.96459
785.369	6.21679
788.262	2.93205
791.155	2.70821
794.048	2.42988
796.94	9.31703
799.833	12.2063
802.726	12.2545
805.618	23.0518
808.511	21.5796
811.404	27.8699
814.296	27.9951
817.189	24.0088
820.082	17.7834
822.975	16.4378
825.867	10.377
828.76	8.93083
831.653	6.23276
834.545	8.33263
837.438	4.5022
840.331	4.88572
843.223	0.280222
846.116	3.32327
849.009	4.96687
851.902	0.892263
854.794	2.47763
857.687	5.47211
860.58	2.82138
863.472	3.40137
866.365	6.41918
869.258	1.17101
872.15	1.43473
875.043	2.61171
877.936	4.43259
880.829	6.33442
883.721	0.884243
886.614	3.66069
889.507	7.56646
892.399	0.755278
895.292	3.69317
898.185	3.42001
901.077	6.35726
903.97	2.83683
906.863	2.43577
909.756	4.85387
912.648	6.21726
915.541	0.89319
918.434	1.01303
921.326	0.090381
924.219	3.79619
927.112	6.40387
930.005	7.54683
932.897	3.71859
935.79	1.48201
938.683	3.05207
941.575	5.91878
944.468	1.48428
947.361	1.4597
950.253	3.78362
953.146	4.73624
956.039	1.50371
958.932	4.2522
961.824	2.50258
964.717	1.87178
967.61	2.40981
970.502	0.500404
973.395	2.68486
976.288	0.419891
979.18	5.43907
982.073	0.136628
984.966	1.45526
987.859	2.12955
990.751	2.29849
993.644	0.129418
996.537	2.05447
999.429	6.59384
1002.32	1.78448
1005.22	1.71515
1008.11	1.83669
1011	1.09495
1013.89	4.03299
1016.78	0.029085
1019.68	1.91925
1022.57	3.94271
1025.46	2.53369
1028.36	6.27546
1031.25	3.48395
1034.14	0.432727
1037.03	4.37727
1039.93	4.58293
1042.82	1.39355
1045.71	3.52958
1048.61	10.1259
1051.5	4.02616
1054.39	4.38472
1057.28	3.51254
1060.18	0.524705
1063.07	3.10842
1065.96	3.39952
1068.85	6.28212
1071.75	4.79293
1074.64	5.591
1077.53	1.82587
1080.42	7.04653
1083.32	9.36605
1086.21	4.56033
1089.1	2.76729
1092	5.70465
1094.89	1.58713
1097.78	7.49603
1100.67	2.6011
1103.57	7.18339
1106.46	3.69073
1109.35	2.13281
1112.24	5.1219
1115.14	4.86854
1118.03	3.20369
1120.92	2.83549
1123.82	3.32805
1126.71	6.42822
1129.6	6.34763
1132.49	3.431
1135.39	0.627119
1138.28	0.588736
1141.17	7.67472
1144.06	8.18045
1146.96	2.65244
1149.85	7.55212
1152.74	3.72968
1155.63	1.66014
1158.53	4.96678
1161.42	5.9137
1164.31	3.9359
1167.21	1.95956
1170.1	0.507233
1172.99	4.58037
1175.88	4.20106
1178.78	4.10485
1181.67	5.06316
1184.56	8.64332
1187.45	6.71347
1190.35	5.31216
1193.24	6.30773
1196.13	2.56897
1199.03	6.80342
1201.92	6.11172
1204.81	7.44736
1207.7	2.72715
1210.6	6.71294
1213.49	5.88176
1216.38	3.25651
1219.27	7.21139
1222.17	1.6182
1225.06	5.77703
1227.95	3.20689
1230.85	1.10465
1233.74	2.84036
1236.63	1.99406
1239.52	3.1557
1242.42	4.93039
1245.31	4.56182
1248.2	4.15043
1251.09	4.86932
1253.99	6.11464
1256.88	1.97466
1259.77	1.57687
1262.66	0.807059
1265.56	0.891359
1268.45	5.74614
1271.34	5.81194
1274.24	2.67945
1277.13	1.492
1280.02	0.904603
1282.91	0.892879
