Measurement: Raman, 780 nm, unoriented, Raman Data Processed
Mineral: Chalcanthite
Rruff sample: R060102
Ideal chemistry: Cu^2+^S^6+^O_4_5H_2_O
Locality: synthetic
Source: Jacque Reynard, Greg Schmidt
Description: Blue bladed crystals
Raman shift (cm-1)	intensity
133.487	0
136.38	0.101102
139.273	0.827368
142.166	0.132221
145.058	0.471536
147.951	1.60291
150.844	0.738348
153.736	0.396202
156.629	0.935079
159.522	0.279099
162.414	1.45879
165.307	0.654284
168.2	1.45947
171.093	0.83674
173.985	0.025965
176.878	0.229292
179.771	0.733648
182.663	0.004456
185.556	0.705053
188.449	0.427939
191.341	0.682211
194.234	0.975307
197.127	0.704138
200.019	0.732013
202.912	0.597395
205.805	0.695089
208.697	0.489184
211.59	1.12925
214.483	1.08515
217.376	0.986888
220.268	1.31905
223.161	1.11454
226.054	2.11794
228.946	1.09294
231.839	1.07385
234.732	1.59902
237.625	3.26619
240.517	2.85769
243.41	2.49487
246.303	1.82403
249.195	1.22473
252.088	2.47998
254.981	2.23263
257.873	2.26787
260.766	3.22608
263.659	3.21466
266.551	3.08056
269.444	3.51172
272.337	3.23619
275.23	3.70813
278.122	3.08032
281.015	3.48185
283.908	2.95098
286.8	2.1584
289.693	1.29799
292.586	0.68557
295.478	1.85218
298.371	0.885578
301.264	1.60421
304.157	0.395256
307.049	1.24767
309.942	0.24611
312.835	0.636064
315.727	0.71755
318.62	1.1077
321.513	0.453229
324.406	0.664415
327.298	0.169486
330.191	1.37668
333.084	0.8136
335.976	1.10366
338.869	0.155596
341.762	0.570574
344.654	0.164303
347.547	0.351291
350.44	0.38467
353.332	0.078442
356.225	1.71606
359.118	0.569899
362.01	0.437988
364.903	0.883947
367.796	0.256798
370.689	0.245377
373.581	0.686324
376.474	0.257082
379.367	1.0768
382.259	0.72548
385.152	0.264758
388.045	0.389699
390.938	0.670059
393.83	1.26819
396.723	0.144275
399.616	0.439902
402.508	0.247271
405.401	0.724004
408.294	0.526121
411.186	1.2555
414.079	0.937516
416.972	0.942643
419.865	0.287025
422.757	1.11337
425.65	0.96023
428.543	1.06957
431.435	1.83006
434.328	1.25907
437.221	2.18771
440.113	2.26936
443.006	2.1588
445.899	3.33293
448.791	3.56821
451.684	3.67343
454.577	4.0889
457.47	3.91015
460.362	5.11184
463.255	4.61788
466.148	4.73586
469.04	4.06123
471.933	3.84815
474.826	3.10033
477.719	2.99015
480.611	1.66978
483.504	1.04757
486.397	0.627982
489.289	1.86376
492.182	1.31209
495.075	0.216527
497.967	0.209302
500.86	0.004226
503.753	0.422877
506.645	0.914415
509.538	0.259519
512.431	0.184642
515.323	0.525939
518.216	1.08363
521.109	0.166604
524.002	0.255947
526.894	0.84178
529.787	0.046782
532.68	0.467699
535.572	0.26662
538.465	0.900992
541.358	0.097831
544.25	0.178672
547.143	1.04513
550.036	1.06414
552.929	0.885818
555.821	1.43485
558.714	1.26885
561.607	0.624949
564.499	0.654672
567.392	0.585634
570.285	0.07565
573.178	0.118719
576.07	0.04512
578.963	0.830165
581.856	0.524606
584.748	0.854957
587.641	1.35063
590.534	0.548974
593.426	1.3099
596.319	1.36711
599.212	1.08569
602.105	1.27394
604.997	1.24783
607.89	1.48569
610.783	2.25379
613.675	1.43975
616.568	0.937152
619.461	1.77265
622.353	0.967129
625.246	0.372962
628.139	0.603497
631.031	0.200896
633.924	0.025561
636.817	0.437826
639.71	0.241148
642.602	0.197536
645.495	0.143719
648.388	0.039054
651.28	0.529169
654.173	0.402863
657.066	0.851276
659.958	0.394329
662.851	0.349074
665.744	0.848875
668.636	0.730112
671.529	1.41213
674.422	1.00661
677.315	0.753419
680.207	0.4137
683.1	1.1421
685.993	0.505965
688.885	0.496226
691.778	0.018489
694.671	0.94869
697.563	0.678335
700.456	0.722446
703.349	0.668725
706.242	0.626693
709.134	0.715963
712.027	1.10401
714.92	0.424688
717.812	1.16864
720.705	1.45075
723.598	0.268596
726.49	0.596263
729.383	0.328511
732.276	0.825493
735.169	0.796951
738.061	1.1514
740.954	0.64459
743.847	1.02877
746.739	0.664458
749.632	0.682106
752.525	0.319175
755.418	0.533545
758.31	0.36573
761.203	0.429276
764.096	0.719148
766.988	0.201677
769.881	1.07463
772.774	0.852446
775.666	1.15927
778.559	1.04006
781.452	0.004708
784.345	0.846022
787.237	0.337332
790.13	0.731612
793.023	0.67211
795.915	0.052379
798.808	0.941293
801.701	1.37402
804.593	0.918568
807.486	0.616932
810.379	0.065046
813.271	0.769153
816.164	1.11266
819.057	0.04173
821.949	1.18621
824.842	1.18682
827.735	0.225513
830.628	0.416817
833.52	0.685402
836.413	1.25066
839.306	1.21427
842.198	1.10083
845.091	0.455189
847.984	0.977645
850.876	0.682722
853.769	1.03627
856.662	1.06113
859.555	1.17753
862.447	0.730789
865.34	1.06742
868.233	0.630458
871.125	0.987352
874.018	0.763895
876.911	0.848336
879.803	1.26668
882.696	1.18643
885.589	0.026862
888.482	1.07875
891.374	0.933123
894.267	1.12609
897.16	1.36918
900.052	0.058359
902.945	0.333431
905.838	0.49981
908.731	0.519881
911.623	1.05041
914.516	0.971065
917.409	0.431879
920.301	0.641515
923.194	0.85179
926.087	0.878539
928.979	0.49198
931.872	0.086948
934.765	0.265709
937.658	0.237293
940.55	0.881985
943.443	0.62184
946.336	1.12934
949.228	1.23788
952.121	0.335176
955.014	0.621786
957.906	0.239225
960.799	1.11285
963.692	1.93889
966.584	2.22155
969.477	2.83259
972.37	6.19291
975.263	9.25014
978.155	16.4244
981.048	25.6724
983.941	27.7393
986.833	11.2726
989.726	4.47209
992.619	2.11513
995.511	1.11603
998.404	0.944774
1001.3	0.483793
1004.19	1.14499
1007.08	0.413535
1009.98	0.402808
1012.87	0.109616
1015.76	0.180032
1018.65	0.856302
1021.55	1.4981
1024.44	0.779395
1027.33	0.738123
1030.22	0.255593
1033.12	0.199222
1036.01	0.335988
1038.9	0.419265
1041.8	0.883063
1044.69	1.61984
1047.58	0.542508
1050.47	1.18381
1053.37	0.700047
1056.26	0.768787
1059.15	1.21882
1062.04	0.156336
1064.94	0.9683
1067.83	1.12567
1070.72	1.07588
1073.61	0.353529
1076.51	1.15676
1079.4	1.12901
1082.29	0.320672
1085.18	0.58453
1088.08	1.2767
1090.97	1.46789
1093.86	0.512347
1096.76	0.463296
1099.65	0.264773
1102.54	0.1716
1105.43	0.594191
1108.33	0.020448
1111.22	1.04114
1114.11	0.467664
1117.01	0.091823
1119.9	0.742294
1122.79	0.346972
1125.68	0.815671
1128.58	0.028181
1131.47	0.59326
1134.36	0.805007
1137.25	1.46324
1140.15	1.58347
1143.04	1.17678
1145.93	1.1252
1148.82	1.55555
1151.72	0.923278
1154.61	1.14668
1157.5	0.241341
1160.39	1.25744
1163.29	0.465952
1166.18	0.734039
1169.07	1.05853
1171.97	1.26187
1174.86	1.20237
1177.75	0.858668
1180.64	0.153244
1183.54	0.719989
1186.43	0.517959
1189.32	1.01781
1192.21	1.36232
1195.11	0.6373
1198	0.131619
1200.89	0.408151
1203.79	0.650017
1206.68	0.188639
1209.57	0.964569
1212.46	1.58896
1215.36	0.703882
1218.25	0.716043
1221.14	1.04257
1224.04	0.876051
1226.93	0.046232
1229.82	1.20028
1232.71	0.315911
1235.61	0.267392
1238.5	1.32058
1241.39	1.46086
1244.28	1.1046
1247.18	0.704183
1250.07	0.727767
1252.96	0.848321
1255.85	1.32262
1258.75	1.41717
1261.64	0.077607
1264.53	0.103606
1267.42	0.288963
1270.32	0.632437
1273.21	0.882886
1276.1	0.585009
1279	0.096483
1281.89	0.652693
1284.78	0.303286
