Measurement: Raman, 532 nm, unoriented, Raman Data Processed
Mineral: Chalcocite
Rruff sample: R120113
Ideal chemistry: Cu^1+^_2_S^2-^
Locality: Tsumeb, Namibia
Source: Rob Lavinsky
Description: Black, twinned, elongated blades, associated with calcite. This is low chalcocite
Measured chemistry: Cu_1.98_Ag_0.01_S
Raman shift (cm-1)	intensity
185.303	0
188.196	2.77574
191.088	7.78017
193.981	11.7764
196.874	12.0236
199.766	11.1253
202.659	11.1096
205.552	9.87402
208.445	13.1342
211.337	14.0917
214.23	15.4312
217.123	14.4458
220.015	13.1961
222.908	10.4514
225.801	8.22486
228.693	5.71463
231.586	4.29427
234.479	3.00282
237.371	1.4948
240.264	1.10824
243.157	0.94968
246.05	0.029243
248.942	0.650455
251.835	0.733727
254.728	1.30861
257.62	0.235756
260.513	0.086586
263.406	0.067966
266.298	0.802292
269.191	1.19704
272.084	1.30312
274.977	1.74569
277.869	2.2562
280.762	2.81372
283.655	3.17221
286.547	3.36558
289.44	3.73269
292.333	3.33096
295.226	3.64203
298.118	2.15917
301.011	2.57184
303.904	2.041
306.796	1.63138
309.689	1.68822
312.582	1.6985
315.474	2.11194
318.367	0.990585
321.26	1.53682
324.152	1.16526
327.045	1.5388
329.938	1.96538
332.831	0.900829
335.723	0.771683
338.616	0.933014
341.509	0.876877
344.401	0.750824
347.294	0.841393
350.187	0.045437
353.079	0.530132
355.972	0.757462
358.865	0.268814
361.758	0.135452
364.65	0.060421
367.543	0.435875
370.436	0.404873
373.328	0.646172
376.221	0.878681
379.114	0.982708
382.007	0.777447
384.899	0.53759
387.792	1.03085
390.685	1.28792
393.577	1.47361
396.47	0.87693
399.363	1.19258
402.255	1.43709
405.148	1.45535
408.041	1.13047
410.933	0.7591
413.826	0.854122
416.719	0.701836
419.612	0.388559
422.504	0.244839
425.397	0.444025
428.29	0.299398
431.182	0.214224
434.075	0.117594
436.968	0.300831
439.861	0.359989
442.753	0.204077
445.646	0.012613
448.539	0.529125
451.431	0.689402
454.324	0.573769
457.217	0.744888
460.109	0.777811
463.002	1.31721
465.895	0.92115
468.788	1.08377
471.68	1.25504
474.573	0.76556
477.466	0.827169
480.358	0.470823
483.251	0.688417
486.144	0.567078
489.036	0.617018
491.929	0.349899
494.822	0.427887
497.714	0.557903
500.607	0.297609
503.5	0.604364
506.393	0.350607
509.285	0.296583
512.178	0.162161
515.071	0.075853
517.963	0.096163
520.856	0.00153
523.749	0.053354
526.641	0.316622
529.534	0.018541
532.427	0.226334
535.32	0.053301
538.212	0.261671
541.105	0.238031
543.998	0.443996
546.89	0.002722
549.783	0.606735
552.676	0.519733
555.568	0.459791
558.461	0.564196
561.354	0.556915
564.247	0.192818
567.139	0.661669
570.032	0.627138
572.925	0.910013
575.817	1.18749
578.71	1.3173
581.603	0.807915
584.495	1.61023
587.388	1.43129
590.281	1.43162
593.174	1.49121
596.066	1.82908
598.959	1.97728
601.852	2.21758
604.744	2.20212
607.637	2.72872
610.53	2.69305
613.423	2.84256
616.315	2.8063
619.208	2.53535
622.101	2.70186
624.993	2.91135
627.886	2.93473
630.779	2.6721
633.671	2.35394
636.564	1.97617
639.457	1.45744
642.35	1.65068
645.242	1.13292
648.135	0.515816
651.028	0.742899
653.92	0.720888
656.813	0.241411
659.706	0.483892
662.598	0.20616
665.491	0.390591
668.384	0.040512
671.277	0.54104
674.169	0.199413
677.062	0.567047
679.955	0.38139
682.847	0.131914
685.74	0.083181
688.633	0.351637
691.525	0.022633
694.418	0.275787
697.311	0.531708
700.203	0.082598
703.096	0.071432
705.989	0.371017
708.882	0.203255
711.774	0.359335
714.667	0.385426
717.56	0.067259
720.452	0.035868
723.345	0.160198
726.238	0.288462
729.13	0.358978
732.023	0.193125
734.916	0.252401
737.809	0.158653
740.701	0.120188
743.594	0.020996
746.487	0.390558
749.379	0.08614
752.272	0.078911
755.165	0.035349
758.058	0.169592
760.95	0.354467
763.843	0.47443
766.736	0.366154
769.628	0.594246
772.521	0.734253
775.414	0.524969
778.306	0.576426
781.199	0.683725
784.092	0.79981
786.985	0.60647
789.877	0.870867
792.77	0.928774
795.663	1.1596
798.555	0.708242
801.448	1.21932
804.341	0.761593
807.233	0.737923
810.126	1.07024
813.019	1.34487
815.912	1.04958
818.804	1.58163
821.697	1.73835
824.59	1.55097
827.482	1.35503
830.375	1.68116
833.268	1.47499
836.16	1.78698
839.053	1.61682
841.946	1.76874
844.838	2.26115
847.731	2.05554
850.624	1.76439
853.517	1.68045
856.409	1.59338
859.302	1.59758
862.195	1.6153
865.087	1.4379
867.98	1.32673
870.873	1.32467
873.765	1.46644
876.658	1.10275
879.551	1.06801
882.444	1.02377
885.336	0.626642
888.229	0.559334
891.122	0.392694
894.014	0.567066
896.907	0.40744
899.8	0.596004
902.692	0.378151
905.585	0.152472
908.478	0.165385
911.371	0.094116
914.263	0.066165
917.156	0.179663
920.049	0.295297
922.941	0.06391
925.834	0.461732
928.727	0.009814
931.62	0.240266
934.512	0.314868
937.405	0.019125
940.298	0.030582
943.19	0.085831
946.083	0.047001
948.976	0.370392
951.868	0.091236
954.761	0.39502
957.654	0.45304
960.547	0.352737
963.439	0.35531
966.332	0.158442
969.225	0.336403
972.117	0.311679
975.01	0.37951
977.903	0.208153
980.795	0.575498
983.688	0.598931
986.581	0.049417
989.473	0.654083
992.366	0.472427
995.259	0.291472
998.152	0.418964
1001.04	0.000506
1003.94	0.170597
1006.83	0.484351
1009.72	0.275656
1012.62	0.215544
1015.51	0.536416
1018.4	0.603823
1021.29	0.608599
1024.19	0.420347
1027.08	0.372486
1029.97	0.534432
1032.86	0.528212
1035.76	0.803485
1038.65	0.369185
1041.54	0.755799
1044.43	0.742591
1047.33	0.90562
1050.22	0.598993
1053.11	0.763963
1056.01	0.738157
1058.9	0.213891
1061.79	0.100136
1064.68	0.284069
1067.58	0.535666
1070.47	0.617016
1073.36	0.466455
1076.26	0.587945
1079.15	0.873759
1082.04	0.307988
1084.93	0.548661
1087.83	0.669909
1090.72	0.7355
1093.61	0.309406
1096.5	0.556026
1099.4	0.650099
1102.29	0.356255
1105.18	0.213612
1108.07	0.380826
1110.97	0.447575
1113.86	0.229925
1116.75	0.141458
1119.64	0.171304
1122.54	0.212873
1125.43	0.073017
1128.32	0.135626
1131.22	0.082516
1134.11	0.105195
1137	0.124681
1139.89	0.011496
1142.79	0.085174
1145.68	0.034353
1148.57	0.058024
1151.46	0.009523
1154.36	0.062312
1157.25	0.219995
1160.14	0.132443
1163.04	0.123243
1165.93	0.250628
1168.82	0.169924
1171.71	0.183343
1174.61	0.21532
1177.5	0.228978
1180.39	0.013278
1183.28	0.212749
1186.18	0.210842
1189.07	0.223168
1191.96	0.121007
1194.86	0.192317
1197.75	0.064517
1200.64	0.208515
1203.53	0.28478
1206.43	0.17075
1209.32	0.18335
1212.21	0.265081
1215.1	0.158894
1218	0.175532
1220.89	0.209276
1223.78	0.248638
1226.67	0.252569
1229.57	0.185158
1232.46	0.155317
1235.35	0.053055
1238.25	0.169792
1241.14	0.118329
1244.03	0.004226
1246.92	0.106663
1249.82	0.019897
1252.71	0.000614
1255.6	0.110093
1258.49	0.229385
1261.39	0.204092
1264.28	0.173221
1267.17	0.297142
1270.07	0.252569
1272.96	0.223783
1275.85	0.246276
1278.74	0.277378
1281.64	0.105268
1284.53	0.167138
1287.42	0.13238
1290.31	0.198173
1293.21	0.068404
1296.1	0.055017
1298.99	0.024295
1301.88	0
