Measurement: Raman, 532 nm, unoriented, Raman Data Processed
Mineral: Chamosite
Rruff sample: R070728
Ideal chemistry: Fe^2+^_5_Al(AlSi_3_)O_10_(OH)_8_
Locality: Mount Shasta, Michigamme, Michigan, USA
Source: Michael Scott
Description: Dark green pseudomorphs after almandine
Raman shift (cm-1)	intensity
142.787	0
145.679	17.0391
148.572	35.1899
151.465	35.1086
154.358	114.617
157.25	14.613
160.143	79.8132
163.036	176.623
165.928	95.9368
168.821	133.288
171.714	167.102
174.607	172.878
177.499	257.891
180.392	310.582
183.285	366.308
186.177	429.526
189.07	514.26
191.963	514.599
194.855	505.259
197.748	366.788
200.641	344.516
203.534	174.3
206.426	157.667
209.319	145.809
212.212	77.1379
215.104	125.559
217.997	46.8074
220.89	12.8486
223.782	14.7378
226.675	26.4551
229.568	29.2942
232.46	23.7927
235.353	17.9719
238.246	55.0542
241.138	82.9961
244.031	90.2673
246.924	69.7393
249.817	31.7373
252.709	36.771
255.602	68.7388
258.495	135.03
261.387	145.023
264.28	135.728
267.173	188.801
270.066	240.113
272.958	191.7
275.851	246.671
278.744	262.695
281.636	246.084
284.529	236.921
287.422	180.234
290.314	151.596
293.207	147.037
296.1	123.247
298.993	109.506
301.885	145.703
304.778	110.116
307.671	80.2424
310.563	23.79
313.456	32.6335
316.349	14.2668
319.241	1.44605
322.134	20.8323
325.027	23.4185
327.92	44.2769
330.812	62.7673
333.705	36.6819
336.598	13.0247
339.49	54.1614
342.383	1.93823
345.276	101.002
348.168	100.627
351.061	141.011
353.954	159.165
356.846	149.701
359.739	193.193
362.632	87.5247
365.525	106.86
368.417	147.342
371.31	108.242
374.203	50.5625
377.095	52.908
379.988	92.1619
382.881	109.651
385.774	115.181
388.666	102.249
391.559	86.1577
394.452	192.014
397.344	67.5825
400.237	22.7795
403.13	70.5466
406.022	87.2107
408.915	111.201
411.808	122.925
414.7	74.2842
417.593	87.9756
420.486	100.216
423.379	22.9954
426.271	61.6033
429.164	72.3281
432.057	60.2673
434.949	50.5569
437.842	34.7244
440.735	1.27978
443.627	8.85523
446.52	2.42456
449.413	3.58765
452.306	15.4727
455.198	44.5259
458.091	118.964
460.984	20.7205
463.876	46.2627
466.769	35.3413
469.662	29.8726
472.555	59.533
475.447	33.1887
478.34	34.8704
481.233	57.1206
484.125	73.7351
487.018	111.854
489.911	106.623
492.803	206.338
495.696	212.076
498.589	241.274
501.481	293.774
504.374	293.988
507.267	353.507
510.16	368.867
513.052	404.128
515.945	410.875
518.838	425.481
521.73	454.34
524.623	453.535
527.516	545.952
530.408	646.794
533.301	711.118
536.194	831.774
539.087	1010.78
541.979	1008.73
544.872	838.724
547.765	626.443
550.657	428.401
553.55	309.92
556.443	188.713
559.335	158.036
562.228	133.118
565.121	80.9308
568.014	65.3776
570.906	40.4133
573.799	74.6071
576.692	3.21692
579.584	7.47192
582.477	19.1371
585.37	24.9634
588.263	17.282
591.155	29.646
594.048	16.3729
596.941	22.5022
599.833	27.0731
602.726	1.56323
605.619	47.9261
608.511	19.4988
611.404	67.1959
614.297	44.7963
617.189	114.737
620.082	39.0123
622.975	119.999
625.868	107.443
628.76	167.893
631.653	162.33
634.546	210.337
637.438	273.199
640.331	311.728
643.224	369.611
646.116	424.406
649.009	494.032
651.902	604.57
654.795	633.302
657.687	746.93
660.58	757.853
663.473	745.161
666.365	709.623
669.258	648.445
672.151	549.855
675.043	500.13
677.936	371.472
680.829	323.357
683.721	318.653
686.614	208.923
689.507	199.717
692.4	129.777
695.292	114.559
698.185	63.3402
701.078	37.5696
703.97	94.5134
706.863	25.7599
709.756	21.4713
712.649	12.0747
715.541	42.6163
718.434	0.322144
721.327	23.6295
724.219	8.64685
727.112	48.6609
730.005	22.3243
732.897	9.66724
735.79	23.5067
738.683	2.52283
741.576	44.3093
744.468	49.9832
747.361	41.4657
750.254	44.9381
753.146	60.5093
756.039	84.7971
758.932	86.0942
761.824	99.056
764.717	72.5463
767.61	93.6177
770.503	123.942
773.395	122.096
776.288	83.6726
779.181	157.438
782.073	144.199
784.966	134.205
787.859	122.853
790.751	139.388
793.644	113.424
796.537	88.0295
799.429	142.462
802.322	83.4913
805.215	66.287
808.108	22.1921
811	67.1993
813.893	33.8218
816.786	17.6481
819.678	11.8817
822.571	29.6005
825.464	11.816
828.356	16.2966
831.249	28.088
834.142	18.8729
837.034	9.72082
839.927	30.8705
842.82	5.56494
845.713	51.7382
848.605	32.0851
851.498	38.9946
854.391	36.5071
857.283	67.8911
860.176	87.4119
863.069	51.7839
865.962	76.7247
868.854	33.4948
871.747	62.9784
874.64	80.5486
877.532	63.1409
880.425	73.9069
883.318	134.745
886.21	66.5929
889.103	71.9529
891.996	69.5991
894.889	24.8041
897.781	19.174
900.674	37.5815
903.567	42.6504
906.459	51.9199
909.352	15.0818
912.245	45.3776
915.138	22.0718
918.03	24.6417
920.923	8.63086
923.816	37.3565
926.708	30.0742
929.601	15.9546
932.494	11.8391
935.386	24.4453
938.279	50.0601
941.172	10.9836
944.064	35.7461
946.957	6.21423
949.85	28.5062
952.743	29.379
955.635	30.9664
958.528	45.5139
961.421	28.3389
964.313	0.314453
967.206	17.2201
970.099	61.3154
972.991	59.2743
975.884	33.959
978.777	60.854
981.67	20.8257
984.562	20.8015
987.455	57.7765
990.348	48.0708
993.24	34.2295
996.133	86.0483
999.026	39.1565
1001.92	86.0041
1004.81	132.839
1007.7	81.5129
1010.6	92.2722
1013.49	125.668
1016.38	102.953
1019.27	129.511
1022.17	124.104
1025.06	138.058
1027.95	198.147
1030.85	111.262
1033.74	149.672
1036.63	141.089
1039.52	146.73
1042.42	110.46
1045.31	91.4667
1048.2	99.559
1051.09	59.8411
1053.99	116.724
1056.88	78.8136
1059.77	125.475
1062.66	56.7378
1065.56	103.359
1068.45	83.0546
1071.34	36.255
1074.24	85.0496
1077.13	78.9009
1080.02	37.5315
1082.91	7.18457
1085.81	35.9203
1088.7	29.4514
1091.59	6.19727
1094.48	17.9863
1097.38	0.628174
1100.27	5.19678
1103.16	14.1039
1106.06	9.3855
1108.95	44.8279
1111.84	33.7506
1114.73	2.05566
1117.63	10.6998
1120.52	20.7654
1123.41	50.1874
1126.3	23.6649
1129.2	40.2875
1132.09	14.5736
1134.98	56.5632
1137.88	107.035
1140.77	36.204
1143.66	30.2748
1146.55	22.7178
1149.45	46.6055
1152.34	42.8903
1155.23	25.5558
1158.12	23.5314
1161.02	35.1707
1163.91	37.9148
1166.8	34.3693
1169.69	18.5864
1172.59	19.7574
1175.48	24.5881
1178.37	20.7629
1181.27	3.07886
1184.16	23.2515
1187.05	72.6293
1189.94	79.943
1192.84	28.8592
1195.73	53.1578
1198.62	15.1511
1201.52	49.2576
1204.41	7.02673
1207.3	53.3535
1210.19	23.1282
1213.09	58.1043
1215.98	53.5255
1218.87	30.0481
1221.76	38.3519
1224.66	18.4628
1227.55	15.1305
1230.44	31.2902
1233.33	41.4069
1236.23	20.6235
1239.12	26.8728
1242.01	0.623535
1244.9	44.8931
1247.8	32.3912
1250.69	51.4336
1253.58	64.1321
1256.48	39.0751
1259.37	1.37048
1262.26	29.3469
1265.15	43.9314
1268.05	30.7234
