Measurement: Raman, 780 nm, unoriented, Raman Data Processed
Mineral: Chambersite
Rruff sample: R050337
Ideal chemistry: Mn^2+^_3_B_7_O_13_Cl
Locality: Barber's Hill salt dome, Mont Belvieu, Chambers County, Texas, USA
Source: University of Arizona Mineral Museum
Description: Deep purple pseudotetrahedron
Raman shift (cm-1)	intensity
130.129	0.834229
133.021	23.1489
135.914	46.6628
138.807	78.7825
141.699	92.5737
144.592	90.0259
147.485	78.9465
150.377	79.4951
153.27	85.3618
156.163	83.3166
159.055	89.3298
161.948	96.4536
164.841	82.531
167.734	63.3921
170.626	44.835
173.519	31.2117
176.412	22.2927
179.304	25.1982
182.197	23.481
185.09	16.6411
187.982	18.8259
190.875	20.9204
193.768	15.3415
196.661	15.1404
199.553	2.81958
202.446	10.7109
205.339	19.5764
208.231	12.2729
211.124	20.5342
214.017	17.4963
216.91	19.0803
219.802	23.1655
222.695	21.5767
225.588	14.9329
228.48	36.1252
231.373	35.7695
234.266	19.2017
237.158	33.3921
240.051	32.3777
242.944	8.97241
245.837	1.32105
248.729	8.08008
251.622	3.79248
254.515	2.02515
257.407	1.11377
260.3	4.23975
263.193	1.43335
266.085	10.3496
268.978	2.60205
271.871	9.24805
274.764	4.10205
277.656	1.26221
280.549	1.56958
283.442	6.39819
286.334	4.83203
289.227	12.9939
292.12	11.6499
295.012	3.16528
297.905	11.6565
300.798	19.0454
303.69	5.573
306.583	5.92065
309.476	0.473633
312.369	1.34277
315.261	1.0979
318.154	11.2646
321.047	10.3218
323.939	15.4954
326.832	19.6086
329.725	19.8262
332.618	24.352
335.51	40.7114
338.403	68.5593
341.296	84.8547
344.188	111.813
347.081	138.467
349.974	176.452
352.866	219.809
355.759	215.251
358.652	136.248
361.545	83.8516
364.437	58.4875
367.33	41.9758
370.223	31.7554
373.115	25.0608
376.008	6.43042
378.901	7.29468
381.793	3.90503
384.686	11.9263
387.579	2.74146
390.471	0.232178
393.364	11.0083
396.257	12.686
399.15	20.1121
402.042	11.6711
404.935	3.22876
407.828	2.04492
410.72	6.07471
413.613	2.48022
416.506	1.48706
419.399	8.08496
422.291	17.9016
425.184	11.5176
428.077	15.6155
430.969	12.5789
433.862	9.02588
436.755	5.36206
439.647	11.1492
442.54	12.1374
445.433	11.437
448.325	5.76538
451.218	1.31934
454.111	7.18335
457.004	2.03027
459.896	12.8706
462.789	20.1106
465.682	11.843
468.574	18.2798
471.467	13.2602
474.36	10.5027
477.252	2.10034
480.145	4.07153
483.038	8.50049
485.931	1.64575
488.823	0.459717
491.716	6.29761
494.609	4.09766
497.501	6.23779
500.394	7.77588
503.287	8.89746
506.18	7.45508
509.072	12.1065
511.965	7.11792
514.858	9.36426
517.75	16.603
520.643	26.9265
523.536	17.1863
526.428	15.3447
529.321	12.1226
532.214	17.0791
535.106	21.3098
537.999	30.3718
540.892	26.8733
543.785	26.075
546.677	19.7319
549.57	16.0559
552.463	18.8015
555.355	21.7703
558.248	27.5527
561.141	20.0483
564.034	6.26733
566.926	1.52612
569.819	0.522949
572.712	4.98584
575.604	1.96802
578.497	0.061279
581.39	1.94311
584.282	0.383057
587.175	16.8311
590.068	14.9395
592.961	27.8669
595.853	19.4995
598.746	27.074
601.639	17.2329
604.531	9.70117
607.424	6.98731
610.317	1.11133
613.209	6.05859
616.102	0.273438
618.995	5.15894
621.888	7.54883
624.78	15.3943
627.673	18.3474
630.566	20.4458
633.458	35.7542
636.351	44.0674
639.244	55.1013
642.136	59.156
645.029	71.6028
647.922	70.366
650.814	72.2654
653.707	94.0718
656.6	108.757
659.493	101.39
662.385	66.272
665.278	43.45
668.171	34.1616
671.063	21.1843
673.956	5.1604
676.849	12.5837
679.741	2.19238
682.634	1.05689
685.527	8.42847
688.42	8.98364
691.312	10.0205
694.205	8.47876
697.098	6.68115
699.99	8.26733
702.883	11.7385
705.776	9.30664
708.668	12.2788
711.561	17.0439
714.454	11.9753
717.347	20.9382
720.239	21.6973
723.132	10.0066
726.025	3.02051
728.917	1.27954
731.81	6.34009
734.703	2.81348
737.596	0.77832
740.488	0.131348
743.381	2.62476
746.274	9.66455
749.166	4.68994
752.059	10.01
754.952	6.04272
757.844	7.21069
760.737	8.85303
763.63	6.13965
766.523	5.75317
769.415	6.03809
772.308	7.55444
775.201	10.8162
778.093	9.63574
780.986	9.13574
783.879	4.33936
786.771	11.4075
789.664	0.780029
792.557	5.5979
795.449	8.06665
798.342	4.91162
801.235	6.52026
804.128	0.296875
807.02	12.2566
809.913	9.85889
812.806	12.9045
815.698	5.87598
818.591	13.6213
821.484	13.5986
824.376	14.8733
827.269	9.97778
830.162	20.3303
833.055	23.5554
835.947	16.2524
838.84	12.3469
841.733	16.9644
844.625	6.47632
847.518	10.6069
850.411	10.658
853.303	10.4192
856.196	3.39795
859.089	12.5862
861.982	4.90259
864.874	11.9199
867.767	15.0185
870.66	11.533
873.552	10.8381
876.445	9.29028
879.338	2.86548
882.231	3.11108
885.123	1.08032
888.016	2.2395
890.909	0.961914
893.801	0.675293
896.694	6.29517
899.587	3.8706
902.479	1.42969
905.372	8.64526
908.265	9.95898
911.158	3.55371
914.05	9.30371
916.943	6.88135
919.836	12.7158
922.728	7.84888
925.621	11.613
928.514	12.5574
931.406	15.4226
934.299	7.59375
937.192	13.9207
940.085	14.0979
942.977	15.0957
945.87	14.2466
948.763	1.14356
951.655	8.45312
954.548	6.88477
957.441	15.519
960.333	20.6541
963.226	4.17285
966.119	8.85205
969.011	8.19116
971.904	4.6582
974.797	3.30933
977.69	0.598633
980.582	1.92407
983.475	3.4751
986.368	3.75732
989.26	1.12817
992.153	0.333252
995.046	9.13574
997.938	5.8418
1000.83	2.96313
1003.72	5.21704
1006.62	7.87061
1009.51	5.42407
1012.4	5.92847
1015.29	7.92993
1018.19	10.5461
1021.08	15.1985
1023.97	14.1055
1026.87	16.7034
1029.76	18.1167
1032.65	19.7983
1035.54	21.0662
1038.44	24.3335
1041.33	20.9709
1044.22	21.4641
1047.11	19.6985
1050.01	22.9519
1052.9	15.1362
1055.79	23.9885
1058.68	18.3025
1061.58	23.0078
1064.47	21.9321
1067.36	21.686
1070.26	28.1035
1073.15	25.4998
1076.04	21.4021
1078.93	25.5022
1081.83	24.2178
1084.72	25.9509
1087.61	17.1155
1090.51	18.5984
1093.4	19.2581
1096.29	21.3132
1099.18	10.8984
1102.08	9.1355
1104.97	7.74902
1107.86	3.52197
1110.75	3.14795
1113.65	0.708008
1116.54	3.30566
1119.43	1.38745
1122.33	4.84253
1125.22	3.72315
1128.11	3.42676
1131	7.74292
1133.89	2.87817
1136.79	0.91626
1139.68	0.780029
1142.57	0.211426
1145.47	3.22778
1148.36	9.79468
1151.25	7.01904
1154.14	7.78345
1157.04	12.6589
1159.93	18.3506
1162.82	13.4077
1165.71	9.78955
1168.61	17.3296
1171.5	11.6604
1174.39	13.6006
1177.29	14.7468
1180.18	17.8284
1183.07	10.6191
1185.96	15.5146
1188.86	17.7349
1191.75	16.8728
1194.64	12.5586
1197.54	9.77905
1200.43	12.7141
1203.32	14.071
1206.21	15.4231
1209.11	9.9707
1212	8.47876
1214.89	8.10913
1217.78	0.927734
1220.68	0.466309
1223.57	0.361816
1226.46	1.6792
1229.35	10.3123
1232.25	8.05542
1235.14	3.49048
1238.03	7.98731
1240.92	2.10864
1243.82	1.79272
1246.71	6.75171
1249.6	1.98267
1252.5	7.9668
1255.39	8.64453
1258.28	9.61792
1261.17	3.93213
1264.07	8.56665
1266.96	10.1313
1269.85	11.1819
1272.74	6.95923
1275.64	4.80615
