Measurement: Raman, 780 nm, unoriented, Raman Data Processed
Mineral: Chamosite
Rruff sample: R060188
Ideal chemistry: Fe^2+^_5_Al(AlSi_3_)O_10_(OH)_8_
Locality: Slesse Creek, Chilliwack, British Columbia, Canada
Source: Lloyd Twaites
Description: Brown hexagonal tablets with curved prism faces
Measured chemistry: (Fe^2+^_2.53_Mg_2.15_Al_0.30_Mn_0.02_)_Î£=5_Al_1.00_(Si_2.70_Al_1.30_)O_10_(OH)_8_
Raman shift (cm-1)	intensity
154.701	0
157.593	0.03349
160.486	0.369135
163.379	0.381635
166.271	0.596214
169.164	0.598897
172.057	1.33819
174.949	2.39623
177.842	4.39148
180.735	6.43524
183.627	9.23049
186.52	14.7392
189.413	18.8292
192.306	25.2529
195.198	30.6392
198.091	35.3344
200.984	36.3484
203.876	33.2767
206.769	24.3447
209.662	17.905
212.554	14.1651
215.447	9.75835
218.34	6.58802
221.233	5.69756
224.125	4.52757
227.018	4.01889
229.911	2.1243
232.803	2.15166
235.696	3.70154
238.589	3.31258
241.482	2.53374
244.374	3.74643
247.267	3.93061
250.16	2.34664
253.052	0.287477
255.945	0.292217
258.838	0.135319
261.73	0.024808
264.623	0.195653
267.516	0.167013
270.408	0.308743
273.301	1.16229
276.194	1.06481
279.087	1.15289
281.979	1.07483
284.872	0.67416
287.765	0.765818
290.657	1.38605
293.55	1.55731
296.443	0.007766
299.335	0.049681
302.228	0.702902
305.121	0.759003
308.014	1.29724
310.906	1.09006
313.799	0.016782
316.692	0.642161
319.584	0.442511
322.477	0.38439
325.37	0.154112
328.262	0.143276
331.155	0.643501
334.048	0.671475
336.94	1.33257
339.833	0.679316
342.726	0.703567
345.619	0.55915
348.511	2.30798
351.404	1.49935
354.297	3.35463
357.189	1.80321
360.082	2.48791
362.975	1.42944
365.868	1.75917
368.76	1.91136
371.653	2.45051
374.546	1.45671
377.438	0.708919
380.331	0.82907
383.224	0.122164
386.116	0.790543
389.009	0.04719
391.902	0.347055
394.795	1.24777
397.687	0.530326
400.58	1.18748
403.473	0.503022
406.365	0.019854
409.258	0.0232
412.151	0.19207
415.043	0.791898
417.936	0.640374
420.829	0.106139
423.721	1.10197
426.614	0.121399
429.507	1.22888
432.399	0.151384
435.292	1.31991
438.185	0.042235
441.078	0.618971
443.97	0.042564
446.863	0.501622
449.756	0.173315
452.648	1.29699
455.541	1.09721
458.434	0.992824
461.327	0.473554
464.219	1.43343
467.112	3.01009
470.005	1.9469
472.897	1.26963
475.79	1.57683
478.683	0.566694
481.575	1.35088
484.468	0.851106
487.361	0.299402
490.253	0.343957
493.146	1.02174
496.039	0.486495
498.932	0.261612
501.824	0.785935
504.717	0.299856
507.61	0.515005
510.502	1.00177
513.395	0.574404
516.288	1.29352
519.181	1.70795
522.073	1.56974
524.966	2.7162
527.859	4.48625
530.751	6.38555
533.644	9.18131
536.537	14.5067
539.429	19.8693
542.322	25.163
545.215	28.5885
548.107	23.8355
551	15.0579
553.893	8.46008
556.785	5.7494
559.678	4.03152
562.571	1.06522
565.464	2.56117
568.356	1.41747
571.249	0.378163
574.142	0.260869
577.034	0.125288
579.927	0.318244
582.82	0.319323
585.712	0.256929
588.605	0.015883
591.498	0.052261
594.391	0.113619
597.283	0.361438
600.176	0.2713
603.069	1.49605
605.961	0.106282
608.854	1.61933
611.747	1.47046
614.639	1.76424
617.532	2.05009
620.425	2.66235
623.318	3.07994
626.21	1.55882
629.103	2.83596
631.996	4.03204
634.888	5.30558
637.781	6.60402
640.674	7.52095
643.567	10.4724
646.459	11.413
649.352	13.0178
652.245	16.0307
655.137	17.8696
658.03	21.5923
660.923	25.1575
663.815	26.6278
666.708	26.7406
669.601	25.5887
672.494	22.9912
675.386	18.6726
678.279	16.3716
681.172	13.1407
684.064	9.57203
686.957	8.21613
689.85	6.07995
692.742	4.84939
695.635	4.54242
698.528	3.13486
701.42	2.14077
704.313	1.18519
707.206	0.766921
710.098	0.20873
712.991	0.828304
715.884	0.32429
718.777	0.899788
721.669	0.520054
724.562	0.213377
727.455	0.902589
730.347	0.877875
733.24	0.015146
736.133	0.540709
739.025	0.350417
741.918	0.101968
744.811	1.07268
747.704	0.145871
750.596	1.27738
753.489	0.628969
756.382	0.494122
759.274	1.19753
762.167	1.38161
765.06	1.14284
767.952	1.36609
770.845	1.27563
773.738	0.943965
776.631	1.14579
779.523	0.472991
782.416	1.51063
785.309	1.48428
788.201	1.30503
791.094	0.297462
793.987	0.512384
796.88	0.669377
799.772	1.8121
802.665	0.418283
805.558	0.860538
808.45	1.10387
811.343	0.313522
814.236	0.527402
817.128	1.88089
820.021	1.08287
822.914	0.005196
825.807	0.387737
828.699	1.16931
831.592	0.900776
834.485	0.70847
837.377	0.610424
840.27	0.53293
843.163	0.970025
846.055	0.507266
848.948	1.56689
851.841	0.477775
854.734	2.08823
857.626	1.96013
860.519	0.816985
863.412	1.31518
866.304	0.127177
869.197	0.809835
872.09	1.88447
874.982	0.998885
877.875	0.675724
880.768	1.08944
883.66	1.6037
886.553	0.664638
889.446	0.601708
892.338	0.735501
895.231	0.863133
898.124	0.999461
901.017	0.123228
903.909	0.351093
906.802	0.123691
909.695	0.005331
912.587	0.268886
915.48	0.128368
918.373	0.067412
921.265	0.162225
924.158	0.068491
927.051	0.030724
929.944	0.25127
932.836	0.061566
935.729	0.424463
938.622	0.001823
941.514	0.891045
944.407	0.007063
947.3	0.535247
950.192	0.289139
953.085	0.191979
955.978	0.453728
958.87	0.563866
961.763	0.346302
964.656	0.15196
967.549	0.302424
970.441	0.122573
973.334	0.642244
976.227	1.3972
979.119	0.869815
982.012	0.763314
984.905	1.40885
987.798	1.94306
990.69	0.619334
993.583	0.363498
996.476	1.11696
999.368	0.395203
1002.26	1.5616
1005.15	0.452617
1008.05	0.457006
1010.94	1.51839
1013.83	2.64499
1016.73	1.91982
1019.62	2.73297
1022.51	3.30624
1025.4	4.45356
1028.3	4.44078
1031.19	4.29272
1034.08	3.69052
1036.97	3.71972
1039.87	2.93772
1042.76	2.54836
1045.65	1.45259
1048.54	1.30722
1051.44	1.70968
1054.33	1.45155
1057.22	1.35964
1060.12	0.622607
1063.01	1.47809
1065.9	0.971831
1068.79	0.776486
1071.69	1.0562
1074.58	0.39622
1077.47	0.197968
1080.36	0.794342
1083.26	0.219657
1086.15	0.407105
1089.04	0.108629
1091.93	0.271193
1094.83	0.355634
1097.72	0.178774
1100.61	0.135595
1103.51	1.11705
1106.4	0.724921
1109.29	0.651192
1112.18	0.408507
1115.08	0.748672
1117.97	0.368567
1120.86	1.12935
1123.75	1.03845
1126.65	0.506524
1129.54	0.148035
1132.43	1.11132
1135.33	0.28926
1138.22	1.08768
1141.11	1.20058
1144	0.604232
1146.9	0.415024
1149.79	0.606175
1152.68	2.25375
1155.57	2.20332
1158.47	1.4408
1161.36	1.37613
1164.25	0.628464
1167.14	0.795435
1170.04	1.07476
1172.93	1.13631
1175.82	1.06637
1178.72	0.242396
1181.61	0.074618
1184.5	0.39742
1187.39	0.640228
1190.29	1.66159
1193.18	1.16519
1196.07	1.79884
1198.96	0.812541
1201.86	0.002619
1204.75	1.44087
1207.64	1.96227
1210.54	1.02605
1213.43	1.16019
1216.32	1.97217
1219.21	0.786363
1222.11	2.1285
1225	0.944245
1227.89	1.74293
1230.78	1.80841
1233.68	0.161563
1236.57	1.03232
1239.46	0.948373
1242.36	1.11885
1245.25	1.54372
1248.14	1.58574
1251.03	1.26132
1253.93	1.24629
1256.82	0.587089
1259.71	0.653274
1262.6	0.797217
1265.5	0.625564
1268.39	1.11373
1271.28	0.884886
1274.17	1.62673
1277.07	1.39141
1279.96	0.633658
1282.85	0.019343
1285.74	1.21944
