Measurement: Raman, 780 nm, unoriented, Raman Data Processed
Mineral: Chamosite
Rruff sample: R070728
Ideal chemistry: Fe^2+^_5_Al(AlSi_3_)O_10_(OH)_8_
Locality: Mount Shasta, Michigamme, Michigan, USA
Source: Michael Scott
Description: Dark green pseudomorphs after almandine
Raman shift (cm-1)	intensity
160.986	0
163.878	309.449
166.771	198.334
169.664	12.9648
172.556	226.465
175.449	299.904
178.342	411.734
181.234	358.85
184.127	483.492
187.02	519.256
189.912	569.008
192.805	578.746
195.698	586.242
198.591	480.273
201.483	410.963
204.376	280.875
207.269	128.621
210.161	171.387
213.054	59.873
215.947	49.5488
218.839	44.25
221.732	30.4375
224.625	33.6426
227.518	63.8008
230.41	47.623
233.303	10.3301
236.196	113.449
239.088	7.75391
241.981	127.082
244.874	110.936
247.767	243.184
250.659	125.357
253.552	241.022
256.445	189.416
259.337	311.088
262.23	235.519
265.123	393.981
268.015	339.721
270.908	317.523
273.801	281.691
276.693	450.691
279.586	555.004
282.479	255.6
285.372	312.938
288.264	141.025
291.157	114.469
294.05	66.9922
296.942	120.236
299.835	46.5781
302.728	21.2188
305.62	93.7734
308.513	64.207
311.406	37.3457
314.299	7.16406
317.191	15.7168
320.084	26.9141
322.977	43.2539
325.869	312.799
328.762	6.60742
331.655	8.36523
334.548	89.1719
337.44	161.557
340.333	23.6113
343.226	93.7012
346.118	208.922
349.011	117.758
351.904	183.695
354.796	137.992
357.689	195.49
360.582	346.035
363.474	105.223
366.367	103.592
369.26	54.873
372.153	99.5586
375.045	100.611
377.938	5.08203
380.831	9.6875
383.723	118.801
386.616	149.791
389.509	8.82812
392.401	64.6934
395.294	91.8613
398.187	276.725
401.08	139.203
403.972	123.488
406.865	382.084
409.758	159.268
412.65	136.768
415.543	136.07
418.436	284.217
421.329	62.6133
424.221	64.4922
427.114	283.512
430.007	160.715
432.899	184.535
435.792	135.846
438.685	4.43164
441.577	146.83
444.47	54.5312
447.363	12.877
450.255	69.8516
453.148	38.002
456.041	47.7637
458.934	61.832
461.826	71.3438
464.719	104.102
467.612	228.674
470.504	224.106
473.397	321.6
476.29	354.26
479.182	405.102
482.075	453.832
484.968	453.474
487.861	622.633
490.753	758.839
493.646	863.985
496.539	883.596
499.431	1059.96
502.324	1094.76
505.217	1148.2
508.109	1083.69
511.002	1099.97
513.895	1021.37
516.788	925.133
519.68	943.829
522.573	947.465
525.466	974.116
528.358	880.925
531.251	1034.36
534.144	861.59
537.036	824.235
539.929	626.545
542.822	552.481
545.715	394.717
548.607	320.574
551.5	158.894
554.393	60.373
557.285	95.1621
560.178	3.08887
563.071	45.3115
565.963	11.9629
568.856	38.2832
571.749	69.4629
574.641	13.9355
577.534	18.7314
580.427	12.3887
583.32	58.4434
586.212	0.225586
589.105	28.3037
591.998	59.9834
594.89	91.5088
597.783	28.7432
600.676	156.471
603.568	162.268
606.461	65.8516
609.354	102.585
612.247	143.909
615.139	217.349
618.032	122.076
620.925	208.616
623.817	194.032
626.71	221.23
629.603	203.194
632.495	212.085
635.388	185.173
638.281	247.731
641.174	278.289
644.066	323.266
646.959	312.832
649.852	452.302
652.744	410.519
655.637	387.897
658.53	484.515
661.423	414.256
664.315	422.276
667.208	425.204
670.101	390.244
672.993	331.654
675.886	343.207
678.779	187.141
681.671	217.31
684.564	112.539
687.457	73.5635
690.35	162.769
693.242	42.3897
696.135	70.6592
699.028	27.5488
701.92	6.62598
704.813	30.6104
707.706	71.1279
710.598	0.379883
713.491	66.3838
716.384	28.9209
719.277	14.7705
722.169	59.8701
725.062	37.8652
727.955	74.5303
730.847	104.899
733.74	86.8574
736.633	70.2871
739.525	102.651
742.418	164.765
745.311	198.165
748.204	112.714
751.096	178.232
753.989	168.483
756.882	260.588
759.774	252.862
762.667	199.242
765.56	290.78
768.452	290.448
771.345	148.094
774.238	169.779
777.131	104.402
780.023	162.405
782.916	159.005
785.809	180.204
788.701	56.3369
791.594	271.622
794.487	13.7383
797.38	33.1914
800.272	40.4053
803.165	29.6787
806.058	16.2119
808.95	86.5244
811.843	13.793
814.736	12.0605
817.628	105.685
820.521	39.0654
823.414	22.3574
826.307	10.2266
829.199	29.1006
832.092	32.5332
834.985	72.3799
837.877	99.7256
840.77	106.498
843.663	63.8408
846.555	113.116
849.448	117.266
852.341	72.5928
855.233	176.585
858.126	40.3867
861.019	79.5098
863.912	105.523
866.804	68.0586
869.697	122.801
872.59	105.067
875.482	102.564
878.375	140.527
881.268	140.488
884.16	184.739
887.053	130.935
889.946	218.695
892.838	126.87
895.731	169.025
898.624	123.36
901.517	163.666
904.409	144.139
907.302	118.62
910.195	62.8428
913.087	119.176
915.98	127.257
918.873	60.2842
921.765	7.33887
924.658	109.468
927.551	28.4648
930.444	22.4277
933.336	52.5469
936.229	91.0996
939.122	85.5732
942.014	5.45703
944.907	29.2227
947.8	58.418
950.692	20.7783
953.585	35.2305
956.478	102.167
959.371	50.0938
962.263	59.1533
965.156	0.165039
968.049	8.07031
970.941	39.7959
973.834	15.5508
976.727	7.77246
979.62	30.7783
982.512	8.27832
985.405	11.169
988.298	27.8203
991.19	63.6787
994.083	28.6768
996.976	17.6553
999.868	80.0127
1002.76	148.878
1005.65	79.7861
1008.55	96.9639
1011.44	176.631
1014.33	149.395
1017.23	116.857
1020.12	102.128
1023.01	142.72
1025.9	107.596
1028.8	68.1348
1031.69	142.685
1034.58	92.6182
1037.47	127.131
1040.37	134.202
1043.26	167.108
1046.15	157.256
1049.04	170.037
1051.94	191.589
1054.83	171.558
1057.72	209.773
1060.62	123.087
1063.51	203.502
1066.4	107.807
1069.29	216.076
1072.19	145.357
1075.08	149.416
1077.97	104.418
1080.86	71.9717
1083.76	2.87305
1086.65	66.7715
1089.54	39.6572
1092.43	4.31836
1095.33	0.296875
1098.22	36.5762
1101.11	39.3857
1104.01	11.9453
1106.9	54.3486
1109.79	44.9404
1112.68	42.9111
1115.58	62.0244
1118.47	78.6562
1121.36	62.0605
1124.26	62.6631
1127.15	37.9375
1130.04	54.043
1132.93	27.0107
1135.83	39.4131
1138.72	99.8232
1141.61	75.7812
1144.5	113.009
1147.4	53.2207
1150.29	88.5293
1153.18	89.2246
1156.07	73.126
1158.97	119.964
1161.86	111.23
1164.75	28.5068
1167.64	55.4922
1170.54	111.138
1173.43	102.261
1176.32	123.536
1179.22	151.69
1182.11	147.583
1185	92.5674
1187.89	12.3545
1190.79	54.0713
1193.68	51.081
1196.57	91.4238
1199.46	147.679
1202.36	165.21
1205.25	157.375
1208.14	70.2119
1211.04	85.042
1213.93	125.731
1216.82	111.082
1219.71	37.9199
1222.61	12.5586
1225.5	9.7793
1228.39	83.5391
1231.28	6.32031
1234.18	82.2353
1237.07	44.1055
1239.96	61.7295
1242.86	182.724
1245.75	66.8731
1248.64	106.588
1251.53	23.0762
1254.43	75.5791
1257.32	46.7324
1260.21	16.9512
