Measurement: Raman, 532 nm, unoriented, Raman Data Processed
Mineral: Charoite
Rruff sample: R060376
Ideal chemistry: (K,Sr,Ba,Mn^2+^)_15-16_(Ca,Na)_32_Si_70_(O,OH)_180_(OH,F)_4_nH_2_O
Locality: Chara River area, Murun Massif, northwest Aldan, Siberia, U.S.S.R.
Source: Michael Scott
Description: Purple flaky and massive associated with tan colored tinaksite, R060375
Raman shift (cm-1)	intensity
205.236	0
208.129	7.01007
211.021	12.4302
213.914	10.1885
216.807	3.55206
219.699	2.65585
222.592	6.17395
225.485	13.0109
228.377	14.9702
231.27	21.9431
234.163	25.572
237.056	26.6879
239.948	34.9227
242.841	41.1426
245.734	50.9139
248.626	40.4335
251.519	29.4477
254.412	24.0233
257.305	16.139
260.197	10.1151
263.09	8.73682
265.983	6.50171
268.875	6.83356
271.768	1.31415
274.661	1.29901
277.553	3.06989
280.446	1.11322
283.339	0.261536
286.232	2.09039
289.124	0.250366
292.017	3.65961
294.91	5.40601
297.802	4.76862
300.695	6.28558
303.588	8.44928
306.481	7.9378
309.373	10.5891
312.266	10.5935
315.159	11.8845
318.051	11.1157
320.944	5.21643
323.837	8.15845
326.729	6.86212
329.622	5.38983
332.515	8.70013
335.408	12.7024
338.3	12.4175
341.193	10.0721
344.086	8.35071
346.978	6.04364
349.871	3.26202
352.764	2.98615
355.656	3.20532
358.549	0.08667
361.442	0.071411
364.334	1.03101
367.227	2.17279
370.12	2.59778
373.012	4.21222
375.905	1.34851
378.798	0.537781
381.691	0.311707
384.583	1.15289
387.476	2.97986
390.369	5.03412
393.261	1.04968
396.154	0.07074
399.047	2.99121
401.94	0.255798
404.832	3.26404
407.725	7.48523
410.618	9.28332
413.51	13.6299
416.403	11.0897
419.296	8.06714
422.188	8.10004
425.081	19.487
427.974	23.6598
430.866	28.8759
433.759	33.3339
436.652	31.1774
439.545	29.4135
442.437	22.4184
445.33	21.8268
448.223	22.9724
451.115	21.3795
454.008	21.5306
456.901	23.4341
459.793	33.1333
462.686	47.0447
465.579	42.7516
468.472	25.2476
471.364	12.5706
474.257	8.37817
477.15	7.56171
480.042	5.77911
482.935	5.59161
485.828	4.26111
488.721	3.73035
491.613	4.63397
494.506	7.55695
497.399	9.7475
500.291	10.3525
503.184	6.28528
506.077	7.04108
508.969	6.43903
511.862	9.22308
514.755	7.3916
517.648	3.78821
520.54	5.16681
523.433	3.17096
526.326	3.29926
529.218	4.39233
532.111	3.5777
535.004	1.49341
537.896	1.33075
540.789	4.09839
543.682	0.250916
546.575	1.74188
549.467	3.76862
552.36	2.4812
555.253	1.38385
558.145	1.89429
561.038	1.87549
563.931	2.8324
566.823	2.78522
569.716	1.2771
572.609	2.55371
575.502	5.02966
578.394	5.30243
581.287	11.2698
584.18	9.79767
587.072	9.99872
589.965	6.93799
592.858	5.12311
595.75	4.44055
598.643	6.41833
601.536	7.42896
604.428	9.91809
607.321	15.2068
610.214	18.7052
613.107	13.621
615.999	15.9624
618.892	22.0597
621.785	32.259
624.677	51.1306
627.57	76.7529
630.463	110.393
633.356	145.941
636.248	176.916
639.141	195.988
642.034	178.647
644.926	154.635
647.819	147.2
650.712	134.213
653.604	119.185
656.497	111.947
659.39	116.409
662.283	131.76
665.175	166.643
668.068	204.613
670.961	244.867
673.853	283.686
676.746	284.385
679.639	241.876
682.531	180.873
685.424	118.574
688.317	78.8861
691.21	55.1013
694.102	38.3993
696.995	33.8633
699.888	22.0131
702.78	13.8556
705.673	7.06543
708.566	6.698
711.458	6.74915
714.351	5.74817
717.244	1.09863
720.136	3.71216
723.029	1.7727
725.922	0.123291
728.815	7.09863
731.707	4.43237
734.6	3.76965
737.493	2.06653
740.385	0.829102
743.278	0.483887
746.171	0.031738
749.063	6.6095
751.956	8.05652
754.849	7.90723
757.742	12.1039
760.634	12.6289
763.527	14.2711
766.42	13.4963
769.312	17.7446
772.205	18.6545
775.098	12.5345
777.99	14.404
780.883	18.0663
783.776	11.7711
786.669	11.0448
789.561	4.8407
792.454	9.05713
795.347	8.99475
798.239	14.2869
801.132	2.65247
804.025	4.047
806.918	2.04468
809.81	5.50989
812.703	7.10791
815.596	3.49463
818.488	7.50061
821.381	9.72949
824.274	8.08044
827.166	3.88538
830.059	3.20276
832.952	4.57752
835.845	2.17712
838.737	1.68384
841.63	4.03406
844.523	0.853394
847.415	1.04822
850.308	1.91724
853.201	2.36792
856.093	4.66846
858.986	2.81604
861.879	2.7301
864.771	3.20569
867.664	0.907837
870.557	3.65527
873.45	2.00598
876.342	5.48486
879.235	1.26428
882.128	1.00366
885.02	3.89832
887.913	7.55981
890.806	3.89758
893.698	3.83582
896.591	3.23901
899.484	0.797729
902.377	0.773438
905.269	1.15198
908.162	4.11487
911.055	4.40552
913.947	5.58044
916.84	7.34253
919.733	6.72131
922.625	3.76001
925.518	7.09485
928.411	7.72339
931.304	3.86682
934.196	3.88696
937.089	2.96753
939.982	10.3407
942.875	15.8966
945.767	17.7286
948.66	17.2764
951.553	24.1562
954.445	27.5291
957.338	23.2366
960.231	9.29871
963.123	6.59106
966.016	4.85425
968.909	5.85437
971.802	0.865601
974.694	0.135742
977.587	0.680176
980.48	7.90125
983.372	4.69507
986.265	15.8778
989.158	24.6461
992.05	10.9355
994.943	6.89954
997.836	7.52258
1000.73	3.24866
1003.62	1.77978
1006.51	4.05762
1009.41	3.64771
1012.3	3.32104
1015.19	2.79492
1018.09	5.50305
1020.98	9.92163
1023.87	5.57788
1026.76	8.57483
1029.66	11.4992
1032.55	13.8234
1035.44	21.4594
1038.33	14.4575
1041.23	13.2261
1044.12	19.1947
1047.01	19.6425
1049.9	26.5371
1052.8	30.9403
1055.69	35.929
1058.58	39.0325
1061.47	39.0879
1064.37	32.9276
1067.26	23.937
1070.15	18.8663
1073.05	11.5078
1075.94	9.64722
1078.83	3.13672
1081.72	7.76623
1084.62	4.14282
1087.51	1.15027
1090.4	2.49085
1093.3	3.94922
1096.19	0.213013
1099.08	7.1261
1101.97	6.72375
1104.87	9.3158
1107.76	12.5314
1110.65	20.5554
1113.54	20.9582
1116.44	18.1964
1119.33	19.2871
1122.22	17.2457
1125.12	25.35
1128.01	37.115
1130.9	49.727
1133.79	58.7864
1136.68	71.8314
1139.58	82.6581
1142.47	87.5797
1145.36	67.2563
1148.26	36.3151
1151.15	15.3546
1154.04	12.1124
1156.93	5.56982
1159.83	1.94458
1162.72	4.81702
1165.61	1.87109
1168.51	4.27136
1171.4	4.74329
1174.29	1.92493
1177.18	4.06543
1180.08	2.55188
1182.97	8.23084
1185.86	4.91846
1188.75	6.20752
1191.65	2.58728
1194.54	0.663696
1197.43	8.15442
1200.33	5.97522
1203.22	6.2832
1206.11	12.7761
1209	14.5842
1211.9	13.604
1214.79	6.37134
1217.68	8.17407
1220.57	9.02405
1223.47	8.70044
1226.36	14.3059
1229.25	7.09729
1232.14	7.6366
1235.04	5.39502
1237.93	1.25269
1240.82	4.68982
1243.71	9.52222
1246.61	5.55408
1249.5	2.25134
1252.39	9.72095
1255.29	5.0321
1258.18	4.01135
1261.07	13.3402
1263.96	8.73999
1266.86	6.99988
1269.75	5.71851
1272.64	0.949707
1275.54	9.33386
1278.43	4.578
1281.32	2.76917
1284.21	2.5581
1287.11	1.85046
1290	4.22107
1292.89	8.64819
1295.78	6.36475
1298.68	6.50513
1301.57	8.47876
