Measurement: Raman, 532 nm, unoriented, Raman Data Processed
Mineral: Charoite
Rruff sample: R060557
Ideal chemistry: (K,Sr,Ba,Mn^2+^)_15-16_(Ca,Na)_32_Si_70_(O,OH)_180_(OH,F)_4_nH_2_O
Locality: Russia
Source: Gemological Institute of America
Description: Purple massive
Measured chemistry: (K_15.13_Ba_1.37_Sr_0.57_Mn_0.20_Fe_0.02_)_Σ=17.29_(Ca_26.56_Na_2.60_)_Σ=29.16_(Si_69.97_Al_0.03_)_Σ=70.00_(O_179.73_F_0.27_)_Σ=180.00_F_4.05_·16H_2_O ; lighter phase : K_1.00_Al_1.00_Si_3.00_O_8_ darker phase
Raman shift (cm-1)	intensity
196.558	0
199.451	5.66492
202.343	6.16699
205.236	7.24036
208.129	30.6
211.021	41.1296
213.914	39.3729
216.807	44.1679
219.699	43.8339
222.592	43.054
225.485	41.734
228.377	48.3707
231.27	51.4727
234.163	58.0507
237.056	64.5804
239.948	70.5177
242.841	89.2136
245.734	101.54
248.626	105.219
251.519	103.296
254.412	110.112
257.305	105.215
260.197	110.231
263.09	122.052
265.983	122.796
268.875	100.003
271.768	81.7832
274.661	70.2124
277.553	75.766
280.446	86.0592
283.339	92.3818
286.232	85.6273
289.124	55.8982
292.017	30.9935
294.91	20.0067
297.802	15.8254
300.695	3.75
303.588	9.41321
306.481	10.9471
309.373	7.31689
312.266	10.5925
315.159	18.6464
318.051	16.016
320.944	15.0098
323.837	30.0663
326.729	25.1078
329.622	31.0225
332.515	18.9189
335.408	23.6233
338.3	24.4557
341.193	17.4917
344.086	10.3999
346.978	14.9512
349.871	15.5249
352.764	13.12
355.656	8.37585
358.549	2.86023
361.442	4.46008
364.334	3.17029
367.227	7.67078
370.12	9.39551
373.012	12.1824
375.905	4.23352
378.798	7.15967
381.691	8.85767
384.583	1.17224
387.476	3.73462
390.369	17.5602
393.261	11.2577
396.154	11.2338
399.047	19.8498
401.94	12.4158
404.832	22.4311
407.725	21.1595
410.618	29.0375
413.51	31.671
416.403	20.632
419.296	0.90979
422.188	0.857422
425.081	2.73584
427.974	12.5842
430.866	24.6061
433.759	36.3742
436.652	45.1515
439.545	48.0446
442.437	63.082
445.33	94.2783
448.223	128.692
451.115	151.862
454.008	135.333
456.901	88.9813
459.793	70.1299
462.686	72.1499
465.579	88.0725
468.472	93.0439
471.364	112.643
474.257	106.86
477.15	82.4243
480.042	47.3723
482.935	24.2734
485.828	18.9351
488.721	7.7915
491.613	15.9097
494.506	38.1697
497.399	82.2136
500.291	118.757
503.184	171.694
506.077	262.48
508.969	351.269
511.862	389.068
514.755	298.549
517.648	162.684
520.54	97.3518
523.433	52.9919
526.326	43.2334
529.218	30.4241
532.111	16.167
535.004	11.1404
537.896	9.78882
540.789	10.0884
543.682	12.676
546.575	11.529
549.467	11.5903
552.36	13.416
555.253	12.1685
558.145	4.24561
561.038	11.6699
563.931	5.48608
566.823	0.052734
569.716	6.91528
572.609	7.43213
575.502	0.307129
578.394	2.86401
581.287	2.09424
584.18	10.5242
587.072	5.19043
589.965	0.953857
592.858	6.31079
595.75	1.51294
598.643	0.520264
601.536	3.64502
604.428	5.76367
607.321	14.7122
610.214	19.5022
613.107	19.3984
615.999	19.7044
618.892	26.5662
621.785	36.9688
624.677	47.2278
627.57	82.9844
630.463	124.215
633.356	184.115
636.248	234.009
639.141	255.196
642.034	233.826
644.926	188.439
647.819	184.338
650.712	163.222
653.604	139.145
656.497	124.303
659.39	114.368
662.283	142.642
665.175	165.464
668.068	205.229
670.961	270.896
673.853	320.141
676.746	325.326
679.639	276.866
682.531	199.821
685.424	129.202
688.317	92.5063
691.21	69.4265
694.102	43.2222
696.995	38.8049
699.888	31.1387
702.78	21.1895
705.673	11.9678
708.566	1.30469
711.458	6.42749
714.351	2.06372
717.244	2.86768
720.136	9.0564
723.029	0.174561
725.922	3.6394
728.815	18.2554
731.707	16.0225
734.6	31.5671
737.493	30.1477
740.385	45.8572
743.278	71.0596
746.171	85.1565
749.063	68.7568
751.956	50.637
754.849	42.147
757.742	30.3818
760.634	18.3875
763.527	24.9785
766.42	20.6521
769.312	28.3157
772.205	21.0879
775.098	21.4519
777.99	7.49805
780.883	23.4541
783.776	11.0124
786.669	11.5176
789.561	1.12671
792.454	11.4404
795.347	17.3435
798.239	12.9163
801.132	18.365
804.025	25.2097
806.918	49.1003
809.81	81.887
812.703	81.0447
815.596	70.5144
818.488	45.1677
821.381	25.519
824.274	18.9627
827.166	8.99902
830.059	7.39478
832.952	8.11426
835.845	5.74707
838.737	4.36231
841.63	6.39307
844.523	3.65894
847.415	8.04614
850.308	2.91626
853.201	2.625
856.093	5.02881
858.986	14.6374
861.879	17.3865
864.771	16.2422
867.664	2.67407
870.557	4.55542
873.45	14.3181
876.342	7.90405
879.235	4.41724
882.128	4.18628
885.02	2.95459
887.913	16.6135
890.806	0.082275
893.698	7.09936
896.591	7.29565
899.484	6.37524
902.377	9.42651
905.269	11.7685
908.162	15.1692
911.055	9.90381
913.947	14.9707
916.84	15.8452
919.733	7.58936
922.625	1.65991
925.518	5.47461
928.411	20.1509
931.304	10.9255
934.196	4.09497
937.089	11.5745
939.982	15.5373
942.875	31.927
945.767	42.1914
948.66	39.9736
951.553	56.5835
954.445	83.8572
957.338	77.4824
960.231	57.8301
963.123	43.9102
966.016	36.4324
968.909	29.5173
971.802	9.84375
974.694	5.29907
977.587	9.69067
980.48	18.3452
983.372	15.5842
986.265	13.2063
989.158	18.8701
992.05	28.0862
994.943	26.7568
997.836	15.8752
1000.73	17.144
1003.62	3.95483
1006.51	3.93384
1009.41	4.67725
1012.3	0.952148
1015.19	5.56641
1018.09	10.1377
1020.98	10.6841
1023.87	21.5957
1026.76	10.6519
1029.66	18.2202
1032.55	10.6797
1035.44	36.2783
1038.33	33.5488
1041.23	33.8301
1044.12	31.4336
1047.01	36.0532
1049.9	44.5459
1052.8	58.898
1055.69	53.6977
1058.58	48.7378
1061.47	34.5102
1064.37	37.7075
1067.26	29.8574
1070.15	16.2388
1073.05	15.8672
1075.94	5.31445
1078.83	4.77246
1081.72	6.52832
1084.62	13.8984
1087.51	4.05225
1090.4	7.13916
1093.3	4.60644
1096.19	10.6953
1099.08	26.4595
1101.97	28.5122
1104.87	25.9214
1107.76	30.0664
1110.65	35.6333
1113.54	38.8882
1116.44	42.8496
1119.33	45.3633
1122.22	46.7022
1125.12	52.1377
1128.01	75.3765
1130.9	92.7207
1133.79	104.755
1136.68	122.987
1139.58	155.16
1142.47	163.688
1145.36	131.128
1148.26	76.3535
1151.15	35.8398
1154.04	18.5727
1156.93	14.2808
1159.83	3.92822
1162.72	19.2178
1165.61	13.8188
1168.51	3.45606
1171.4	2.57129
1174.29	6.06396
1177.18	20.0615
1180.08	9.29297
1182.97	16.998
1185.86	24.7998
1188.75	27.4106
1191.65	11.169
1194.54	13.1641
1197.43	12.3975
1200.33	24.0718
1203.22	11.831
1206.11	27.5591
1209	40.1572
1211.9	30.4365
1214.79	30.1323
1217.68	21.6631
1220.57	9.88867
1223.47	16.8472
1226.36	29.2852
1229.25	19.9468
1232.14	2.1958
1235.04	6.79736
1237.93	5.41748
1240.82	6.62158
1243.71	9.7876
1246.61	11.6724
1249.5	13.3716
1252.39	23.0483
1255.29	4.67627
1258.18	22.7617
1261.07	22.311
1263.96	31.0815
1266.86	8.70703
1269.75	21.1792
1272.64	18.7783
1275.54	21.023
1278.43	18.5625
1281.32	2.87598
1284.21	10.8579
1287.11	11.2769
1290	15.0972
1292.89	2.30518
1295.78	9.51514
1298.68	31.8667
1301.57	10.5566
