Measurement: Raman, 532 nm, unoriented, Raman Data Processed
Mineral: Chayesite
Rruff sample: R080059
Ideal chemistry: KMg_4_Fe^3+^[Si_12_O_30_]
Locality: Pauliberg by Landsee, Burgenland, Austria
Source: Michael Scott
Description: Deep blue interior of hexagonal tablets that are reddish brown on the outside
Measured chemistry: (K_0.70_Na_0.30_)_Σ=1_(Mg_2.10_Fe^2+^_1.86_Mn_0.04_)_Σ=4_(Fe^3+^_0.89_Al_0.11_)_Σ=1_Si_12.00_O_30_ ;  lighter core :  Fe^2+^ and Fe^3+^ split by charge balance
Raman shift (cm-1)	intensity
159.073	0
161.966	2.29837
164.859	0.119965
167.751	4.35471
170.644	5.1998
173.537	5.70563
176.43	1.17331
179.322	6.02921
182.215	1.90772
185.108	3.69931
188	6.06726
190.893	6.25833
193.786	11.5556
196.679	12.2983
199.571	16.9963
202.464	22.1484
205.357	23.8423
208.249	25.2829
211.142	34.711
214.035	35.0645
216.927	41.6717
219.82	49.5379
222.713	50.543
225.606	58.9015
228.498	63.3291
231.391	75.474
234.284	81.2684
237.176	88.1125
240.069	96.6951
242.962	102.059
245.854	103.389
248.747	102.32
251.64	99.8459
254.532	95.549
257.425	94.7578
260.318	92.3142
263.211	91.2454
266.103	89.0122
268.996	85.0394
271.889	80.1223
274.781	75.5462
277.674	62.4902
280.567	45.1432
283.459	35.1384
286.352	17.2116
289.245	11.7195
292.138	6.12161
295.03	2.99347
297.923	0.632385
300.816	2.72063
303.708	1.39517
306.601	0.0880594
309.494	0.334778
312.387	2.03213
315.279	3.21728
318.172	3.18771
321.065	8.843
323.957	7.75774
326.85	6.44478
329.743	6.52985
332.635	5.88437
335.528	5.3127
338.421	1.98274
341.313	4.23381
344.206	3.2896
347.099	2.29483
349.991	0.318909
352.884	3.99275
355.777	3.05664
358.67	2.82892
361.562	6.11172
364.455	7.58099
367.348	12.07
370.24	20.5851
373.133	27.6854
376.026	31.8268
378.918	29.9474
381.811	25.1799
384.704	16.1277
387.597	11.6514
390.489	5.17651
393.382	3.11266
396.275	1.52321
399.167	0.570221
402.06	2.29333
404.953	1.65102
407.846	4.72148
410.738	4.24162
413.631	0.963425
416.524	4.11027
419.416	4.27196
422.309	3.47354
425.202	1.51018
428.094	0.874924
430.987	1.53101
433.88	4.04807
436.773	4.32143
439.665	5.45644
442.558	10.5332
445.451	19.7567
448.343	32.526
451.236	48.3432
454.129	57.4052
457.021	72.972
459.914	86.7553
462.807	106.282
465.7	101.241
468.592	78.3177
471.485	45.8659
474.378	26.2785
477.27	13.498
480.163	3.80165
483.056	1.51266
485.948	0.041229
488.841	0.854462
491.734	1.73839
494.627	4.17165
497.519	4.1416
500.412	8.86244
503.305	11.0614
506.197	13.6324
509.09	16.9088
511.983	21.3549
514.875	24.7794
517.768	28.9534
520.661	33.2412
523.553	37.2353
526.446	39.0493
529.339	40.495
532.232	43.5997
535.124	43.8466
538.017	43.6779
540.91	42.3229
543.802	38.5845
546.695	35.5131
549.588	25.403
552.481	23.2113
555.373	17.1336
558.266	12.6811
561.159	7.85585
564.051	4.20734
566.944	3.93443
569.837	0.447906
572.729	1.63869
575.622	0.893326
578.515	0.88533
581.408	0.607162
584.3	2.55869
587.193	2.40774
590.086	3.55287
592.978	3.82843
595.871	2.37997
598.764	4.81201
601.656	2.72359
604.549	1.01048
607.442	1.44217
610.335	0.697296
613.227	1.52424
616.12	0.115433
619.013	0.440338
621.905	0.222748
624.798	0.616745
627.691	3.71518
630.583	3.65718
633.476	5.61717
636.369	7.18684
639.261	7.8597
642.154	7.71669
645.047	9.45192
647.94	8.24142
650.832	6.81895
653.725	6.88076
656.618	5.54197
659.51	6.02437
662.403	5.52535
665.296	4.90854
668.188	3.59344
671.081	1.56032
673.974	2.597
676.867	2.10588
679.759	3.00468
682.652	2.57132
685.545	1.12441
688.437	0.665634
691.33	1.23885
694.223	3.10378
697.115	0.636017
700.008	0.388535
702.901	0.062286
705.794	0.779037
708.686	0.768906
711.579	0.184296
714.472	0.266113
717.364	1.36465
720.257	0.876343
723.15	1.10986
726.043	0.173248
728.935	2.1824
731.828	1.517
734.721	1.61212
737.613	2.53343
740.506	2.67978
743.399	3.0877
746.291	3.62787
749.184	4.22208
752.077	4.5739
754.97	4.43995
757.862	4.22632
760.755	3.71744
763.648	3.15271
766.54	4.37781
769.433	4.60712
772.326	2.85411
775.218	3.18341
778.111	1.97043
781.004	1.95329
783.896	2.31712
786.789	1.32069
789.682	1.22382
792.574	1.86714
795.467	0.576401
798.36	0.73027
801.253	2.18814
804.145	1.11299
807.038	0.983322
809.931	2.8466
812.823	3.41489
815.716	1.55872
818.609	3.21567
821.501	1.56053
824.394	4.12974
827.287	3.3705
830.18	2.9276
833.072	4.07848
835.965	3.51749
838.858	2.67036
841.75	2.89893
844.643	3.52467
847.536	0.743622
850.428	1.30827
853.321	3.68497
856.214	1.29748
859.107	1.94847
861.999	2.2329
864.892	1.97846
867.785	0.207535
870.677	1.41699
873.57	1.08154
876.463	0.950851
879.356	1.28886
882.248	0.534729
885.141	1.45367
888.034	1.01222
890.926	2.03764
893.819	2.35149
896.712	2.85138
899.604	6.00403
902.497	6.27113
905.39	8.75981
908.283	5.96518
911.175	7.70479
914.068	11.1107
916.961	10.2751
919.853	9.38785
922.746	11.5278
925.639	10.6078
928.531	12.0625
931.424	13.4043
934.317	9.14677
937.21	11.4694
940.102	11.6306
942.995	11.0609
945.888	10.7139
948.78	10.2115
951.673	11.149
954.566	11.331
957.458	10.7246
960.351	11.0399
963.244	11.8476
966.136	8.3373
969.029	7.50702
971.922	9.25247
974.815	8.3531
977.707	6.08157
980.6	5.28853
983.493	6.25484
986.385	4.04777
989.278	4.42992
992.171	5.39812
995.063	2.08281
997.956	3.67801
1000.85	2.42383
1003.74	3.65999
1006.63	2.47835
1009.53	4.69034
1012.42	4.40176
1015.31	4.18861
1018.21	4.15004
1021.1	4.47891
1023.99	3.2334
1026.88	3.03247
1029.78	2.06337
1032.67	4.16576
1035.56	2.83858
1038.45	1.03662
1041.35	2.03543
1044.24	1.29442
1047.13	2.50801
1050.03	0.884521
1052.92	0.591415
1055.81	0.960724
1058.7	0.077957
1061.6	0.055496
1064.49	1.31091
1067.38	0.6194
1070.27	0.346603
1073.17	2.15962
1076.06	0.790272
1078.95	1.91638
1081.84	2.27692
1084.74	4.41364
1087.63	4.4283
1090.52	6.36403
1093.41	8.68332
1096.31	11.0378
1099.2	11.4531
1102.09	12.5304
1104.99	12.6843
1107.88	12.6264
1110.77	11.9497
1113.66	10.7602
1116.56	8.78757
1119.45	7.85043
1122.34	5.65227
1125.23	5.89554
1128.13	5.46043
1131.02	4.42392
1133.91	6.77856
1136.81	6.22806
1139.7	5.53338
1142.59	5.09051
1145.48	5.53983
1148.38	4.65321
1151.27	2.54074
1154.16	3.60739
1157.06	1.58279
1159.95	3.44871
1162.84	2.60785
1165.73	3.0755
1168.62	3.55687
1171.52	2.90697
1174.41	0.715622
1177.3	1.50304
1180.2	2.36649
1183.09	1.47678
1185.98	0.577667
1188.87	0.049881
1191.77	0.082031
1194.66	2.09012
1197.55	0.866486
1200.44	0.681091
1203.34	0.281372
1206.23	1.76372
1209.12	1.99138
1212.02	0.163696
1214.91	0.026611
1217.8	3.23994
1220.69	0.413513
1223.59	2.15277
1226.48	0.453384
1229.37	1.83556
1232.27	0.25071
1235.16	0.287788
1238.05	0.66626
1240.94	1.49011
1243.84	1.93305
1246.73	0.197205
1249.62	3.45378
1252.51	1.78702
1255.41	1.39298
1258.3	4.46349
1261.19	2.08746
1264.09	4.67658
1266.98	2.02379
1269.87	1.09924
1272.76	1.61108
1275.65	1.29478
1278.55	3.05485
1281.44	1.62231
1284.33	3.40535
1287.23	2.31898
1290.12	2.0658
1293.01	2.61916
1295.9	0.948364
1298.8	1.9086
1301.69	1.80249
1304.58	0.007729
