Measurement: Raman, 532 nm, unoriented, Raman Data Processed
Mineral: Chestermanite
Rruff sample: R070351
Ideal chemistry: Mg_2_(Fe^3+^,Mg,Al,Sb^5+^)O_2_BO_3_
Locality: Twin Lakes region, Kaiser Peak quadrangle, Fresno County, California, USA
Source: Michael Scott
Description: Black bladed associated with calcite, co-type sample
Raman shift (cm-1)	intensity
153.519	0
156.894	76.7519
160.268	279.744
163.643	443.525
167.018	532.629
170.393	550.472
173.768	536.012
177.143	557.193
180.517	523.737
183.892	566.928
187.267	688.854
190.642	784.378
194.017	774.582
197.391	704.596
200.766	629.367
204.141	504.783
207.516	457.244
210.891	405.769
214.266	289.146
217.64	327.885
221.015	332.644
224.39	370.91
227.765	374.685
231.14	344.296
234.514	286.031
237.889	185.264
241.264	123.237
244.639	28.2947
248.014	0.869385
251.388	10.7236
254.763	13.2493
258.138	26.0064
261.513	15.4971
264.888	12.8694
268.263	22.8884
271.637	55.831
275.012	45.3066
278.387	37.5576
281.762	37.5271
285.137	67.2092
288.512	75.5564
291.886	11.3831
295.261	30.5513
298.636	30.1194
302.011	58.3555
305.386	37.4026
308.76	91.4243
312.135	92.5845
315.51	120.492
318.885	63.5356
322.26	33.0933
325.635	69.6987
329.009	21.1162
332.384	83.8706
335.759	132.443
339.134	166.811
342.509	211.681
345.883	303.115
349.258	373.128
352.633	401.874
356.008	418.661
359.383	411.297
362.757	329.867
366.132	266.459
369.507	233.25
372.882	240.602
376.257	204.37
379.632	165.689
383.006	185.507
386.381	192.591
389.756	125.271
393.131	57.7744
396.506	24.3291
399.88	11.6704
403.255	42.0493
406.63	97.0688
410.005	171.035
413.38	241.433
416.755	251.273
420.129	214.556
423.504	133.987
426.879	147.939
430.254	117.83
433.629	100.78
437.003	51.106
440.378	45.9409
443.753	55.0142
447.128	103.86
450.503	96.1372
453.878	84.4487
457.252	110.644
460.627	137.299
464.002	140.46
467.377	212.59
470.752	169.287
474.127	204.976
477.501	141.607
480.876	145.05
484.251	59.3042
487.626	51.3867
491.001	34.8364
494.375	7.19043
497.75	18.3921
501.125	14.8735
504.5	12.583
507.875	55.9853
511.25	70.2241
514.624	120.255
517.999	181.875
521.374	279.7
524.749	304.953
528.124	341.125
531.498	265.566
534.873	252.395
538.248	162.471
541.623	106.204
544.998	119.561
548.372	43.0059
551.747	1.21143
555.122	26.0269
558.497	7.79785
561.872	5.88721
565.247	6.32373
568.621	11.1133
571.996	8.04883
575.371	39.7305
578.746	2.04102
582.121	39.2251
585.495	69.188
588.87	17.5474
592.245	50.271
595.62	63.5327
598.995	37.2124
602.37	81.9502
605.744	51.8813
609.119	85.3311
612.494	59.4458
615.869	8.3794
619.244	14.5908
622.619	120.104
625.993	157.649
629.368	111.905
632.743	232.807
636.118	238.954
639.493	310.933
642.867	315.326
646.242	402.399
649.617	508.558
652.992	581.388
656.367	715.563
659.741	756.635
663.116	903.392
666.491	1050.55
669.866	1096.75
673.241	1055.49
676.616	984.487
679.99	860.406
683.365	749.595
686.74	521.643
690.115	385.175
693.49	281.744
696.865	160.304
700.239	56.0957
703.614	65.688
706.989	91.0303
710.364	11.7817
713.739	16.6689
717.113	14.3794
720.488	66.665
723.863	15.1416
727.238	34.0571
730.613	2.48535
733.987	17.9995
737.362	13.2808
740.737	26.2363
744.112	94.5259
747.487	55.7144
750.862	53.6289
754.236	64.083
757.611	33.5933
760.986	122.589
764.361	85.7666
767.736	48.9092
771.111	131.024
774.485	105.923
777.86	66.5435
781.235	58.7563
784.61	69.395
787.985	55.9341
791.359	92.4102
794.734	48.416
798.109	38.8745
801.484	15.561
804.859	44.1997
808.234	54.9624
811.608	21.627
814.983	7.12451
818.358	8.15185
821.733	60.1333
825.108	37.2114
828.482	40.8037
831.857	38.958
835.232	55.0523
838.607	54.8633
841.982	41.6211
845.356	10.6489
848.731	33.7607
852.106	47.0835
855.481	41.5669
858.856	23.9121
862.231	42.7573
865.605	13.8843
868.98	64.7134
872.355	18.2378
875.73	11.9868
879.105	70.3731
882.48	20.7085
885.854	48.7539
889.229	69.8843
892.604	66.0908
895.979	9.33301
899.354	42.2114
902.729	55.0986
906.103	14.0845
909.478	46.7398
912.853	76.9883
916.228	36.2749
919.602	0.453613
922.977	15.4663
926.352	12.5352
929.727	77.0688
933.102	43.5
936.477	58.8018
939.851	95.1611
943.226	122.589
946.601	187.207
949.976	277.689
953.351	271.55
956.726	235.878
960.1	109.683
963.475	107.092
966.85	42.8301
970.225	28.1025
973.6	76.2637
976.974	68.4258
980.349	20.2417
983.724	11.3457
987.099	76.3149
990.474	12.6533
993.848	18.458
997.223	34.7056
1000.6	17.7715
1003.97	20.2935
1007.35	5.60449
1010.72	18.2549
1014.1	46.3159
1017.47	36.0503
1020.85	8.12402
1024.22	5.26562
1027.6	28.1133
1030.97	24.6104
1034.35	15.2178
1037.72	38.5752
1041.1	33.873
1044.47	62.4185
1047.85	71.3276
1051.22	100.007
1054.6	114.511
1057.97	79.103
1061.35	87.2437
1064.72	94.1309
1068.09	47.8252
1071.47	16.3271
1074.84	44.8989
1078.22	58.8745
1081.59	43.5322
1084.97	61.6826
1088.34	48.4668
1091.72	40.2148
1095.09	16.4273
1098.47	71.6113
1101.84	72.0444
1105.22	82.5669
1108.59	112.586
1111.97	67.5073
1115.34	62.6509
1118.72	44.6572
1122.09	50.2866
1125.47	52.1265
1128.84	57.5889
1132.22	56.7944
1135.59	38.0244
1138.97	2.83789
1142.34	16.0806
1145.71	64.1475
1149.09	44.3765
1152.46	48.294
1155.84	44.6802
1159.21	17.645
1162.59	26.7031
1165.96	5.59766
1169.34	26.2944
1172.71	61.0762
1176.09	147.276
1179.46	58.311
1182.84	101.695
1186.21	92.8027
1189.59	97.9351
1192.96	177.375
1196.34	99.0815
1199.71	92.0869
1203.09	162.156
1206.46	142.546
1209.84	146.867
1213.21	111.924
1216.59	145
1219.96	166.046
1223.34	154.134
1226.71	150.934
1230.09	147.814
1233.46	181.245
1236.84	134.597
1240.21	155.968
1243.59	100.18
1246.96	49.0185
1250.34	104.722
1253.71	85.8584
1257.08	80.165
1260.46	65.9844
1263.83	7.41406
1267.21	23.9248
1270.58	55.4761
1273.96	81.5049
1277.33	33.2417
1280.71	28.8096
1284.08	73.5273
1287.46	24.0039
1290.83	75.6064
1294.21	22.0547
1297.58	73.0913
1300.96	84.6235
1304.33	59.6001
1307.71	35.4355
1311.08	66.5898
1314.46	0
