Measurement: Raman, 532 nm, unoriented, Raman Data Processed
Mineral: Chevkinite-(Ce)
Rruff sample: R060282
Ideal chemistry: Ce^3+^_4_(Ti^4+^,Fe^2+^,Fe^3+^)_5_O_8_(Si_2_O_7_)_2_
Locality: Arondu, Basha Valley, Baltistan, Pakistan
Source: Herb Obodda
Description: Black fragment
Measured chemistry: (Ce_2.04_La_0.79_Nd_0.75_Ca_0.42_)_Σ=4_(Ti_2.79_Fe^2+^_1.83_Fe^3+^_0.14_Mg_0.11_Th_0.05_Nb^5+^_0.05_Al_0.03_)_Σ=5_O_8_(Si_2.00_O_7_)_2_ ; lighter phase
Raman shift (cm-1)	intensity
172.452	0
175.345	5.78706
178.237	6.42679
181.13	1.69267
184.023	2.02005
186.916	0.083435
189.808	10.4859
192.701	1.75639
195.594	8.69191
198.486	7.72494
201.379	11.1531
204.272	1.94119
207.164	1.44916
210.057	9.07115
212.95	4.28787
215.843	5.99356
218.735	10.0621
221.628	3.40698
224.521	4.32834
227.413	4.60315
230.306	6.58969
233.199	0.708908
236.091	9.90689
238.984	3.69013
241.877	7.0923
244.769	1.89937
247.662	5.22479
250.555	11.6055
253.448	8.43472
256.34	9.05367
259.233	12.3259
262.126	11.152
265.018	11.0911
267.911	17.2319
270.804	20.1581
273.697	12.4291
276.589	16.481
279.482	19.0999
282.375	15.5642
285.267	16.1961
288.16	16.9719
291.053	19.1379
293.945	15.9832
296.838	15.0563
299.731	14.9294
302.623	13.0046
305.516	6.29843
308.409	11.7328
311.302	2.90755
314.194	2.99641
317.087	0.951141
319.98	1.2897
322.872	4.086
325.765	0.01564
328.658	3.03868
331.55	5.53238
334.443	3.61238
337.336	1.72684
340.229	5.11331
343.121	0.27182
346.014	6.81224
348.907	0.240723
351.799	3.96039
354.692	1.90555
357.585	3.01807
360.478	16.0498
363.37	9.61006
366.263	7.24281
369.156	11.6815
372.048	12.0771
374.941	14.0954
377.834	17.9151
380.726	16.4716
383.619	21.2585
386.512	20.4392
389.404	24.2359
392.297	34.3205
395.19	28.7336
398.083	40.1054
400.975	45.1597
403.868	50.657
406.761	52.5248
409.653	56.3522
412.546	63.867
415.439	67.9595
418.332	78.3412
421.224	72.7681
424.117	88.2922
427.01	90.6584
429.902	94.1724
432.795	100.405
435.688	93.7107
438.58	97.2725
441.473	88.6957
444.366	93.2006
447.259	68.4185
450.151	58.6979
453.044	59.5799
455.937	44.9521
458.829	39.0746
461.722	30.9181
464.615	22.6262
467.507	5.74371
470.4	12.1369
473.293	10.9744
476.185	3.29951
479.078	1.97169
481.971	1.96478
484.864	1.05252
487.756	0.948318
490.649	3.86739
493.542	2.11526
496.434	2.88672
499.327	0.669495
502.22	6.22543
505.113	5.32117
508.005	5.18205
510.898	11.5704
513.791	15.4972
516.683	21.3586
519.576	23.1573
522.469	18.4023
525.361	33.4167
528.254	35.5401
531.147	34.6118
534.04	37.3396
536.932	41.599
539.825	37.9701
542.718	31.9848
545.61	31.5491
548.503	24.7876
551.396	22.4052
554.288	26.3191
557.181	14.1155
560.074	9.28047
562.967	9.1678
565.859	3.89618
568.752	0.004562
571.645	6.50967
574.537	2.71874
577.43	4.58159
580.323	0.116028
583.216	3.05673
586.108	4.22321
589.001	5.50301
591.894	3.27348
594.786	2.72531
597.679	12.4266
600.572	14.7296
603.464	13.3689
606.357	18.184
609.25	24.2774
612.142	28.1971
615.035	37.8677
617.928	42.6802
620.821	53.3597
623.713	61.451
626.606	63.151
629.499	69.8995
632.391	79.9364
635.284	76.8931
638.177	80.7738
641.069	74.3197
643.962	78.4305
646.855	76.9997
649.747	77.1946
652.64	78.3004
655.533	79.8306
658.426	77.9114
661.318	74.5443
664.211	75.6389
667.104	67.2804
669.996	70.5234
672.889	68.8087
675.782	73.2349
678.674	65.4713
681.567	63.2636
684.46	55.2064
687.353	55.5969
690.245	52.1934
693.138	39.7884
696.031	41.6286
698.923	33.0578
701.816	29.366
704.709	28.9501
707.601	18.4947
710.494	26.4032
713.387	19.0436
716.28	21.9815
719.172	19.4628
722.065	18.1979
724.958	22.2853
727.85	23.3393
730.743	17.1244
733.636	25.2407
736.529	21.0199
739.421	20.3249
742.314	18.4442
745.207	14.1507
748.099	18.289
750.992	10.9823
753.885	7.92812
756.777	6.64963
759.67	3.72714
762.563	0.257843
765.456	1.55203
768.348	0.870316
771.241	0.448654
774.134	0.677643
777.026	1.8064
779.919	5.14302
782.812	2.02383
785.704	1.68892
788.597	0.486244
791.49	0.110611
794.383	0.852699
797.275	0.401253
800.168	2.72935
803.061	5.79592
805.953	4.60798
808.846	5.70311
811.739	3.80269
814.631	11.9356
817.524	4.35245
820.417	12.0577
823.309	12.9443
826.202	8.12146
829.095	9.77952
831.988	12.5907
834.88	13.9639
837.773	12.7853
840.666	12.2409
843.558	17.0652
846.451	10.9383
849.344	10.5008
852.236	7.08865
855.129	17.0744
858.022	9.01475
860.915	9.91939
863.807	13.3592
866.7	10.6088
869.593	6.18893
872.485	9.35767
875.378	9.1441
878.271	10.8202
881.163	6.94211
884.056	7.51658
886.949	7.47138
889.842	9.94549
892.734	8.23905
895.627	8.9453
898.52	9.69393
901.412	11.1002
904.305	11.5055
907.198	12.7502
910.091	8.46338
912.983	8.43267
915.876	5.6758
918.769	10.1342
921.661	7.77282
924.554	7.16529
927.447	7.5841
930.339	6.32719
933.232	8.96481
936.125	5.66503
939.018	6.41373
941.91	4.52962
944.803	5.96839
947.696	2.66104
950.588	6.00994
953.481	6.02744
956.374	9.064
959.266	0.751099
962.159	2.95859
965.052	2.26689
967.944	8.79924
970.837	1.28523
973.73	4.51378
976.623	1.34207
979.515	1.93272
982.408	6.63821
985.301	2.2833
988.193	9.4084
991.086	3.65766
993.979	4.06881
996.871	2.69971
999.764	1.23077
1002.66	1.90511
1005.55	2.81343
1008.44	6.84722
1011.34	8.52989
1014.23	2.33804
1017.12	3.87717
1020.01	2.45662
1022.91	2.44018
1025.8	0.236092
1028.69	0.585129
1031.58	5.7456
1034.48	6.82219
1037.37	7.39079
1040.26	1.92205
1043.15	1.21466
1046.05	7.58829
1048.94	6.96414
1051.83	7.85075
1054.73	4.82967
1057.62	3.2843
1060.51	7.33143
1063.4	8.00895
1066.3	6.1783
1069.19	8.3272
1072.08	5.23541
1074.97	5.74421
1077.87	5.83108
1080.76	5.62784
1083.65	5.16619
1086.55	8.34177
1089.44	3.20881
1092.33	8.27418
1095.22	5.7607
1098.12	4.42385
1101.01	9.42551
1103.9	6.62865
1106.79	5.49245
1109.69	10.6433
1112.58	5.66902
1115.47	12.4983
1118.37	6.55533
1121.26	5.74322
1124.15	2.95805
1127.04	8.25839
1129.94	8.1542
1132.83	4.47701
1135.72	1.05126
1138.61	5.32132
1141.51	2.87924
1144.4	5.35764
1147.29	0.99453
1150.18	7.98466
1153.08	5.79935
1155.97	4.43057
1158.86	1.07522
1161.76	9.22169
1164.65	5.27556
1167.54	4.8739
1170.43	4.31765
1173.33	5.87589
1176.22	3.29176
1179.11	3.49225
1182	3.48965
1184.9	1.79121
1187.79	6.97707
1190.68	2.78702
1193.58	2.4252
1196.47	4.9828
1199.36	4.37541
1202.25	2.47058
1205.15	5.98891
1208.04	3.44719
1210.93	2.31731
1213.82	9.71736
1216.72	4.67609
1219.61	0.307327
1222.5	0.714188
1225.39	4.40913
1228.29	3.32301
1231.18	1.95738
1234.07	9.20572
1236.97	8.48655
1239.86	9.16282
1242.75	5.37988
1245.64	1.36346
1248.54	3.88944
1251.43	3.63407
1254.32	6.32452
1257.21	9.25675
1260.11	4.16205
1263	8.31676
1265.89	14.4876
1268.79	0.443954
1271.68	5.78579
1274.57	4.47427
1277.46	12.8615
1280.36	4.64219
1283.25	6.32446
1286.14	7.39449
1289.03	5.86215
1291.93	4.86058
1294.82	3.96056
1297.71	5.62505
1300.61	0.730965
