Measurement: Raman, 532 nm, unoriented, Raman Data Processed
Mineral: Chevkinite-(Ce)
Rruff sample: R060419
Ideal chemistry: Ce^3+^_4_(Ti^4+^,Fe^2+^,Fe^3+^)_5_O_8_(Si_2_O_7_)_2_
Locality: Arondu, Basha Valley, Baltistan, Pakistan
Source: Herb Obodda
Description: Black resinous fragment
Measured chemistry: (Ce_1.89_La_0.88_Nd_0.63_Ca_0.47_Th_0.13_)_Σ=4_(Ti_2.80_Fe^2+^_1.46_Fe^3+^_0.74_)_Σ=5_O_8_(Si_2.00_O_7_)_2_
Raman shift (cm-1)	intensity
168.656	0
171.549	1.94415
174.441	2.31886
177.334	0.873266
180.227	2.67071
183.119	0.052221
186.012	1.41277
188.905	1.96884
191.798	1.08052
194.69	0.115631
197.583	1.33946
200.476	0.08106
203.369	1.10978
206.261	1.47494
209.154	0.161402
212.047	1.00098
214.939	0.36838
217.832	1.81774
220.725	0.197372
223.617	1.74469
226.51	0.018217
229.403	1.52061
232.296	1.56959
235.188	0.844851
238.081	0.294744
240.974	0.814899
243.866	0.527647
246.759	0.663452
249.652	1.09887
252.544	1.2733
255.437	1.05067
258.33	2.09208
261.223	2.42584
264.115	2.1027
267.008	3.55979
269.901	3.55987
272.793	3.16332
275.686	2.86027
278.579	2.93729
281.471	3.14256
284.364	4.61316
287.257	4.30578
290.15	4.52744
293.042	4.6802
295.935	4.90899
298.828	4.31989
301.72	3.10788
304.613	2.91261
307.506	2.00624
310.399	2.83481
313.291	1.59002
316.184	0.161783
319.077	0.671925
321.969	0.557293
324.862	0.338949
327.755	0.553446
330.647	0.702721
333.54	0.362005
336.433	0.912859
339.325	0.632126
342.218	0.569376
345.111	0.877111
348.004	1.37261
350.896	1.35648
353.789	0.086018
356.682	0.220324
359.574	0.920759
362.467	0.355639
365.36	0.668396
368.253	0.049541
371.145	0.173733
374.038	1.05091
376.931	0.519711
379.823	1.07166
382.716	1.65939
385.609	2.57908
388.502	2.73707
391.394	0.695198
394.287	3.67206
397.18	5.5523
400.072	5.34887
402.965	5.32123
405.858	6.75643
408.75	6.40958
411.643	8.78887
414.536	7.08001
417.428	8.31562
420.321	8.98357
423.214	8.60354
426.107	10.7747
428.999	10.2598
431.892	13.4637
434.785	12.1791
437.677	12.2292
440.57	12.5284
443.463	11.3647
446.356	11.3304
449.248	9.47017
452.141	7.81558
455.034	7.40958
457.926	5.33964
460.819	3.66033
463.712	3.92431
466.604	1.45982
469.497	1.26915
472.39	1.0703
475.283	0.461853
478.175	0.866026
481.068	0.25297
483.961	0.485317
486.853	0.758308
489.746	0.00131
492.639	0.67942
495.531	1.71596
498.424	1.01695
501.317	2.3324
504.21	1.86138
507.102	3.25446
509.995	4.64537
512.888	4.12806
515.78	5.97162
518.673	5.43704
521.566	5.15331
524.458	7.84415
527.351	7.94872
530.244	9.11062
533.137	10.2431
536.029	9.09175
538.922	9.18764
541.815	8.84755
544.707	9.01145
547.6	6.68287
550.493	7.03566
553.386	5.81377
556.278	5.84874
559.171	4.31155
562.064	3.02719
564.956	2.48406
567.849	0.844219
570.742	0.922863
573.635	0.052086
576.527	0.142792
579.42	0.656418
582.313	0.801189
585.205	0.365955
588.098	0.878357
590.991	0.875736
593.883	0.226856
596.776	0.437145
599.669	1.25252
602.562	2.90462
605.454	2.06747
608.347	3.4545
611.24	3.34463
614.132	4.62709
617.025	6.29185
619.918	9.0099
622.81	9.5283
625.703	11.7806
628.596	13.9204
631.489	13.8605
634.381	16.3313
637.274	16.5641
640.167	16.5007
643.059	17.1291
645.952	17.3497
648.845	19.0382
651.737	18.7051
654.63	17.909
657.523	17.7362
660.416	17.8372
663.308	18.3489
666.201	17.2946
669.094	18.0097
671.986	16.3633
674.879	16.4725
677.772	16.5074
680.664	17.5323
683.557	16.0455
686.45	16.0625
689.343	14.6115
692.235	12.8684
695.128	11.0115
698.021	9.52531
700.913	8.44496
703.806	8.66141
706.699	7.60399
709.592	6.62308
712.484	4.3781
715.377	4.96339
718.27	4.3641
721.162	3.67654
724.055	3.7202
726.948	3.24413
729.841	2.35578
732.733	3.13977
735.626	3.7359
738.519	1.9692
741.411	2.16124
744.304	3.01128
747.197	1.53431
750.089	0.910862
752.982	1.54611
755.875	0.875076
758.768	0.708841
761.66	1.7735
764.553	0.3661
767.446	0.532352
770.338	0.426605
773.231	0.236198
776.124	0.136387
779.016	0.067389
781.909	1.21958
784.802	0.718098
787.694	0.044556
790.587	1.01475
793.48	0.065159
796.373	0.106319
799.265	0.001703
802.158	0.065512
805.051	0.418806
807.943	1.15849
810.836	1.16918
813.729	1.37476
816.621	1.37402
819.514	1.51074
822.407	1.52218
825.3	2.40129
828.192	1.84516
831.085	2.489
833.978	1.67196
836.87	1.70636
839.763	1.44427
842.656	1.3565
845.549	2.66584
848.441	1.88067
851.334	2.09849
854.227	1.25226
857.119	1.23478
860.012	1.50998
862.905	0.960535
865.798	1.77256
868.69	0.841566
871.583	3.03626
874.476	1.06217
877.368	1.24405
880.261	0.730989
883.154	1.66674
886.046	1.17159
888.939	1.30729
891.832	1.27686
894.725	1.56064
897.617	1.86685
900.51	2.45879
903.403	2.4308
906.295	2.26192
909.188	2.06984
912.081	1.61299
914.973	1.62654
917.866	1.84959
920.759	1.12971
923.652	1.14848
926.544	1.24873
929.437	0.370148
932.33	0.762775
935.222	0.93013
938.115	1.13124
941.008	0.750904
943.9	0.767843
946.793	0.720957
949.686	0.646269
952.579	0.63719
955.471	0.011831
958.364	0.1061
961.257	0.614992
964.149	0.586647
967.042	0.106529
969.935	0.32827
972.827	0.383168
975.72	1.24247
978.613	0.853424
981.506	0.266297
984.398	0.407058
987.291	0.464148
990.184	1.42275
993.077	0.76481
995.969	0.455157
998.862	0.928308
1001.75	0.257164
1004.65	1.09096
1007.54	0.454426
1010.43	0.194652
1013.33	0.506636
1016.22	0.636951
1019.11	0.490257
1022	0.916175
1024.9	1.13863
1027.79	2.45214
1030.68	1.86705
1033.57	0.86302
1036.47	0.883867
1039.36	1.30449
1042.25	1.21507
1045.14	0.624373
1048.04	1.29845
1050.93	0.44585
1053.82	0.513497
1056.72	0.994529
1059.61	0.906073
1062.5	0.362865
1065.39	0.91007
1068.29	0.712059
1071.18	0.891478
1074.07	1.26091
1076.96	0.498049
1079.86	1.11589
1082.75	1.32972
1085.64	1.58791
1088.54	0.596002
1091.43	0.645572
1094.32	1.67404
1097.21	0.343996
1100.11	1.26327
1103	0.793896
1105.89	0.998706
1108.79	0.230394
1111.68	1.31459
1114.57	1.04487
1117.46	1.38269
1120.36	0.409554
1123.25	1.20351
1126.14	0.426977
1129.03	1.2641
1131.93	0.590687
1134.82	1.30069
1137.71	0.727896
1140.6	1.18284
1143.5	0.992586
1146.39	1.01835
1149.28	1.17039
1152.17	1.18784
1155.07	0.289786
1157.96	0.824714
1160.85	0.777297
1163.75	0.987129
1166.64	0.929044
1169.53	1.10547
1172.42	0.214393
1175.32	0.436898
1178.21	0.467784
1181.1	0.777189
1183.99	0.781713
1186.89	1.10453
1189.78	0.570308
1192.67	1.99203
1195.57	0.614839
1198.46	1.06127
1201.35	0.462522
1204.24	2.13146
1207.14	1.25724
1210.03	0.760653
1212.92	0.777361
1215.82	1.49131
1218.71	1.92612
1221.6	0.031987
1224.49	1.31847
1227.38	1.30811
1230.28	0.113804
1233.17	0.609151
1236.06	0.76606
1238.96	0.827594
1241.85	0.321778
1244.74	0.942719
1247.63	0.601717
1250.53	0.44276
1253.42	0.991163
1256.31	0.826811
1259.2	0.068513
1262.1	1.06572
1264.99	1.68123
1267.88	1.00464
1270.78	1.3835
1273.67	1.54335
1276.56	1.25402
1279.45	0.526262
1282.35	1.26662
1285.24	0.685397
1288.13	0.619603
1291.03	1.67925
1293.92	0.361727
1296.81	1.7896
1299.7	1.66628
1302.6	0
