Measurement: Raman, 780 nm, unoriented, Raman Data Processed
Mineral: Chevkinite-(Ce)
Rruff sample: R060282
Ideal chemistry: Ce^3+^_4_(Ti^4+^,Fe^2+^,Fe^3+^)_5_O_8_(Si_2_O_7_)_2_
Locality: Arondu, Basha Valley, Baltistan, Pakistan
Source: Herb Obodda
Description: Black fragment
Measured chemistry: (Ce_2.04_La_0.79_Nd_0.75_Ca_0.42_)_Σ=4_(Ti_2.79_Fe^2+^_1.83_Fe^3+^_0.14_Mg_0.11_Th_0.05_Nb^5+^_0.05_Al_0.03_)_Σ=5_O_8_(Si_2.00_O_7_)_2_ ; lighter phase
Raman shift (cm-1)	intensity
173.975	0
176.868	2.76267
179.761	8.91241
182.653	4.56628
185.546	6.06833
188.439	0.293701
191.331	5.25552
194.224	0.008392
197.117	6.75662
200.01	8.51276
202.902	5.83481
205.795	2.83624
208.688	2.24564
211.58	8.51569
214.473	8.89502
217.366	4.22
220.258	4.95746
223.151	0.734833
226.044	4.28653
228.936	1.56113
231.829	6.1651
234.722	0.055908
237.615	4.93811
240.507	5.37817
243.4	8.32971
246.293	5.66806
249.185	6.79691
252.078	10.9851
254.971	11.1661
257.863	7.40012
260.756	10.3896
263.649	14.3008
266.542	13.0368
269.434	16.298
272.327	15.3772
275.22	3.53085
278.112	14.0094
281.005	12.9543
283.898	7.02579
286.791	8.9689
289.683	5.6857
292.576	10.8933
295.469	3.98556
298.361	4.97858
301.254	4.2829
304.147	8.05463
307.039	9.03281
309.932	13.3479
312.825	1.85394
315.717	2.2421
318.61	4.32318
321.503	8.70825
324.396	4.54831
327.288	1.51593
330.181	6.09396
333.074	4.04208
335.966	0.476532
338.859	4.54401
341.752	5.26401
344.644	0.376495
347.537	1.92322
350.43	2.0957
353.323	9.87689
356.215	8.89355
359.108	0.456451
362.001	7.93524
364.893	14.6558
367.786	3.46075
370.679	11.9869
373.572	1.87952
376.464	10.9824
379.357	10.2155
382.25	2.06726
385.142	7.21283
388.035	6.88486
390.928	8.73895
393.82	6.61685
396.713	10.9865
399.606	14.5433
402.498	6.52005
405.391	14.561
408.284	16.9325
411.177	18.6443
414.069	13.4134
416.962	16.2615
419.855	17.3717
422.747	10.3912
425.64	12.3204
428.533	13.807
431.425	18.6574
434.318	16.8667
437.211	14.4729
440.104	13.5814
442.996	1.04337
445.889	9.87659
448.782	3.67673
451.674	5.45371
454.567	6.96268
457.46	6.34814
460.353	1.23758
463.245	8.29828
466.138	3.59384
469.031	7.31467
471.923	2.13889
474.816	5.71021
477.709	0.861267
480.601	3.3483
483.494	0.701538
486.387	6.65491
489.279	5.20462
492.172	13.1301
495.065	7.49466
497.958	15.9769
500.85	15.2013
503.743	19.0601
506.636	21.6011
509.528	28.7231
512.421	27.0363
515.314	32.517
518.207	29.8086
521.099	32.7753
523.992	32.2257
526.885	40.9437
529.777	35.8723
532.67	32.7741
535.563	38.5936
538.455	34.1052
541.348	33.2166
544.241	30.9138
547.134	21.1244
550.026	22.4325
552.919	28.0341
555.812	14.7599
558.704	14.2894
561.597	10.0624
564.49	8.16318
567.382	5.37891
570.275	0.661774
573.168	6.55325
576.061	2.54782
578.953	2.66333
581.846	1.40015
584.739	0.795624
587.631	5.34701
590.524	6.22794
593.417	2.40533
596.309	5.52982
599.202	1.51685
602.095	5.83069
604.987	3.70252
607.88	2.41861
610.773	4.41501
613.666	9.99066
616.558	8.56915
619.451	16.0041
622.344	12.9671
625.236	19.6395
628.129	16.2795
631.022	23.1316
633.915	14.8587
636.807	21.552
639.7	21.5419
642.593	27.5528
645.485	24.7557
648.378	19.7096
651.271	24.4924
654.163	19.0976
657.056	22.5996
659.949	17.7735
662.842	22.496
665.734	19.3489
668.627	18.5588
671.52	19.7677
674.412	20.5157
677.305	18.2059
680.198	17.2845
683.091	13.263
685.983	11.4282
688.876	9.42432
691.769	13.1729
694.661	14.364
697.554	13.2384
700.447	11.2161
703.339	6.7739
706.232	2.03253
709.125	5.42291
712.018	3.5267
714.91	2.05466
717.803	9.24872
720.696	2.88699
723.588	2.54385
726.481	5.31915
729.374	3.3732
732.266	1.05627
735.159	4.01169
738.052	2.44278
740.944	0.260803
743.837	5.90964
746.73	2.42197
749.623	5.72235
752.515	3.88348
755.408	1.25851
758.301	1.37756
761.193	2.91501
764.086	2.42465
766.979	2.71372
769.871	3.00906
772.764	1.92191
775.657	10.133
778.55	2.70905
781.442	2.10727
784.335	2.57678
787.228	0.932648
790.12	1.8927
793.013	2.05862
795.906	2.06619
798.798	4.74261
801.691	3.75088
804.584	5.88016
807.477	4.10663
810.369	10.4101
813.262	0.982727
816.155	6.89081
819.047	8.064
821.94	4.16077
824.833	3.647
827.726	7.73636
830.618	5.39563
833.511	4.34857
836.404	7.97955
839.296	10.1698
842.189	7.80435
845.082	12.7818
847.974	2.75653
850.867	7.98526
853.76	6.45148
856.653	4.06564
859.545	11.8717
862.438	11.219
865.331	5.44852
868.223	5.25571
871.116	12.9616
874.009	11.4537
876.901	2.84964
879.794	5.22977
882.687	7.98807
885.58	11.8392
888.472	3.84134
891.365	7.63986
894.258	9.20007
897.15	5.92828
900.043	11.847
902.936	4.76779
905.828	1.08267
908.721	2.36957
911.614	3.4838
914.506	2.93478
917.399	6.13815
920.292	4.10175
923.185	5.20709
926.077	5.95911
928.97	2.56845
931.863	5.33582
934.755	2.48468
937.648	3.83206
940.541	1.18042
943.433	6.98224
946.326	8.97317
949.219	5.78653
952.112	3.8428
955.004	0.611053
957.897	0.798065
960.79	5.75967
963.682	2.11533
966.575	7.25699
969.468	4.27258
972.361	0.963104
975.253	6.12436
978.146	7.565
981.039	6.25793
983.931	11.0386
986.824	2.80301
989.717	7.28021
992.609	9.95813
995.502	6.31607
998.395	8.75873
1001.29	4.29935
1004.18	4.80945
1007.07	6.17554
1009.97	9.69409
1012.86	5.53073
1015.75	5.31632
1018.64	1.40533
1021.54	7.81827
1024.43	10.4722
1027.32	9.5293
1030.21	5.13284
1033.11	0.725891
1036	10.3261
1038.89	10.9441
1041.79	11.837
1044.68	10.8336
1047.57	4.9505
1050.46	8.40543
1053.36	3.87448
1056.25	5.50494
1059.14	8.40082
1062.03	7.68976
1064.93	5.75797
1067.82	3.46466
1070.71	12.4848
1073.61	7.73505
1076.5	5.31384
1079.39	5.77936
1082.28	3.9704
1085.18	9.38519
1088.07	4.77249
1090.96	8.77039
1093.85	9.22476
1096.75	2.60971
1099.64	9.98886
1102.53	2.90433
1105.42	1.91394
1108.32	6.06958
1111.21	1.52518
1114.1	4.68896
1116.99	9.08057
1119.89	7.37305
1122.78	1.53549
1125.67	6.52869
1128.57	0.217102
1131.46	7.04425
1134.35	0.893555
1137.24	9.75229
1140.14	7.82556
1143.03	6.42087
1145.92	2.66199
1148.82	10.8243
1151.71	11.3334
1154.6	6.40381
1157.49	4.04788
1160.39	7.41042
1163.28	7.19308
1166.17	2.57306
1169.06	5.10344
1171.96	10.961
1174.85	4.7823
1177.74	2.32333
1180.63	9.90572
1183.53	3.50429
1186.42	7.01338
1189.31	6.30583
1192.21	8.88246
1195.1	5.23999
1197.99	3.19055
1200.88	4.30817
1203.78	4.01788
1206.67	0.429214
1209.56	7.48231
1212.45	0.724991
1215.35	2.46283
1218.24	8.7836
1221.13	10.5584
1224.03	6.69725
1226.92	7.60606
1229.81	0.32576
1232.7	1.96939
1235.6	2.13966
1238.49	3.76085
1241.38	11.6799
1244.27	3.99333
1247.17	8.02374
1250.06	4.93883
1252.95	1.74753
1255.85	5.92395
1258.74	5.47302
1261.63	10.2861
1264.52	1.09834
1267.42	6.39307
1270.31	6.21532
1273.2	9.30394
1276.09	1.75374
1278.99	1.967
1281.88	5.30423
1284.77	2.65977
