Measurement: Raman, 785 nm, unoriented, Raman Data Processed
Mineral: Chiavennite
Rruff sample: R070349
Ideal chemistry: CaMn^2+^(BeOH)_2_Si_5_O_13_2H_2_O
Locality: Tvedalen, Larvik, Vestfold, Norway
Source: Michael Scott
Description: Aggregate of pale yellow to orange thin spearhead-shaped blades associated with orthoclase and intimately with analcime
Measured chemistry: (Ca_0.91_Na_0.09_)_Σ=1_(Mn^2+^_0.80_Fe^2+^_0.20_)_Σ=1_((Be_0.94_Al_0.06_)_Σ=1_OH)_2_(Si_4.61_Al_0.39_)_Σ=5_(O_12.76_(OH)_0.24_)_Σ=13_·2H_2_O ; light phase: Be by charge balance; dark: (Na_0.99_Mn_0.01_)_Σ=1_(Si_1.99_Al_2.01_)_Σ=3_O_6_·H_2_O is an
Raman shift (cm-1)	intensity
164.892	0
167.785	17.2071
170.677	35.515
173.57	24.9198
176.463	11.6508
179.356	43.4727
182.248	46.9371
185.141	68.4447
188.034	47.8254
190.926	75.8345
193.819	87.0665
196.712	107.189
199.604	119.566
202.497	110.349
205.39	118.798
208.282	80.0352
211.175	67.9519
214.068	80.9733
216.961	85.5403
219.853	89.2826
222.746	84.3959
225.639	93.9342
228.531	114.776
231.424	113.344
234.317	140.851
237.209	143.185
240.102	184.305
242.995	141.852
245.888	149.339
248.78	142.75
251.673	146.065
254.566	104.136
257.458	134.161
260.351	130.794
263.244	111.719
266.137	37.364
269.029	36.0068
271.922	27.7529
274.815	9.5033
277.707	3.86951
280.6	0.19873
283.493	13.596
286.385	3.80408
289.278	6.85522
292.171	13.9292
295.063	2.45154
297.956	23.4741
300.849	9.04297
303.742	15.2953
306.634	26.3651
309.527	14.1671
312.42	31.8446
315.312	53.6713
318.205	29.8594
321.098	46.4335
323.99	46.0215
326.883	37.4349
329.776	78.9492
332.669	34.8145
335.561	29.6824
338.454	52.113
341.347	47.8528
344.239	13.5695
347.132	66.4801
350.025	81.1958
352.918	91.9811
355.81	64.9978
358.703	67.4829
361.596	72.9885
364.488	56.8449
367.381	69.6671
370.274	15.1189
373.166	12.7447
376.059	23.0467
378.952	11.6467
381.844	5.20886
384.737	21.1157
387.63	34.0299
390.523	12.6414
393.415	20.7925
396.308	53.7566
399.201	44.2563
402.093	41.1162
404.986	19.3206
407.879	0.134521
410.772	74.5107
413.664	49.9607
416.557	46.1399
419.45	68.8123
422.342	109.502
425.235	105.924
428.128	74.3398
431.02	122.665
433.913	94.0738
436.806	139.027
439.699	179.709
442.591	129.162
445.484	242.289
448.377	285.63
451.269	279.442
454.162	370.577
457.055	403.264
459.947	463.228
462.84	426.983
465.733	362.755
468.625	299.91
471.518	282.886
474.411	220.483
477.304	237.674
480.196	200.806
483.089	142.169
485.982	111.936
488.874	75.5543
491.767	60.5264
494.66	0.503052
497.553	30.1162
500.445	15.7046
503.338	9.74719
506.231	0.779663
509.123	49.4546
512.016	39.9486
514.909	50.0331
517.802	21.6611
520.694	6.64087
523.587	0.727539
526.48	23.9352
529.372	8.35986
532.265	12.1793
535.158	16.1384
538.05	39.9935
540.943	21.95
543.836	54.1696
546.729	76.2616
549.621	99.1779
552.514	112.034
555.407	122.149
558.299	119.356
561.192	129.532
564.085	107.005
566.977	90.4802
569.87	103.806
572.763	100.613
575.655	88.7598
578.548	63.3307
581.441	79.5564
584.333	61.2919
587.226	56.2113
590.119	17.9454
593.012	16.0034
595.904	26.465
598.797	16.348
601.69	20.8131
604.582	35.8966
607.475	5.21716
610.368	30.026
613.26	9.38818
616.153	41.0076
619.046	34.9142
621.939	6.50708
624.831	8.48352
627.724	24.4871
630.617	22.3845
633.509	36.0463
636.402	16.5727
639.295	2.22522
642.188	38.652
645.08	30.9591
647.973	11.0153
650.866	16.4253
653.758	47.9302
656.651	33.9628
659.544	55.6843
662.436	23.6551
665.329	54.8569
668.222	27.2026
671.115	59.6237
674.007	59.5659
676.9	23.0114
679.793	22.1698
682.685	47.2483
685.578	49.1514
688.471	31.5467
691.363	37.2466
694.256	43.9404
697.149	29.3849
700.042	33.5231
702.934	56.087
705.827	21.4962
708.72	37.246
711.612	34.3029
714.505	20.1716
717.398	33.1796
720.29	34.9383
723.183	2.89954
726.076	32.9634
728.968	5.96106
731.861	10.433
734.754	33.7229
737.647	27.6554
740.539	19.2162
743.432	6.56897
746.325	10.9559
749.217	25.1918
752.11	17.6943
755.003	17.7553
757.895	13.9725
760.788	27.6417
763.681	48.177
766.574	7.19861
769.466	44.7388
772.359	30.8607
775.252	32.3143
778.144	25.0592
781.037	19.6023
783.93	5.02918
786.822	20.8933
789.715	28.5245
792.608	17.2106
795.501	20.4021
798.393	39.3789
801.286	9.86548
804.179	40.0874
807.071	40.6103
809.964	53.2485
812.857	3.99829
815.75	39.0962
818.642	29.1649
821.535	54.7579
824.428	37.8145
827.32	21.2488
830.213	49.4399
833.106	4.32007
835.998	60.6965
838.891	9.78992
841.784	13.9397
844.677	23.7131
847.569	1.15466
850.462	68.2673
853.355	29.8219
856.247	10.2706
859.14	23.4819
862.033	29.4222
864.925	52.2428
867.818	20.6632
870.711	10.3915
873.604	29.9552
876.496	10.2413
879.389	13.8173
882.282	3.31042
885.174	19.1936
888.067	9.22156
890.96	42.441
893.852	4.77319
896.745	29.1134
899.638	43.4546
902.53	53.5043
905.423	14.0384
908.316	23.9722
911.209	36.3802
914.101	68.3374
916.994	34.4984
919.887	67.1384
922.779	48.7523
925.672	50.587
928.565	43.0681
931.457	13.0192
934.35	35.5593
937.243	29.2915
940.136	26.3419
943.028	51.5076
945.921	42.3914
948.814	24.7339
951.706	41.5127
954.599	61.27
957.492	56.3887
960.385	71.4164
963.277	44.2434
966.17	43.2741
969.063	59.4918
971.955	57.5011
974.848	78.1184
977.741	50.1155
980.633	51.4714
983.526	22.2991
986.419	51.098
989.312	31.7377
992.204	44.1582
995.097	50.7031
997.99	40.7313
1000.88	27.5082
1003.77	3.31934
1006.67	15.6985
1009.56	33.3754
1012.45	30.9078
1015.35	12.6792
1018.24	22.7494
1021.13	37.6515
1024.02	6.89563
1026.92	21.1699
1029.81	40.0793
1032.7	2.15076
1035.6	44.9855
1038.49	36.7814
1041.38	45.8068
1044.27	82.171
1047.17	49.0523
1050.06	39.5599
1052.95	87.0688
1055.84	84.5391
1058.74	75.2919
1061.63	51.1457
1064.52	45.275
1067.41	64.2539
1070.31	61.5866
1073.2	65.8652
1076.09	31.0613
1078.98	19.856
1081.88	33.4982
1084.77	29.2755
1087.66	17.148
1090.56	10.5159
1093.45	13.3815
1096.34	14.5233
1099.23	14.4149
1102.13	22.1588
1105.02	5.49194
1107.91	32.698
1110.81	33.6118
1113.7	1.56811
1116.59	16.8323
1119.48	23.6924
1122.38	17.0771
1125.27	0.08252
1128.16	13.4465
1131.05	45.9085
1133.95	41.0676
1136.84	22.9104
1139.73	38.9553
1142.62	49.6323
1145.52	89.311
1148.41	104.573
1151.3	102.966
1154.19	138.589
1157.09	155.244
1159.98	184.558
1162.87	193.314
1165.77	150.277
1168.66	136.994
1171.55	151.254
1174.44	125.201
1177.34	110.371
1180.23	82.8132
1183.12	100.186
1186.02	75.092
1188.91	51.8108
1191.8	50.3367
1194.69	60.9204
1197.59	47.8113
1200.48	18.1797
1203.37	13.3227
1206.26	31.4717
1209.16	6.11011
1212.05	37.7
1214.94	18.5547
1217.84	5.87402
1220.73	47.718
1223.62	52.386
