Measurement: Raman, 532 nm, unoriented, Raman Data Processed
Mineral: Chiavennite
Rruff sample: R070349
Ideal chemistry: CaMn^2+^(BeOH)_2_Si_5_O_13_2H_2_O
Locality: Tvedalen, Larvik, Vestfold, Norway
Source: Michael Scott
Description: Aggregate of pale yellow to orange thin spearhead-shaped blades associated with orthoclase and intimately with analcime
Measured chemistry: (Ca_0.91_Na_0.09_)_Σ=1_(Mn^2+^_0.80_Fe^2+^_0.20_)_Σ=1_((Be_0.94_Al_0.06_)_Σ=1_OH)_2_(Si_4.61_Al_0.39_)_Σ=5_(O_12.76_(OH)_0.24_)_Σ=13_·2H_2_O ; light phase: Be by charge balance; dark: (Na_0.99_Mn_0.01_)_Σ=1_(Si_1.99_Al_2.01_)_Σ=3_O_6_·H_2_O is an
Raman shift (cm-1)	intensity
170.393	0
173.286	0.198975
176.178	2.71728
179.071	14.8735
181.964	6.37402
184.856	18.175
187.749	41.552
190.642	91.1565
193.535	75.2686
196.427	134.994
199.32	136.399
202.213	144.163
205.105	172.776
207.998	137.733
210.891	140.4
213.783	119.269
216.676	170.237
219.569	133.216
222.462	195.914
225.354	180.228
228.247	287.932
231.14	321.74
234.032	373.519
236.925	378.012
239.818	378.428
242.71	377.275
245.603	370.571
248.496	358.416
251.388	356.707
254.281	318.852
257.174	337.261
260.067	304.262
262.959	218.123
265.852	178.526
268.745	110.778
271.637	73.4954
274.53	61.1523
277.423	34.2883
280.315	39.8127
283.208	4.60449
286.101	6.74585
288.994	31.6968
291.886	20.9285
294.779	23.5979
297.672	31.7539
300.564	24.3743
303.457	8.18042
306.35	14.4263
309.243	35.886
312.135	10.8125
315.028	15.6108
317.921	31.0794
320.813	8.93896
323.706	21.5608
326.599	21.3506
329.491	9.99902
332.384	5.16357
335.277	28.8227
338.17	7.23853
341.062	17.9143
343.955	3.9209
346.848	44.6284
349.74	44.7698
352.633	55.8142
355.526	57.866
358.418	56.3223
361.311	50.2024
364.204	32.2288
367.097	15.5322
369.989	60.9268
372.882	25.7498
375.775	11.9436
378.667	0.165771
381.56	18.8691
384.453	38.2
387.346	11.7979
390.238	48.6316
393.131	49.552
396.024	51.582
398.916	67.1453
401.809	65.5039
404.702	79.5366
407.594	68.6782
410.487	87.7661
413.38	102.383
416.272	131.143
419.165	142.275
422.058	200.162
424.951	256.635
427.843	258.489
430.736	287.717
433.629	280.177
436.521	308.381
439.414	312.898
442.307	422.576
445.2	482.124
448.092	567.061
450.985	702.551
453.878	783.292
456.77	872.637
459.663	915.59
462.556	865.717
465.448	774.172
468.341	668.532
471.234	583.953
474.127	577.267
477.019	504.695
479.912	467.727
482.805	441.27
485.697	316.924
488.59	233.595
491.483	171.571
494.375	87.4856
497.268	72.3362
500.161	88.2097
503.053	52.779
505.946	99.8415
508.839	36.9238
511.732	69.1916
514.624	55.1018
517.517	59.6282
520.41	46.3603
523.302	8.10523
526.195	36.3384
529.088	1.34961
531.981	14.9397
534.873	9.55029
537.766	9.44434
540.659	17.2788
543.551	81.9836
546.444	119.68
549.337	182.666
552.229	201.825
555.122	235.964
558.015	242.878
560.908	253.731
563.8	251.499
566.693	197.063
569.586	181.621
572.478	118.726
575.371	127.043
578.264	85.2898
581.156	63.8625
584.049	46.05
586.942	40.7647
589.835	1.85571
592.727	7.66528
595.62	10.8386
598.513	32.0312
601.405	45.3223
604.298	18.7114
607.191	33.5242
610.083	62.2246
612.976	119.777
615.869	74.2988
618.762	72.5776
621.654	101.273
624.547	33.7573
627.44	67.5986
630.332	82.8491
633.225	50.0901
636.118	71.5554
639.01	5.67529
641.903	29.7422
644.796	7.13892
647.689	62.835
650.581	56.7996
653.474	1.18823
656.367	18.7632
659.259	50.4145
662.152	107.745
665.045	44.9902
667.938	60.9348
670.83	103.435
673.723	47.7964
676.616	56.9697
679.508	88.2954
682.401	91.137
685.294	80.063
688.186	81.6047
691.079	49.9141
693.972	65.2173
696.865	41.6643
699.757	50.1201
702.65	80.2297
705.543	60.1719
708.435	48.1509
711.328	34.0386
714.221	16.3296
717.113	53.3291
720.006	9.12451
722.899	47.9605
725.792	40.2707
728.684	17.0505
731.577	32.1445
734.47	79.1799
737.362	37.8804
740.255	36.7007
743.148	36.7131
746.04	33.1416
748.933	37.752
751.826	1.85693
754.719	58.8843
757.611	57.0764
760.504	0.657227
763.397	3.54565
766.289	36.9355
769.182	0.375244
772.075	1.57324
774.967	14.4431
777.86	1.06567
780.753	32.6699
783.646	46.3062
786.538	19.9055
789.431	20.5334
792.324	0.349365
795.216	40.3171
798.109	59.9661
801.002	36.4072
803.894	63.5151
806.787	53.3355
809.68	78.0161
812.573	88.3423
815.465	73.9114
818.358	83.0864
821.251	74.1294
824.143	71.8633
827.036	79.9148
829.929	89.9512
832.822	91.4756
835.714	101.629
838.607	67.7407
841.5	74.2493
844.392	69.6565
847.285	50.907
850.178	50.553
853.07	31.1975
855.963	86.4954
858.856	57.5727
861.749	30.6389
864.641	24.4104
867.534	13.864
870.427	3.31836
873.319	6.1792
876.212	0.669922
879.105	2.86719
881.997	26.019
884.89	49.0654
887.783	12.208
890.676	58.6157
893.568	50.5757
896.461	65.0034
899.354	179.983
902.246	121.511
905.139	194.589
908.032	255.375
910.924	263.916
913.817	267.841
916.71	287.248
919.602	271.597
922.495	256.733
925.388	199.441
928.281	169.938
931.173	184.045
934.066	103.398
936.959	88.4204
939.851	102.158
942.744	108.637
945.637	105.028
948.529	131.427
951.422	100.788
954.315	78.2651
957.208	125.736
960.1	137.814
962.993	136.792
965.886	53.1016
968.778	78.3101
971.671	60.8643
974.564	2.72266
977.457	71.8584
980.349	27.0059
983.242	41.5005
986.135	66.3208
989.027	79.6113
991.92	47.5161
994.813	91.5835
997.705	74.1352
1000.6	49.1865
1003.49	0.109375
1006.38	0.415527
1009.28	11.2515
1012.17	7.67969
1015.06	30.54
1017.95	1.76416
1020.85	4.36719
1023.74	1.29492
1026.63	42.6138
1029.53	91.4092
1032.42	121.612
1035.31	103.368
1038.2	139.415
1041.1	137.901
1043.99	165.284
1046.88	192.241
1049.77	176.345
1052.67	246.024
1055.56	253.504
1058.45	202.881
1061.35	235.268
1064.24	179.811
1067.13	154.511
1070.02	123.604
1072.92	118.835
1075.81	104.425
1078.7	46.854
1081.59	54.3838
1084.49	3.37647
1087.38	33.8032
1090.27	18.1294
1093.16	29.2583
1096.06	36.4502
1098.95	73.417
1101.84	48.4522
1104.73	18.5938
1107.63	76.8652
1110.52	14.5278
1113.41	83.7803
1116.31	41.7915
1119.2	40.4849
1122.09	18.873
1124.98	46.5254
1127.88	31.915
1130.77	52.2207
1133.66	50.956
1136.56	21.8574
1139.45	32.4966
1142.34	35.4453
1145.23	17.4619
1148.13	5.03467
1151.02	20.5713
1153.91	6.83301
1156.8	82.6558
1159.7	69.355
1162.59	10.9219
1165.48	15.6973
1168.38	3.59961
1171.27	8.76904
1174.16	41.5649
1177.05	32.7905
1179.95	29.5938
1182.84	58.3701
1185.73	19.5811
1188.62	5.15674
1191.52	36.8066
1194.41	45.3804
1197.3	43.1553
1200.19	3.79883
1203.09	32.6465
1205.98	7.21191
1208.87	8.88184
1211.77	1.82031
1214.66	1.56055
1217.55	10.082
1220.44	20.3447
1223.34	81.2446
1226.23	7.75049
1229.12	52.0962
1232.01	32.5015
1234.91	51.1313
1237.8	66.6499
1240.69	1.77246
1243.59	50.3403
1246.48	62.374
1249.37	19.0444
1252.26	24.3833
1255.16	77.415
1258.05	78.5796
1260.94	79.9858
1263.83	37.248
1266.73	34.4224
1269.62	41.9004
1272.51	77.5825
1275.4	39.6143
1278.3	30.5225
1281.19	30.7183
1284.08	37.5034
1286.98	44.1514
1289.87	31.9678
1292.76	30.4316
1295.65	32.1602
1298.55	19.4683
1301.44	10.7129
