Measurement: Raman, 532 nm, unoriented, Raman Data Processed
Mineral: Chlorbartonite
Rruff sample: R070369
Ideal chemistry: K_6_Fe_24_S_26_Cl
Locality: Koashva Mt, Khibiny Massif, Kola Peninsula, Murmanskaja Oblast', Northern Region, Russia
Source: Michael Scott
Description: Black submetallic grains with conchoidal fracture, associated with dark-green aegirine and elongated reddish brown lamprophyllite.
Raman shift (cm-1)	intensity
163.161	0
166.054	24.8613
168.946	57.0994
171.839	61.5732
174.732	69.3339
177.625	51.915
180.517	31.8472
183.41	16.8285
186.303	28.407
189.195	19.3039
192.088	5.67633
194.981	17.2543
197.874	6.45075
200.766	17.7603
203.659	8.19446
206.552	2.51892
209.444	16.7246
212.337	17.6096
215.23	12.7614
218.122	6.22632
221.015	20.8455
223.908	42.2918
226.8	39.3287
229.693	83.6144
232.586	89.2533
235.479	138.071
238.371	165.537
241.264	244.696
244.157	291.674
247.049	394.252
249.942	487.428
252.835	578.122
255.727	686.555
258.62	776.098
261.513	799.187
264.406	757.307
267.298	634.203
270.191	498.039
273.084	390.599
275.976	307.716
278.869	244.694
281.762	202.85
284.655	246.587
287.547	234.981
290.44	252.816
293.333	282.249
296.225	348.966
299.118	376.562
302.011	427.497
304.904	501.12
307.796	568.525
310.689	619.53
313.582	619.572
316.474	544.691
319.367	460.417
322.26	324.774
325.152	246.786
328.045	175.081
330.938	167.53
333.83	150.393
336.723	133.102
339.616	126.86
342.509	93.8973
345.401	66.3958
348.294	52.2537
351.187	29.6905
354.079	30.6307
356.972	4.17932
359.865	26.4477
362.757	0.962341
365.65	5.37628
368.543	5.46332
371.436	22.0803
374.328	11.3176
377.221	5.15497
380.114	1.99936
383.006	24.5449
385.899	3.62738
388.792	18.7199
391.685	19.4767
394.577	5.33359
397.47	11.082
400.363	32.7448
403.255	43.2393
406.148	35.9064
409.041	27.6498
411.933	51.2492
414.826	19.3194
417.719	47.445
420.611	33.8096
423.504	26.3946
426.397	35.9248
429.29	31.971
432.182	27.3333
435.075	35.5134
437.968	47.2748
440.86	41.5317
443.753	13.4859
446.646	14.8634
449.538	17.1116
452.431	18.8016
455.324	15.5688
458.217	37.599
461.109	23.4857
464.002	24.7634
466.895	11.4921
469.787	15.7544
472.68	23.4295
475.573	28.2692
478.466	16.4764
481.358	24.9371
484.251	39.2196
487.144	26.7267
490.036	42.4934
492.929	30.8825
495.822	25.9432
498.714	44.9769
501.607	12.2519
504.5	0.996338
507.393	4.96256
510.285	22.1086
513.178	14.8553
516.071	20.8379
518.963	0.75766
521.856	13.9808
524.749	23.2364
527.641	34.5533
530.534	23.2706
533.427	25.6256
536.32	2.00983
539.212	16.1646
542.105	34.4336
544.998	31.2945
547.89	13.1304
550.783	25.3514
553.676	13.3062
556.568	14.1997
559.461	37.3158
562.354	23.7298
565.247	20.6716
568.139	1.8656
571.032	26.0882
573.925	11.0907
576.817	22.7577
579.71	23.4939
582.603	17.4975
585.495	11.0377
588.388	35.742
591.281	16.8154
594.174	1.83029
597.066	10.632
599.959	19.5211
602.852	15.6869
605.744	16.533
608.637	11.3255
611.53	20.754
614.423	36.9779
617.315	3.98102
620.208	24.1977
623.101	30.5666
625.993	44.1616
628.886	51.1502
631.779	23.3779
634.671	10.4093
637.564	22.6071
640.457	25.6654
643.35	0.111237
646.242	20.038
649.135	4.40686
652.028	17.3895
654.92	15.9274
657.813	6.02154
660.706	11.7587
663.598	13.8977
666.491	4.71136
669.384	28.6921
672.277	22.7806
675.169	23.6443
678.062	12.9506
680.955	24.7524
683.847	38.5435
686.74	28.3441
689.633	17.7086
692.525	33.5053
695.418	22.8716
698.311	6.99966
701.204	22.3785
704.096	9.86762
706.989	13.7617
709.882	6.7363
712.774	19.5054
715.667	0.641876
718.56	9.40122
721.452	29.4733
724.345	17.8818
727.238	55.7506
730.131	35.2748
733.023	23.3134
735.916	22.5388
738.809	32.3273
741.701	26.5893
744.594	28.8669
747.487	3.62976
750.38	15.7618
753.272	26.4133
756.165	9.94721
759.058	22.3561
761.95	13.249
764.843	22.6941
767.736	19.7334
770.628	16.184
773.521	23.9105
776.414	18.1764
779.307	9.1514
782.199	2.61603
785.092	18.6379
787.985	14.9803
790.877	40.0235
793.77	1.12628
796.663	22.851
799.555	25.0543
802.448	4.74496
805.341	26.7742
808.234	32.1586
811.126	23.2533
814.019	40.0139
816.912	2.26166
819.804	3.30167
822.697	32.3963
825.59	18.0618
828.482	17.1658
831.375	10.7043
834.268	24.4874
837.16	35.7333
840.053	4.34683
842.946	4.72501
845.839	18.9735
848.731	31.14
851.624	17.841
854.517	19.2698
857.409	15.8314
860.302	9.85819
863.195	37.6228
866.087	12.1238
868.98	16.6444
871.873	20.5672
874.766	21.0713
877.658	26.2711
880.551	11.6072
883.444	12.7592
886.337	22.8549
889.229	23.2198
892.122	5.42731
895.015	12.4158
897.907	6.85007
900.8	21.7928
903.693	20.4307
906.585	31.5884
909.478	27.2934
912.371	38.8046
915.264	43.589
918.156	25.6519
921.049	27.885
923.942	0.935974
926.834	8.85693
929.727	16.8449
932.62	45.1678
935.512	23.6855
938.405	14.3529
941.298	47.8185
944.191	16.1808
947.083	6.98712
949.976	31.0686
952.869	25.5926
955.761	9.26404
958.654	22.4537
961.547	40.7137
964.439	12.4803
967.332	0.747223
970.225	5.0441
973.117	13.5298
976.01	19.8352
978.903	3.65668
981.796	5.34796
984.688	10.7971
987.581	26.0623
990.474	27.8369
993.366	8.2309
996.259	7.58023
999.152	26.4965
1002.04	16.1468
1004.94	19.1428
1007.83	36.806
1010.72	2.96585
1013.62	26.9566
1016.51	20.8681
1019.4	2.26163
1022.29	29.5736
1025.19	22.1016
1028.08	29.5149
1030.97	28.6187
1033.86	31.4744
1036.76	23.4265
1039.65	30.1891
1042.54	9.91556
1045.43	26.937
1048.33	3.54529
1051.22	28.3942
1054.11	8.51413
1057.01	14.171
1059.9	1.82654
1062.79	12.9098
1065.68	10.2382
1068.58	21.5525
1071.47	2.26279
1074.36	40.7852
1077.26	30.3274
1080.15	27.6377
1083.04	32.3216
1085.93	14.7516
1088.83	3.03024
1091.72	21.9734
1094.61	29.0577
1097.5	17.3359
1100.4	38.5523
1103.29	22.2911
1106.18	6.2876
1109.07	18.1069
1111.97	14.3332
1114.86	36.5892
1117.75	12.8914
1120.64	12.5971
1123.54	44.9486
1126.43	3.7869
1129.32	15.3969
1132.22	7.37622
1135.11	32.4765
1138	1.77673
1140.89	31.2129
1143.79	16.1594
1146.68	4.02237
1149.57	23.9354
1152.46	22.0771
1155.36	20.622
1158.25	6.56236
1161.14	31.6389
1164.04	31.4332
1166.93	30.4839
1169.82	18.8247
1172.71	0.696411
1175.61	24.0228
1178.5	16.7564
1181.39	31.9989
1184.29	15.2116
1187.18	5.43016
1190.07	16.159
1192.96	11.4416
1195.86	43.6774
1198.75	30.9598
1201.64	17.3374
1204.53	32.2794
1207.43	25.9206
1210.32	23.4087
1213.21	11.785
1216.1	28.1779
1219	15.1224
1221.89	17.2447
1224.78	14.4268
1227.67	25.1367
1230.57	22.9541
1233.46	31.5213
1236.35	6.90326
1239.25	45.8809
1242.14	17.2695
1245.03	17.8173
1247.92	21.8227
1250.82	2.12473
1253.71	4.78436
1256.6	2.01681
1259.49	15.0244
1262.39	26.8862
1265.28	32.38
1268.17	20.6547
1271.07	19.6605
1273.96	10.8709
1276.85	27.5302
1279.74	33.6411
1282.64	11.1921
1285.53	2.78232
1288.42	10.6576
1291.32	21.9207
1294.21	3.41919
1297.1	5.08695
1299.99	42.5209
1302.88	18.509
1305.78	24.2611
1308.67	7.6864
1311.56	20.5916
1314.46	4.07922
