Measurement: Raman, 780 nm, unoriented, Raman Data Processed
Mineral: Chloritoid
Rruff sample: R050334
Ideal chemistry: Fe^2+^Al_2_OSiO_4_(OH)_2_
Locality: Selçuk, Mugla Province, Turkey
Source: George Rossman
Description: Dark greenish-black foliated cleavage fragments
Measured chemistry: (Fe^2+^_1.84_Mg_0.12_Mn_0.04_)_Σ=2_(Al_3.95_Fe^3+^_0.05_)_Σ=4_Si_2.00_O_10_(OH)_4_ ; H not measured but estimated by difference and stoichiometry
Raman shift (cm-1)	intensity
103.612	0
106.987	9.2946
110.362	0.237915
113.737	6.51283
117.111	6.64225
120.486	0.866051
123.861	7.18351
127.236	5.14278
130.611	5.04684
133.986	1.74378
137.36	2.41685
140.735	1.3492
144.11	1.55328
147.485	2.66293
150.859	5.18325
154.234	0.750702
157.609	2.39461
160.984	0.682762
164.359	0.231941
167.734	0.188919
171.108	4.86092
174.483	6.06364
177.858	3.59696
181.233	5.67522
184.608	6.31027
187.982	6.79025
191.357	8.99995
194.732	10.6873
198.107	12.7871
201.482	11.4893
204.857	13.2699
208.231	12.4078
211.606	12.2539
214.981	14.9076
218.356	11.9157
221.731	9.958
225.106	7.73212
228.48	3.33236
231.855	2.93868
235.23	2.79178
238.605	5.5435
241.98	8.96681
245.354	9.25159
248.729	14.7746
252.104	12.7698
255.479	10.1305
258.854	8.96896
262.228	11.5169
265.603	16.8629
268.978	19.8666
272.353	26.887
275.728	34.784
279.103	44.07
282.477	50.895
285.852	41.5771
289.227	34.1248
292.602	31.2002
295.977	28.5127
299.351	27.0164
302.726	20.591
306.101	13.9843
309.476	5.21139
312.851	1.43288
316.226	1.23104
319.6	2.44167
322.975	1.33395
326.35	4.68238
329.725	6.5235
333.1	6.9057
336.474	6.13517
339.849	2.57073
343.224	4.93555
346.599	5.00283
349.974	3.99394
353.349	3.73271
356.723	5.23817
360.098	5.76883
363.473	6.46569
366.848	6.94926
370.223	3.81887
373.597	0.566017
376.972	2.41218
380.347	1.27531
383.722	1.64793
387.097	0.658081
390.471	1.29733
393.846	5.4365
397.221	8.26769
400.596	8.18798
403.971	9.90886
407.346	11.5953
410.72	12.2094
414.095	13.0766
417.47	9.62881
420.845	10.5794
424.22	7.44809
427.594	5.49725
430.969	6.97227
434.344	3.68803
437.719	0.493233
441.094	2.49484
444.469	3.48667
447.843	3.80299
451.218	8.45967
454.593	7.10411
457.968	5.61045
461.343	9.88736
464.717	11.1196
468.092	13.4601
471.467	16.0752
474.842	19.0218
478.217	28.03
481.592	41.0744
484.966	51.0164
488.341	67.2352
491.716	81.9472
495.091	96.3147
498.466	99.681
501.841	93.004
505.215	86.3711
508.59	74.5192
511.965	61.4468
515.34	46.898
518.715	34.2855
522.089	29.5942
525.464	26.7992
528.839	24.1592
532.214	18.4802
535.589	10.6745
538.963	5.71572
542.338	7.0833
545.713	5.09938
549.088	9.79579
552.463	9.45373
555.837	3.55808
559.212	1.38738
562.587	2.65712
565.962	2.16252
569.337	1.82961
572.712	8.84582
576.086	34.3647
579.461	97.5279
582.836	128.489
586.211	177.499
589.586	241.266
592.96	319.091
596.335	272.606
599.71	93.3784
603.085	38.3551
606.46	22.5274
609.835	15.9222
613.209	11.1893
616.584	9.0348
619.959	4.37995
623.334	3.2066
626.709	2.70447
630.083	1.46647
633.458	2.64438
636.833	0.891415
640.208	1.76463
643.583	0.974178
646.957	0.014854
650.332	0.313965
653.707	1.01198
657.082	1.47297
660.457	1.40081
663.832	0.069515
667.206	2.71549
670.581	2.511
673.956	0.985573
677.331	1.17735
680.706	2.40101
684.081	0.521877
687.455	0.958004
690.83	2.41541
694.205	2.94945
697.58	0.781425
700.955	0.723972
704.329	1.89204
707.704	1.3861
711.079	4.75648
714.454	5.9371
717.829	6.38385
721.203	7.70959
724.578	10.5081
727.953	11.2171
731.328	14.3178
734.703	15.033
738.078	13.2788
741.452	10.0212
744.827	8.85559
748.202	4.43992
751.577	3.8919
754.952	1.92038
758.327	0.243805
761.701	0.614578
765.076	0.298134
768.451	0.948235
771.826	0.200676
775.201	0.62001
778.575	1.50739
781.95	1.17605
785.325	0.850494
788.7	2.25314
792.075	3.21489
795.449	2.05266
798.824	3.45034
802.199	1.82589
805.574	3.08374
808.949	2.51115
812.323	3.72815
815.698	2.26918
819.073	3.98454
822.448	7.15395
825.823	9.22881
829.198	12.4138
832.572	16.3946
835.947	18.8967
839.322	22.0615
842.697	20.9953
846.072	20.2458
849.447	16.2312
852.821	15.0388
856.196	15.4606
859.571	13.9321
862.946	19.0351
866.321	24.8893
869.695	30.7091
873.07	38.9881
876.445	45.5299
879.82	43.5667
883.195	38.0136
886.569	27.2533
889.944	17.5269
893.319	12.7666
896.694	8.63463
900.069	5.6086
903.444	4.52246
906.818	3.26676
910.193	1.90301
913.568	2.65501
916.943	2.81387
920.318	2.01606
923.692	0.024345
927.067	0.357277
930.442	0.046967
933.817	1.46111
937.192	1.91233
940.567	2.64872
943.941	1.98347
947.316	3.18816
950.691	2.86912
954.066	4.24929
957.441	3.29457
960.815	4.31673
964.19	2.91408
967.565	1.21619
970.94	1.5422
974.315	0.956654
977.689	1.04315
981.064	1.38248
984.439	1.15839
987.814	0.339058
991.189	1.37422
994.564	0.159817
997.938	0.846336
1001.31	2.09238
1004.69	2.6472
1008.06	1.20511
1011.44	1.06736
1014.81	2.08471
1018.19	1.34525
1021.56	1.3753
1024.94	1.75419
1028.31	1.93324
1031.69	2.07061
1035.06	1.92258
1038.44	2.05278
1041.81	1.28777
1045.19	2.86453
1048.56	2.09887
1051.94	0.805672
1055.31	2.06834
1058.68	1.79161
1062.06	2.30303
1065.43	0.829563
1068.81	0.841034
1072.18	0.974957
1075.56	0.854225
1078.93	0.420414
1082.31	1.83678
1085.68	0.407997
1089.06	0.753239
1092.43	1.45583
1095.81	1.92652
1099.18	2.31503
1102.56	1.94801
1105.93	1.37672
1109.31	3.5093
1112.68	1.71222
1116.06	2.18071
1119.43	1.92901
1122.81	1.17475
1126.18	2.70147
1129.56	2.31932
1132.93	2.16054
1136.31	1.49237
1139.68	0.743351
1143.06	1.34265
1146.43	2.4235
1149.81	0.083511
1153.18	1.50421
1156.56	2.73166
1159.93	0.642628
1163.3	0.591454
1166.68	0.940933
1170.05	3.04315
1173.43	1.5591
1176.8	0.999149
1180.18	1.01402
1183.55	2.40012
1186.93	4.2921
1190.3	2.56006
1193.68	1.82117
1197.05	1.87648
1200.43	2.46826
1203.8	1.75554
1207.18	2.57521
1210.55	1.75053
1213.93	2.38046
1217.3	3.20166
1220.68	0.533722
1224.05	3.06428
1227.43	1.1487
1230.8	1.13125
1234.18	1.69635
1237.55	3.11017
1240.92	2.17985
1244.3	1.10188
1247.67	0.406483
1251.05	1.64536
1254.42	1.21519
1257.8	2.27086
1261.17	2.59505
1264.55	2.00442
1267.92	2.94331
1271.3	1.71418
1274.67	0.517048
1278.05	0.87722
1281.42	1.62188
1284.8	0.605053
