Measurement: Raman, 780 nm, unoriented, Raman Data Processed
Mineral: Chloroxiphite
Rruff sample: R060267
Ideal chemistry: Pb^2+^_3_Cu^2+^O_2_Cl_2_(OH)_2_
Locality: Merehead Quarry, Mendips, Somerset, England
Source: Michael Scott
Description: Green colored elongated bladed crystals in subparallel group associated with white mendipite
Measured chemistry: Pb_3.00_(Cu_0.96_Fe_0.04_)_Î£=1_O_2_Cl_2.00_(OH)_2_ ; H not measured but estimated by difference and stoichiometry
Raman shift (cm-1)	intensity
154.69	0
157.583	0.694839
160.476	2.1496
163.369	4.3999
166.261	2.63477
169.154	8.60168
172.047	8.01094
174.939	4.62159
177.832	6.53602
180.725	0.395515
183.618	3.76209
186.51	2.69636
189.403	1.46794
192.296	4.62789
195.188	5.95735
198.081	2.75926
200.974	5.13643
203.866	6.23176
206.759	5.54872
209.652	4.26647
212.544	5.32532
215.437	5.13375
218.33	3.40458
221.223	1.90106
224.115	5.011
227.008	1.49903
229.901	2.76723
232.793	0.768509
235.686	3.28982
238.579	4.35394
241.471	5.76187
244.364	5.93045
247.257	7.55638
250.15	12.4386
253.042	13.823
255.935	10.8322
258.828	10.7537
261.72	12.2923
264.613	13.5119
267.506	11.5597
270.399	7.41221
273.291	4.87242
276.184	5.99938
279.077	11.3552
281.969	10.3651
284.862	11.7437
287.755	17.7804
290.647	18.8339
293.54	19.1221
296.433	22.2669
299.325	25.7818
302.218	28.2739
305.111	28.9752
308.004	29.5283
310.896	24.6239
313.789	21.0933
316.682	14.4369
319.574	12.068
322.467	12.2728
325.36	3.55721
328.252	13.6892
331.145	12.6575
334.038	17.6336
336.931	15.3621
339.823	16.9727
342.716	20.0185
345.609	16.436
348.501	13.5994
351.394	12.9321
354.287	9.98068
357.18	9.12663
360.072	3.30233
362.965	1.02071
365.858	3.71706
368.75	0.08016
371.643	0.811916
374.536	2.24661
377.428	0.560202
380.321	2.7098
383.214	8.03519
386.106	8.51788
388.999	11.7915
391.892	16.0416
394.785	20.8018
397.677	22.553
400.57	23.4781
403.463	18.9784
406.355	20.1695
409.248	16.5498
412.141	15.4628
415.034	13.8521
417.926	10.1088
420.819	8.8852
423.712	4.12879
426.604	4.17007
429.497	3.45356
432.39	3.10858
435.282	2.99429
438.175	2.68795
441.068	4.33244
443.961	0.751236
446.853	4.34443
449.746	5.93072
452.639	6.68671
455.531	4.87401
458.424	6.28183
461.317	8.77358
464.209	11.2758
467.102	12.4472
469.995	7.06033
472.887	9.07739
475.78	9.64659
478.673	8.33847
481.566	6.78676
484.458	4.88917
487.351	8.35241
490.244	4.7093
493.136	2.202
496.029	2.57301
498.922	1.50212
501.815	3.43633
504.707	3.95231
507.6	2.88836
510.493	4.11685
513.385	3.59567
516.278	0.284889
519.171	2.00287
522.063	0.948975
524.956	0.491142
527.849	1.67406
530.741	3.13371
533.634	0.10309
536.527	3.11622
539.42	0.942091
542.312	2.13834
545.205	1.47539
548.098	1.0303
550.99	2.50493
553.883	0.71643
556.776	1.67375
559.668	2.06109
562.561	0.337938
565.454	2.00377
568.347	1.26428
571.239	4.36891
574.132	3.20448
577.025	2.24615
579.917	5.621
582.81	4.70355
585.703	0.183913
588.596	3.67567
591.488	0.692885
594.381	2.17394
597.274	1.412
600.166	4.27953
603.059	2.01627
605.952	1.47348
608.845	1.75516
611.737	5.34665
614.63	2.11303
617.523	5.49832
620.415	2.80272
623.308	0.040321
626.201	4.19333
629.093	0.067509
631.986	3.39238
634.879	2.32071
637.771	0.770634
640.664	1.66231
643.557	2.06641
646.45	4.72788
649.342	3.5516
652.235	5.11969
655.128	1.58038
658.02	3.36113
660.913	2.73312
663.806	2.41114
666.698	2.42412
669.591	0.650119
672.484	5.47307
675.377	3.20729
678.269	1.49947
681.162	0.557307
684.055	4.47176
686.947	3.5824
689.84	1.28211
692.733	4.11151
695.625	3.84205
698.518	2.59673
701.411	0.786694
704.304	2.49578
707.196	4.62045
710.089	0.222365
712.982	3.54187
715.874	3.95716
718.767	3.23402
721.66	4.28627
724.553	2.63457
727.445	2.6004
730.338	2.88664
733.231	2.41012
736.123	1.88309
739.016	0.670395
741.909	2.4627
744.801	0.899726
747.694	4.10277
750.587	2.00576
753.48	0.098603
756.372	0.736109
759.265	2.08712
762.158	1.12471
765.05	0.899958
767.943	4.66045
770.836	2.21262
773.728	2.76265
776.621	5.21791
779.514	4.06349
782.407	1.5667
785.299	5.15614
788.192	3.76266
791.085	1.61073
793.977	1.78439
796.87	1.05678
799.763	1.88139
802.655	3.65558
805.548	3.0419
808.441	2.87418
811.333	3.91447
814.226	4.34439
817.119	3.59517
820.012	0.007736
822.904	5.57757
825.797	4.49574
828.69	4.185
831.582	2.20755
834.475	2.83993
837.368	5.14268
840.26	4.40288
843.153	4.18689
846.046	5.85145
848.939	3.74149
851.831	4.95829
854.724	4.19548
857.617	3.04369
860.509	2.51191
863.402	4.65945
866.295	4.33226
869.188	2.94958
872.08	4.68727
874.973	1.54467
877.866	4.98974
880.758	2.01298
883.651	2.35205
886.544	1.31352
889.436	5.58515
892.329	3.97512
895.222	3.97359
898.115	2.77285
901.007	5.53518
903.9	0.284693
906.793	0.653274
909.685	0.833933
912.578	0.462394
915.471	0.608055
918.363	2.14411
921.256	0.172746
924.149	1.47885
927.042	0.952987
929.934	2.40866
932.827	0.701407
935.72	0.325526
938.612	0.248267
941.505	3.48704
944.398	1.41833
947.29	5.09385
950.183	2.85219
953.076	3.65324
955.968	3.68712
958.861	1.69167
961.754	1.74483
964.647	2.949
967.539	3.26636
970.432	3.30558
973.325	7.22072
976.217	0.442739
979.11	2.51015
982.003	3.61718
984.895	1.5926
987.788	1.98867
990.681	4.50002
993.574	4.61858
996.466	1.82857
999.359	1.16462
1002.25	3.04681
1005.14	4.33272
1008.04	5.94801
1010.93	2.10948
1013.82	2.2072
1016.72	0.901565
1019.61	3.78644
1022.5	0.007426
1025.39	3.23623
1028.29	4.5846
1031.18	1.06817
1034.07	0.639065
1036.96	1.87193
1039.86	3.20554
1042.75	3.0221
1045.64	0.452344
1048.54	1.21691
1051.43	3.39077
1054.32	1.93781
1057.21	5.32648
1060.11	1.26983
1063	5.29961
1065.89	3.75999
1068.78	3.91021
1071.68	3.12954
1074.57	1.83865
1077.46	3.18586
1080.36	1.04587
1083.25	0.920879
1086.14	4.39698
1089.03	2.84782
1091.92	2.63131
1094.82	3.3114
1097.71	2.56296
1100.6	5.04545
1103.5	3.33405
1106.39	1.3652
1109.28	2.63145
1112.17	0.470484
1115.07	3.41842
1117.96	0.800414
1120.85	3.16794
1123.74	0.506555
1126.64	2.53936
1129.53	2.44722
1132.42	6.08479
1135.32	4.47053
1138.21	5.39208
1141.1	5.48282
1143.99	2.34809
1146.89	2.45404
1149.78	3.13964
1152.67	1.33906
1155.57	2.48707
1158.46	4.16652
1161.35	0.063132
1164.24	0.589017
1167.14	4.91898
1170.03	1.9747
1172.92	3.79619
1175.81	0.010539
1178.71	2.13302
1181.6	6.47663
1184.49	2.66915
1187.38	1.19009
1190.28	1.05543
1193.17	3.93514
1196.06	3.03528
1198.95	0.548597
1201.85	0.44061
1204.74	2.27916
1207.63	2.86233
1210.53	2.15118
1213.42	2.38274
1216.31	3.92273
1219.2	0.067228
1222.1	4.66549
1224.99	1.95939
1227.88	2.12498
1230.78	1.7439
1233.67	1.18077
1236.56	2.0111
1239.45	1.76063
1242.35	3.87087
1245.24	4.1846
1248.13	3.30177
1251.02	3.43368
1253.92	5.19438
1256.81	2.14197
1259.7	0.987464
1262.6	2.37872
1265.49	4.40034
1268.38	1.32865
1271.27	1.56837
1274.17	4.43511
1277.06	6.86583
1279.95	2.72431
1282.84	0.712448
1285.74	0
