Measurement: Raman, 785 nm, unoriented, Raman Data Processed
Mineral: Chlorbartonite
Rruff sample: R070369
Ideal chemistry: K_6_Fe_24_S_26_Cl
Locality: Koashva Mt, Khibiny Massif, Kola Peninsula, Murmanskaja Oblast', Northern Region, Russia
Source: Michael Scott
Description: Black submetallic grains with conchoidal fracture, associated with dark-green aegirine and elongated reddish brown lamprophyllite.
Raman shift (cm-1)	intensity
118.609	0
121.501	1.6543
124.394	2.24528
127.287	4.12331
130.18	3.22332
133.072	22.6766
135.965	19.2513
138.858	25.2603
141.75	25.4958
144.643	30.6601
147.536	50.9506
150.429	53.8272
153.321	47.6051
156.214	31.1908
159.107	32.6906
161.999	35.6733
164.892	23.7537
167.785	32.5121
170.677	20.6425
173.57	27.6618
176.463	18.6626
179.356	17.8842
182.248	11.4419
185.141	11.2608
188.034	7.8899
190.926	6.46742
193.819	0.398094
196.712	0.291641
199.604	7.8864
202.497	10.9227
205.39	3.27364
208.282	5.71123
211.175	2.4628
214.068	7.33406
216.961	4.81915
219.853	13.345
222.746	6.14784
225.639	3.58131
228.531	12.6875
231.424	15.6723
234.317	27.5526
237.209	43.0576
240.102	32.5606
242.995	55.7425
245.888	81.3316
248.78	81.6419
251.673	113.937
254.566	131.259
257.458	154.88
260.351	158.591
263.244	178.931
266.137	167.184
269.029	130.279
271.922	86.8263
274.815	61.7884
277.707	39.476
280.6	26.0831
283.493	21.1844
286.385	20.3929
289.278	26.1493
292.171	33.7344
295.063	44.0232
297.956	53.7351
300.849	62.88
303.742	65.2133
306.634	74.9908
309.527	75.7397
312.42	74.5287
315.312	59.5902
318.205	62.9504
321.098	43.4803
323.99	29.5437
326.883	9.90985
329.776	7.17114
332.669	3.0745
335.561	12.0213
338.454	4.14866
341.347	2.28439
344.239	1.75304
347.132	0.438751
350.025	1.05454
352.918	7.66798
355.81	8.88287
358.703	2.97918
361.596	14.3761
364.488	8.85449
367.381	9.63362
370.274	5.60068
373.166	0.150963
376.059	4.66519
378.952	13.4517
381.844	5.49532
384.737	10.1973
387.63	9.28345
390.523	5.17204
393.415	22.4608
396.308	3.06513
399.201	16.8074
402.093	7.57153
404.986	17.5053
407.879	12.8787
410.772	4.31712
413.664	13.3805
416.557	16.682
419.45	6.7667
422.342	14.5791
425.235	8.42599
428.128	20.1293
431.02	21.4077
433.913	16.1701
436.806	14.5004
439.699	13.5827
442.591	15.5181
445.484	18.2548
448.377	12.6031
451.269	20.5811
454.162	11.3539
457.055	11.3202
459.947	1.04097
462.84	13.0047
465.733	4.16279
468.625	13.0654
471.518	15.6196
474.411	16.2064
477.304	13.6962
480.196	9.19302
483.089	10.4099
485.982	26.2541
488.874	7.11878
491.767	18.5762
494.66	25.2682
497.553	4.03996
500.445	9.14981
503.338	4.59101
506.231	8.50341
509.123	10.4918
512.016	6.57588
514.909	11.5921
517.802	9.94344
520.694	16.8157
523.587	7.2872
526.48	8.43567
529.372	10.8727
532.265	4.96165
535.158	10.9967
538.05	11.626
540.943	2.29901
543.836	1.96441
546.729	17.1881
549.621	7.3893
552.514	8.51084
555.407	12.4246
558.299	18.6696
561.192	17.3452
564.085	11.9906
566.977	19.2903
569.87	2.38132
572.763	3.30605
575.655	10.8126
578.548	14.8354
581.441	1.43961
584.333	5.28729
587.226	2.6646
590.119	13.1672
593.012	17.4843
595.904	9.22498
598.797	10.865
601.69	7.7952
604.582	2.03487
607.475	6.69078
610.368	6.27554
613.26	6.39566
616.153	11.5773
619.046	4.67261
621.939	7.22641
624.831	10.0254
627.724	8.33575
630.617	5.62479
633.509	4.35738
636.402	9.01759
639.295	5.51021
642.188	1.03498
645.08	11.1917
647.973	1.80267
650.866	10.9515
653.758	11.6164
656.651	12.9149
659.544	7.64947
662.436	10.4393
665.329	4.69564
668.222	10.9544
671.115	14.8679
674.007	7.06825
676.9	4.53958
679.793	5.68502
682.685	9.08909
685.578	1.02782
688.471	1.0522
691.363	19.2985
694.256	3.21977
697.149	2.95609
700.042	1.60154
702.934	7.89973
705.827	13.2206
708.72	6.80552
711.612	4.90781
714.505	4.5438
717.398	1.05061
720.29	5.34647
723.183	17.5848
726.076	1.01982
728.968	10.2548
731.861	13.0529
734.754	10.6891
737.647	10.3772
740.539	7.82424
743.432	7.68355
746.325	5.8928
749.217	9.42596
752.11	15.077
755.003	6.13826
757.895	10.4784
760.788	3.31552
763.681	10.3355
766.574	10.2437
769.466	13.2295
772.359	10.1767
775.252	6.10302
778.144	14.0947
781.037	3.78394
783.93	9.47722
786.822	8.50805
789.715	0.713081
792.608	3.88259
795.501	8.16267
798.393	4.25682
801.286	17.1403
804.179	5.07442
807.071	11.4905
809.964	18.9292
812.857	18.2123
815.75	8.51672
818.642	11.2168
821.535	8.79739
824.428	18.5224
827.32	19.6096
830.213	14.681
833.106	17.3338
835.998	15.9246
838.891	19.3117
841.784	2.94449
844.677	14.0116
847.569	19.1014
850.462	10.5475
853.355	9.76496
856.247	10.0584
859.14	15.9385
862.033	14.1686
864.925	5.04671
867.818	6.919
870.711	10.0949
873.604	11.5607
876.496	19.8337
879.389	19.6565
882.282	20.3952
885.174	15.6356
888.067	17.5661
890.96	12.4556
893.852	14.2136
896.745	10.3457
899.638	19.7701
902.53	22.0532
905.423	11.7265
908.316	11.4935
911.209	0.710617
914.101	21.6431
916.994	15.8516
919.887	12.7027
922.779	27.0634
925.672	15.5877
928.565	26.6087
931.457	5.10652
934.35	19.4036
937.243	4.64164
940.136	7.8064
943.028	1.21488
945.921	10.7883
948.814	11.7199
951.706	23.1043
954.599	17.1383
957.492	7.47963
960.385	12.242
963.277	23.8637
966.17	16.9022
969.063	11.8354
971.955	5.46457
974.848	11.0238
977.741	19.1484
980.633	0.921585
983.526	4.84776
986.419	9.76638
989.312	11.234
992.204	8.53025
995.097	9.87637
997.99	7.52737
1000.88	4.41369
1003.77	25.753
1006.67	9.13822
1009.56	7.22828
1012.45	15.2544
1015.35	14.5118
1018.24	17.6573
1021.13	1.57185
1024.02	5.43362
1026.92	6.26946
1029.81	16.2709
1032.7	9.29656
1035.6	2.08772
1038.49	12.3822
1041.38	8.52629
1044.27	10.7489
1047.17	9.15623
1050.06	17.5907
1052.95	17.645
1055.84	23.5925
1058.74	12.6014
1061.63	14.4302
1064.52	10.683
1067.41	5.83217
1070.31	9.09212
1073.2	8.60284
1076.09	17.921
1078.98	8.12402
1081.88	14.0089
1084.77	4.1462
1087.66	5.8473
1090.56	9.10699
1093.45	3.05118
1096.34	8.55289
1099.23	4.23062
1102.13	11.5305
1105.02	5.75765
1107.91	18.3961
1110.81	14.1868
1113.7	9.56224
1116.59	13.476
1119.48	17.8275
1122.38	12.8892
1125.27	18.7837
1128.16	4.52953
1131.05	9.41959
1133.95	8.24184
1136.84	0.303711
1139.73	17.8061
1142.62	32.808
1145.52	11.648
1148.41	14.3039
1151.3	2.34196
1154.19	10.9138
1157.09	14.1535
1159.98	22.2933
1162.87	13.9434
1165.77	14.3376
1168.66	7.01237
1171.55	20.7874
1174.44	18.5547
1177.34	19.5253
1180.23	19.0196
1183.12	20.3784
1186.02	19.2484
1188.91	6.00857
1191.8	13.9139
1194.69	18.1299
1197.59	2.12878
1200.48	13.7912
1203.37	1.15276
1206.26	15.917
1209.16	19.3691
1212.05	26.5816
1214.94	1.5024
1217.84	11.5539
1220.73	12.6937
1223.62	10.113
1226.51	21.1882
1229.41	15.9741
1232.3	14.5477
1235.19	10.9278
1238.08	3.13673
1240.98	8.1793
