Measurement: Raman, 532 nm, unoriented, Raman Data Processed
Mineral: Choloalite
Rruff sample: R070140
Ideal chemistry: (Pb^2+^,Ca)_3_(Cu^2+^,Sb^5+^)_3_Te^4+^_6_O_18_Cl
Locality: McAlpine Mine, Moccasin, Tuolumne County, California, USA
Source: Michael Scott
Description: Pistachio green thin coating on quartz
Raman shift (cm-1)	intensity
157.413	0
160.788	37.4913
164.163	28.4562
167.538	13.3973
170.913	9.26111
174.287	30.9814
177.662	13.4685
181.037	9.3429
184.412	17.0858
187.787	13.7473
191.161	19.6653
194.536	12.4037
197.911	13.8926
201.286	11.7412
204.661	35.3997
208.036	19.6727
211.41	26.5654
214.785	30.4281
218.16	34.5382
221.535	34.6656
224.91	33.0626
228.284	30.6666
231.659	10.9786
235.034	19.3008
238.409	3.65747
241.784	42.1398
245.159	12.2253
248.533	18.6069
251.908	26.6549
255.283	39.7162
258.658	7.24915
262.033	27.5161
265.407	11.667
268.782	18.7407
272.157	19.2169
275.532	3.33093
278.907	22.6298
282.281	40.4069
285.656	44.3058
289.031	57.0126
292.406	51.0836
295.781	54.089
299.156	5.65747
302.53	45.1202
305.905	61.4998
309.28	29.2556
312.655	26.3881
316.03	16.3887
319.404	35.9014
322.779	20.6136
326.154	47.8784
329.529	19.4418
332.904	27.6349
336.279	5.9917
339.653	8.38318
343.028	33.6499
346.403	28.4855
349.778	19.1155
353.152	32.2444
356.527	7.8241
359.902	13.1223
363.277	23.5748
366.652	6.2196
370.027	28.178
373.401	27.4434
376.776	0.993896
380.151	46.2595
383.526	7.09644
386.901	17.254
390.276	3.55676
393.65	23.7044
397.025	16.4348
400.4	12.1582
403.775	12.361
407.15	15.067
410.524	32.9773
413.899	30.911
417.274	43.5149
420.649	16.4222
424.024	41.0033
427.398	6.67334
430.773	72.3915
434.148	25.0491
437.523	48.916
440.898	57.7308
444.272	67.6266
447.647	54.9856
451.022	96.5155
454.397	90.0344
457.772	65.001
461.147	80.1696
464.521	51.3103
467.896	42.6394
471.271	51.6226
474.646	84.0059
478.021	66.3783
481.396	70.6609
484.77	69.4022
488.145	63.7502
491.52	49.6235
494.895	59.4136
498.269	75.1293
501.644	57.5901
505.019	50.0353
508.394	56.5492
511.769	9.90161
515.144	18.1293
518.518	39.2643
521.893	24.9268
525.268	9.63318
528.643	44.852
532.018	52.2771
535.393	26.4355
538.767	46.558
542.142	39.658
545.517	0.875977
548.892	20.8053
552.266	29.7284
555.641	9.95923
559.016	4.5625
562.391	11.8279
565.766	1.90833
569.141	1.10327
572.515	31.2478
575.89	26.4196
579.265	39.3426
582.64	13.1444
586.015	36.5802
589.389	7.64319
592.764	16.0591
596.139	14.3524
599.514	9.38513
602.889	4.62891
606.264	18.2538
609.638	7.66186
613.013	16.3784
616.388	22.2584
619.763	3.86987
623.138	9.90808
626.513	6.88
629.887	7.82251
633.262	13.89
636.637	1.45264
640.012	6.90942
643.386	2.48608
646.761	21.7798
650.136	31.5627
653.511	33.6755
656.886	19.1523
660.261	64.9619
663.635	103.456
667.01	74.5562
670.385	98.7717
673.76	162.659
677.135	170.2
680.51	200.816
683.884	271.236
687.259	294.121
690.634	338.459
694.009	382.874
697.384	420.072
700.758	475.246
704.133	500.643
707.508	511.82
710.883	495.181
714.258	490.565
717.632	488.674
721.007	466.654
724.382	399.074
727.757	380.448
731.132	336.183
734.506	304.271
737.881	286.396
741.256	236.09
744.631	199.496
748.006	194.389
751.381	152.211
754.755	137.538
758.13	101.041
761.505	60.9258
764.88	84.4813
768.255	37.2456
771.63	32.2677
775.004	27.4465
778.379	55.0894
781.754	22.9916
785.129	14.006
788.504	11.0994
791.878	13.035
795.253	19.4748
798.628	2.76611
802.003	13.0067
805.378	3.44043
808.752	9.31714
812.127	3.547
815.502	17.3512
818.877	18.8552
822.252	23.9874
825.626	0.151733
829.001	24.564
832.376	36.3276
835.751	42.5531
839.126	44.5915
842.5	47.9341
845.875	27.8459
849.25	32.882
852.625	61.8129
856	44.7428
859.375	67.1841
862.749	48.76
866.124	81.0617
869.499	16.1891
872.874	24.0962
876.249	69.1962
879.624	41.7988
882.998	27.5924
886.373	44.041
889.748	55.8401
893.123	30.7357
896.498	21.4183
899.872	22.4224
903.247	47.2736
906.622	27.5017
909.997	29.9188
913.372	40.2988
916.746	8.33826
920.121	41.8198
923.496	45.5393
926.871	20.067
930.246	28.9784
933.62	40.4401
936.995	16.0392
940.37	3.07519
943.745	8.91101
947.12	61.96
950.495	6.8822
953.869	51.7672
957.244	5.41528
960.619	31.908
963.994	33.1548
967.369	56.0242
970.744	2.31006
974.118	4.57593
977.493	4.52942
980.868	19.7791
984.243	1.98901
987.618	52.0779
990.992	9.3717
994.367	12.8201
997.742	21.7434
1001.12	19.6975
1004.49	42.0387
1007.87	30.1193
1011.24	34.0699
1014.62	8.22839
1017.99	24.1488
1021.37	48.4607
1024.74	28.8097
1028.12	7.3783
1031.49	36.6003
1034.87	12.8666
1038.24	51.8429
1041.62	45.4738
1044.99	14.0013
1048.36	28.4668
1051.74	56.804
1055.11	27.3318
1058.49	24.2924
1061.86	22.2733
1065.24	29.9238
1068.61	20.2456
1071.99	55.5457
1075.36	14.6279
1078.74	18.4678
1082.11	50.9526
1085.49	2.63354
1088.86	15.1804
1092.24	10.8223
1095.61	26.3654
1098.99	28.9145
1102.36	2.11182
1105.74	30.4877
1109.11	36.3652
1112.49	44.3478
1115.86	7.27295
1119.23	24.6893
1122.61	5.58276
1125.98	24.6835
1129.36	28.39
1132.73	27.4391
1136.11	61.4294
1139.48	16.2601
1142.86	30.3381
1146.23	24.7482
1149.61	17.5131
1152.98	9.46619
1156.36	24.546
1159.73	15.4482
1163.11	44.9022
1166.48	12.2487
1169.86	31.981
1173.23	10.2186
1176.61	60.0571
1179.98	10.7677
1183.36	22.0811
1186.73	40.3627
1190.11	49.8711
1193.48	20.6556
1196.86	24.3129
1200.23	15.5955
1203.61	36.2388
1206.98	18.2727
1210.36	18.6244
1213.73	13.2673
1217.11	28.2346
1220.48	42.2006
1223.85	12.8107
1227.23	51.734
1230.6	32.1464
1233.98	48.2913
1237.35	2.6991
1240.73	24.7592
1244.1	36.0658
1247.48	40.3827
1250.85	8.68604
1254.23	20.4355
1257.6	37.458
1260.98	4.98535
1264.35	14.319
1267.73	77.896
1271.1	22.6165
1274.48	57.1105
1277.85	34.0825
1281.23	39.4294
1284.6	50.3658
1287.98	29.1631
1291.35	4.48193
1294.73	52.6702
1298.1	5.63428
1301.47	33.7501
1304.85	24.5104
1308.22	1.41785
1311.6	10.9192
1314.97	0.195435
