Measurement: Raman, 532 nm, unoriented, Raman Data Processed
Mineral: Christofschaferite-(Ce)
Rruff sample: R141090
Ideal chemistry: (Ce^3+^,La^3+^,Ca)_4_Mn^2+^(Ti^4+^,Fe^3+^)_3_(Fe^3+^,Fe^2+^,Ti^2+^)(Si_2_O_7_)_2_O_8_
Locality: Wingertsberg pumice quarry, Laach lake volcano, Mendig, Eifel, Germany
Source: Ch. and H. Sch√§fer
Description: Thick tabular or short prismatic black crystals, 2-fold twin around a*, associated with light brown rhodonite and colorless orthoclase.
Raman shift (cm-1)	intensity
179.939	0
182.832	0.237076
185.724	1.2332
188.617	1.44202
191.51	1.099
194.403	0.815643
197.295	1.24795
200.188	0.007416
203.081	0.603058
205.973	0.508698
208.866	0.081139
211.759	0.653275
214.651	1.17828
217.544	1.33693
220.437	0.663864
223.329	2.4592
226.222	1.52588
229.115	1.86291
232.008	0.300056
234.9	0.735191
237.793	0.137199
240.686	1.34051
243.578	1.3929
246.471	0.811058
249.364	1.11441
252.256	0.784744
255.149	1.74795
258.042	3.20534
260.935	3.52135
263.827	3.77658
266.72	4.30821
269.613	3.41519
272.505	6.06856
275.398	5.47194
278.291	6.36781
281.183	6.19789
284.076	5.28049
286.969	6.16544
289.862	6.32178
292.754	6.31808
295.647	6.02325
298.54	4.89195
301.432	3.90518
304.325	3.81338
307.218	2.57506
310.111	2.62526
313.003	1.8764
315.896	2.25694
318.789	1.59447
321.681	0.78093
324.574	1.0303
327.467	0.379929
330.359	1.1554
333.252	0.240677
336.145	0.857101
339.038	0.09024
341.93	0.226639
344.823	0.160309
347.716	0.407028
350.608	0.130905
353.501	0.934494
356.394	0.068115
359.286	0.740433
362.179	0.694351
365.072	1.34354
367.964	1.49017
370.857	1.87433
373.75	2.37067
376.643	3.03081
379.535	4.83281
382.428	5.94438
385.321	6.23273
388.213	8.97333
391.106	9.97276
393.999	11.9603
396.892	12.7348
399.784	16.1927
402.677	17.0615
405.57	17.7379
408.462	17.955
411.355	20.3429
414.248	21.2454
417.14	23.4651
420.033	24.8934
422.926	26.2074
425.818	27.5346
428.711	29.1615
431.604	29.9353
434.497	32.7594
437.389	33.1699
440.282	33.3853
443.175	32.5904
446.067	30.0389
448.96	26.0481
451.853	23.1441
454.745	20.9322
457.638	17.8488
460.531	14.0699
463.424	10.7868
466.316	10.159
469.209	8.59546
472.102	4.95557
474.994	3.51372
477.887	2.90544
480.78	1.67491
483.673	0.249054
486.565	1.16653
489.458	0.304794
492.351	1.45161
495.243	0.005402
498.136	0.64595
501.029	0.96817
503.921	3.31334
506.814	5.06532
509.707	6.18578
512.6	9.35407
515.492	11.4621
518.385	14.1837
521.278	15.2144
524.17	17.422
527.063	18.5803
529.956	19.1632
532.848	20.5328
535.741	20.658
538.634	20.411
541.527	20.1588
544.419	20.9428
547.312	18.6982
550.205	17.4051
553.097	14.74
555.99	11.2952
558.883	9.38922
561.775	7.72287
564.668	5.63812
567.561	3.11729
570.454	2.04776
573.346	0.829483
576.239	1.51393
579.132	0.811859
582.024	0.526596
584.917	0.128235
587.81	1.80847
590.702	0.942352
593.595	0.746811
596.488	0.832687
599.381	0.020111
602.273	0.253891
605.166	2.71004
608.059	2.97308
610.951	4.88321
613.844	7.91496
616.737	10.9433
619.63	13.6491
622.522	14.6729
625.415	19.157
628.308	23.8353
631.2	24.5613
634.093	26.7706
636.986	29.0466
639.878	30.3485
642.771	31.9807
645.664	33.2336
648.557	34.3218
651.449	35.7603
654.342	34.6499
657.235	34.0951
660.127	36.1066
663.02	35.5594
665.913	35.546
668.805	38.0731
671.698	36.707
674.591	36.0945
677.484	37.6522
680.376	36.5256
683.269	35.5252
686.162	35.5009
689.054	35.171
691.947	32.8264
694.84	30.1637
697.732	27.351
700.625	25.8456
703.518	23.3405
706.41	20.0492
709.303	18.4352
712.196	14.8034
715.089	14.1573
717.981	12.0076
720.874	10.6079
723.767	9.5125
726.659	8.382
729.552	7.81145
732.445	5.57754
735.337	5.7433
738.23	5.77684
741.123	5.22145
744.016	5.70242
746.908	7.15549
749.801	5.64392
752.694	5.86482
755.586	4.6162
758.479	3.88226
761.372	3.74651
764.264	2.5791
767.157	2.31505
770.05	2.17073
772.943	1.74023
775.835	0.903244
778.728	0.833939
781.621	0.508224
784.513	0.075912
787.406	1.42192
790.299	1.09201
793.192	0.773712
796.084	1.55707
798.977	0.63588
801.87	1.12109
804.762	0.835251
807.655	1.65424
810.548	1.42453
813.44	1.96355
816.333	2.08638
819.226	3.24007
822.119	4.3853
825.011	4.28081
827.904	4.62929
830.797	7.36519
833.689	6.92455
836.582	8.13199
839.475	9.09611
842.367	9.36063
845.26	9.45938
848.153	9.71016
851.045	9.73309
853.938	9.05014
856.831	9.00781
859.724	10.2909
862.616	9.30577
865.509	9.03395
868.402	7.98747
871.294	8.29808
874.187	8.34979
877.08	7.64157
879.972	6.93658
882.865	7.45158
885.758	7.50876
888.651	6.28546
891.543	8.37299
894.436	8.01784
897.329	7.59097
900.221	8.3658
903.114	6.44345
906.007	6.94847
908.899	6.3529
911.792	6.44685
914.685	4.3997
917.578	3.56361
920.47	4.41914
923.363	3.79929
926.256	3.81238
929.148	3.03415
932.041	2.49499
934.934	2.70415
937.827	0.495193
940.719	1.65288
943.612	2.29849
946.505	1.14912
949.397	0.518692
952.29	0.595551
955.183	0.883621
958.075	0.328964
960.968	0.415344
963.861	0.328461
966.754	0.241837
969.646	0.040329
972.539	0.867569
975.432	1.03061
978.324	0.809509
981.217	1.51956
984.11	0.613602
987.002	1.10927
989.895	1.35068
992.788	1.64796
995.681	1.64664
998.573	1.0613
1001.47	0.594879
1004.36	1.7258
1007.25	4.05305
1010.14	2.2124
1013.04	2.66261
1015.93	2.2719
1018.82	2.81384
1021.72	2.04164
1024.61	1.73563
1027.5	2.60042
1030.39	3.19231
1033.29	3.55423
1036.18	4.21951
1039.07	2.68968
1041.96	4.62015
1044.86	4.13547
1047.75	4.05214
1050.64	3.75617
1053.53	3.49081
1056.43	3.11519
1059.32	3.24118
1062.21	2.55949
1065.11	2.23973
1068	2.54861
1070.89	3.05263
1073.78	1.53792
1076.68	2.61134
1079.57	2.73241
1082.46	2.56711
1085.35	1.24647
1088.25	2.02068
1091.14	2.6721
1094.03	2.29738
1096.92	2.8183
1099.82	1.57155
1102.71	1.69072
1105.6	1.56122
1108.5	0.872192
1111.39	1.06418
1114.28	0.782898
1117.17	1.4949
1120.07	2.14423
1122.96	2.08868
1125.85	1.25348
1128.74	0.286087
1131.64	0.796692
1134.53	0.723099
1137.42	0.54834
1140.32	0.703781
1143.21	0.54039
1146.1	0.458282
1148.99	0.92305
1151.89	0.689713
1154.78	0.111389
1157.67	1.39197
1160.56	0.686905
1163.46	0.55246
1166.35	0.152161
1169.24	0.243912
1172.13	0.645729
1175.03	0.099007
1177.92	0.079224
1180.81	0.687042
1183.71	1.23734
1186.6	0.064484
1189.49	1.51988
1192.38	0.135284
1195.28	0.209915
1198.17	0.758461
1201.06	0.961502
1203.95	0.748238
1206.85	1.10901
1209.74	0.404785
1212.63	0.526184
1215.53	0.445969
1218.42	0.582291
1221.31	0.264603
1224.2	0.102257
1227.1	0.647964
1229.99	0.276817
1232.88	0.051834
1235.78	0.843796
1238.67	0.162697
1241.56	1.18454
1244.45	1.55494
1247.35	2.05096
1250.24	1.05455
1253.13	2.02819
1256.02	1.97911
1258.92	1.68979
1261.81	2.35865
1264.7	1.0414
1267.59	1.37808
1270.49	1.43152
1273.38	1.52146
1276.27	0.966316
1279.16	0.56459
1282.06	1.39117
1284.95	2.07642
1287.84	1.79966
1290.74	1.47378
1293.63	1.84021
1296.52	2.28167
1299.41	1.1728
