Measurement: Raman, 780 nm, unoriented, Raman Data Processed
Mineral: Christofschaferite-(Ce)
Rruff sample: R141090
Ideal chemistry: (Ce^3+^,La^3+^,Ca)_4_Mn^2+^(Ti^4+^,Fe^3+^)_3_(Fe^3+^,Fe^2+^,Ti^2+^)(Si_2_O_7_)_2_O_8_
Locality: Wingertsberg pumice quarry, Laach lake volcano, Mendig, Eifel, Germany
Source: Ch. and H. Sch√§fer
Description: Thick tabular or short prismatic black crystals, 2-fold twin around a*, associated with light brown rhodonite and colorless orthoclase.
Raman shift (cm-1)	intensity
170.145	0
173.038	1.27397
175.93	0.295815
178.823	0.20533
181.716	0.906441
184.608	0.784492
187.501	0.451111
190.394	1.25173
193.286	0.705612
196.179	1.60284
199.072	0.963768
201.965	0.618248
204.857	0.568924
207.75	0.330795
210.643	0.091423
213.535	0.413162
216.428	1.05249
219.321	0.148903
222.214	0.444878
225.106	0.555489
227.999	0.703651
230.892	0.456718
233.784	0.617615
236.677	0.928482
239.57	1.68425
242.462	3.96909
245.355	3.18223
248.248	3.95859
251.14	3.28247
254.033	3.6478
256.926	2.42446
259.818	3.03106
262.711	4.32249
265.604	3.75075
268.497	3.60204
271.389	2.50698
274.282	2.90026
277.175	2.12049
280.067	3.07369
282.96	3.20165
285.853	3.71889
288.745	3.75597
291.638	3.31928
294.531	3.59682
297.424	4.24714
300.316	3.32128
303.209	3.00299
306.102	2.68977
308.994	2.01869
311.887	1.34197
314.78	2.15896
317.673	0.678101
320.565	1.95032
323.458	0.817047
326.351	1.02356
329.243	0.857605
332.136	0.799805
335.029	0.404839
337.921	0.835892
340.814	0.44603
343.707	1.07095
346.599	0.88353
349.492	0.091881
352.385	0.666405
355.278	0.556549
358.17	0.963501
361.063	0.217499
363.956	0.036804
366.848	0.203102
369.741	0.502716
372.634	0.085014
375.526	0.060783
378.419	0.148827
381.312	0.437149
384.205	0.247322
387.097	1.58853
389.99	1.37813
392.883	1.66843
395.775	1.30142
398.668	1.99324
401.561	1.0125
404.453	2.43601
407.346	1.4587
410.239	1.8305
413.132	1.56056
416.024	1.42735
418.917	1.63487
421.81	1.61957
424.702	1.60079
427.595	1.58276
430.488	1.59813
433.38	1.95105
436.273	0.959335
439.166	1.24638
442.058	1.32282
444.951	0.965538
447.844	0.017342
450.737	0.246864
453.629	0.38942
456.522	1.18024
459.415	0.454765
462.307	0.30481
465.2	0.160583
468.093	0.727386
470.986	1.57265
473.878	0.654541
476.771	0.364563
479.664	0.82
482.556	0.42231
485.449	1.23112
488.342	1.24992
491.234	2.87463
494.127	2.75117
497.02	3.72723
499.913	4.53853
502.805	5.69577
505.698	6.71802
508.591	7.96538
511.483	9.04208
514.376	11.1665
517.269	12.6384
520.161	13.3872
523.054	14.4773
525.947	14.7601
528.84	15.4595
531.732	15.9306
534.625	17.012
537.518	16.1091
540.41	16.6645
543.303	15.4572
546.196	14.5737
549.088	13.5369
551.981	12.7145
554.874	11.4047
557.766	9.50843
560.659	7.52898
563.552	6.92943
566.444	3.98
569.337	3.23038
572.23	2.86341
575.123	1.58003
578.015	0.791474
580.908	0.410201
583.801	0.00573
586.693	0.103256
589.586	0.663063
592.479	0.503937
595.371	0.387199
598.264	0.320824
601.157	0.286224
604.05	0.702026
606.942	0.032524
609.835	0.837578
612.728	0.759857
615.62	1.73325
618.513	1.6913
621.406	3.73956
624.298	4.36954
627.191	3.8355
630.084	4.37561
632.977	5.49203
635.869	7.26267
638.762	7.00365
641.655	8.09828
644.547	8.43364
647.44	9.39206
650.333	9.83274
653.226	8.82367
656.118	9.98791
659.011	10.5221
661.904	10.4391
664.796	10.3685
667.689	10.4204
670.582	11.3089
673.474	10.6006
676.367	11.6976
679.26	11.8009
682.153	11.9728
685.045	11.4093
687.938	11.8495
690.831	10.0652
693.723	10.2699
696.616	9.37746
699.509	8.88314
702.401	8.82378
705.294	7.51794
708.187	7.49099
711.079	7.22882
713.972	6.22876
716.865	4.64037
719.758	4.47197
722.65	4.11454
725.543	4.40585
728.436	3.00574
731.328	3.3063
734.221	2.56207
737.114	2.38079
740.006	1.62702
742.899	1.56901
745.792	1.35871
748.684	1.50296
751.577	0.293766
754.47	0.654392
757.363	0.917625
760.255	0.603836
763.148	0.461369
766.041	0.233112
768.933	0.688065
771.826	0.036442
774.719	0.426865
777.611	0.164162
780.504	0.20026
783.397	0.629093
786.29	0.171619
789.182	0.078594
792.075	0.111584
794.968	0.07198
797.86	0.203373
800.753	0.106625
803.646	0.499561
806.538	0.327229
809.431	0.806271
812.324	0.307884
815.217	1.07788
818.109	0.419342
821.002	0.150314
823.895	1.15337
826.787	2.36303
829.68	1.9565
832.573	1.97672
835.466	1.60738
838.358	2.00533
841.251	3.04457
844.144	2.73991
847.036	2.62229
849.929	2.68926
852.822	3.03002
855.714	3.14984
858.607	2.94028
861.5	3.39981
864.393	3.00262
867.285	2.8577
870.178	3.16451
873.071	3.36534
875.963	3.53241
878.856	3.24149
881.749	3.37714
884.641	4.17972
887.534	3.38984
890.427	3.59397
893.319	3.98201
896.212	3.42747
899.105	3.07613
901.997	2.75051
904.89	2.43791
907.783	2.87024
910.676	2.43489
913.568	1.68233
916.461	2.49999
919.354	1.66776
922.246	2.11006
925.139	1.79582
928.032	1.67667
930.924	2.29683
933.817	1.42904
936.71	1.12159
939.603	0.760468
942.495	0.203018
945.388	0.302753
948.281	0.303005
951.173	0.356449
954.066	0.237785
956.959	0.019707
959.851	0.712288
962.744	0.590199
965.637	0.000484
968.529	0.345387
971.422	0.104355
974.315	0.070366
977.208	0.368683
980.1	0.372184
982.993	0.655561
985.886	0.977669
988.778	0.829647
991.671	0.671404
994.564	1.03047
997.457	0.873102
1000.35	0.786618
1003.24	1.08004
1006.13	0.899693
1009.03	0.995926
1011.92	0.832764
1014.81	1.27888
1017.71	0.960953
1020.6	0.992867
1023.49	0.990524
1026.38	1.36871
1029.28	1.32195
1032.17	2.13882
1035.06	1.8772
1037.95	2.01062
1040.85	0.698837
1043.74	1.52021
1046.63	1.13785
1049.53	1.68742
1052.42	0.791206
1055.31	1.16491
1058.2	1.04458
1061.1	0.968857
1063.99	0.570744
1066.88	1.23027
1069.77	0.231689
1072.67	0.594227
1075.56	0.566509
1078.45	0.58411
1081.35	0.60487
1084.24	0.743023
1087.13	0.643936
1090.02	0.440853
1092.92	0.308472
1095.81	0.658974
1098.7	0.150738
1101.59	0.387024
1104.49	0.280441
1107.38	0.49107
1110.27	0.490658
1113.16	0.165436
1116.06	0.350452
1118.95	0.004887
1121.84	0.150925
1124.73	0.52343
1127.63	0.248142
1130.52	0.384453
1133.41	0.031956
1136.31	0.493458
1139.2	0.114231
1142.09	0.138704
1144.98	0.532509
1147.88	0.366955
1150.77	0.579128
1153.66	0.395487
1156.56	0.876396
1159.45	0.481796
1162.34	0.0910624
1165.23	0.505901
1168.13	0.542744
1171.02	0.655853
1173.91	0.832851
1176.8	0.416882
1179.7	0.332691
1182.59	0.571716
1185.48	0.548721
1188.38	0.717739
1191.27	1.15717
1194.16	1.15123
1197.05	0.379971
1199.94	0.643822
1202.84	0.911411
1205.73	1.18583
1208.62	0.557129
1211.52	0.533649
1214.41	0.281765
1217.3	0.145226
1220.19	0.585041
1223.09	0.620098
1225.98	0.56926
1228.87	0.27668
1231.77	0.448292
1234.66	0.346634
1237.55	0.691227
1240.44	0.711578
1243.34	0.244537
1246.23	0.221298
1249.12	0.863983
1252.01	0.144085
1254.91	0.208565
1257.8	0.534531
1260.69	0.147057
1263.59	0.350716
1266.48	0.314976
1269.37	1.03008
1272.26	0.862392
1275.16	0.432873
1278.05	0.195906
1280.94	1.4971
1283.83	0.002914
