Measurement: Raman, 532 nm, unoriented, Raman Data Processed
Mineral: Chromite
Rruff sample: R110059
Ideal chemistry: Fe^2+^Cr^3+^_2_O_4_
Locality: Mount Diablo, Contra Costa County, California, USA
Source: James Shigley
Description: Black crystals embedded in a matrix of enstatite
Raman shift (cm-1)	intensity
211.986	0
214.878	1.92468
217.771	1.05042
220.664	3.90366
223.556	2.73709
226.449	2.55719
229.342	2.64844
232.234	3.86948
235.127	4.80832
238.02	2.10895
240.913	2.1427
243.805	1.97449
246.698	1.57425
249.591	1.19852
252.483	2.65466
255.376	2.80881
258.269	1.21231
261.161	2.12765
264.054	1.88626
266.947	2.75174
269.84	2.87402
272.732	3.03635
275.625	4.44559
278.518	4.06
281.41	3.36511
284.303	4.2619
287.196	0.609741
290.089	1.69638
292.981	1.61688
295.874	1.73792
298.767	3.82468
301.659	2.24936
304.552	3.67862
307.445	2.84457
310.337	2.81824
313.23	2.45712
316.123	2.16379
319.015	2.72955
321.908	2.50708
324.801	2.06995
327.694	2.70105
330.586	1.18094
333.479	0.27243
336.372	1.32282
339.264	3.03952
342.157	2.04401
345.05	2.06418
347.942	0.474976
350.835	2.93222
353.728	1.51566
356.621	2.48431
359.513	1.0271
362.406	2.30844
365.299	1.58679
368.191	1.89398
371.084	1.29019
373.977	2.16776
376.87	0.128784
379.762	0.001465
382.655	0.371094
385.548	0.346863
388.44	2.17618
391.333	1.50717
394.226	0.930756
397.118	0.740631
400.011	0.243469
402.904	3.82065
405.796	2.59653
408.689	1.16531
411.582	0.877991
414.475	3.34378
417.367	4.70047
420.26	0.298798
423.153	0.288544
426.045	1.5557
428.938	0.411041
431.831	0.905914
434.724	1.16357
437.616	0.937531
440.509	3.83743
443.402	1.6918
446.294	3.05621
449.187	2.49698
452.08	1.33563
454.972	1.74048
457.865	2.20019
460.758	3.26382
463.651	1.2056
466.543	1.12372
469.436	0.756958
472.329	1.43494
475.221	1.25574
478.114	1.2124
481.007	1.5629
483.899	1.91803
486.792	1.38043
489.685	1.3938
492.577	1.06229
495.47	1.3522
498.363	2.01059
501.256	2.71115
504.148	1.66724
507.041	2.71722
509.934	4.45599
512.826	5.38535
515.719	7.12271
518.612	6.15631
521.505	8.22778
524.397	10.4545
527.29	13.787
530.183	12.289
533.075	13.3929
535.968	15.8058
538.861	17.931
541.753	17.9556
544.646	19.3292
547.539	20.8183
550.432	20.2972
553.324	21.3813
556.217	19.457
559.11	19.6344
562.002	20.3211
564.895	19.301
567.788	18.1527
570.68	17.7852
573.573	16.8507
576.466	13.4439
579.359	13.4991
582.251	12.6528
585.144	9.7475
588.037	10.4799
590.929	9.83133
593.822	10.0865
596.715	7.04187
599.607	6.76569
602.5	3.20764
605.393	2.05859
608.285	0.369965
611.178	0.047333
614.071	1.34256
616.964	1.14545
619.856	0.601196
622.749	1.08814
625.642	0.063049
628.534	1.77899
631.427	4.83011
634.32	7.74036
637.212	9.11325
640.105	10.8003
642.998	10.3951
645.891	12.4179
648.783	10.8506
651.676	11.4888
654.569	13.7693
657.461	14.9861
660.354	18.1768
663.247	20.449
666.139	23.5576
669.032	28.7029
671.925	33.6962
674.818	37.9917
677.71	43.2054
680.603	49.9333
683.496	57.9605
686.388	54.9852
689.281	55.7606
692.174	53.1054
695.067	50.3838
697.959	45.4279
700.852	39.8834
703.745	33.4714
706.637	30.6308
709.53	30.2828
712.423	28.6594
715.315	27.7701
718.208	24.4375
721.101	25.4618
723.994	28.4613
726.886	29.3397
729.779	33.9663
732.672	32.3686
735.564	32.2979
738.457	31.6405
741.35	26.3479
744.242	22.1135
747.135	16.7334
750.028	13.0807
752.92	11.794
755.813	8.1788
758.706	6.89545
761.599	3.38409
764.491	1.14758
767.384	1.98758
770.277	0.732605
773.169	1.79324
776.062	0.598541
778.955	0.207611
781.847	0.652283
784.74	1.03925
787.633	1.53046
790.526	0.736969
793.418	0.785156
796.311	1.67679
799.204	0.636658
802.096	0.615967
804.989	2.67044
807.882	1.24405
810.774	1.52432
813.667	2.08221
816.56	3.7291
819.453	4.22144
822.345	5.40637
825.238	3.27167
828.131	1.97382
831.023	3.66153
833.916	3.13339
836.809	2.76633
839.702	4.1507
842.594	5.7359
845.487	3.99286
848.38	2.78879
851.272	3.46442
854.165	3.51553
857.058	4.83487
859.95	5.03735
862.843	5.07251
865.736	3.3208
868.629	0.968353
871.521	2.49448
874.414	3.77655
877.307	3.25607
880.199	2.33633
883.092	3.05267
885.985	3.66888
888.877	3.23441
891.77	2.27014
894.663	2.11993
897.556	1.12308
900.448	0.3797
903.341	0.981049
906.234	2.79394
909.126	2.74597
912.019	1.61157
914.912	1.89658
917.804	3.15823
920.697	1.58929
923.59	1.4129
926.482	3.06189
929.375	1.19775
932.268	0.268707
935.161	0.10379
938.053	0.049072
940.946	0.784546
943.839	2.59399
946.731	4.1441
949.624	1.45953
952.517	2.02249
955.409	3.66388
958.302	2.00226
961.195	0.245667
964.088	1.04938
966.98	2.20429
969.873	1.60379
972.766	1.21378
975.658	0.335938
978.551	0.739807
981.444	1.91565
984.337	1.24475
987.229	1.9845
990.122	2.99182
993.015	2.31488
995.907	1.41998
998.8	0.666748
1001.69	0.114258
1004.59	0.002502
1007.48	0.517334
1010.37	2.22449
1013.26	0.607056
1016.16	0.634949
1019.05	0.609131
1021.94	3.25568
1024.83	2.35229
1027.73	0.070984
1030.62	1.75092
1033.51	2.03278
1036.4	4.55792
1039.3	2.58081
1042.19	4.16937
1045.08	1.47943
1047.98	0.655701
1050.87	2.47253
1053.76	1.90338
1056.65	3.24756
1059.55	3.22076
1062.44	0.56073
1065.33	2.65045
1068.22	1.2121
1071.12	2.78918
1074.01	0.20929
1076.9	0.080627
1079.8	1.65051
1082.69	1.52258
1085.58	0.585144
1088.47	0.624695
1091.37	0.917908
1094.26	1.56793
1097.15	2.63971
1100.04	2.12878
1102.94	3.67853
1105.83	3.1864
1108.72	1.59277
1111.62	3.74268
1114.51	4.49286
1117.4	2.30804
1120.29	2.09888
1123.19	2.33697
1126.08	0.839722
1128.97	1.34918
1131.86	0.066528
1134.76	1.35107
1137.65	2.90338
1140.54	1.74847
1143.43	1.84936
1146.33	1.62701
1149.22	2.41412
1152.11	2.10571
1155.01	0.772766
1157.9	0.899658
1160.79	1.06073
1163.68	0.661865
1166.58	1.57086
1169.47	1.12573
1172.36	0.790161
1175.26	0.182861
1178.15	1.23688
1181.04	1.48157
1183.93	0.48938
1186.83	1.91516
1189.72	1.5976
1192.61	3.90332
1195.5	2.91357
1198.4	2.40308
1201.29	2.76672
1204.18	1.8277
1207.07	3.85895
1209.97	5.646
1212.86	6.36755
1215.75	3.95447
1218.64	1.44519
1221.54	2.34112
1224.43	2.64795
1227.32	2.21771
1230.22	1.1828
1233.11	0.272095
1236	1.1413
1238.89	0.219177
1241.79	0.970337
1244.68	0.729919
1247.57	2.02765
1250.46	3.32501
1253.36	0.499878
1256.25	2.23511
1259.14	3.24939
1262.04	2.36255
1264.93	3.87994
1267.82	2.78864
1270.71	0.935181
1273.61	3.03125
1276.5	1.63238
1279.39	2.11108
1282.29	3.68665
1285.18	3.41089
1288.07	2.82288
1290.96	0.381348
1293.86	0.008728
1296.75	0.070618
1299.64	2.61493
1302.53	0.72467
