Measurement: Raman, 780 nm, unoriented, Raman Data Processed
Mineral: Chromite
Rruff sample: R110059
Ideal chemistry: Fe^2+^Cr^3+^_2_O_4_
Locality: Mount Diablo, Contra Costa County, California, USA
Source: James Shigley
Description: Black crystals embedded in a matrix of enstatite
Raman shift (cm-1)	intensity
226.114	0
229.007	0.093445
231.899	0.224182
234.792	2.64838
237.685	4.87195
240.578	2.48132
243.47	3.9845
246.363	2.79571
249.256	4.45709
252.148	2.29071
255.041	0.276794
257.934	1.81049
260.827	1.2196
263.719	2.50128
266.612	1.01215
269.505	3.52924
272.397	1.61884
275.29	1.88251
278.183	4.78528
281.075	3.70728
283.968	3.50915
286.861	2.23462
289.753	3.26508
292.646	2.49707
295.539	2.20697
298.432	5.09924
301.324	2.4729
304.217	2.99792
307.11	2.27814
310.002	2.60144
312.895	3.75269
315.788	2.32825
318.68	1.87042
321.573	3.3183
324.466	6.81335
327.359	3.94312
330.251	0.211365
333.144	1.16235
336.037	1.17371
338.929	1.51794
341.822	1.44263
344.715	0.930969
347.608	3.73822
350.5	0.212891
353.393	2.94373
356.286	1.92822
359.178	1.60339
362.071	1.03284
364.964	2.2298
367.856	2.13269
370.749	2.1792
373.642	2.55884
376.534	1.90161
379.427	0.283142
382.32	0.589111
385.213	0.463928
388.105	2.59027
390.998	2.23114
393.891	0.289185
396.783	0.6427
399.676	0.318726
402.569	0.031799
405.462	1.18231
408.354	0.107544
411.247	0.135315
414.14	1.24689
417.032	1.97815
419.925	1.73328
422.818	1.91278
425.71	1.33875
428.603	0.228516
431.496	3.01074
434.389	3.2547
437.281	2.11041
440.174	1.94128
443.067	2.81909
445.959	2.89002
448.852	1.23944
451.745	4.36066
454.637	4.1618
457.53	3.10846
460.423	6.3075
463.315	5.70667
466.208	3.55902
469.101	2.71301
471.994	4.52106
474.886	4.69855
477.779	2.25159
480.672	0.180725
483.564	2.41681
486.457	0.174744
489.35	0.906555
492.243	0.238708
495.135	0.505005
498.028	0.154297
500.921	1.67749
503.813	3.09106
506.706	3.41364
509.599	6.48822
512.491	8.34625
515.384	10.399
518.277	8.79804
521.169	7.51477
524.062	7.81061
526.955	8.82666
529.848	3.99805
532.74	3.61639
535.633	5.255
538.526	3.95813
541.418	2.64044
544.311	4.06744
547.204	1.91095
550.096	2.7456
552.989	3.55005
555.882	4.69269
558.775	4.17053
561.667	5.13892
564.56	6.24872
567.453	5.74316
570.345	6.43701
573.238	5.73578
576.131	6.55066
579.024	4.12286
581.916	5.34424
584.809	3.62756
587.702	6.50873
590.594	2.52612
593.487	4.99567
596.38	5.4361
599.272	2.90649
602.165	3.54065
605.058	1.57111
607.951	1.63745
610.843	1.23328
613.736	0.389526
616.629	1.16772
619.521	4.43072
622.414	1.091
625.307	3.38428
628.199	1.68787
631.092	5.91357
633.985	8.00256
636.878	9.50153
639.77	11.6693
642.663	11.3539
645.556	12.4779
648.448	14.2121
651.341	12.4719
654.234	13.9557
657.126	16.6626
660.019	19.7974
662.912	24.4629
665.804	27.503
668.697	34.7613
671.59	40.7651
674.483	48.6748
677.375	54.1276
680.268	60.6548
683.161	61.8654
686.053	62.5842
688.946	61.7349
691.839	59.759
694.731	54.1602
697.624	45.7895
700.517	40.9853
703.41	34.0378
706.302	31.4679
709.195	29.3227
712.088	26.0826
714.98	26.5719
717.873	25.0102
720.766	25.7895
723.659	27.684
726.551	28.3681
729.444	32.179
732.337	35.5857
735.229	33.9582
738.122	33.337
741.015	26.3174
743.907	23.1929
746.8	18.7825
749.693	14.8217
752.586	11.2109
755.478	8.14758
758.371	6.26532
761.264	6.26477
764.156	0.221069
767.049	0.486328
769.942	1.52942
772.834	0.451233
775.727	0.338257
778.62	0.284424
781.513	0.383118
784.405	1.22119
787.298	0.282837
790.191	0.404236
793.083	2.60437
795.976	2.73755
798.869	0.090393
801.761	1.82629
804.654	0.613586
807.547	2.55353
810.439	3.02966
813.332	1.32623
816.225	4.81134
819.118	4.31018
822.01	5.60315
824.903	4.19495
827.796	5.42181
830.688	4.97986
833.581	4.57587
836.474	6.33466
839.366	5.15125
842.259	5.12329
845.152	5.72705
848.045	4.47455
850.937	4.64771
853.83	4.46155
856.723	5.1554
859.615	6.24451
862.508	4.29486
865.401	3.35431
868.293	3.0918
871.186	3.39954
874.079	4.03082
876.972	4.27417
879.864	3.5918
882.757	2.20331
885.65	5.16803
888.542	3.55896
891.435	3.0849
894.328	5.1886
897.221	2.22229
900.113	0.777649
903.006	0.555542
905.899	2.00842
908.791	1.18176
911.684	2.12219
914.577	1.54553
917.469	1.56152
920.362	2.85388
923.255	0.260071
926.148	1.48645
929.04	0.126953
931.933	0.710327
934.826	2.33557
937.718	0.634888
940.611	0.292603
943.504	0.033081
946.396	0.709167
949.289	2.25586
952.182	3.81928
955.074	2.79742
957.967	2.6839
960.86	3.53235
963.753	1.64661
966.645	5.18487
969.538	2.92071
972.431	4.63959
975.323	0.50885
978.216	0.271484
981.109	1.3999
984.001	1.4646
986.894	0.545227
989.787	1.50983
992.68	0.83728
995.572	2.2688
998.465	1.53863
1001.36	0.326416
1004.25	0.127075
1007.14	0.392761
1010.04	2.40362
1012.93	1.8374
1015.82	1.6853
1018.71	1.71594
1021.61	0.77005
1024.5	0.211853
1027.39	1.74945
1030.29	3.52451
1033.18	2.80023
1036.07	2.60858
1038.96	3.27774
1041.86	2.15945
1044.75	2.99442
1047.64	0.961029
1050.53	1.93436
1053.43	1.11319
1056.32	2.53473
1059.21	2.89255
1062.1	3.00326
1065	3.6879
1067.89	4.07608
1070.78	3.37164
1073.67	2.64328
1076.57	2.92154
1079.46	0.915436
1082.35	2.60074
1085.25	1.32587
1088.14	3.27646
1091.03	2.55893
1093.92	3.92032
1096.82	1.56125
1099.71	2.97769
1102.6	2.78043
1105.49	0.732147
1108.39	1.85648
1111.28	1.91952
1114.17	0.181091
1117.07	0.839691
1119.96	0.126953
1122.85	1.20328
1125.74	0.089783
1128.64	0.306213
1131.53	0.686523
1134.42	1.88974
1137.32	1.63043
1140.21	1.96661
1143.1	2.57288
1145.99	1.52564
1148.88	2.12378
1151.78	1.47754
1154.67	2.33572
1157.56	3.37634
1160.46	2.52475
1163.35	2.58942
1166.24	2.95349
1169.13	3.90634
1172.03	3.29562
1174.92	7.04492
1177.81	4.67307
1180.7	3.54602
1183.6	3.16305
1186.49	3.46179
1189.38	6.52902
1192.28	3.29987
1195.17	5.07205
1198.06	4.99457
1200.95	3.28793
1203.85	5.33688
1206.74	4.78592
1209.63	3.83191
1212.53	4.13886
1215.42	3.6944
1218.31	3.85861
1221.2	2.28348
1224.1	2.02612
1226.99	3.591
1229.88	0.031281
1232.77	1.56314
1235.67	1.53458
1238.56	1.30222
1241.45	0.510895
1244.34	0.201172
1247.24	1.35117
1250.13	1.16183
1253.02	0.847229
1255.91	1.58847
1258.81	2.26434
1261.7	2.51938
1264.59	3.76523
1267.49	2.84985
1270.38	2.25342
1273.27	1.46692
1276.16	2.23111
1279.06	2.94595
1281.95	3.00638
1284.84	0.653198
