Measurement: Raman, 780 nm, unoriented, Raman Data Processed
Mineral: Chrysoberyl
Rruff sample: X080002
Ideal chemistry: BeAl_2_O_4_
Locality: Synthetic
Source: Gemological Institute of America
Description: Faceted purple alexandrite gemstone, 7.35 ct
Raman shift (cm-1)	intensity
103.908	0
107.282	4.87756
110.657	2.25714
114.032	2.43646
117.407	3.50378
120.782	3.76776
124.157	2.17847
127.531	0.611511
130.906	3.66138
134.281	2.6098
137.656	0.066589
141.031	6.31
144.405	5.02905
147.78	6.64123
151.155	9.77008
154.53	4.40601
157.905	6.61304
161.28	4.66266
164.654	0.131775
168.029	0.353088
171.404	3.45007
174.779	3.85455
178.154	0.142395
181.529	1.40961
184.903	1.29694
188.278	2.55823
191.653	1.33752
195.028	1.81714
198.403	3.6944
201.777	1.99896
205.152	5.34424
208.527	5.62695
211.902	9.78473
215.277	12.2931
218.651	12.7833
222.026	18.1782
225.401	15.973
228.776	20.2041
232.151	21.522
235.526	26.7314
238.9	27.7814
242.275	38.7935
245.65	29.4043
249.025	20.5125
252.4	18.9132
255.774	18.8337
259.149	20.061
262.524	21.012
265.899	20.0998
269.274	18.7227
272.649	19.5303
276.023	17.3955
279.398	18.4952
282.773	19.4913
286.148	17.0102
289.523	14.1888
292.897	14.7567
296.272	10.6172
299.647	8.81213
303.022	6.8266
306.397	3.79865
309.772	3.97504
313.146	2.60406
316.521	3.95215
319.896	1.51862
323.271	0.910767
326.646	3.85077
330.021	0.72998
333.395	5.5614
336.77	2.96197
340.145	7.56909
343.52	9.08209
346.895	14.5786
350.269	33.5083
353.644	28.1531
357.019	31.5306
360.394	12.9309
363.769	13.9061
367.144	10.0542
370.518	22.3865
373.893	15.4074
377.268	3.19849
380.643	1.60812
384.018	2.58368
387.392	2.91556
390.767	1.11636
394.142	4.65961
397.517	2.60171
400.892	2.14096
404.267	2.03348
407.641	5.53549
411.016	4.22513
414.391	9.30032
417.766	18.097
421.141	48.1845
424.515	33.6995
427.89	8.06448
431.265	10.6032
434.64	23.6882
438.015	22.9682
441.389	16.4608
444.764	8.62015
448.139	11.2866
451.514	0.789032
454.889	0.968048
458.264	1.0611
461.639	11.0756
465.013	9.76321
468.388	11.0146
471.763	18.5419
475.138	40.5937
478.512	140.61
481.887	104.006
485.262	10.5967
488.637	3.70706
492.012	0.547913
495.387	0.950653
498.761	3.97003
502.136	12.4418
505.511	16.7775
508.886	12.8928
512.261	20.9061
515.636	49.677
519.01	135.84
522.385	64.9612
525.76	23.7314
529.135	6.57498
532.51	2.61801
535.885	2.44119
539.259	4.77011
542.634	11.1633
546.009	31.1769
549.384	51.7664
552.759	21.5881
556.133	10.2149
559.508	9.03433
562.883	18.7426
566.258	40.3829
569.633	21.1562
573.007	5.48679
576.382	2.83716
579.757	3.56653
583.132	2.04968
586.507	0.771027
589.882	0.190247
593.256	1.40863
596.631	2.81488
600.006	0.017883
603.381	0.786591
606.756	0.406677
610.13	0.832703
613.505	1.27374
616.88	0.908539
620.255	1.12311
623.63	4.39597
627.005	4.24533
630.379	3.42374
633.754	5.20779
637.129	8.29108
640.504	20.0747
643.879	12.6176
647.254	10.569
650.628	5.17529
654.003	7.92715
657.378	7.52539
660.753	6.12558
664.128	8.70154
667.502	10.1474
670.877	13.469
674.252	31.9057
677.627	62.1765
681.002	36.2518
684.376	12.0263
687.751	4.46835
691.126	0.725372
694.501	1.31439
697.876	0.480011
701.251	0.901428
704.625	1.60117
708	13.706
711.375	21.4605
714.75	14.0219
718.125	5.76947
721.5	3.06561
724.874	0.181366
728.249	0.347595
731.624	1.03943
734.999	1.86328
738.374	4.47009
741.748	8.04126
745.123	12.8026
748.498	7.09726
751.873	2.55576
755.248	1.87378
758.622	0.074493
761.997	3.29639
765.372	6.18079
768.747	17.8875
772.122	29.6876
775.497	53.5012
778.871	80.6985
782.246	69.1392
785.621	36.6199
788.996	18.4272
792.371	10.9482
795.745	5.15146
799.12	2.31033
802.495	2.74692
805.87	2.50412
809.245	3.04935
812.62	2.66147
815.994	5.48608
819.369	4.53326
822.744	3.72324
826.119	2.0943
829.494	1.2547
832.869	3.69785
836.243	1.49439
839.618	2.30948
842.993	2.06802
846.368	2.2254
849.743	0.82489
853.117	0.092438
856.492	0.772797
859.867	0.238892
863.242	0.586975
866.617	2.42334
869.991	1.46628
873.366	1.94411
876.741	1.06334
880.116	2.44864
883.491	0.711029
886.866	0.945953
890.24	2.75992
893.615	0.511368
896.99	0.534927
900.365	2.98914
903.74	2.77617
907.115	4.43634
910.489	3.72971
913.864	7.9388
917.239	11.0153
920.614	16.6482
923.989	29.157
927.364	43.6425
930.738	64.2014
934.113	75.5399
937.488	61.4374
940.863	38.9716
944.237	24.193
947.612	15.5648
950.987	12.2715
954.362	6.89894
957.737	4.27214
961.112	3.67087
964.486	2.74008
967.861	3.35083
971.236	0.998047
974.611	2.11696
977.986	0.571121
981.361	0.612808
984.735	1.369
988.11	0.174454
991.485	1.59694
994.86	2.22113
998.235	1.23834
1001.61	1.00609
1004.98	0.081711
1008.36	1.43529
1011.73	0.968506
1015.11	2.29146
1018.48	1.51732
1021.86	4.28905
1025.23	0.576996
1028.61	1.48402
1031.98	0.942398
1035.36	1.83031
1038.73	3.86549
1042.11	2.27219
1045.48	1.87599
1048.86	0.980423
1052.23	1.22539
1055.61	2.319
1058.98	4.51552
1062.36	1.68732
1065.73	1.77721
1069.11	3.79175
1072.48	2.44046
1075.86	1.05956
1079.23	4.4885
1082.61	1.13502
1085.98	2.81613
1089.36	2.08818
1092.73	4.69038
1096.1	1.9975
1099.48	3.17688
1102.85	2.3846
1106.23	1.73111
1109.6	1.83197
1112.98	1.71045
1116.35	0.959717
1119.73	1.11076
1123.1	1.63147
1126.48	3.34151
1129.85	0.880005
1133.23	2.07373
1136.6	1.06839
1139.98	1.36108
1143.35	0.444809
1146.73	3.29079
1150.1	0.589966
1153.48	2.40651
1156.85	1.43797
1160.23	0.544632
1163.6	1.48968
1166.98	2.1488
1170.35	3.17198
1173.72	0.884232
1177.1	2.33261
1180.47	2.15497
1183.85	0.017471
1187.22	2.23302
1190.6	1.14371
1193.97	0.072083
1197.35	2.19702
1200.72	4.74925
1204.1	3.89627
1207.47	1.72224
1210.85	5.70728
1214.22	2.68727
1217.6	1.75108
1220.97	1.19133
1224.35	3.25511
1227.72	3.47604
1231.1	2.0863
1234.47	2.25728
1237.85	4.12154
1241.22	5.37341
1244.6	2.70299
1247.97	2.81026
1251.35	0.202103
1254.72	2.50395
1258.1	1.58875
1261.47	0.868729
1264.85	0.687622
1268.22	0.118713
1271.6	2.23253
1274.97	0.314758
1278.35	1.25227
1281.72	0.868683
1285.09	1.89696
