Measurement: Raman, 532 nm, unoriented, Raman Data Processed
Mineral: Chrysoberyl
Rruff sample: X080002
Ideal chemistry: BeAl_2_O_4_
Locality: Synthetic
Source: Gemological Institute of America
Description: Faceted purple alexandrite gemstone, 7.35 ct
Raman shift (cm-1)	intensity
168.629	0
171.521	6.67578
174.414	0.62793
177.307	17.6782
180.199	11.0518
183.092	26.6133
185.985	28.3814
188.877	32.4722
191.77	48.9082
194.663	38.0615
197.556	40.8384
200.448	33.1548
203.341	29.7398
206.234	15.9609
209.126	0.099121
212.019	4.87744
214.912	8.01807
217.804	10.1333
220.697	17.1514
223.59	16.5513
226.483	6.61768
229.375	7.32812
232.268	4.85254
235.161	36.8091
238.053	44.2754
240.946	57.1763
243.839	49.4121
246.732	38.0635
249.624	27.2534
252.517	33.6352
255.41	37.1318
258.302	38.0298
261.195	44.7744
264.088	37.3384
266.98	43.8975
269.873	37.5098
272.766	25.8462
275.659	30.7346
278.551	29.7524
281.444	21.2236
284.337	33.1946
287.229	28.5664
290.122	41.7866
293.015	31.6885
295.907	39.2685
298.8	28.1133
301.693	8.41943
304.586	15.4685
307.478	7.65161
310.371	14.9441
313.264	12.7449
316.156	6.2063
319.049	5.92017
321.942	4.48242
324.834	0.873047
327.727	0.204102
330.62	3.27905
333.512	5.28467
336.405	8.98755
339.298	7.8728
342.191	11.9211
345.083	23.4932
347.976	46.7039
350.869	76.3901
353.761	51.6187
356.654	53.7148
359.547	31.6987
362.44	12.4053
365.332	13.5518
368.225	18.5605
371.118	27.1033
374.01	17.6074
376.903	3.93774
379.796	2.70264
382.688	2.17822
385.581	14.0178
388.474	10.5364
391.366	1.02173
394.259	20.8809
397.152	28.0955
400.045	8.5144
402.937	3.92969
405.83	10.4658
408.723	15.9763
411.615	28.6377
414.508	29.5054
417.401	39.3213
420.293	74.7097
423.186	53.5325
426.079	13.6873
428.972	17.27
431.864	25.002
434.757	43.9321
437.65	25.5725
440.542	16.2109
443.435	27.4106
446.328	25.2695
449.221	16.3982
452.113	10.7996
455.006	6.23169
457.899	2.11157
460.791	13.1555
463.684	18.3347
466.577	17.8311
469.469	30.2852
472.362	50.2978
475.255	91.4473
478.147	190.108
481.04	123.138
483.933	16.575
486.826	11.6165
489.718	6.83569
492.611	10.5798
495.504	15.7021
498.396	24.3789
501.289	38.8948
504.182	59.6182
507.075	38.4651
509.967	36.9048
512.86	47.0098
515.753	82.6624
518.645	169.84
521.538	81.6585
524.431	37.5757
527.323	17.9185
530.216	11.7188
533.109	7.94458
536.001	13.2251
538.894	14.1248
541.787	37.197
544.68	53.9668
547.572	71.4023
550.465	56.9888
553.358	16.0832
556.25	14.5745
559.143	21.4805
562.036	34.7681
564.928	50.999
567.821	47.0388
570.714	28.7344
573.607	20.168
576.499	18.261
579.392	16.1807
582.285	19.79
585.177	17.6328
588.07	20.0322
590.963	14.2822
593.856	21.7866
596.748	14.7334
599.641	11.96
602.534	10.5046
605.426	12.9282
608.319	18.0681
611.212	19.1394
614.104	20.9206
616.997	13.8044
619.89	6.51489
622.783	7.57275
625.675	0.790527
628.568	0.569092
631.461	28.2661
634.353	17.5815
637.246	37.4204
640.139	49.6755
643.031	31.3445
645.924	10.8767
648.817	14.2695
651.71	14.7009
654.602	23.9477
657.495	27.3835
660.388	22.0322
663.28	21.7085
666.173	29.8054
669.066	27.8105
671.958	44.1858
674.851	73.9138
677.744	91.9568
680.636	57.6499
683.529	30.1802
686.422	13.8652
689.315	10.4951
692.207	3.05396
695.1	3.00708
697.993	1.60474
700.885	2.20532
703.778	0.137695
706.671	3.09619
709.563	26.7576
712.456	34.4582
715.349	15.405
718.242	8.94067
721.134	14.4111
724.027	5.73071
726.92	6.71851
729.812	14.8262
732.705	16.2576
735.598	15.8318
738.49	20.8105
741.383	41.1301
744.276	43.2795
747.169	29.248
750.061	20.1748
752.954	14.9639
755.847	27.1711
758.739	31.0076
761.632	37.2388
764.525	42.3157
767.418	53.0759
770.31	77.856
773.203	98.8901
776.096	138.837
778.988	149.332
781.881	112.584
784.774	62.1892
787.666	38.2363
790.559	22.2009
793.452	24.5979
796.345	28.6047
799.237	18.3115
802.13	16.7051
805.023	30.7839
807.915	34.3098
810.808	30.595
813.701	33.3193
816.593	51.2891
819.486	54.9231
822.379	37.9055
825.271	14.2158
828.164	2.61719
831.057	4.8064
833.95	10.0859
836.842	3.51489
839.735	2.06348
842.628	10.346
845.52	7.25952
848.413	2.65185
851.306	16.189
854.198	22.3701
857.091	33.9365
859.984	36.7583
862.877	43.8918
865.769	32.8332
868.662	31.2095
871.555	40.3562
874.447	34.979
877.34	33.9273
880.233	34.1926
883.125	22.6855
886.018	17.626
888.911	1.97827
891.804	1.86914
894.696	5.08838
897.589	2.69824
900.482	8.77368
903.374	24.3381
906.267	24.5207
909.16	44.6001
912.053	40.4485
914.945	58.0305
917.838	77.9602
920.731	97.5994
923.623	138.954
926.516	180.171
929.409	215.786
932.301	213.112
935.194	174.668
938.087	112.611
940.98	71.2476
943.872	43.5923
946.765	25.1865
949.658	13.46
952.55	8.22461
955.443	9.93921
958.336	2.68359
961.228	10.2605
964.121	4.67969
967.014	0.255615
969.907	1.56567
972.799	2.57983
975.692	7.88037
978.585	15.9294
981.477	19.5298
984.37	24.897
987.263	17.907
990.155	7.37476
993.048	17.4192
995.941	18.2236
998.833	21.1314
1001.73	25.7146
1004.62	18.4898
1007.51	22.7314
1010.4	26.6179
1013.3	9.08032
1016.19	16.3103
1019.08	9.79858
1021.98	19.802
1024.87	24.6685
1027.76	19.8166
1030.65	9.3706
1033.55	10.2559
1036.44	9.57398
1039.33	15.1614
1042.22	14.2539
1045.12	32.1748
1048.01	19.6287
1050.9	22.5837
1053.8	15.9392
1056.69	10.5212
1059.58	24.6421
1062.47	28.9287
1065.37	21.0068
1068.26	17.8794
1071.15	28.9248
1074.04	25.6323
1076.94	23.9004
1079.83	29.8911
1082.72	24.8892
1085.62	18.332
1088.51	3.56836
1091.4	6.46143
1094.29	11.2651
1097.18	21.1504
1100.08	26.188
1102.97	25.8037
1105.86	17.8271
1108.76	4.52148
1111.65	4.21143
1114.54	6.66504
1117.43	9.31152
1120.33	2.14453
1123.22	5.7959
1126.11	0.310547
1129.01	11.1987
1131.9	6.9292
1134.79	15.3335
1137.68	7.03564
1140.58	9.24658
