Measurement: Raman, 785 nm, unoriented, Raman Data Processed
Mineral: Chrysoberyl
Rruff sample: R040073
Ideal chemistry: BeAl_2_O_4_
Locality: Brazil
Source: University of Arizona Mineral Museum
Description: Pair of green prismatic crystals
Measured chemistry: (Be_0.89_Al_0.06_Fe_0.02_)Al_2.00_O_4_
Raman shift (cm-1)	intensity
151.038	0
153.931	63.8802
156.824	16.6743
159.717	34.8241
162.609	0.19043
165.502	35.3541
168.395	31.4996
171.287	105.168
174.18	110.77
177.073	75.8752
179.965	31.4924
182.858	28.1097
185.751	41.4864
188.644	45.8118
191.536	19.6821
194.429	40.2362
197.322	22.8484
200.214	55.0708
203.107	30.8778
206	45.2268
208.893	63.8404
211.785	76.8302
214.678	46.0078
217.571	41.0875
220.463	58.6919
223.356	52.0614
226.249	40.5475
229.141	36.2339
232.034	70.6499
234.927	79.9103
237.82	100.441
240.712	122.077
243.605	123.143
246.498	58.0275
249.39	59.307
252.283	46.1904
255.176	53.6018
258.068	31.9404
260.961	41.5127
263.854	39.8738
266.747	50.2648
269.639	47.0956
272.532	44.6168
275.425	3.19251
278.317	17.0621
281.21	23.4842
284.103	36.8883
286.995	3.55237
289.888	28.4622
292.781	21.8497
295.673	23.2048
298.566	23.6058
301.459	30.0071
304.352	7.51306
307.244	12.2628
310.137	2.3396
313.03	41.4376
315.922	40.1676
318.815	1.93152
321.708	0.599976
324.601	13.4056
327.493	37.15
330.386	31.6443
333.279	39.3457
336.171	56.0156
339.064	76.3997
341.957	120.647
344.849	242.712
347.742	376.592
350.635	371.19
353.527	231.681
356.42	183.988
359.313	184.731
362.206	293.511
365.098	446.891
367.991	599.928
370.884	534.072
373.776	224.043
376.669	117.793
379.562	17.9812
382.454	32.2277
385.347	29.9104
388.24	39.1514
391.133	75.8544
394.025	138.303
396.918	181.812
399.811	26.217
402.703	4.31714
405.596	8.62158
408.489	13.3326
411.382	20.1332
414.274	49.1348
417.167	41.8986
420.06	164.065
422.952	59.5247
425.845	12.0646
428.738	10.9459
431.63	69.1258
434.523	74.1156
437.416	119.114
440.308	210.839
443.201	350.409
446.094	491.792
448.987	231.163
451.879	202.258
454.772	436.905
457.665	827.541
460.557	772.591
463.45	170.877
466.343	93.1554
469.236	158.057
472.128	354.363
475.021	621.369
477.914	822.083
480.806	306.899
483.699	108.648
486.592	47.2747
489.484	54.7364
492.377	64.7548
495.27	130.986
498.163	246.369
501.055	505.705
503.948	315.343
506.841	116.641
509.733	115.634
512.626	305.995
515.519	630.218
518.411	959.188
521.304	1126.65
524.197	1016.64
527.09	389.089
529.982	111.966
532.875	35.5581
535.768	57.9186
538.66	107.359
541.553	144.716
544.446	161.909
547.338	195.473
550.231	104.374
553.124	44.7966
556.016	52.5306
558.909	42.7549
561.802	28.8035
564.695	9.34509
567.587	7.16125
570.48	15.0851
573.373	0.794678
576.265	15.8366
579.158	7.12659
582.051	18.5324
584.943	41.0885
587.836	15.2847
590.729	4.4779
593.621	38.7672
596.514	30.886
599.407	46.292
602.3	47.5181
605.192	43.3967
608.085	33.0557
610.978	55.9371
613.87	72.9831
616.763	80.8008
619.656	86.979
622.548	109.809
625.441	187.049
628.334	217.399
631.227	471.326
634.119	976.332
637.012	1729
639.905	1798.44
642.797	649.299
645.69	222.907
648.583	173.787
651.476	163.451
654.368	183.364
657.261	162.272
660.154	107.936
663.046	37.0669
665.939	46.4659
668.832	23.0864
671.724	39.9564
674.617	115.696
677.51	76.5128
680.403	51.8645
683.295	24.7404
686.188	21.9136
689.081	24.49
691.973	20.8296
694.866	42.624
697.759	27.4979
700.651	40.1136
703.544	18.9703
706.437	86.6344
709.33	129.663
712.222	137.287
715.115	60.4721
718.008	35.781
720.9	2.51269
723.793	28.6062
726.686	23.7599
729.578	4.14551
732.471	14.7498
735.364	30.8889
738.256	7.57849
741.149	35.5018
744.042	12.8427
746.935	43.3768
749.827	9.95483
752.72	30.5149
755.613	24.821
758.505	41.9221
761.398	75.4534
764.291	109.684
767.183	121.527
770.076	300.671
772.969	506.713
775.862	660.3
778.754	727.696
781.647	568.318
784.54	337.633
787.432	206.862
790.325	118.506
793.218	67.0106
796.111	58.9772
799.003	6.99213
801.896	23.6502
804.789	52.379
807.681	130.945
810.574	174.964
813.467	295.913
816.359	357.536
819.252	257.058
822.145	149.401
825.038	79.7519
827.93	81.2684
830.823	107.861
833.716	90.5104
836.608	44.2663
839.501	14.9882
842.394	29.8795
845.286	22.0154
848.179	44.789
851.072	5.76453
853.965	30.1135
856.857	43.1229
859.75	38.187
862.643	6.91107
865.535	47.6948
868.428	11.8563
871.321	3.04987
874.213	13.7726
877.106	45.5551
879.999	22.5239
882.891	11.1649
885.784	6.33984
888.677	3.53571
891.57	0.930542
894.462	13.8487
897.355	11.8464
900.248	19.6175
903.14	55.5976
906.033	15.2691
908.926	44.7639
911.818	64.6631
914.711	101.832
917.604	197.028
920.497	348.622
923.389	553.749
926.282	904.423
929.175	1275.54
932.067	1438.64
934.96	1184.62
937.853	817.111
940.745	529.693
943.638	357.788
946.531	216.809
949.424	175.839
952.316	129.226
955.209	81.1787
958.102	86.8207
960.994	57.0069
963.887	69.6958
966.78	48.504
969.673	30.1746
972.565	38.6086
975.458	53.1503
978.351	51.2244
981.243	40.8375
984.136	79.2184
987.029	37.5748
989.921	5.82752
992.814	25.3243
995.707	48.8716
998.6	9.84894
1001.49	18.4596
1004.38	25.9075
1007.28	14.4503
1010.17	18.717
1013.06	41.517
1015.96	10.9172
1018.85	10.6887
1021.74	36.0892
1024.63	15.9235
1027.53	37.2487
1030.42	11.5595
1033.31	49.7439
1036.2	49.9167
1039.1	25.3456
1041.99	70.21
1044.88	33.4868
1047.78	53.138
1050.67	34.302
1053.56	51.7853
1056.45	28.5901
1059.35	24.608
1062.24	67.1467
1065.13	45.4877
1068.02	26.5168
1070.92	68.6828
1073.81	49.7626
1076.7	59.2931
1079.6	59.3129
1082.49	64.0134
1085.38	36.2211
1088.27	65.2788
1091.17	36.5733
1094.06	29.6563
1096.95	24.332
1099.84	18.2033
1102.74	38.4994
1105.63	31.1379
1108.52	37.8163
1111.41	0.543945
1114.31	47.0085
1117.2	51.5458
1120.09	5.58954
1122.99	37.4286
1125.88	41.3155
1128.77	24.5934
1131.66	20.7371
1134.56	24.8029
1137.45	72.7511
1140.34	14.501
1143.23	45.7531
1146.13	8.23383
1149.02	48.8546
1151.91	31.7533
1154.81	23.008
1157.7	26.3093
1160.59	9.4859
1163.48	37.788
1166.38	31.5371
1169.27	44.0668
1172.16	31.3996
1175.05	13.0949
1177.95	38.5757
1180.84	44.2818
1183.73	64.2023
1186.62	30.5563
1189.52	67.7751
1192.41	63.0526
1195.3	38.7741
1198.2	58.103
1201.09	26.4736
1203.98	12.0093
1206.87	3.2619
1209.77	82.3475
1212.66	31.4714
1215.55	47.8205
1218.44	5.64258
1221.34	49.4143
1224.23	31.321
1227.12	10.617
1230.02	40.9087
