Measurement: Raman, 785 nm, unoriented, Raman Data Processed
Mineral: Chrysocolla
Rruff sample: R050053
Ideal chemistry: (Cu^2+^_2-x_Al_x_)H_2-x_Si_2_O_5_(OH)_4_nH_2_O
Locality: Pima open pit, Pima County, Arizona, USA
Source: University of Arizona Mineral Museum
Description: Blue amorphous fragment
Measured chemistry: (Cu_1.65_Al_0.18_[box]_0.09_Ca_0.05_Mg_0.03_)_Σ=2_H_2_Si_2.00_O_5_(OH)_4_·0.2H_2_O
Raman shift (cm-1)	intensity
181.284	0
184.177	15.1129
187.069	38.5295
189.962	44.551
192.855	61.3781
195.748	59.8203
198.64	93.3848
201.533	49.5823
204.426	108.109
207.318	96.6847
210.211	79.2151
213.104	44.0956
215.996	64.7014
218.889	40.9927
221.782	57.7356
224.674	59.7207
227.567	45.6764
230.46	61.6551
233.353	33.2098
236.245	50.6324
239.138	50.7443
242.031	45.7819
244.923	59.3052
247.816	42.8237
250.709	35.5857
253.601	16.7261
256.494	51.3234
259.387	32.4296
262.28	33.4902
265.172	0.750732
268.065	33.7053
270.958	11.5043
273.85	23.2388
276.743	9.32764
279.636	6.35364
282.529	12.0825
285.421	17.2607
288.314	2.97437
291.207	2.19165
294.099	5.06043
296.992	3.38269
299.885	8.41809
302.777	6.99866
305.67	19.0739
308.563	18.5553
311.455	40.1597
314.348	70.7965
317.241	55.9552
320.134	20.6444
323.026	50.8544
325.919	79.6706
328.812	81.0345
331.704	81.5536
334.597	101.189
337.49	84.9517
340.382	80.401
343.275	100.227
346.168	58.522
349.061	73.1137
351.953	59.8783
354.846	30.0304
357.739	52.5706
360.631	4.22876
363.524	25.6547
366.417	8.66357
369.31	10.7234
372.202	10.2235
375.095	27.5758
377.988	43.3633
380.88	34.8195
383.773	48.6009
386.666	33.2865
389.558	62.7625
392.451	79.8574
395.344	98.1516
398.236	96.7828
401.129	129.013
404.022	117.151
406.915	119.101
409.807	111.018
412.7	118.296
415.593	117.658
418.485	127.258
421.378	122.372
424.271	83.1487
427.163	95.1718
430.056	78.0969
432.949	78.0586
435.842	58.0017
438.734	25.7701
441.627	37.2485
444.52	35.4266
447.412	55.2295
450.305	35.283
453.198	37.9036
456.091	17.454
458.983	39.1809
461.876	29.2695
464.769	14.9172
467.661	23.7911
470.554	16.4767
473.447	17.0088
476.339	20.459
479.232	20.0941
482.125	43.0731
485.017	45.6219
487.91	12.0248
490.803	50.1818
493.696	61.0277
496.588	37.7847
499.481	61.9053
502.374	25.9557
505.266	46.6781
508.159	11.1671
511.052	27.1714
513.944	28.8592
516.837	18.5126
519.73	20.8932
522.623	27.4629
525.515	11.2253
528.408	39.6843
531.301	16.6462
534.193	26.3655
537.086	43.6851
539.979	42.4913
542.871	9.77417
545.764	20.3225
548.657	44.7264
551.55	17.084
554.442	24.7338
557.335	19.1945
560.228	51.2795
563.12	59.5825
566.013	22.2479
568.906	27.988
571.798	49.7471
574.691	1.45312
577.584	18.9667
580.477	40.3624
583.369	15.9487
586.262	18.4581
589.155	3.979
592.047	4.81506
594.94	17.4729
597.833	17.2434
600.726	10.3524
603.618	24.6805
606.511	0.892822
609.404	11.3133
612.296	2.05115
615.189	25.3629
618.082	7.74133
620.974	4.5946
623.867	1.44812
626.76	11.9496
629.653	8.95349
632.545	11.2873
635.438	8.64685
638.331	54.6326
641.223	41.8243
644.116	87.5115
647.009	45.9691
649.901	106.761
652.794	127.746
655.687	150.995
658.58	220.45
661.472	231.062
664.365	283.801
667.258	317.289
670.15	330.824
673.043	358.909
675.936	359.721
678.828	265.812
681.721	209.851
684.614	158.089
687.506	132.681
690.399	88.4465
693.292	58.0493
696.185	58.0383
699.077	86.2775
701.97	45.1692
704.863	28.2452
707.755	33.6205
710.648	42.0952
713.541	30.682
716.433	34.8426
719.326	18.2004
722.219	37.6506
725.112	50.8293
728.004	5.79468
730.897	23.9425
733.79	1.09985
736.682	14.2008
739.575	12.6398
742.468	33.5614
745.361	31.3776
748.253	17.4217
751.146	11.4054
754.039	22.9534
756.931	1.72681
759.824	33.8491
762.717	31.9192
765.609	17.2134
768.502	30.8367
771.395	31.5607
774.288	16.5188
777.18	21.8818
780.073	8.96387
782.966	44.2765
785.858	22.045
788.751	45.4665
791.644	49.422
794.536	54.4735
797.429	58.8715
800.322	63.2195
803.215	8.92285
806.107	4.50977
809	25.2871
811.893	6.66113
814.785	37.0269
817.678	20.5906
820.571	24.8839
823.463	41.6749
826.356	35.652
829.249	14.1229
832.141	21.9258
835.034	40.1213
837.927	9.95508
840.82	12.3237
843.712	16.7092
846.605	11.4347
849.498	53.6431
852.39	36.942
855.283	34.7408
858.176	36.1794
861.068	15.859
863.961	11.8011
866.854	16.1971
869.747	41.3822
872.639	3.73682
875.532	21.648
878.425	37.0997
881.317	42.2251
884.21	45.7079
887.103	6.71741
889.995	32.2544
892.888	1.75635
895.781	18.0725
898.674	44.0909
901.566	11.3586
904.459	29.048
907.352	40.004
910.244	21.3185
913.137	34.0446
916.03	30.52
918.923	57.5626
921.815	28.2328
924.708	13.6974
927.601	29.8643
930.493	49.7882
933.386	40.6865
936.279	60.2172
939.171	39.0769
942.064	36.0559
944.957	30.505
947.85	39.2233
950.742	2.40552
953.635	29.7692
956.528	4.30066
959.42	16.7385
962.313	43.1125
965.206	37.9359
968.098	23.8662
970.991	4.09338
973.884	11.4116
976.777	12.9037
979.669	40.1083
982.562	17.892
985.455	6.73828
988.347	33.7821
991.24	24.8818
994.133	12.4375
997.025	5.97302
999.918	14.8983
1002.81	11.5955
1005.7	11.8406
1008.6	17.0632
1011.49	14.5684
1014.38	4.37061
1017.27	32.4474
1020.17	20.3138
1023.06	38.215
1025.95	55.2551
1028.85	37.4457
1031.74	25.2969
1034.63	35.5137
1037.52	57.8344
1040.42	24.4249
1043.31	46.3698
1046.2	32.6951
1049.09	3.97656
1051.99	26.5305
1054.88	48.1901
1057.77	48.6529
1060.66	41.4029
1063.56	62.8198
1066.45	6.05017
1069.34	13.748
1072.24	2.22595
1075.13	7.82214
1078.02	5.19116
1080.91	21.7828
1083.81	40.7595
1086.7	34.6976
1089.59	49.5531
1092.48	41.1224
1095.38	1.00232
1098.27	39.5704
1101.16	7.04333
1104.06	18.085
1106.95	6.82446
1109.84	14.2134
1112.73	6.45081
1115.63	33.4187
1118.52	18.0048
1121.41	52.1798
1124.3	40.6188
1127.2	48.9824
1130.09	22.1056
1132.98	35.8536
1135.88	12.3054
1138.77	36.7548
1141.66	64.847
1144.55	28.2161
1147.45	27.433
1150.34	30.6912
1153.23	39.6919
1156.12	6.60181
1159.02	42.4676
1161.91	36.7386
1164.8	0.043823
1167.69	34.613
1170.59	16.3098
1173.48	25.7288
1176.37	4.69165
1179.27	13.7255
1182.16	42.9673
1185.05	8.94739
1187.94	36.0573
1190.84	4.29956
1193.73	11.7837
1196.62	20.2842
1199.51	53.5037
1202.41	25.0345
1205.3	0.313232
1208.19	6.28357
1211.09	5.18982
1213.98	27.3674
1216.87	23.1515
1219.76	11.5353
1222.66	15.5995
1225.55	16.061
1228.44	5.27454
1231.33	12.6942
1234.23	27.9989
