Measurement: Raman, 514 nm, unoriented, Raman Data Processed
Mineral: Chrysocolla
Rruff sample: R050053
Ideal chemistry: (Cu^2+^_2-x_Al_x_)H_2-x_Si_2_O_5_(OH)_4_nH_2_O
Locality: Pima open pit, Pima County, Arizona, USA
Source: University of Arizona Mineral Museum
Description: Blue amorphous fragment
Measured chemistry: (Cu_1.65_Al_0.18_[box]_0.09_Ca_0.05_Mg_0.03_)_Σ=2_H_2_Si_2.00_O_5_(OH)_4_·0.2H_2_O
Raman shift (cm-1)	intensity
123.981	0
128.146	579.914
132.309	103.648
136.47	1100.27
140.63	901.914
144.787	554.719
148.942	333.582
153.096	289.734
157.247	89.02
161.396	339.582
165.544	429.699
169.689	804.797
173.833	1401.85
177.974	1451.29
182.114	1858.71
186.251	2548.49
190.387	2659.88
194.52	3122.07
198.652	2958.37
202.782	3137.46
206.909	2920.02
211.035	2752.03
215.159	1910.16
219.281	1616.67
223.4	1471.48
227.518	947.105
231.634	999.473
235.748	1045.52
239.86	1326.18
243.97	1137.43
248.079	866.156
252.185	918.258
256.289	1063.79
260.391	264.824
264.492	486.348
268.59	280.172
272.687	194.602
276.781	187.562
280.874	41.988
284.964	263.699
289.053	40.453
293.14	32.758
297.225	296.664
301.308	231.449
305.389	57.445
309.468	628.367
313.545	597.008
317.62	817.117
321.693	1220.6
325.765	1307.37
329.834	1807.33
333.902	2257.33
337.967	3181.38
342.031	2971.5
346.093	2380.69
350.153	1809.96
354.21	1554.31
358.267	1557.75
362.321	1485.13
366.373	1581.19
370.423	1510.26
374.471	1492.91
378.518	2195.66
382.563	2566.11
386.605	3093.36
390.646	3722.91
394.685	4469.11
398.722	5051.11
402.757	5873.59
406.79	5995.47
410.821	6457.15
414.851	6180.59
418.878	5494.32
422.904	4450.28
426.927	4857.94
430.949	3879.81
434.969	3934.72
438.987	3407.16
443.003	3055.09
447.018	3106.36
451.03	2669.62
455.041	1997.07
459.049	2138.68
463.056	2385.8
467.061	2510.87
471.064	2684.08
475.065	1970.89
479.064	2567.46
483.062	2832.28
487.057	2547.79
491.051	2291.07
495.043	2351.12
499.032	2396.93
503.02	2511.48
507.007	2057.77
510.991	1757.8
514.973	1907.56
518.954	1508.03
522.933	1326.21
526.91	488.094
530.885	986.695
534.858	813.004
538.829	260.016
542.799	367.516
546.766	224.961
550.732	122.691
554.696	116.32
558.658	338.938
562.618	432.742
566.576	293.781
570.533	387.277
574.488	525.082
578.44	30.133
582.391	56.891
586.341	27.328
590.288	505.949
594.233	178.676
598.177	237.023
602.119	169.848
606.059	383
609.997	370
613.933	172.504
617.868	561.27
621.801	294.469
625.731	796.656
629.66	155.941
633.588	265.406
637.513	771.254
641.437	1124.51
645.358	920.215
649.278	1040.39
653.196	2131.02
657.113	1789.11
661.027	3054.66
664.94	3931.67
668.851	5566.15
672.76	7149.22
676.667	8170.5
680.572	7824.39
684.476	5992.78
688.378	3523.64
692.278	2505.98
696.176	1218.8
700.072	1309.54
703.967	119.992
707.86	699.359
711.751	61.422
715.64	682.504
719.527	491.98
723.413	122.59
727.297	451.762
731.179	365.23
735.059	34.527
738.937	161.031
742.814	18.301
746.689	109.109
750.562	238.965
754.433	435.129
758.303	816.117
762.17	41.547
766.036	228.535
769.901	300.418
773.763	690.789
777.624	518.355
781.482	742.496
785.339	841.895
789.195	613.938
793.048	941.484
796.9	700.41
800.75	680.223
804.598	1218.82
808.445	543.215
812.289	629.426
816.132	477.465
819.973	523.34
823.813	1024.07
827.65	323.664
831.486	905.141
835.32	596.758
839.152	498.105
842.983	45.41
846.812	41.645
850.639	608.812
854.464	219.949
858.288	189.316
862.11	568.566
865.93	327.25
869.748	559.434
873.564	532.648
877.379	370.914
881.192	450.465
885.004	329.375
888.813	909.34
892.621	920.215
896.427	312.574
900.232	568.094
904.034	691.086
907.835	1151.2
911.634	525.758
915.432	1054.64
919.227	917.309
923.021	802.656
926.813	1210.3
930.604	1043.31
934.393	987.742
938.18	2062.7
941.965	1191.05
945.749	1006.72
949.53	907.742
953.311	949.086
957.089	876.867
960.866	1175.98
964.641	665.633
968.414	627.742
972.185	495.238
975.955	560.129
979.723	766.629
983.49	1343.66
987.254	1088.47
991.017	703.738
994.779	816.785
998.538	984.273
1002.3	551.25
1006.05	991.078
1009.81	868.324
1013.56	1085.56
1017.31	1137
1021.06	1147.25
1024.81	1355.71
1028.55	1048.97
1032.3	985.031
1036.04	1419.81
1039.78	1681.3
1043.52	1840.36
1047.26	1679.87
1050.99	1788.78
1054.73	1571.36
1058.46	1680.76
1062.19	1263.21
1065.92	1218.29
1069.65	999.98
1073.37	1046.02
1077.1	882.941
1080.82	1023.72
1084.54	1075.74
1088.26	1030.31
1091.97	701.922
1095.69	1112.56
1099.4	1105.79
1103.12	952.297
1106.83	239.488
1110.54	1013.03
1114.24	655.398
1117.95	586.574
1121.65	697.621
1125.35	1033.08
1129.06	13.098
1132.75	388.145
1136.45	1058.77
1140.15	388.336
1143.84	122.246
1147.53	562.578
1151.22	28.902
1154.91	123.02
1158.6	239.996
1162.28	281.34
1165.97	498.164
1169.65	330.051
1173.33	138.879
1177.01	409.742
1180.69	189.215
1184.36	638.727
1188.04	557.027
1191.71	405.559
1195.38	111.832
1199.05	151.992
1202.71	742.312
1206.38	564.719
1210.04	52.453
1213.71	171.219
1217.37	187.359
1221.03	273.84
1224.68	197.289
1228.34	205.023
1231.99	421.027
1235.65	423.879
1239.3	243.254
1242.95	343.945
1246.59	556.219
1250.24	520.105
1253.88	381.121
1257.53	305.219
1261.17	44.477
1264.81	241.734
1268.45	185.883
1272.08	267.098
1275.72	451.395
1279.35	588.289
1282.98	14.898
1286.61	594.562
1290.24	23.34
1293.87	231.484
1297.49	675.914
1301.11	416.922
1304.73	506.168
1308.36	768.281
1311.97	324.914
1315.59	647.289
1319.2	295.59
1322.82	136.129
1326.43	756.309
1330.04	135.152
1333.65	43.062
1337.26	274.832
1340.86	748.738
1344.47	256.473
1348.07	976.629
1351.67	852.586
1355.27	796.715
1358.87	707.574
1362.46	369.957
1366.06	372.863
1369.65	715.629
1373.24	437.789
1376.83	537.207
1380.42	436.301
1384	458.926
1387.59	2.137
1391.17	623.262
