Measurement: Raman, 532 nm, unoriented, Raman Data Processed
Mineral: Chrysocolla
Rruff sample: R050053
Ideal chemistry: (Cu^2+^_2-x_Al_x_)H_2-x_Si_2_O_5_(OH)_4_nH_2_O
Locality: Pima open pit, Pima County, Arizona, USA
Source: University of Arizona Mineral Museum
Description: Blue amorphous fragment
Measured chemistry: (Cu_1.65_Al_0.18_[box]_0.09_Ca_0.05_Mg_0.03_)_Σ=2_H_2_Si_2.00_O_5_(OH)_4_·0.2H_2_O
Raman shift (cm-1)	intensity
181.482	0
184.374	1.93652
187.267	79.3418
190.16	137.915
193.052	153.31
195.945	285.364
198.838	263.353
201.731	267.933
204.623	206.579
207.516	235.241
210.409	161.198
213.301	106.902
216.194	123.387
219.087	93.5684
221.979	103.736
224.872	108.331
227.765	106.824
230.657	84.3769
233.55	189.253
236.443	157.372
239.336	206.659
242.228	218.215
245.121	257.935
248.014	235.869
250.906	162.769
253.799	106.528
256.692	115.198
259.584	139.115
262.477	143.269
265.37	66.5928
268.263	109.565
271.155	131.83
274.048	83.8848
276.941	7.79492
279.833	82.0527
282.726	76.9668
285.619	58.5801
288.512	26.5547
291.404	92.2383
294.297	5.85352
297.19	63.3691
300.082	24.1621
302.975	196.277
305.868	8.12695
308.76	180.945
311.653	132.031
314.546	218.795
317.438	153.199
320.331	229.397
323.224	369.965
326.117	294.584
329.009	378.004
331.902	427.496
334.795	428.853
337.687	549.904
340.58	447.873
343.473	319.424
346.365	220.504
349.258	125.352
352.151	164.322
355.044	46.8594
357.936	50.252
360.829	19.8398
363.722	6.49219
366.614	9.69336
369.507	74.1152
372.4	76.0644
375.293	14.2715
378.185	91.6328
381.078	170.041
383.971	235.473
386.863	354.475
389.756	431.447
392.649	509.588
395.541	569.654
398.434	685.584
401.327	765.826
404.219	827.766
407.112	920.082
410.005	764.838
412.898	778.295
415.79	730.078
418.683	643.104
421.576	600.104
424.469	503.199
427.361	441.045
430.254	404.973
433.147	379.996
436.039	305.613
438.932	230.484
441.825	169.496
444.717	161.9
447.61	165.447
450.503	142.365
453.396	121.893
456.288	133.15
459.181	31.0645
462.074	1.36328
464.966	47.082
467.859	112.705
470.752	10.5605
473.644	140.994
476.537	135.365
479.43	244.103
482.322	183.719
485.215	228.031
488.108	283.988
491.001	267.277
493.893	210.525
496.786	311.004
499.679	204.76
502.571	112.5
505.464	317.723
508.357	226.391
511.25	76.625
514.142	211.336
517.035	120.01
519.928	34.8965
522.82	56.8242
525.713	20.3672
528.606	25.7148
531.498	69.2109
534.391	39.1016
537.284	4.19336
540.177	43.4805
543.069	9.71484
545.962	63.6621
548.855	52.0703
551.747	52.5391
554.64	7.29883
557.533	11.3965
560.425	2.05664
563.318	3.74023
566.211	14.0957
569.104	48.0918
571.996	33.8086
574.889	116.633
577.782	89.0527
580.674	53.5508
583.567	107.623
586.46	119.361
589.352	21.9121
592.245	56.1543
595.138	67.3594
598.031	77.4043
600.923	102.199
603.816	71.1348
606.709	10.0879
609.601	33.8555
612.494	71.3223
615.387	50.5039
618.279	108.492
621.172	27.2324
624.065	108.799
626.958	91.7148
629.85	85.9492
632.743	161.449
635.636	192.484
638.528	91.7188
641.421	215.182
644.314	192.883
647.207	334.236
650.099	579.135
652.992	468.074
655.885	564.309
658.777	678.104
661.67	813.041
664.563	1096.72
667.455	1231.98
670.348	1436.87
673.241	1612.85
676.134	1586.67
679.026	1478.81
681.919	1301.34
684.812	824.268
687.704	593.311
690.597	467.603
693.49	322.9
696.382	214.05
699.275	187.43
702.168	166.934
705.061	140.178
707.953	54.7012
710.846	65.2997
713.739	33.0333
716.631	42.2274
719.524	12.6715
722.417	51.2383
725.309	92.5957
728.202	12.4375
731.095	49.4492
733.987	24.5879
736.88	92.8184
739.773	36.5938
742.666	109.148
745.558	13.5
748.451	86.7344
751.344	16.2148
754.236	96.7051
757.129	46.1191
760.022	97.0918
762.915	40.4883
765.807	107.971
768.7	39.6836
771.593	35.6621
774.485	133.377
777.378	76.2031
780.271	76.1426
783.163	147.531
786.056	186.92
788.949	204.068
791.842	182.787
794.734	172.578
797.627	180.359
800.52	213.369
803.412	129.963
806.305	172.088
809.198	174.863
812.091	120.123
814.983	91.7188
817.876	162.424
820.769	201.367
823.661	119.359
826.554	74.7012
829.447	53.2812
832.339	133.084
835.232	32.7227
838.125	52.4062
841.018	34.4746
843.91	62.3633
846.803	72.3496
849.696	84.7051
852.588	112.441
855.481	59.3125
858.374	15.998
861.266	29.0977
864.159	99.5234
867.052	89.6289
869.944	15.8906
872.837	70.9102
875.73	41.7969
878.623	22.0684
881.515	80.4453
884.408	236.471
887.301	47.043
890.193	157.615
893.086	114.199
895.979	153.641
898.871	124.666
901.764	133.82
904.657	78.8535
907.55	168.398
910.442	110.756
913.335	213.537
916.228	93.2578
919.12	108.273
922.013	198.527
924.906	62.1992
927.798	186.668
930.691	154.428
933.584	148.894
936.477	247.785
939.369	140.258
942.262	80.7988
945.155	88.4199
948.047	209.318
950.94	188.043
953.833	60.3008
956.726	139.316
959.618	110.644
962.511	119.85
965.404	32.1328
968.296	36.9922
971.189	68.582
974.082	88.4961
976.974	44.0625
979.867	39.3555
982.76	46.666
985.653	18.9219
988.545	33.6113
991.438	18.5
994.331	79.082
997.223	86.166
1000.12	118.562
1003.01	56.5996
1005.9	28.8125
1008.79	44.043
1011.69	44.957
1014.58	36.4492
1017.47	53.3223
1020.37	12.6992
1023.26	33.3906
1026.15	114.602
1029.04	107.893
1031.94	50.0469
1034.83	197.166
1037.72	118.193
1040.61	155.619
1043.51	180.295
1046.4	167.473
1049.29	266.973
1052.18	126.594
1055.08	88.2695
1057.97	96.9707
1060.86	142.885
1063.76	21.9316
1066.65	19.4473
1069.54	113.484
1072.43	46.6172
1075.33	68.8906
1078.22	53.7988
1081.11	172.398
1084	64.3652
1086.9	93.916
1089.79	127.545
1092.68	31.627
1095.58	20.9395
1098.47	15.9395
1101.36	85.6035
1104.25	49.8848
1107.15	14.3496
1110.04	48.248
1112.93	52.5254
1115.82	65.4375
1118.72	123.461
1121.61	130.027
1124.5	93.4648
1127.39	69.8223
1130.29	46.6035
1133.18	86.1152
1136.07	19.459
1138.97	6.71875
1141.86	36.5898
1144.75	55.5215
1147.64	69.1269
1150.54	80.3652
1153.43	64.4414
1156.32	59.1602
1159.21	107.471
1162.11	84.9219
1165	39.584
1167.89	148.285
1170.79	14.9121
1173.68	39.5293
1176.57	103.356
1179.46	68.9512
1182.36	96.8906
1185.25	53.375
1188.14	67.1465
1191.03	187.33
1193.93	56.5117
1196.82	176.926
1199.71	118.162
1202.61	0.076172
1205.5	36.4707
1208.39	52.6074
1211.28	64.3203
1214.18	42.8457
1217.07	108.074
1219.96	52.1055
1222.85	93.3906
1225.75	83.0957
1228.64	152.365
1231.53	149.697
1234.42	74.8535
1237.32	22.0996
1240.21	62.7266
1243.1	180.607
1246	149.957
1248.89	110.969
1251.78	18.8301
1254.67	70.9062
1257.57	146.678
1260.46	97.6992
1263.35	123.699
1266.24	116.064
1269.14	94.7812
1272.03	161.766
1274.92	185.664
1277.82	88.3281
1280.71	146.539
1283.6	102.814
1286.49	140.803
1289.39	111.967
1292.28	152.43
1295.17	157.389
1298.06	13.5273
1300.96	113.318
1303.85	60.4844
1306.74	41.5293
1309.63	121.703
1312.53	33.4629
