Measurement: Raman, 532 nm, unoriented, Raman Data Processed
Mineral: Chrysoberyl
Rruff sample: R040073
Ideal chemistry: BeAl_2_O_4_
Locality: Brazil
Source: University of Arizona Mineral Museum
Description: Pair of green prismatic crystals
Measured chemistry: (Be_0.89_Al_0.06_Fe_0.02_)Al_2.00_O_4_
Raman shift (cm-1)	intensity
161.098	0
163.991	19.3184
166.883	20.6936
169.776	78.2573
172.669	52.4963
175.561	51.4248
178.454	1.67188
181.347	20.5735
184.24	41.9172
187.132	53.9326
190.025	61.4348
192.918	7.2771
195.81	63.1782
198.703	25.5061
201.596	56.5972
204.488	61.4023
207.381	92.0142
210.274	83.1443
213.167	67.4644
216.059	69.0828
218.952	59.0281
221.845	73.0273
224.737	65.2788
227.63	104.884
230.523	131.884
233.416	156.522
236.308	200.453
239.201	190.104
242.094	216.67
244.986	67.7827
247.879	23.6992
250.772	50.4526
253.664	3.51782
256.557	31.4678
259.45	26.915
262.342	31.3237
265.235	68.8621
268.128	29.4497
271.021	0.752686
273.913	16.2544
276.806	41.0786
279.699	31.3838
282.591	45.1548
285.484	15.7673
288.377	23.3484
291.269	23.6721
294.162	67.5664
297.055	2.90674
299.948	42.1965
302.84	36.8364
305.733	12.7398
308.626	20.3428
311.518	0.330811
314.411	18.8254
317.304	5.26904
320.197	40.2315
323.089	39.9546
325.982	40.27
328.875	61.0776
331.767	86.2031
334.66	77.8369
337.553	142.964
340.445	294.034
343.338	402.976
346.231	590.568
349.123	842.055
352.016	478.028
354.909	347.184
357.801	257.606
360.694	331.405
363.587	359.689
366.48	424.477
369.372	513.603
372.265	313.201
375.158	114.768
378.05	7.74048
380.943	24.0889
383.836	56.0505
386.728	138.034
389.621	164.919
392.514	257.452
395.407	412.448
398.299	191.524
401.192	10.3562
404.085	26.2227
406.977	15.9548
409.87	54.5974
412.763	82.3828
415.656	102.578
418.548	167.188
421.441	158.313
424.334	4.854
427.226	7.87866
430.119	33.2964
433.012	170.829
435.904	281.471
438.797	420.673
441.69	637.048
444.582	998.882
447.475	748.989
450.368	349.5
453.261	316.91
456.153	500.352
459.046	818.569
461.939	343.103
464.831	175.348
467.724	318.307
470.617	540.413
473.51	811.42
476.402	1304.24
479.295	1113.13
482.188	350.885
485.08	165.417
487.973	126.766
490.866	221.099
493.758	302.163
496.651	446.084
499.544	695.627
502.437	1002.03
505.329	394.455
508.222	245.037
511.115	423.022
514.007	749.492
516.9	1144.35
519.793	1219.64
522.685	1115.79
525.578	608.202
528.471	174.253
531.364	6.2959
534.256	46.2817
537.149	69.0644
540.042	140.056
542.934	192.765
545.827	260.509
548.72	216.667
551.612	67.5034
554.505	34.5264
557.398	49.1846
560.29	129.887
563.183	147.844
566.076	114.741
568.969	3.16455
571.861	49.6426
574.754	13.2685
577.647	25.2285
580.539	2.29736
583.432	8.70117
586.325	37.9307
589.217	39.0225
592.11	45.9849
595.003	55.8569
597.896	24.3003
600.788	101.359
603.681	93.4814
606.574	105.757
609.466	92.3569
612.359	108.716
615.252	81.1484
618.144	130.183
621.037	139.609
623.93	275.469
626.823	383.293
629.715	533.241
632.608	818.783
635.501	1185.09
638.393	1587.8
641.286	944.973
644.179	355.702
647.071	224.908
649.964	256.302
652.857	281.603
655.75	341.937
658.642	234.225
661.535	111.118
664.428	105.629
667.32	126.356
670.213	112.155
673.106	232.847
675.998	274.481
678.891	251.999
681.784	96.9468
684.677	92.0459
687.569	58.2197
690.462	10.9009
693.355	41.6728
696.247	94.8852
699.14	193.196
702.033	274.591
704.925	297.457
707.818	460.622
710.711	528.676
713.604	312.469
716.496	95.2144
719.389	30.667
722.282	34.1846
725.174	56.4458
728.067	11.894
730.96	0.917969
733.852	21.8589
736.745	8.85693
739.638	1.57959
742.53	75.666
745.423	48.2144
748.316	132.204
751.209	7.99854
754.101	54.7466
756.994	88.2246
759.887	147.584
762.779	213.015
765.672	337.129
768.565	605.994
771.457	759.97
774.35	977.918
777.243	1140.88
780.136	956.482
783.028	531.422
785.921	223.299
788.814	120.772
791.706	47.5684
794.599	37.8975
797.492	2.21289
800.385	3.84912
803.277	111.194
806.17	226.965
809.063	381.234
811.955	521.818
814.848	721.074
817.741	739.856
820.633	431.61
823.526	305.697
826.419	198.312
829.312	214.002
832.204	169.898
835.097	104.668
837.99	111.585
840.882	102.516
843.775	95.9458
846.668	83.0889
849.56	90.3594
852.453	35.6797
855.346	36.7432
858.239	67.8052
861.131	73.9595
864.024	10.2275
866.917	71.8691
869.809	23.1211
872.702	25.0088
875.595	2.95996
878.487	31.9238
881.38	15.105
884.273	23.3227
887.165	28.3994
890.058	16.9443
892.951	6.20019
895.843	7.81055
898.736	15.3716
901.629	32.6987
904.522	33.3374
907.414	135.362
910.307	222.097
913.2	387.348
916.092	662.028
918.985	975.582
921.878	1547.01
924.77	2283.73
927.663	2981.48
930.556	3509.15
933.449	3291.19
936.341	2455.69
939.234	1638.22
942.127	1061.29
945.019	720.526
947.912	568.32
950.805	369.906
953.697	252.505
956.59	198.673
959.483	169.271
962.376	112.213
965.268	85.7803
968.161	50.3477
971.054	94.416
973.946	21.8936
976.839	52.3496
979.732	42.5098
982.625	28.0767
985.517	25.6216
988.41	23.3989
991.303	53.581
994.195	60.9907
997.088	61.8525
999.981	78.042
1002.87	64.6313
1005.77	1.12402
1008.66	22.3145
1011.55	27.418
1014.44	24.6714
1017.34	15.748
1020.23	39.4258
1023.12	23.0381
1026.02	52.4707
1028.91	56.1836
1031.8	31.3716
1034.69	76.2676
1037.59	28.9424
1040.48	0.938477
1043.37	48.0557
1046.26	65.5122
1049.16	113.71
1052.05	4.72021
1054.94	45.626
1057.84	104.291
1060.73	128.872
1063.62	101.205
1066.51	89.3921
1069.4	130.231
1072.3	152.287
1075.19	122.768
1078.08	96.6279
1080.98	95.0396
1083.87	123.524
1086.76	119.213
1089.65	132.909
1092.55	110.376
1095.44	51.2129
1098.33	42.9053
1101.22	69.0102
1104.12	24.0884
1107.01	29.5801
1109.9	89.019
1112.8	97.8398
1115.69	63.6426
1118.58	101.695
1121.47	100.253
1124.37	44.4853
1127.26	13.1958
1130.15	2.55664
1133.05	15.4346
1135.94	67.8442
1138.83	90.1606
1141.72	100.376
1144.62	9.15381
1147.51	60.2607
1150.4	22.4082
1153.29	9.30957
1156.19	41.0156
1159.08	40.5503
1161.97	54.5332
1164.87	52.2529
1167.76	57.7456
1170.65	27.4194
1173.54	79.0288
1176.43	75.8335
1179.33	67.2808
1182.22	28.273
1185.11	51.7124
1188.01	88.7896
1190.9	70.6035
1193.79	89.5908
1196.68	12.4907
1199.58	37.2622
1202.47	54.3906
1205.36	57.7075
1208.26	39.7222
1211.15	11.9077
1214.04	25.373
1216.93	54.8696
1219.83	42.7666
1222.72	43.7319
1225.61	3.229
1228.5	17.9668
1231.4	31.811
1234.29	62.9062
1237.18	20.5249
1240.08	35.144
1242.97	31.6519
1245.86	72.2769
1248.75	55.5137
1251.65	76.2266
1254.54	98.0659
1257.43	99.0923
1260.32	112.975
1263.22	60.46
1266.11	26.334
1269	69.3203
1271.89	109.609
1274.79	36.7969
1277.68	1.25147
1280.57	38.374
