Measurement: Raman, 780 nm, unoriented, Raman Data Processed
Mineral: Chukhrovite-(Nd)
Rruff sample: R060601
Ideal chemistry: Ca_3_NdAl_2_S^6+^O_4_F_13_12H_2_O
Locality: Kara-Oba tungsten deposit, Betpakdala desert, Kazakhstan
Source: Michael Scott
Description: Polished colorless fragment embedded in epoxy in a microprobe mount
Raman shift (cm-1)	intensity
91.6817	0
94.0923	7.70317
96.5029	10.5366
98.9134	18.802
101.324	18.7186
103.735	21.5081
106.145	20.0666
108.556	14.336
110.966	17.6681
113.377	23.4369
115.787	26.7143
118.198	30.8974
120.609	24.5845
123.019	23.8911
125.43	24.7152
127.84	22.5331
130.251	23.4824
132.662	19.2493
135.072	14.8181
137.483	10.6791
139.893	6.48215
142.304	6.87918
144.714	9.4272
147.125	7.53401
149.536	6.13031
151.946	4.58212
154.357	2.74593
156.767	4.7041
159.178	6.9481
161.589	9.48225
163.999	8.77521
166.41	9.60667
168.82	6.84317
171.231	3.80916
173.642	1.23968
176.052	3.80638
178.463	7.97154
180.873	12.0652
183.284	9.25798
185.694	15.4442
188.105	21.3744
190.516	22.1242
192.926	30.7959
195.337	38.4049
197.747	57.3396
200.158	71.6584
202.569	86.5394
204.979	107.56
207.39	121.897
209.8	143.141
212.211	158.317
214.621	173.378
217.032	180.49
219.442	199.679
221.853	213.572
224.264	234.329
226.674	253.627
229.085	280.405
231.495	298.592
233.906	316.181
236.317	335.317
238.727	346.865
241.138	358.704
243.548	371.973
245.959	372.476
248.369	381.598
250.78	385.446
253.191	383.16
255.601	379.332
258.012	372.357
260.422	378.392
262.833	376.164
265.244	377.647
267.654	384.674
270.065	394.749
272.475	407.731
274.886	412.432
277.296	413.007
279.707	411.344
282.118	409.071
284.528	395.336
286.939	368.592
289.349	346.905
291.76	319.253
294.171	286.413
296.581	246.48
298.992	211.693
301.402	179.573
303.813	146.073
306.224	121.032
308.634	99.146
311.045	77.4656
313.455	61.9264
315.866	45.4607
318.276	35.0365
320.687	23.5303
323.098	13.0134
325.508	2.68088
327.919	0.020874
330.329	2.22
332.74	3.18738
335.151	6.26208
337.561	11.2019
339.972	6.54892
342.382	6.74374
344.793	4.23163
347.203	0.496185
349.614	1.48621
352.024	1.49426
354.435	3.25507
356.846	2.93973
359.256	12.0051
361.667	8.63596
364.077	16.0251
366.488	15.2163
368.899	22.8482
371.309	22.3883
373.72	24.5701
376.13	29.3685
378.541	43.8809
380.952	38.0877
383.362	39.3004
385.773	47.5811
388.183	47.6895
390.594	50.8581
393.004	53.0816
395.415	51.417
397.826	51.3635
400.236	48.0505
402.647	44.5561
405.057	44.2925
407.468	40.9497
409.878	38.0699
412.289	32.9715
414.7	32.5575
417.11	29.1037
419.521	24.4468
421.931	20.9336
424.342	17.7941
426.753	14.1236
429.163	12.5775
431.574	11.9012
433.984	9.64995
436.395	8.74673
438.805	9.83812
441.216	5.86784
443.627	7.18251
446.037	4.05217
448.448	4.8772
450.858	4.92024
453.269	3.44315
455.68	0.775421
458.09	1.02637
460.501	0.500641
462.911	0.285919
465.322	1.72281
467.733	0.756836
470.143	0.234329
472.554	3.96829
474.964	1.18895
477.375	4.28453
479.785	1.05618
482.196	0.000748
484.606	0.978973
487.017	0.291214
489.428	2.35002
491.838	5.79025
494.249	0.05336
496.659	2.73769
499.07	4.40523
501.481	5.31798
503.891	3.01616
506.302	5.16191
508.712	7.62678
511.123	8.70782
513.534	9.50845
515.944	11.3179
518.355	11.2453
520.765	13.6571
523.176	13.8722
525.586	16.7878
527.997	18.3655
530.408	20.593
532.818	22.4096
535.229	26.8667
537.639	24.3684
540.05	30.401
542.46	33.1751
544.871	40.0402
547.282	43.5486
549.692	48.3815
552.103	54.2229
554.513	54.9934
556.924	58.2476
559.335	59.3944
561.745	56.3569
564.156	55.3315
566.566	54.299
568.977	51.8229
571.388	49.044
573.798	44.9719
576.209	47.0247
578.619	38.4315
581.03	39.4096
583.44	34.1668
585.851	29.5818
588.261	27.8416
590.672	24.2988
593.083	19.1276
595.493	21.2576
597.904	16.9729
600.314	13.8533
602.725	13.0366
605.136	10.2731
607.546	8.73341
609.957	8.53264
612.367	4.63673
614.778	2.95615
617.188	2.99897
619.599	1.13431
622.01	2.61407
624.42	4.38415
626.831	4.04205
629.241	1.23588
631.652	0.419312
634.063	0.721466
636.473	1.62307
638.884	4.4741
641.294	1.15922
643.705	0.442276
646.115	0.35144
648.526	0.902809
650.937	2.38089
653.347	0.050934
655.758	0.159042
658.168	0.518219
660.579	0.013817
662.99	0.382736
665.4	1.08324
667.811	0.559032
670.221	0.116013
672.632	2.51564
675.043	0.505096
677.453	0.855431
679.864	0.708229
682.274	1.11142
684.685	2.30315
687.095	2.54771
689.506	2.39
691.917	0.855431
694.327	3.80999
696.738	0.631996
699.148	1.53888
701.559	2.95587
703.97	2.70775
706.38	2.49725
708.791	3.7865
711.201	1.45576
713.612	3.68532
716.022	2.36916
718.433	4.02722
720.843	3.666
723.254	4.36021
725.665	4.12343
728.075	4.61688
730.486	4.27613
732.896	4.03375
735.307	4.89571
737.718	4.43519
740.128	3.5363
742.539	2.81682
744.949	3.4562
747.36	3.46577
749.77	3.60276
752.181	3.7106
754.592	1.4806
757.002	3.25801
759.413	1.73012
761.823	2.3078
764.234	3.30049
766.645	1.90095
769.055	2.17218
771.466	0.909306
773.876	0.628864
776.287	1.92397
778.697	0.830524
781.108	1.54876
783.519	0.192677
785.929	0.480373
788.34	0.898945
790.75	1.83203
793.161	0.328239
795.572	0.370594
797.982	0.248905
800.393	1.23689
802.803	0.525997
805.214	1.64337
807.625	1.79578
810.035	0.102383
812.446	1.09005
814.856	2.73072
817.267	2.13953
819.677	2.27375
822.088	2.56475
824.499	0.623257
826.909	0.895256
829.32	0.708187
831.73	1.23127
834.141	1.06528
836.552	1.90501
838.962	2.07355
841.373	1.90898
843.783	0.184505
846.194	0.795712
848.604	1.49173
851.015	2.30561
853.426	1.68267
855.836	0.841423
858.247	0.681622
860.657	1.58655
863.068	2.01802
865.479	3.022
867.889	2.72082
870.3	2.60048
872.71	2.27567
875.121	2.0911
877.531	3.25873
879.942	4.46944
882.352	3.44065
884.763	4.70069
887.174	3.19028
889.584	3.27123
891.995	3.74251
894.405	2.65833
896.816	3.52379
899.227	0.907902
901.637	2.66313
904.048	2.47967
906.458	1.82115
908.869	2.64254
911.279	0.780815
913.69	1.02289
916.101	0.775909
918.511	0.481091
920.922	0.913609
923.332	1.13136
925.743	1.18909
928.154	0.358429
930.564	0.479595
932.975	0.803406
935.385	0.64167
937.796	0.839821
940.207	0.482986
942.617	0.789833
945.028	0.982727
947.438	1.10997
949.849	0.297253
952.259	2.36048
954.67	2.38773
957.081	3.69201
959.491	7.04819
961.902	9.23331
964.312	13.4152
966.723	19.1495
969.133	41.191
971.544	87.2997
973.955	189.409
976.365	365.801
978.776	455.131
981.186	256.065
983.597	74.931
986.008	27.9205
988.418	15.2112
990.829	8.64714
993.239	6.50656
995.65	4.21553
998.06	1.56945
1000.47	3.62332
1002.88	4.95981
1005.29	3.20175
1007.7	4.24391
1010.11	1.69842
1012.52	0.702286
1014.93	1.95847
1017.35	0.398041
1019.76	3.37297
1022.17	1.88712
1024.58	1.9435
1026.99	0.641304
1029.4	0.241722
1031.81	0
