Measurement: Raman, 532 nm, unoriented, Raman Data Processed
Mineral: Chukhrovite-(Nd)
Rruff sample: R060601
Ideal chemistry: Ca_3_NdAl_2_S^6+^O_4_F_13_12H_2_O
Locality: Kara-Oba tungsten deposit, Betpakdala desert, Kazakhstan
Source: Michael Scott
Description: Polished colorless fragment embedded in epoxy in a microprobe mount
Raman shift (cm-1)	intensity
204.588	0
207.48	1.99109
210.373	26.764
213.266	53.3258
216.158	50.8357
219.051	38.1204
221.944	28.7833
224.836	15.2247
227.729	14.4565
230.622	16.7859
233.514	17.8661
236.407	21.2108
239.3	24.0686
242.193	28.4301
245.085	16.2717
247.978	12.7981
250.871	0.652222
253.763	0.591187
256.656	2.48755
259.549	0.102539
262.442	1.20276
265.334	3.73962
268.227	5.28528
271.12	2.58752
274.012	6.10376
276.905	4.96167
279.798	15.3042
282.69	6.29541
285.583	11.5481
288.476	27.0361
291.368	15.4473
294.261	18.109
297.154	6.70483
300.047	12.7919
302.939	10.581
305.832	8.52832
308.725	10.0015
311.617	13.4224
314.51	11.1126
317.403	7.57056
320.296	0.908447
323.188	1.08179
326.081	3.11816
328.974	8.40552
331.866	5.70239
334.759	15.3818
337.652	17.894
340.544	23.3936
343.437	29.8799
346.33	26.1763
349.223	25.9116
352.115	27.0515
355.008	18.1611
357.901	10.9888
360.793	8.11182
363.686	1.19678
366.579	2.08716
369.471	0.158691
372.364	6.18164
375.257	4.76099
378.149	7.39087
381.042	6.22974
383.935	8.23438
386.828	7.27759
389.72	19.2844
392.613	23.3042
395.506	18.1084
398.398	11.6213
401.291	15.6106
404.184	16.5237
407.077	19.9458
409.969	15.0112
412.862	23.3667
415.755	23.9441
418.647	19.9529
421.54	20.29
424.433	19.8318
427.325	21.6885
430.218	28.4475
433.111	30.1804
436.003	31.6853
438.896	41.6423
441.789	54.0317
444.682	52.1514
447.574	59.8616
450.467	48.9556
453.36	47.8921
456.252	25.2988
459.145	23.019
462.038	12.9763
464.93	13.8357
467.823	5.11255
470.716	8.96851
473.609	3.63574
476.501	14.7351
479.394	19.7268
482.287	14.5383
485.179	7.84497
488.072	4.66113
490.965	2.54663
493.858	0.065918
496.75	5.60059
499.643	4.05811
502.536	2.26245
505.428	1.79932
508.321	0.176025
511.214	2.46948
514.106	5.04614
516.999	0.624756
519.892	3.49268
522.784	2.74658
525.677	10.7195
528.57	5.18042
531.463	10.6599
534.355	15.4194
537.248	21.9202
540.141	27.4316
543.033	21.2434
545.926	27.29
548.819	35.5859
551.712	45.2683
554.604	41.7214
557.497	45.4927
560.39	38.4033
563.282	32.5088
566.175	30.959
569.068	33.169
571.96	33.8718
574.853	30.4961
577.746	26.2209
580.639	30.1189
583.531	27.4143
586.424	30.7285
589.317	24.2578
592.209	28.4233
595.102	38.2685
597.995	35.075
600.888	20.7109
603.78	14.3569
606.673	13.6628
609.566	13.919
612.458	9.15869
615.351	15.7288
618.244	14.8513
621.136	13.8088
624.029	11.7043
626.922	4.08228
629.814	2.05615
632.707	9.36743
635.6	11.7505
638.493	18.3643
641.385	2.48193
644.278	0.175049
647.171	1.11328
650.063	3.49072
652.956	3.63306
655.849	2.72266
658.741	7.88403
661.634	1.6665
664.527	0.424805
667.42	1.79785
670.312	7.51929
673.205	5.35498
676.098	5.72217
678.99	5.89136
681.883	6.3313
684.776	0.948242
687.668	3.72461
690.561	7.39185
693.454	18.9412
696.347	6.26929
699.239	4.54248
702.132	2.85962
705.025	5.36255
707.917	8.55176
710.81	6.31299
713.703	1.87353
716.596	1.20679
719.488	5.64526
722.381	15.4106
725.274	9.63672
728.166	16.7297
731.059	12.2671
733.952	21.3159
736.844	14.7918
739.737	18.9641
742.63	16.1567
745.523	29.4148
748.415	17.3274
751.308	15.6562
754.201	4.33032
757.093	5.24268
759.986	9.40088
762.879	15.0437
765.771	9.15234
768.664	13.1621
771.557	12.0252
774.449	24.7222
777.342	0.692627
780.235	3.71753
783.128	0.089355
786.02	0.131592
788.913	3.08667
791.806	2.62427
794.698	17.8362
797.591	5.79297
800.484	0.894775
803.376	3.54712
806.269	9.5376
809.162	16.9631
812.055	6.88477
814.947	9.31323
817.84	15.1719
820.733	31.429
823.625	36.1956
826.518	27.2031
829.411	10.9609
832.303	12.7219
835.196	28.1841
838.089	15.322
840.982	26.7612
843.874	20.0847
846.767	10.1699
849.66	1.57105
852.552	4.43726
855.445	11.54
858.338	14.346
861.231	16.4697
864.123	11.6919
867.016	10.3223
869.909	4.42896
872.801	9.82568
875.694	4.87329
878.587	2.64209
881.479	0.292969
884.372	0.966797
887.265	1.05298
890.158	4.05493
893.05	8.14795
895.943	17.0395
898.836	18.3306
901.728	21.5727
904.621	19.7314
907.514	18.8816
910.406	20.458
913.299	20.4285
916.192	28.5523
919.085	25.7026
921.977	31.6394
924.87	33.1409
927.763	29.7029
930.655	28.0488
933.548	26.6121
936.441	12.0806
939.333	9.20508
942.226	3.39429
945.119	0.332764
948.011	0.210693
950.904	4.72729
953.797	0.195557
956.69	0.301758
959.582	18.5139
962.475	39.0393
965.368	58.5107
968.26	87.521
971.153	131.288
974.046	286.003
976.938	622.334
979.831	635.307
982.724	215.827
985.617	68.0374
988.509	39.1162
991.402	39.9016
994.295	25.8823
997.187	23.885
1000.08	32.6448
1002.97	16.1824
1005.87	15.7837
1008.76	18.1602
1011.65	31.2236
1014.54	24.9404
1017.44	16.855
1020.33	22.5615
1023.22	16.9702
1026.11	17.5005
1029.01	26.6807
1031.9	18.9946
1034.79	21.2793
1037.68	13.9922
1040.58	6.04102
1043.47	21.2339
1046.36	31.3975
1049.26	15.8901
1052.15	10.8486
1055.04	19.4346
1057.93	12.3301
1060.83	2.59228
1063.72	6.81348
1066.61	0.827148
1069.51	3.55566
1072.4	11.2036
1075.29	17.8032
1078.18	26.7036
1081.08	30.2368
1083.97	28.9375
1086.86	32.8237
1089.75	35.0864
1092.65	29.8931
1095.54	31.8994
1098.43	34.3184
1101.33	44.481
1104.22	36.627
1107.11	31.7109
1110	55.7554
1112.89	60.7754
1115.79	53.354
1118.68	46.8706
1121.57	45.0298
1124.47	33.1733
1127.36	28.8013
1130.25	21.0718
1133.14	28.2075
1136.04	22.1489
1138.93	19.1846
1141.82	8.15869
1144.71	15.313
1147.61	17.5459
1150.5	14.9854
1153.39	5.72461
1156.29	0.856934
1159.18	0.84668
1162.07	7.52979
1164.96	0.697754
1167.86	5.18213
1170.75	8.90479
1173.64	12.0767
1176.54	30.9238
1179.43	14.1011
1182.32	19.2666
1185.21	20.7895
1188.11	16.2075
1191	5.36865
1193.89	0.511719
1196.78	11.6792
1199.68	22.4316
1202.57	5.10254
1205.46	13.9155
1208.35	18.7173
1211.25	35.2617
1214.14	19.5747
1217.03	16.0815
1219.92	8.64209
1222.82	19.3081
1225.71	29.4521
1228.6	29.375
1231.5	25.7969
1234.39	23.5186
1237.28	22.5566
1240.17	14.4868
1243.07	14.2642
1245.96	25.4287
1248.85	40.5185
1251.74	20.2895
1254.64	21.7695
1257.53	39.2105
1260.42	38.8276
1263.32	38.9228
1266.21	30.7334
1269.1	37.0112
1271.99	30.4941
1274.89	31.6406
1277.78	25.1977
1280.67	32.5747
1283.57	33.6846
1286.46	31.2803
1289.35	17.105
1292.24	7.0459
1295.13	37.9395
1298.03	11.1899
1300.92	0.868164
