Measurement: Raman, 785 nm, unoriented, Raman Data Processed
Mineral: Cliffordite
Rruff sample: R070407
Ideal chemistry: U^6+^Te^4+^_3_O_9_
Locality: Bambollita mine (Oriental mine), Moctezuma, Municipio de Moctezuma, Sonora, Mexico
Source: Michael Scott
Description: Pale yellow massive on quartz associated with pale green emmonsite and barite
Raman shift (cm-1)	intensity
230.46	0
233.353	9.23828
236.245	36.5586
239.138	83.8594
242.031	415.25
244.923	332.625
247.816	425.926
250.709	375.68
253.601	473.594
256.494	505.352
259.387	707.734
262.28	784.5
265.172	1054.22
268.065	1309.89
270.958	1553.66
273.85	1660.89
276.743	1416.67
279.636	1073.05
282.529	888.711
285.421	793.305
288.314	788.109
291.207	613.68
294.099	488.75
296.992	402.289
299.885	251.555
302.777	360.141
305.67	411.891
308.563	478.144
311.455	764.285
314.348	695.894
317.241	871.356
320.134	768.715
323.026	823.336
325.919	793.996
328.812	618.93
331.704	413.758
334.597	270.973
337.49	248.644
340.382	21.7656
343.275	89.7773
346.168	98.4766
349.061	79.1367
351.953	14.5703
354.846	116.293
357.739	209.242
360.631	109.938
363.524	23.6836
366.417	15.9531
369.31	174.617
372.202	324.836
375.095	559.723
377.988	572.781
380.88	681.906
383.773	1062.41
386.666	1098.98
389.558	1401.07
392.451	1787.5
395.344	2006.89
398.236	2295.56
401.129	2253.16
404.022	2356.46
406.915	1853.64
409.807	1652.43
412.7	1644.43
415.593	1616.5
418.485	1520.12
421.378	1709.89
424.271	1701.76
427.163	1771.81
430.056	1814.3
432.949	1711.71
435.842	1746.11
438.734	1671.3
441.627	1669.21
444.52	1582.94
447.412	1140.82
450.305	1086.93
453.198	908.363
456.091	817.203
458.983	616.539
461.876	764.664
464.769	430.648
467.661	420.356
470.554	509.414
473.447	362.445
476.339	274.863
479.232	260.539
482.125	284.547
485.017	254.762
487.91	271.277
490.803	113.082
493.696	197.164
496.588	107.211
499.481	244.848
502.374	117.504
505.266	106.727
508.159	61.7852
511.052	3.03125
513.944	56.457
516.837	58.5586
519.73	29.7383
522.623	85.0234
525.515	110.312
528.408	23.5391
531.301	117.051
534.193	33.3047
537.086	245.184
539.979	186.121
542.871	91.8789
545.764	23.1445
548.657	97.7031
551.55	7.29688
554.442	100.656
557.335	153.633
560.228	229.723
563.12	296.863
566.013	332.988
568.906	263
571.798	405.406
574.691	356.121
577.584	313.34
580.477	358.594
583.369	446.641
586.262	231.426
589.155	138.785
592.047	95.3047
594.94	178.199
597.833	212.789
600.726	194.164
603.618	366.586
606.511	25.4688
609.404	59.9531
612.296	78.457
615.189	101.324
618.082	63.1758
620.974	64.6562
623.867	129.144
626.76	166.477
629.653	216.644
632.545	187.648
635.438	299.816
638.331	508.633
641.223	724.312
644.116	983.961
647.009	1030.57
649.901	1350.67
652.794	1561.86
655.687	1651.48
658.58	1718.46
661.472	1521.21
664.365	1165.65
667.258	1074.53
670.15	862.519
673.043	693.66
675.936	724.633
678.828	455.234
681.721	548.648
684.614	212.84
687.506	9.98828
690.399	82.5938
693.292	22.125
696.185	86.3164
699.077	28.0312
701.97	380.539
704.863	675.711
707.755	896.059
710.648	1504.25
713.541	2119.57
716.433	3064.16
719.326	3747.68
722.219	3969.89
725.112	3403.34
728.004	2375.8
730.897	1695.71
733.79	1111.97
736.682	726.531
739.575	537.32
742.468	440.758
745.361	529.859
748.253	506.875
751.146	625.473
754.039	725.062
756.931	721.461
759.824	672.176
762.717	920.129
765.609	829.289
768.502	721.746
771.395	506.879
774.288	611.238
777.18	466.324
780.073	470.184
782.966	594.539
785.858	726.562
788.751	784.246
791.644	685.281
794.536	369.086
797.429	244.062
800.322	268.34
803.215	22.3828
806.107	127.594
809	5.76172
811.893	125.988
814.785	10.75
817.678	162.246
820.571	96.3516
823.463	39.5312
826.356	274.949
829.249	644.996
832.141	813.781
835.034	1108.01
837.927	1221.07
840.82	814.309
843.712	566.141
846.605	283.231
849.498	39.3281
852.39	284.734
855.283	116.016
858.176	107.902
861.068	63.6602
863.961	140.512
866.854	119.883
869.747	201.394
872.639	111.484
875.532	275.383
878.425	345.879
881.317	6.14844
884.21	104.977
887.103	48.0742
889.995	197.074
892.888	60.3008
895.781	174.562
898.674	157.262
901.566	238.625
904.459	121.184
907.352	193.422
910.244	101.5
913.137	162.945
916.03	253.133
918.923	92.9258
921.815	5.77344
924.708	87.7227
927.601	40.3516
930.493	32.3125
933.386	170.543
936.279	37.582
939.171	40.0117
942.064	126.227
944.957	91.6641
947.85	15.8555
950.742	71.0273
953.635	85.1719
956.528	120.207
959.42	222.762
962.313	56.8828
965.206	167.106
968.098	202.254
970.991	65.3047
973.884	111.438
976.777	105.613
979.669	88.4922
982.562	1.16016
985.455	370.289
988.347	367.984
991.24	255.289
994.133	123.914
997.025	182.066
999.918	149.656
1002.81	99.4922
1005.7	159.394
1008.6	125.457
1011.49	258.328
1014.38	256.023
1017.27	172.859
1020.17	299.449
1023.06	279.344
1025.95	301.461
1028.85	244.262
1031.74	125.504
1034.63	123.859
1037.52	35.4492
1040.42	234.773
1043.31	68.9258
1046.2	84.9219
1049.09	41.3047
1051.99	198.535
1054.88	28.4453
1057.77	58.9766
1060.66	102.078
1063.56	71.0234
1066.45	37.0781
1069.34	166.074
1072.24	40.9766
1075.13	151.559
1078.02	258.633
1080.91	88.332
1083.81	18.3164
1086.7	97.5234
1089.59	146.117
1092.48	204.324
1095.38	81.668
1098.27	160.609
1101.16	62.9883
1104.06	177.09
1106.95	142.008
1109.84	161.938
1112.73	209.75
1115.63	130.254
1118.52	270.176
1121.41	152.394
1124.3	131.879
1127.2	137.547
1130.09	49.3438
1132.98	34.4766
1135.88	241.777
1138.77	142.512
1141.66	198.562
1144.55	135.367
1147.45	86.6094
1150.34	221.848
1153.23	39.2617
1156.12	110.449
1159.02	106.375
1161.91	121.062
1164.8	99.4023
1167.69	120.977
1170.59	50.9141
1173.48	63.4727
1176.37	168.074
1179.27	57.5488
1182.16	136.525
1185.05	184.486
1187.94	178.66
1190.84	164.141
1193.73	127.842
1196.62	157.662
1199.51	139.519
1202.41	138.107
1205.3	165.332
1208.19	144.891
1211.09	191.412
1213.98	138.318
1216.87	190.793
1219.76	192.435
1222.66	31.8398
1225.55	2.37109
1228.44	32.1133
