Measurement: Raman, 532 nm, unoriented, Raman Data Processed
Mineral: Cliffordite
Rruff sample: R070407
Ideal chemistry: U^6+^Te^4+^_3_O_9_
Locality: Bambollita mine (Oriental mine), Moctezuma, Municipio de Moctezuma, Sonora, Mexico
Source: Michael Scott
Description: Pale yellow massive on quartz associated with pale green emmonsite and barite
Raman shift (cm-1)	intensity
190.642	0
193.535	5.47656
196.427	161.676
199.32	168.584
202.213	210.412
205.105	3.00195
207.998	49.709
210.891	60.291
213.783	60.1797
216.676	81.3574
219.569	36.4531
222.462	190.777
225.354	148.066
228.247	84.4805
231.14	239.533
234.032	191.551
236.925	236.232
239.818	185.342
242.71	211.838
245.603	242.365
248.496	304.049
251.388	285.359
254.281	309.432
257.174	334.262
260.067	422.307
262.959	427.857
265.852	528.873
268.745	475.264
271.637	473.756
274.53	481.647
277.423	476.719
280.315	330.91
283.208	203.92
286.101	184.711
288.994	162.941
291.886	97.6973
294.779	148.213
297.672	127.695
300.564	113.859
303.457	161.957
306.35	141.369
309.243	244.879
312.135	285.307
315.028	212.594
317.921	205.043
320.813	334.978
323.706	217.834
326.599	156.109
329.491	105.664
332.384	8.76562
335.277	95.2051
338.17	96.3281
341.062	43.1895
343.955	4.4707
346.848	24.127
349.74	71.3906
352.633	97.0762
355.526	19.9844
358.418	1.80469
361.311	105.049
364.204	147.711
367.097	167.963
369.989	113.549
372.882	66.5215
375.775	163.268
378.667	265.393
381.56	296.752
384.453	539.338
387.346	675.963
390.238	704.566
393.131	899.746
396.024	914.863
398.916	1119.98
401.809	838.631
404.702	923.326
407.594	726.482
410.487	754.826
413.38	779.023
416.272	648.084
419.165	712.811
422.058	728.08
424.951	857.738
427.843	715.314
430.736	704.019
433.629	664.629
436.521	647.211
439.414	587.783
442.307	617.549
445.2	410.394
448.092	410.293
450.985	349.215
453.878	288.703
456.77	289.897
459.663	180.398
462.556	124.373
465.448	48.9688
468.341	253.688
471.234	121.172
474.127	111.1
477.019	115.449
479.912	143.793
482.805	83.2402
485.697	70.4688
488.59	33.7617
491.483	194.535
494.375	32.0078
497.268	167.977
500.161	27.5078
503.053	76.8242
505.946	37.1055
508.839	19.207
511.732	89.6094
514.624	111.281
517.517	19.2188
520.41	99.0586
523.302	21.9531
526.195	138.578
529.088	22.0703
531.981	66.293
534.873	52.832
537.766	128.445
540.659	81.6758
543.551	138.406
546.444	47.0664
549.337	138.25
552.229	66.6484
555.122	162.258
558.015	73.4492
560.908	163.293
563.8	14.9102
566.693	220.688
569.586	65.4492
572.478	38.9102
575.371	21.293
578.264	142.106
581.156	46.9219
584.049	146.25
586.942	98.0508
589.835	155.098
592.727	25.875
595.62	109.996
598.513	9.59766
601.405	33.8594
604.298	119.961
607.191	17.2578
610.083	60.7539
612.976	62.7656
615.869	37.0078
618.762	75.7031
621.654	176.602
624.547	40.0938
627.44	182.797
630.332	175.164
633.225	273.988
636.118	227.82
639.01	384.496
641.903	469.09
644.796	637.285
647.689	670.898
650.581	680.231
653.474	784.887
656.367	698.883
659.259	765.723
662.152	457.629
665.045	546.656
667.938	481.391
670.83	269.176
673.723	379.074
676.616	307.152
679.508	237.711
682.401	135.957
685.294	175.621
688.186	222.215
691.079	130.672
693.972	316.941
696.865	258.891
699.757	448.012
702.65	951.363
705.543	1159.56
708.435	1555.2
711.328	1990.19
714.221	2552.32
717.113	3097.86
720.006	3198.83
722.899	3038.43
725.792	2450.5
728.684	1881.64
731.577	1328.75
734.47	1104.87
737.362	702.031
740.255	474.031
743.148	336.043
746.04	294.019
748.933	421.93
751.826	236.336
754.719	271.629
757.611	302.156
760.504	203.426
763.397	154.445
766.289	176.031
769.182	97.2305
772.075	194.223
774.967	25.4375
777.86	35.8711
780.753	18.5039
783.646	118.805
786.538	53.1211
789.431	97.5977
792.324	139.949
795.216	172.488
798.109	46.1797
801.002	33.4531
803.894	7.25781
806.787	47.6562
809.68	24.5703
812.573	69.1641
815.465	244.656
818.358	209.215
821.251	288.809
824.143	483.598
827.036	776.746
829.929	871.269
832.822	1346.56
835.714	1415.1
838.607	1170.94
841.5	655.789
844.392	517.824
847.285	188.715
850.178	180.41
853.07	119.477
855.963	132.856
858.856	291.231
861.749	48.2852
864.641	78.3242
867.534	236.316
870.427	241.91
873.319	215.477
876.212	113.551
879.105	164.195
881.997	123.828
884.89	23.0781
887.783	14.7891
890.676	53.3438
893.568	95
896.461	8.60938
899.354	66.8594
902.246	215.484
905.139	34.7578
908.032	98.7031
910.924	74.8242
913.817	146.516
916.71	273.055
919.602	202.285
922.495	44.6562
925.388	203.891
928.281	238.07
931.173	150.418
934.066	130.477
936.959	181.574
939.851	223.879
942.744	203.555
945.637	134.484
948.529	188.824
951.422	218.723
954.315	158.191
957.208	134.106
960.1	104.09
962.993	196.535
965.886	181.078
968.778	191.207
971.671	263.828
974.564	160.156
977.457	152.062
980.349	103.375
983.242	134.25
986.135	207.621
989.027	234.57
991.92	140.481
994.813	363.062
997.705	134.203
1000.6	248.125
1003.49	129.961
1006.38	117.203
1009.28	202.062
1012.17	116.039
1015.06	250.902
1017.95	142.234
1020.85	272.16
1023.74	253.394
1026.63	219.578
1029.53	63.7266
1032.42	15.7266
1035.31	16.9141
1038.2	90.8516
1041.1	88.5039
1043.99	138.836
1046.88	329.953
1049.77	21.043
1052.67	38.2539
1055.56	203.148
1058.45	140.594
1061.35	95.0625
1064.24	155.016
1067.13	72.2578
1070.02	143.691
1072.92	193.301
1075.81	106.231
1078.7	86.1562
1081.59	124.231
1084.49	81.5195
1087.38	249.195
1090.27	125.875
1093.16	67.0273
1096.06	32.8047
1098.95	32.4648
1101.84	136.301
1104.73	167.324
1107.63	56.4297
1110.52	45.6953
1113.41	92.0586
1116.31	186.57
1119.2	161.312
1122.09	125.441
1124.98	182.75
1127.88	249.043
1130.77	56.2422
1133.66	111.676
1136.56	85.582
1139.45	143.711
1142.34	17.7773
1145.23	269.406
1148.13	279.828
1151.02	126.262
1153.91	71.6953
1156.8	288.832
1159.7	372.387
1162.59	214.152
1165.48	181.598
1168.38	361.914
1171.27	68.2344
1174.16	181.695
1177.05	121.039
1179.95	241.793
1182.84	216.441
1185.73	175.852
1188.62	67.5391
1191.52	214.613
1194.41	251.285
1197.3	114.371
1200.19	147.547
1203.09	144.242
1205.98	108.519
1208.87	71.9375
1211.77	232.887
1214.66	37.7539
1217.55	89.0508
1220.44	139.973
1223.34	54.7969
1226.23	36.0703
1229.12	89.7891
1232.01	2.04688
1234.91	104.41
1237.8	215.812
1240.69	155.25
1243.59	236.398
1246.48	241.684
1249.37	7.57031
1252.26	296.609
1255.16	228.25
1258.05	361.305
1260.94	453.992
1263.83	176.348
1266.73	215.262
1269.62	221.688
1272.51	159.008
1275.4	280.898
1278.3	163.469
1281.19	338.664
1284.08	360.848
1286.98	283.852
1289.87	297.848
1292.76	226.332
1295.65	11.3711
1298.55	202.324
1301.44	47.0469
1304.33	64.1914
1307.22	23.7188
