Measurement: Raman, 532 nm, unoriented, Raman Data Processed
Mineral: Clinophosinaite
Rruff sample: R070202
Ideal chemistry: Na_3_Ca(SiO_3_)(PO_4_)
Locality: Tsentrainly mine, Rasvumchorr Mt, Khibiny Massif, Kola Peninsula, Murmanskaja Oblast', Northern Region, Russia
Source: Michael Scott
Description: Pale pink massive, associated with red platy lamprophyllite and eudialyte. Note that our a-cell parameter is doubled that reported, and our crystal is twinned by a 2-fold around [100]
Raman shift (cm-1)	intensity
181.482	0
184.374	121.928
187.267	67.2441
190.16	161.481
193.052	110.949
195.945	158.594
198.838	211.617
201.731	147.08
204.623	224.781
207.516	233.934
210.409	313.393
213.301	241.824
216.194	324.459
219.087	354.773
221.979	254.238
224.872	312.408
227.765	319.943
230.657	305.227
233.55	322.338
236.443	301.69
239.336	286.102
242.228	331.26
245.121	227.508
248.014	207.701
250.906	106.258
253.799	222.773
256.692	216.711
259.584	153.371
262.477	209.69
265.37	62.0703
268.263	164.912
271.155	200.603
274.048	65.8398
276.941	93.9082
279.833	44.2422
282.726	133.69
285.619	159.75
288.512	153.344
291.404	146.078
294.297	43.043
297.19	93.8672
300.082	41.6035
302.975	59.584
305.868	25.9883
308.76	92.3008
311.653	83.4316
314.546	51.5039
317.438	80.9414
320.331	72.0078
323.224	114.035
326.117	6.60547
329.009	308.945
331.902	53.2012
334.795	129.906
337.687	52.9746
340.58	74.7891
343.473	21.8887
346.365	59.2109
349.258	35.9375
352.151	23.6582
355.044	89.2148
357.936	26.1465
360.829	137.453
363.722	123.316
366.614	94.2832
369.507	55.293
372.4	171.402
375.293	88.3008
378.185	24.0195
381.078	114.268
383.971	14.7031
386.863	121.869
389.756	25.0176
392.649	64.9082
395.541	39.5801
398.434	35.4355
401.327	49.4297
404.219	95.6152
407.112	192.283
410.005	153.971
412.898	173.764
415.79	275.303
418.683	301.06
421.576	381.557
424.469	372.217
427.361	365.92
430.254	397.01
433.147	404.289
436.039	269.135
438.932	374.012
441.825	270.467
444.717	399.06
447.61	258.969
450.503	285.367
453.396	285.996
456.288	120.85
459.181	184.527
462.074	61.4512
464.966	217.256
467.859	223.635
470.752	348.338
473.644	160.69
476.537	210.102
479.43	216.422
482.322	316.004
485.215	253.164
488.108	223.652
491.001	171.59
493.893	348.211
496.786	196.738
499.679	329.746
502.571	221.094
505.464	268.977
508.357	132.766
511.25	296.551
514.142	152.727
517.035	181.383
519.928	169.293
522.82	71.0703
525.713	32.4648
528.606	141.856
531.498	92.8984
534.391	107.629
537.284	35.1602
540.177	15.1641
543.069	11.3281
545.962	175.914
548.855	191.902
551.747	7.08984
554.64	97.8906
557.533	81.8945
560.425	36.5742
563.318	192.996
566.211	160.922
569.104	387.422
571.996	493.246
574.889	544.441
577.782	654.367
580.674	599.363
583.567	625.914
586.46	670.594
589.352	527.519
592.245	696.512
595.138	729.082
598.031	881.848
600.923	1186.33
603.816	1256.07
606.709	1286.05
609.601	1219.56
612.494	1092.92
615.387	994.941
618.279	558.227
621.172	308.394
624.065	330.555
626.958	245.277
629.85	111.41
632.743	206.106
635.636	252.152
638.528	158.582
641.421	265.102
644.314	250.191
647.207	224.816
650.099	150.914
652.992	258.785
655.885	303.441
658.777	228.441
661.67	124.699
664.563	132.582
667.455	157.445
670.348	131.297
673.241	68.3477
676.134	90.2031
679.026	104.883
681.919	30.0117
684.812	225.938
687.704	64.6836
690.597	239.578
693.49	124.16
696.382	63.8047
699.275	62.5859
702.168	31.2734
705.061	45.9922
707.953	104.918
710.846	141.559
713.739	55.9844
716.631	142.707
719.524	56.1055
722.417	0.378906
725.309	124.066
728.202	204.648
731.095	12.4219
733.987	129.535
736.88	148.039
739.773	185.914
742.666	44.8516
745.558	94.2578
748.451	339.269
751.344	109.805
754.236	355.07
757.129	165.555
760.022	93.0078
762.915	284.578
765.807	216.469
768.7	92.4492
771.593	249.797
774.485	38.7383
777.378	150.762
780.271	67.7148
783.163	147.231
786.056	88.3945
788.949	101.922
791.842	102.629
794.734	51.5195
797.627	202.75
800.52	86.8594
803.412	40.543
806.305	132.523
809.198	49.543
812.091	0.191406
814.983	131.383
817.876	29.5625
820.769	226.898
823.661	250.703
826.554	230.629
829.447	178.606
832.339	80.5938
835.232	129.234
838.125	94.043
841.018	190.555
843.91	109.516
846.803	123.059
849.696	224.133
852.588	103.477
855.481	69.7109
858.374	121.926
861.266	38.9336
864.159	195.586
867.052	99.4531
869.944	72.4727
872.837	455.523
875.73	305.535
878.623	42.3125
881.515	6.23828
884.408	124.484
887.301	34.3945
890.193	169.172
893.086	113.598
895.979	109.629
898.871	111.391
901.764	7.15234
904.657	36.9492
907.55	8.42188
910.442	206.254
913.335	262.602
916.228	234.481
919.12	385.324
922.013	444.766
924.906	875.414
927.798	1490.91
930.691	2602.03
933.584	3422.06
936.477	4233.98
939.369	4325.55
942.262	3290.14
945.155	2321.33
948.047	2085.45
950.94	2007.63
953.833	2690.7
956.726	3413.65
959.618	3720.46
962.511	3410.38
965.404	2747.05
968.296	1986.11
971.189	1551.84
974.082	1135.09
976.974	1019.31
979.867	578.137
982.76	260.367
985.653	61.3008
988.545	9.19141
991.438	98.3164
994.331	16.8086
997.223	169.781
1000.12	154.484
1003.01	213.676
1005.9	151.269
1008.79	277.602
1011.69	268.609
1014.58	105.559
1017.47	143.828
1020.37	71.1328
1023.26	74.5039
1026.15	110.242
1029.04	213.289
1031.94	253.559
1034.83	161.59
1037.72	134.773
1040.61	103.574
1043.51	85.8945
1046.4	121.484
1049.29	13.7031
1052.18	260.309
1055.08	288.074
1057.97	320.316
1060.86	548.258
1063.76	519.531
1066.65	532.582
1069.54	487.586
1072.43	374.676
1075.33	343.481
1078.22	510.039
1081.11	448.316
1084	439.426
1086.9	389.121
1089.79	215.41
1092.68	271.582
1095.58	72.9336
1098.47	99.668
1101.36	184.957
1104.25	118.113
1107.15	72.8242
1110.04	98.8789
1112.93	232.648
1115.82	151.383
1118.72	179.848
1121.61	69.1758
1124.5	134.957
1127.39	55.1133
1130.29	198.566
1133.18	141.094
1136.07	204.496
1138.97	212.391
1141.86	191.531
1144.75	178.914
1147.64	208.133
1150.54	249.434
1153.43	136.293
1156.32	157.465
1159.21	309.156
1162.11	23.4453
1165	316.023
1167.89	301.273
1170.79	299.938
1173.68	259.383
1176.57	335.492
1179.46	266.051
1182.36	215.266
1185.25	96.0703
1188.14	288.465
1191.03	204.578
1193.93	183.742
1196.82	310.281
1199.71	226.336
1202.61	212.051
1205.5	63.7422
1208.39	249.777
1211.28	258.602
1214.18	96.1133
1217.07	143.211
1219.96	33.9492
1222.85	231.66
1225.75	215.922
1228.64	196.094
1231.53	15.957
1234.42	14.7188
1237.32	67.9766
1240.21	5.97656
1243.1	164.309
1246	183.379
1248.89	268.394
1251.78	37.3242
1254.67	146.375
1257.57	124.019
1260.46	270.488
1263.35	148.293
1266.24	116.359
1269.14	207.547
1272.03	167.391
1274.92	301.227
1277.82	210.207
1280.71	155.734
1283.6	242.941
1286.49	167.148
1289.39	93.9219
1292.28	36.6641
