Measurement: Raman, 514 nm, unoriented, Raman Data Processed
Mineral: Clinohumite
Rruff sample: R040122
Ideal chemistry: Mg_9_(SiO_4_)_4_F_2_
Locality: Anzahamazonono,  Madagascar
Source: University of Arizona Mineral Museum
Description: Orange-brown blebs embedded in calcite matrix
Measured chemistry: (Mg_0.96_Fe_0.02_Ti_0.01_Ca_0.01_)_9_(SiO_4_)_4_(F_0.59_(OH)_0.41_)_2_
Raman shift (cm-1)	intensity
128.146	0
132.309	146.229
136.47	58.658
140.63	257.333
144.787	209.222
148.942	103.329
153.096	43.446
157.247	18.135
161.396	34.765
165.544	150.786
169.689	153.718
173.833	194.782
177.974	342.757
182.114	496.464
186.251	412.802
190.387	325.365
194.52	217.193
198.652	393.13
202.782	494.497
206.909	964.27
211.035	745.894
215.159	269.005
219.281	109.173
223.4	81.374
227.518	80.65
231.634	64.048
235.748	43.609
239.86	35.37
243.97	207.353
248.079	275.548
252.185	414.704
256.289	423.271
260.391	494.026
264.492	283.963
268.59	237.104
272.687	190.843
276.781	252.847
280.874	361.388
284.964	558.48
289.053	459.152
293.14	401.365
297.225	228.572
301.308	331.65
305.389	305.149
309.468	222.957
313.545	191.154
317.62	193.669
321.693	185.175
325.765	412.11
329.834	22.532
333.902	121.156
337.967	282.14
342.031	288.584
346.093	415.35
350.153	202.071
354.21	172.499
358.267	102.714
362.321	170.047
366.373	91.428
370.423	73.954
374.471	24.466
378.518	98.144
382.563	68.938
386.605	40.77
390.646	92.627
394.685	106.531
398.722	106.807
402.757	40.496
406.79	213.061
410.821	312.185
414.851	241.947
418.878	357.808
422.904	352.461
426.927	226.054
430.949	80.58
434.969	116.032
438.987	58.401
443.003	1.315
447.018	53.194
451.03	21.333
455.041	161.336
459.049	23.822
463.056	127.165
467.061	72.86
471.064	39.369
475.065	246.217
479.064	198.224
483.062	301.024
487.057	233.358
491.051	273.952
495.043	191.144
499.032	128.781
503.02	201.914
507.007	179.521
510.991	120.963
514.973	233.483
518.954	309.729
522.933	275.277
526.91	243.079
530.885	420.444
534.858	344.516
538.829	539.994
542.799	484.727
546.766	611.939
550.732	556.119
554.696	322.784
558.658	113.765
562.618	125.708
566.576	173.006
570.533	253.312
574.488	185.217
578.44	384.857
582.391	447.237
586.341	478.354
590.288	513.211
594.233	355.805
598.177	568.699
602.119	654.675
606.059	949.795
609.997	570.631
613.933	461.94
617.868	243.057
621.801	231.87
625.731	81.435
629.66	302.674
633.588	199.441
637.513	51.115
641.437	101.855
645.358	54.645
649.278	64.316
653.196	102.069
657.113	118.801
661.027	82.931
664.94	59.506
668.851	28.62
672.76	21.983
676.667	113.202
680.572	84.13
684.476	49.796
688.378	71.112
692.278	12.185
696.176	215.934
700.072	15.28
703.967	65.43
707.86	258.31
711.751	336.983
715.64	170.353
719.527	184.252
723.413	509.082
727.297	636.139
731.179	951.056
735.059	1223.03
738.937	1704.92
742.814	1717.72
746.689	2204.45
750.562	1961.12
754.433	1957.73
758.303	1860.29
762.17	1586.92
766.036	1385.56
769.901	1160.17
773.763	1665.85
777.624	2843.53
781.482	4176.16
785.339	4401.1
789.195	3058.02
793.048	2320.06
796.9	2042.15
800.75	2324.01
804.598	3148.93
808.445	3685.36
812.289	3107.33
816.132	3108.43
819.973	3240.15
823.813	5070.21
827.65	8433.25
831.486	9784.62
835.32	7549.06
839.152	8520.38
842.983	12135.5
846.812	12729.1
850.639	10511.7
854.464	12082.4
858.288	19156
862.11	18661.4
865.93	11296.3
869.748	7303.66
873.564	5730.58
877.379	4153.75
881.192	2958.15
885.004	1958.92
888.813	1296.87
892.621	1123.07
896.427	913.51
900.232	844.238
904.034	509.24
907.835	652.486
911.634	783.969
915.432	623.699
919.227	449.674
923.021	553.893
926.813	666.348
930.604	963.469
934.393	678.43
938.18	333.695
941.965	462.311
945.749	201.211
949.53	491.5
953.311	803.189
957.089	1247.27
960.866	2584.85
964.641	4614.12
968.414	5367.49
972.185	2810.38
975.955	1162.49
979.723	382.252
983.49	47.127
987.254	253.455
991.017	279.994
994.779	0.986
998.538	95.713
1002.3	280.385
1006.05	110.787
1009.81	42.164
1013.56	175.037
1017.31	56.406
1021.06	66.238
1024.81	90.232
1028.55	246.502
1032.3	71.502
1036.04	327.205
1039.78	148.912
1043.52	117.969
1047.26	170.68
1050.99	380.117
1054.73	250.787
1058.46	337.742
1062.19	171.938
1065.92	149.102
1069.65	72.342
1073.37	112.031
1077.1	229.523
1080.82	211.352
1084.54	62.229
1088.26	193.143
1091.97	208.492
1095.69	75.609
1099.4	240.895
1103.12	78.789
1106.83	244.613
1110.54	134.582
1114.24	300.02
1117.95	47.277
1121.65	78.635
1125.35	139.078
1129.06	1.996
1132.75	131.195
1136.45	26.584
1140.15	137.336
1143.84	6.795
1147.53	98.42
1151.22	85.07
1154.91	192.117
1158.6	52.814
1162.28	124.4
1165.97	54.752
1169.65	218.266
1173.33	109.098
1177.01	364.752
1180.69	380.775
1184.36	225.771
1188.04	163.947
1191.71	282.35
1195.38	8.812
1199.05	496.895
1202.71	388.223
1206.38	551.035
1210.04	154.215
1213.71	280.826
1217.37	522.512
1221.03	327.25
1224.68	210.605
1228.34	300.373
1231.99	371.947
1235.65	501.75
1239.3	550.162
1242.95	472.156
1246.59	122.42
1250.24	69.748
1253.88	318.469
1257.53	369.602
1261.17	458.555
1264.81	408.652
1268.45	499.336
1272.08	202.836
1275.72	290.279
1279.35	270.098
1282.98	88.309
1286.61	409.477
1290.24	311.844
1293.87	74.045
1297.49	303.859
1301.11	20.244
1304.73	105.025
1308.36	155.137
1311.97	241.746
1315.59	64.254
1319.2	28.447
1322.82	226.691
1326.43	43.336
1330.04	3.693
1333.65	286.004
1337.26	125.646
1340.86	247.471
1344.47	104.734
1348.07	214.807
1351.67	204.924
1355.27	395.092
1358.87	320.26
1362.46	508.834
1366.06	492.318
1369.65	416.074
1373.24	403.273
1376.83	233.162
1380.42	150.379
1384	321.533
1387.59	428.668
1391.17	387.461
1394.75	489.592
1398.33	356.746
1401.91	381.295
1405.49	138.32
1409.06	92.83
1412.64	50.051
1416.21	285.449
1419.78	327.408
1423.35	314.389
1426.91	291.215
1430.48	291.127
1434.05	292.639
1437.61	455.441
1441.17	217.672
1444.73	147.365
1448.29	189.199
1451.84	102.787
1455.4	39.855
1458.95	301.271
1462.5	393.361
1466.05	166.264
1469.6	10.689
1473.15	291.711
1476.69	149.508
