Measurement: Raman, 785 nm, unoriented, Raman Data Processed
Mineral: Clinoclase
Rruff sample: R070092
Ideal chemistry: Cu^2+^_3_As^5+^O_4_(OH)_3_
Locality: Majuba Hill, Antelope District, Pershing County, Nevada, USA
Source: James Shigley
Description: Rich area of dark blue-green prismatic crystals
Measured chemistry: (Cu_2.97_Al_0.02_[box]_0.01_)_Σ=3_(As_0.99_P_0.01_)_Σ=1_O_4_(OH)_3_ ; trace amounts of Fe and Zn; OH estimated by difference and charge balance
Raman shift (cm-1)	intensity
163.254	0
166.147	8.99103
169.04	27.1033
171.932	65.9091
174.825	93.1689
177.718	97.2683
180.61	91.9307
183.503	110.865
186.396	122.018
189.288	122.891
192.181	57.8501
195.074	30.7227
197.967	24.8043
200.859	29.9243
203.752	9.82812
206.645	23.9313
209.537	9.80688
212.43	41.0743
215.323	52.3654
218.215	70.2007
221.108	122.291
224.001	146.02
226.894	214.91
229.786	264.315
232.679	294.209
235.572	339.99
238.464	321.412
241.357	354.639
244.25	405.723
247.143	457.417
250.035	399.816
252.928	276.328
255.821	197.355
258.713	134.744
261.606	95.1269
264.499	79.4572
267.391	48.269
270.284	12.4012
273.177	3.48389
276.07	4.79974
278.962	11.4601
281.855	4.0119
284.748	0.869507
287.64	8.82544
290.533	47.7333
293.426	48.8874
296.318	62.8608
299.211	80.9241
302.104	113.664
304.997	113.249
307.889	134.16
310.782	90.1515
313.675	53.0614
316.567	26.3562
319.46	39.8145
322.353	0.539124
325.245	14.5428
328.138	29.3872
331.031	34.8166
333.923	34.7914
336.816	55.8167
339.709	50.1527
342.602	33.0346
345.494	74.4595
348.387	57.5449
351.28	35.5101
354.172	33.3939
357.065	44.8752
359.958	54.1915
362.851	51.4844
365.743	70.2374
368.636	58.2711
371.529	71.6829
374.421	99.1422
377.314	148.051
380.207	130.964
383.099	108.985
385.992	119.29
388.885	110.671
391.777	102.531
394.67	75.6682
397.563	47.8419
400.456	28.8082
403.348	30.7894
406.241	13.7853
409.134	1.5332
412.026	9.66931
414.919	19.6477
417.812	3.49377
420.704	25.318
423.597	18.9389
426.49	15.1248
429.383	10.2972
432.275	13.9771
435.168	1.69379
438.061	39.0878
440.953	36.9973
443.846	53.9744
446.739	73.9663
449.632	129.933
452.524	115.597
455.417	168.68
458.31	171.151
461.202	174.974
464.095	149.902
466.988	138.803
469.88	122.574
472.773	82.9134
475.666	75.5884
478.558	73.5868
481.451	43.0372
484.344	75.0295
487.237	57.9016
490.129	7.98077
493.022	19.7141
495.915	40.0126
498.807	10.2097
501.7	35.4119
504.593	13.3038
507.486	20.2914
510.378	31.8588
513.271	31.5275
516.164	40.8561
519.056	15.3154
521.949	20.0051
524.842	27.4422
527.734	38.3397
530.627	59.0655
533.52	105.894
536.413	144.153
539.305	187.701
542.198	217.736
545.091	283.98
547.983	253.582
550.876	224.777
553.769	148.558
556.661	138.689
559.554	62.9034
562.447	25.4326
565.34	7.6297
568.232	20.3076
571.125	14.9445
574.018	24.1471
576.91	18.175
579.803	2.82831
582.696	10.8842
585.588	2.57373
588.481	2.02338
591.374	10.7064
594.266	26.5357
597.159	45.2853
600.052	74.6617
602.945	54.26
605.837	46.2272
608.73	36.6645
611.623	20.1776
614.515	33.2479
617.408	4.62421
620.301	31.6957
623.193	19.776
626.086	29.2322
628.979	20.0503
631.872	6.33447
634.764	57.8764
637.657	36.9377
640.55	19.5049
643.442	14.8886
646.335	4.30286
649.228	31.4066
652.12	10.9385
655.013	9.62903
657.906	23.3245
660.799	43.5258
663.691	5.06952
666.584	41.5579
669.477	18.4989
672.369	18.9332
675.262	30.1356
678.155	2.42047
681.048	19.8192
683.94	26.9745
686.833	38.4942
689.726	22.3433
692.618	36.9385
695.511	18.0424
698.404	37.2828
701.296	30.322
704.189	10.9212
707.082	7.9541
709.975	15.7127
712.867	32.3859
715.76	8.9007
718.653	40.6124
721.545	5.40131
724.438	6.50635
727.331	13.517
730.223	5.6839
733.116	16.4612
736.009	18.5623
738.902	12.1334
741.794	8.95721
744.687	11.3589
747.58	16.7523
750.472	0.176575
753.365	12.6285
756.258	51.2723
759.15	20.7186
762.043	14.2717
764.936	14.7693
767.828	11.3432
770.721	47.4594
773.614	47.0779
776.507	83.1726
779.399	120.402
782.292	115.065
785.185	114.566
788.077	113.107
790.97	48.3272
793.863	76.1092
796.755	60.7777
799.648	51.346
802.541	58.914
805.434	72.89
808.326	139.208
811.219	129.686
814.112	225.568
817.004	292.718
819.897	409.293
822.79	597.168
825.683	766.152
828.575	1016.3
831.468	1182.12
834.361	1212.92
837.253	1035.57
840.146	884.09
843.039	723.169
845.931	564.498
848.824	475.737
851.717	367.842
854.61	283.409
857.502	248.234
860.395	209.772
863.288	145.275
866.18	116.082
869.073	93.992
871.966	82.9878
874.858	92.8872
877.751	54.3429
880.644	53.2689
883.537	50.4287
886.429	16.0631
889.322	11.4897
892.215	17.2073
895.107	11.2197
898	8.12286
900.893	24.2216
903.785	5.95526
906.678	2.47101
909.571	25.3764
912.463	9.36908
915.356	24.7615
918.249	16.0073
921.142	17.3655
924.034	6.27271
926.927	39.2363
929.82	38.8814
932.712	20.5188
935.605	35.1332
938.498	32.702
941.39	34.0241
944.283	25.827
947.176	38.0906
950.069	36.3876
952.961	13.4002
955.854	21.2064
958.747	33.6616
961.639	33.3612
964.532	39.9703
967.425	32.6
970.317	19.0265
973.21	28.6183
976.103	35.3958
978.996	30.851
981.888	28.9723
984.781	50.9999
987.674	14.6955
990.566	12.8755
993.459	18.5513
996.352	22.4629
999.245	22.7855
1002.14	22.5182
1005.03	26.2506
1007.92	35.4359
1010.82	10.8166
1013.71	38.1733
1016.6	5.0647
1019.49	17.7694
1022.39	1.39301
1025.28	11.6099
1028.17	25.7773
1031.06	14.9769
1033.96	25.5728
1036.85	31.853
1039.74	23.3075
1042.63	3.61206
1045.53	8.086
1048.42	21.9299
1051.31	40.452
1054.21	32.9351
1057.1	10.7663
1059.99	39.7476
1062.88	30.1003
1065.78	5.89581
1068.67	26.1054
1071.56	26.244
1074.45	38.7846
1077.35	6.08496
1080.24	46.9596
1083.13	1.97656
1086.03	21.5189
1088.92	20.3074
1091.81	17.3402
1094.7	51.2766
1097.6	43.2813
1100.49	13.5217
1103.38	32.7824
1106.27	28.3814
1109.17	45.7636
1112.06	38.1867
1114.95	31.2532
1117.85	29.6053
1120.74	31.9031
1123.63	37.9297
1126.52	34.9399
1129.42	58.3033
1132.31	53.5331
1135.2	48.6346
1138.09	30.4397
1140.99	37.5451
1143.88	13.9844
1146.77	9.85584
1149.66	17.2434
1152.56	11.8956
1155.45	5.77362
1158.34	12.2177
1161.24	19.4877
1164.13	7.25665
1167.02	8.31421
1169.91	11.3724
1172.81	20.6482
1175.7	19.9369
1178.59	36.2375
1181.48	43.8764
1184.38	21.5333
1187.27	22.6661
1190.16	36.2888
1193.06	12.6024
1195.95	8.19745
1198.84	13.0851
1201.73	42.7043
1204.63	21.5949
1207.52	6.33856
1210.41	24.3984
1213.3	27.9195
1216.2	22.4662
1219.09	7.81519
1221.98	18.2853
1224.88	4.96692
1227.77	0.854858
