Measurement: Raman, 785 nm, unoriented, Raman Data Processed
Mineral: Clintonite
Rruff sample: R070197
Ideal chemistry: CaAlMg_2_(SiAl_3_)O_10_(OH)_2_
Locality: Crestmore Quarry, Riverside County, California, USA
Source: California Institute of Technology
Description: Transparent green micaceous
Measured chemistry: Ca_1.00_(Mg_2.19_Al_0.66_Fe^3+^_0.15_)_Σ=3_(Al_2.81_Si_1.19_)_Σ=4_O_10_(OH)_2_
Raman shift (cm-1)	intensity
210.983	0
213.876	45.9219
216.768	111.262
219.661	653.508
222.554	862.613
225.447	961.391
228.339	809.164
231.232	484.832
234.125	503.832
237.017	449.418
239.91	663
242.803	730.496
245.696	694.234
248.588	272.164
251.481	269.258
254.374	123.871
257.266	263.758
260.159	345.356
263.052	549.246
265.945	439.051
268.837	410.523
271.73	296.894
274.623	264.738
277.515	104.504
280.408	274.492
283.301	355.082
286.193	654.559
289.086	510.731
291.979	431.801
294.872	254.445
297.764	114.258
300.657	135.367
303.55	123.894
306.442	402.059
309.335	389.734
312.228	545.012
315.12	360.004
318.013	105.004
320.906	242.754
323.798	195.805
326.691	526.973
329.584	598.449
332.476	811.41
335.369	708.242
338.262	420.422
341.155	498.414
344.047	393.016
346.94	503.844
349.833	477.574
352.725	580.402
355.618	577.887
358.511	377.414
361.404	222.32
364.296	152.231
367.189	107.106
370.082	35.8203
372.974	287.445
375.867	346.809
378.76	541.066
381.652	378.484
384.545	453.637
387.438	332.461
390.33	463.074
393.223	840.039
396.116	969.797
399.009	1248.03
401.901	1036.81
404.794	816.934
407.687	554.367
410.579	494.746
413.472	350.074
416.365	507.621
419.257	358.512
422.15	585.473
425.043	283.613
427.936	236.273
430.828	84.7383
433.721	107.539
436.614	242.617
439.506	114.062
442.399	126.57
445.292	134.223
448.185	163.633
451.077	112.652
453.97	304.617
456.863	91.1641
459.755	155.629
462.648	32.3203
465.541	293.66
468.433	342.914
471.326	290.762
474.219	73.9805
477.111	155.789
480.004	39.2148
482.897	52.668
485.79	29.2617
488.682	287.242
491.575	122.793
494.468	190.832
497.36	361.117
500.253	128.445
503.146	55.0352
506.038	399.488
508.931	335.051
511.824	158.523
514.717	419.715
517.609	437.473
520.502	374.941
523.395	254.035
526.288	110.133
529.18	75.9453
532.073	487.023
534.966	195.941
537.858	285.094
540.751	383.359
543.644	69.375
546.536	198.871
549.429	283.496
552.322	213.516
555.214	10.293
558.107	226.383
561	244.738
563.893	234.805
566.785	187.617
569.678	43.8984
572.571	17.9766
575.463	187.902
578.356	85.293
581.249	242.262
584.141	288.461
587.034	176.25
589.927	183.477
592.819	53.7656
595.712	27.1992
598.605	67.1562
601.498	218.977
604.39	242.543
607.283	127.465
610.176	171.137
613.068	69.793
615.961	145.492
618.854	174.012
621.746	172.168
624.639	237.863
627.532	266.492
630.425	228.332
633.317	380.898
636.21	398.527
639.103	586.168
641.995	777.004
644.888	1184.72
647.781	1533.96
650.673	1800.3
653.566	1981.06
656.459	1831.37
659.352	1294.93
662.244	803.496
665.137	701.805
668.03	393.516
670.922	293.004
673.815	248.359
676.708	346.082
679.601	163.234
682.493	306.637
685.386	144.336
688.279	30.4688
691.171	1.65234
694.064	220.91
696.957	155.703
699.849	347.414
702.742	345.805
705.635	232.094
708.528	168.016
711.42	119.297
714.313	108.773
717.206	162.508
720.098	227.246
722.991	112.566
725.884	111.289
728.776	22.9141
731.669	30.8867
734.562	84.9023
737.455	9.35156
740.347	95.3164
743.24	221.465
746.133	117.941
749.025	182.883
751.918	231.238
754.811	126.5
757.703	17.3516
760.596	31.9375
763.489	73.1094
766.381	146.488
769.274	0.65625
772.167	136.562
775.06	123.805
777.952	39.0742
780.845	139.516
783.738	57.1836
786.63	148.902
789.523	118.66
792.416	75.4492
795.308	253.359
798.201	221.688
801.094	254.785
803.987	35.4219
806.879	222.75
809.772	144.785
812.665	112.125
815.557	171.293
818.45	238.18
821.343	190.621
824.236	226.113
827.128	80.4531
830.021	147.328
832.914	94.3359
835.806	192.703
838.699	70.8164
841.592	52.2148
844.484	105.805
847.377	207.035
850.27	15.2461
853.163	72.5469
856.055	80.2891
858.948	42.5352
861.841	36.4492
864.733	135.551
867.626	9.66016
870.519	252.188
873.411	100.731
876.304	186.797
879.197	389.91
882.09	519.324
884.982	655.926
887.875	734.023
890.768	790.891
893.66	616.504
896.553	595.812
899.446	628.34
902.338	405.309
905.231	332.887
908.124	276.223
911.016	139.254
913.909	94.5977
916.802	44.2656
919.695	207.711
922.587	249.973
925.48	223.418
928.373	51.8281
931.265	213.637
934.158	232.102
937.051	80.0234
939.943	122.363
942.836	158.738
945.729	51.2656
948.622	82.7109
951.514	63.7188
954.407	67.7656
957.3	234.562
960.192	61.9883
963.085	308.129
965.978	99.4277
968.87	190.041
971.763	89.4102
974.656	96.1504
977.549	165.688
980.441	125.342
983.334	226.615
986.227	155.016
989.119	157.324
992.012	144.022
994.905	191.4
997.798	49.043
1000.69	60.0879
1003.58	223.688
1006.48	73.5606
1009.37	121.955
1012.26	92.8379
1015.15	71.1953
1018.05	99.918
1020.94	15.2402
1023.83	139.652
1026.72	202.047
1029.62	107.877
1032.51	130.758
1035.4	112.547
1038.3	8.19727
1041.19	107.707
1044.08	89.0312
1046.97	20.7461
1049.87	155.103
1052.76	89.918
1055.65	101.736
1058.54	37.3418
1061.44	124.303
1064.33	34.459
1067.22	70.043
1070.12	168.113
1073.01	138.781
1075.9	223.951
1078.79	68.4062
1081.69	103.303
1084.58	175.955
1087.47	77.8301
1090.36	16.4746
1093.26	52.3652
1096.15	60.3008
1099.04	198.756
1101.93	131.898
1104.83	74.4688
1107.72	116.189
1110.61	108.018
1113.51	10.6035
1116.4	54.4512
1119.29	152.941
1122.18	147.137
1125.08	105.336
1127.97	102.215
1130.86	4.31055
1133.75	74.9551
1136.65	226.785
1139.54	32.4492
1142.43	207.088
1145.33	75.5957
1148.22	125.861
1151.11	82.8477
1154	145.346
1156.9	85.0664
1159.79	74.7129
1162.68	6.17383
1165.57	79.543
1168.47	81.6231
1171.36	77.1523
1174.25	66.9981
1177.14	99.6172
1180.04	48.9336
1182.93	40.9805
1185.82	78.4121
1188.72	91.4512
1191.61	126.231
1194.5	128.438
1197.39	133.828
1200.29	152.315
1203.18	94.0781
1206.07	123.273
1208.96	154.56
1211.86	135.998
1214.75	68.2891
1217.64	140.731
1220.54	166.176
1223.43	38.5098
1226.32	110.502
1229.21	106.154
1232.11	21.3105
1235	61.4082
1237.89	56.2305
