Measurement: Raman, 785 nm, unoriented, Raman Data Processed
Mineral: Clinohumite
Rruff sample: R040122
Ideal chemistry: Mg_9_(SiO_4_)_4_F_2_
Locality: Anzahamazonono,  Madagascar
Source: University of Arizona Mineral Museum
Description: Orange-brown blebs embedded in calcite matrix
Measured chemistry: (Mg_0.96_Fe_0.02_Ti_0.01_Ca_0.01_)_9_(SiO_4_)_4_(F_0.59_(OH)_0.41_)_2_
Raman shift (cm-1)	intensity
146.572	0
149.464	99.769
152.357	153.924
155.25	110.981
158.142	10.7978
161.035	20.696
163.928	74.5932
166.821	76.1713
169.713	94.6224
172.606	106.49
175.499	119.736
178.391	138.27
181.284	212.832
184.177	257.949
187.069	264.465
189.962	146.906
192.855	110.653
195.748	131.717
198.64	141.292
201.533	144.142
204.426	100.063
207.318	122.167
210.211	124.159
213.104	68.8833
215.996	66.2467
218.889	37.4142
221.782	65.6361
224.674	55.0641
227.567	65.4435
230.46	58.4351
233.353	74.219
236.245	25.2819
239.138	82.4598
242.031	31.5732
244.923	24.2378
247.816	32.4489
250.709	3.48059
253.601	25.6783
256.494	1.49585
259.387	30.1327
262.28	0.0802
265.172	21.1954
268.065	12.6659
270.958	15.9629
273.85	22.8165
276.743	3.5144
279.636	48.5283
282.529	24.8156
285.421	37.9407
288.314	7.96619
291.207	2.86536
294.099	5.18957
296.992	21.53
299.885	49.171
302.777	120.942
305.67	226.263
308.563	268.013
311.455	203.451
314.348	204.934
317.241	271.324
320.134	374.992
323.026	322.093
325.919	204.527
328.812	169.292
331.704	92.0438
334.597	87.3206
337.49	84.6423
340.382	84.8125
343.275	110.097
346.168	142.674
349.061	161.894
351.953	216.331
354.846	187.369
357.739	95.0747
360.631	31.269
363.524	6.98401
366.417	14.9757
369.31	13.6803
372.202	31.3848
375.095	18.6166
377.988	70.6962
380.88	22.1194
383.773	31.6135
386.666	23.7673
389.558	52.1233
392.451	64.3317
395.344	49.3232
398.236	21.4224
401.129	9.81494
404.022	28.9336
406.915	51.5185
409.807	82.9896
412.7	113.162
415.593	134.657
418.485	133.237
421.378	165.263
424.271	195.178
427.163	253.743
430.056	325.001
432.949	298.075
435.842	265.225
438.734	242.916
441.627	266.102
444.52	213.642
447.412	155.708
450.305	83.8876
453.198	28.9165
456.091	5.02332
458.983	7.57825
461.876	13.0409
464.769	27.8531
467.661	7.76111
470.554	16.0892
473.447	25.3447
476.339	14.7689
479.232	9.08154
482.125	18.6957
485.017	6.78625
487.91	28.2351
490.803	13.1742
493.696	10.2971
496.588	19.5939
499.481	2.33716
502.374	4.64905
505.266	47.3578
508.159	22.4153
511.052	5.35461
513.944	8.00244
516.837	8.08203
519.73	17.5018
522.623	4.41138
525.515	23.2354
528.408	29.4346
531.301	55.0028
534.193	89.7964
537.086	176.772
539.979	267.915
542.871	367.135
545.764	508.716
548.657	599.413
551.55	423.304
554.442	263.518
557.335	144.092
560.228	147.054
563.12	124.263
566.013	110.495
568.906	114.522
571.798	136.709
574.691	154.846
577.584	224.639
580.477	295.711
583.369	351.603
586.262	357.903
589.155	341.027
592.047	316.046
594.94	356.298
597.833	509.348
600.726	673.968
603.618	879.096
606.511	1045.59
609.404	1029.07
612.296	720.923
615.189	428.006
618.082	251.156
620.974	150.818
623.867	105.301
626.76	59.0392
629.653	34.1991
632.545	30.5756
635.438	24.1427
638.331	10.8446
641.223	8.78339
644.116	12.9123
647.009	12.3293
649.901	11.2014
652.794	7.35053
655.687	19.884
658.58	27.5977
661.472	38.2773
664.365	58.7343
667.258	59.8555
670.15	43.3073
673.043	58.8547
675.936	41.8379
678.828	52.0416
681.721	50.4862
684.614	44.2785
687.506	51.2684
690.399	26.2449
693.292	11.1228
696.185	16.3916
699.077	12.3331
701.97	4.74268
704.863	0.172485
707.755	7.31213
710.648	15.4893
713.541	7.26758
716.433	20.7406
719.326	6.59033
722.219	28.4534
725.112	18.5394
728.004	3.31751
730.897	40.485
733.79	92.58
736.682	171.642
739.575	267.147
742.468	343.228
745.361	395.745
748.253	462.18
751.146	433.656
754.039	406.7
756.931	264.538
759.824	175.55
762.717	57.2876
765.609	28.3397
768.502	31.432
771.395	8.64319
774.288	133.234
777.18	343.973
780.073	547.052
782.966	754.769
785.858	753.43
788.751	508.244
791.644	286.6
794.536	235.727
797.429	292.768
800.322	429.54
803.215	736.993
806.107	1090.95
809	1285.88
811.893	1369.53
814.785	1513.9
817.678	2016.86
820.571	2856.69
823.463	4282.45
826.356	6381.42
829.249	8188.94
832.141	7350.31
835.034	5394.79
837.927	4663.1
840.82	5053.47
843.712	5848.88
846.605	5745.63
849.498	4726.8
852.39	4077.99
855.283	4388.93
858.176	5247.72
861.068	5202.65
863.961	3698.2
866.854	2268.8
869.747	1484.02
872.639	1086.17
875.532	851.939
878.425	613.385
881.317	361.458
884.21	172.017
887.103	55.9885
889.995	45.5715
892.888	38.7294
895.781	70.3241
898.674	36.3069
901.566	8.59497
904.459	34.2045
907.352	147.419
910.244	242.657
913.137	264.968
916.03	151.118
918.923	54.0087
921.815	62.8088
924.708	134.546
927.601	175.418
930.493	273.201
933.386	205.179
936.279	40.144
939.171	0.467041
942.064	24.6205
944.957	27.2263
947.85	26.2084
950.742	75.2515
953.635	154.498
956.528	256.096
959.42	473.913
962.313	828.474
965.206	1230.81
968.098	1303.17
970.991	853.907
973.884	510.229
976.777	335.952
979.669	197.579
982.562	148.754
985.455	78.2709
988.347	62.6312
991.24	39.1252
994.133	10.5628
997.025	9.79865
999.918	4.22754
1002.81	2.85278
1005.7	2.80115
1008.6	1.50482
1011.49	19.5906
1014.38	7.33106
1017.27	20.0256
1020.17	25.773
1023.06	20.6801
1025.95	31.3911
1028.85	48.1971
1031.74	41.3964
1034.63	32.2145
1037.52	58.6817
1040.42	42.2415
1043.31	54.5112
1046.2	33.3547
1049.09	36.2943
1051.99	41.8309
1054.88	28.7172
1057.77	39.6497
1060.66	4.55951
1063.56	22.9987
1066.45	12.5745
1069.34	14.9597
1072.24	15.5249
1075.13	0.144226
1078.02	4.57275
1080.91	12.5712
1083.81	1.98669
1086.7	3.7486
1089.59	29.658
1092.48	22.8436
1095.38	34.5668
1098.27	26.4247
1101.16	11.0761
1104.06	9.69928
1106.95	26.1469
1109.84	18.1741
1112.73	1.95746
1115.63	7.09656
1118.52	33.3166
1121.41	22.5211
1124.3	11.263
1127.2	17.0075
1130.09	6.30914
1132.98	36.4199
1135.88	10.0474
1138.77	33.2704
1141.66	26.8025
1144.55	38.472
1147.45	22.8698
1150.34	19.5015
1153.23	24.9406
1156.12	17.6448
1159.02	30.4247
1161.91	23.8364
1164.8	23.9385
1167.69	6.79987
1170.59	28.2676
1173.48	39.3131
1176.37	42.4492
1179.27	32.6382
1182.16	20.1298
1185.05	20.1235
1187.94	40.4651
1190.84	24.6726
1193.73	0.712158
1196.62	23.6476
1199.51	12.8867
1202.41	26.4936
1205.3	28.4088
1208.19	47.7024
1211.09	36.7448
1213.98	37.84
1216.87	18.4645
1219.76	4.23187
1222.66	40.6171
1225.55	4.90051
1228.44	17.429
1231.33	14.0241
