Measurement: Raman, 532 nm, unoriented, Raman Data Processed
Mineral: Clinosafflorite
Rruff sample: R130389
Ideal chemistry: Co^2+^As_2_
Locality: Ahrbar, Bou Azzer, Morocco
Source: Rock Currier
Description: Aggregates of metallic platy crystals, associated with arsenopyrite and skutterudite.
Raman shift (cm-1)	intensity
215.194	0
218.087	1.29678
220.98	0.313381
223.872	0.639149
226.765	0.80777
229.658	1.21708
232.55	0.142567
235.443	0.02187
238.336	0.629646
241.228	1.47418
244.121	1.00806
247.014	1.19925
249.906	1.10781
252.799	0.317272
255.692	1.61248
258.585	0.926289
261.477	1.74649
264.37	1.76516
267.263	2.46901
270.155	2.97659
273.048	2.115
275.941	1.6842
278.834	1.45071
281.726	0.897713
284.619	1.01118
287.512	0.772209
290.404	0.497589
293.297	0.249359
296.19	0.043221
299.082	0.125938
301.975	0.008858
304.868	0.50312
307.76	0.601845
310.653	1.45526
313.546	2.64029
316.439	1.41301
319.331	2.92816
322.224	3.33721
325.117	4.27846
328.009	6.02319
330.902	5.29641
333.795	7.26891
336.688	6.67971
339.58	5.27007
342.473	5.40517
345.366	3.67686
348.258	1.21078
351.151	1.58302
354.044	0.646599
356.936	0.938698
359.829	1.04884
362.722	1.02141
365.615	0.374771
368.507	0.676979
371.4	1.11555
374.293	1.1659
377.185	1.28867
380.078	0.178589
382.971	0.036285
385.863	0.326927
388.756	0.838959
391.649	0.780121
394.541	0.787186
397.434	0.708061
400.327	0.937378
403.22	1.02705
406.112	0.99855
409.005	1.22619
411.898	0.375717
414.79	1.19205
417.683	1.51514
420.576	1.7
423.469	0.532013
426.361	2.79666
429.254	0.770523
432.147	0.127785
435.039	2.49873
437.932	1.05238
440.825	0.368759
443.717	1.56534
446.61	0.836357
449.503	0.283287
452.396	1.2137
455.288	0.647247
458.181	1.2847
461.074	0.79203
463.966	0.010742
466.859	0.62722
469.752	1.841
472.644	0.881348
475.537	0.645622
478.43	1.0851
481.322	0.665726
484.215	0.783043
487.108	1.76437
490.001	1.12259
492.893	0.139694
495.786	0.522125
498.679	0.752945
501.571	0.432426
504.464	0.545235
507.357	1.09032
510.25	0.601105
513.142	1.1027
516.035	0.328041
518.928	0.670715
521.82	0.391182
524.713	0.927925
527.606	1.71796
530.498	0.607323
533.391	0.634972
536.284	0.613441
539.177	1.49191
542.069	0.725761
544.962	1.03886
547.855	0.90081
550.747	1.72897
553.64	0.644157
556.533	0.876343
559.425	1.21712
562.318	1.66847
565.211	1.82124
568.104	1.14146
570.996	1.66494
573.889	1.36811
576.782	0.080101
579.674	1.20478
582.567	0.142281
585.46	0.571968
588.352	0.144463
591.245	1.62733
594.138	1.72393
597.03	1.84851
599.923	1.11663
602.816	1.06766
605.709	1.56409
608.601	1.15406
611.494	1.34428
614.387	2.38845
617.279	1.4465
620.172	1.65345
623.065	1.51979
625.957	1.0339
628.85	0.685547
631.743	1.31242
634.636	1.44415
637.528	0.033974
640.421	1.40712
643.314	0.305618
646.206	0.338127
649.099	0.231628
651.992	0.199028
654.885	0.423332
657.777	0.975067
660.67	0.685883
663.563	0.5979
666.455	0.260719
669.348	0.2827
672.241	0.384796
675.133	1.42278
678.026	1.11108
680.919	0.767731
683.812	1.13989
686.704	1.2394
689.597	1.20291
692.49	1.22649
695.382	0.821175
698.275	1.12381
701.168	0.677673
704.06	0.466476
706.953	1.18498
709.846	0.179337
712.739	0.360214
715.631	0.085976
718.524	0.312103
721.417	1.78678
724.309	0.895554
727.202	0.368904
730.095	1.09347
732.987	1.64276
735.88	0.131241
738.773	0.555672
741.665	1.72953
744.558	0.308449
747.451	0.942238
750.344	0.553947
753.236	0.123863
756.129	0.493027
759.022	0.520378
761.914	0.458817
764.807	0.614136
767.7	1.37694
770.592	0.583344
773.485	0.409416
776.378	0.469307
779.271	0.199562
782.163	0.740898
785.056	0.494766
787.949	0.571007
790.841	0.920067
793.734	1.17683
796.627	0.421104
799.519	1.5572
802.412	1.03299
805.305	0.388779
808.198	0.705376
811.09	1.56049
813.983	1.47082
816.876	1.56946
819.768	1.77535
822.661	2.0978
825.554	2.05811
828.447	2.20396
831.339	2.16156
834.232	2.29659
837.125	3.65128
840.017	3.93504
842.91	4.23334
845.803	4.01193
848.695	3.66778
851.588	4.49688
854.481	3.59632
857.374	3.98502
860.266	3.18756
863.159	2.9864
866.052	2.64928
868.944	3.29213
871.837	2.67378
874.73	1.22368
877.622	2.83692
880.515	1.38231
883.408	1.54005
886.301	2.05135
889.193	0.966003
892.086	0.306595
894.979	1.03364
897.871	0.469322
900.764	0.437775
903.657	0.674187
906.549	0.885529
909.442	0.314018
912.335	0.330803
915.227	0.31205
918.12	0.000282
921.013	0.150017
923.906	0.534569
926.798	0.623695
929.691	0.788452
932.584	0.791916
935.476	1.08906
938.369	0.120697
941.262	0.187157
944.154	0.565094
947.047	1.30333
949.94	0.207787
952.833	0.757561
955.725	0.447006
958.618	0.809387
961.511	0.373405
964.403	1.13656
967.296	0.401466
970.189	0.294281
973.082	0.799759
975.974	0.631241
978.867	1.16749
981.76	1.16083
984.652	1.11946
987.545	0.498283
990.438	1.19881
993.33	0.239029
996.223	1.03837
999.116	0.891685
1002.01	1.33738
1004.9	1.41166
1007.79	0.867302
1010.69	0.422775
1013.58	1.31353
1016.47	0.921646
1019.37	1.31893
1022.26	0.549759
1025.15	0.408302
1028.04	2.69563
1030.94	1.39762
1033.83	0.66674
1036.72	0.103973
1039.61	0.782074
1042.51	1.2925
1045.4	1.87568
1048.29	0.507698
1051.18	0.90284
1054.08	1.31566
1056.97	0.883293
1059.86	0.39698
1062.76	1.31392
1065.65	0.136551
1068.54	1.2734
1071.43	0.892265
1074.33	0.615532
1077.22	1.65072
1080.11	0.898659
1083	0.44297
1085.9	1.05508
1088.79	1.15138
1091.68	0.801941
1094.58	1.54175
1097.47	0.102676
1100.36	0.190582
1103.25	0.458595
1106.15	1.03299
1109.04	0.338341
1111.93	1.56154
1114.82	0.514526
1117.72	0.595955
1120.61	0.615929
1123.5	0.573128
1126.39	1.33445
1129.29	0.773514
1132.18	0.6959
1135.07	0.729187
1137.96	1.3693
1140.86	0.792961
1143.75	1.1823
1146.64	1.10105
1149.54	0.7509
1152.43	0.347847
1155.32	0.762756
1158.21	0.54113
1161.11	0.550598
1164	0.084686
1166.89	0.468109
1169.79	0.785202
1172.68	0.576927
1175.57	0.760849
1178.46	0.78228
1181.36	0.357323
1184.25	1.35831
1187.14	0.245575
1190.03	0.604538
1192.93	0.256523
1195.82	0.391304
1198.71	0.693764
1201.61	1.28619
1204.5	1.32295
1207.39	1.16366
1210.28	0.215141
1213.18	0.629585
1216.07	1.41666
1218.96	0.056793
1221.85	0.8657
1224.75	0.343781
1227.64	0.161804
1230.53	0.91993
1233.42	0.847389
1236.32	0.200264
1239.21	1.11364
1242.1	0.697281
1244.99	0.543892
1247.89	1.01377
1250.78	0.479469
1253.67	0.610199
1256.57	0.396591
1259.46	0.772934
1262.35	1.69982
1265.24	1.36576
1268.14	0.181709
1271.03	0.599457
1273.92	1.11342
1276.82	1.08116
1279.71	0.631004
1282.6	1.18555
1285.49	0.721985
1288.39	0.571831
1291.28	0.866844
1294.17	0.366035
1297.06	0.212669
1299.96	0.012405
