Measurement: Raman, 785 nm, unoriented, Raman Data Processed
Mineral: Clinoatacamite
Rruff sample: R061066
Ideal chemistry: Cu^2+^_2_Cl(OH)_3_
Locality: Esperanza mine, Diego de Almagro, Chile
Source: Bob Jenkins
Description: Aggregates of dark green pseudo-octahedral crystals associated with malachite
Measured chemistry: Cu_2.00_Cl_1.00_(OH)_3_
Raman shift (cm-1)	intensity
109.475	0
112.85	63.4886
116.225	629.82
119.6	497.269
122.975	442.397
126.349	1602.48
129.724	4456.01
133.099	6515.85
136.474	3238.06
139.849	2059.32
143.223	2553.29
146.598	4525.49
149.973	4438.86
153.348	2201.35
156.723	1361.88
160.097	1447.83
163.472	1255.96
166.847	802.532
170.222	617.691
173.597	483.376
176.971	349.58
180.346	243.872
183.721	158.638
187.096	88.3294
190.471	35.5264
193.846	21.0474
197.22	17.0325
200.595	0.464905
203.97	5.53082
207.345	5.33984
210.72	39.1701
214.095	0.279419
217.469	10.8401
220.844	27.0906
224.219	7.41461
227.594	23.6921
230.969	4.85754
234.343	10.7999
237.718	23.3954
241.093	38.2229
244.468	65.4011
247.843	49.4458
251.218	76.1425
254.592	109.548
257.967	109.748
261.342	106.676
264.717	81.9087
268.092	93.9369
271.466	84.0291
274.841	65.8573
278.216	61.5436
281.591	47.5142
284.966	33.0341
288.341	10.1914
291.715	30.4018
295.09	40.7398
298.465	26.7559
301.84	20.3389
305.215	41.471
308.589	47.4526
311.964	34.7434
315.339	28.4297
318.714	29.8205
322.089	12.8126
325.464	0.98465
328.838	26.2006
332.213	43.6595
335.588	43.6885
338.963	23.5082
342.338	51.1858
345.712	55.2969
349.087	108.287
352.462	142.837
355.837	186.754
359.212	183.221
362.587	229.698
365.961	233.766
369.336	203.321
372.711	141.182
376.086	84.9769
379.461	63.7683
382.835	53.325
386.21	26.2213
389.585	19.2427
392.96	4.48697
396.335	11.1042
399.709	17.6173
403.084	18.4585
406.459	27.4825
409.834	61.0813
413.209	73.9581
416.584	55.1227
419.958	61.9628
423.333	65.9504
426.708	50.4178
430.083	68.1067
433.458	57.6019
436.832	45.1365
440.207	52.703
443.582	36.4366
446.957	37.2799
450.332	39.4571
453.707	15.2076
457.081	13.0876
460.456	14.9823
463.831	9.40997
467.206	4.77545
470.581	14.0739
473.955	14.8839
477.33	2.57626
480.705	20.2013
484.08	55.0859
487.455	42.122
490.829	101.644
494.204	110.833
497.579	146.719
500.954	209.167
504.329	255.854
507.704	289.535
511.078	256.339
514.453	247.191
517.828	191.739
521.203	129.403
524.578	73.4091
527.952	70.5449
531.327	46.2088
534.702	5.9624
538.077	7.48355
541.452	8.09589
544.827	8.97699
548.201	34.2832
551.576	17.3034
554.951	45.7923
558.326	18.9409
561.701	21.5058
565.075	10.4736
568.45	18.4581
571.825	56.331
575.2	48.0592
578.575	19.7635
581.949	44.7
585.324	30.326
588.699	47.4686
592.074	22.5279
595.449	5.18457
598.824	15.8451
602.198	11.5697
605.573	0.796692
608.948	28.773
612.323	3.68414
615.698	11.082
619.072	18.814
622.447	19.0187
625.822	18.54
629.197	5.56442
632.572	26.2499
635.947	21.0178
639.321	11.4629
642.696	29.0081
646.071	49.5045
649.446	1.36838
652.821	30.1828
656.196	41.5421
659.57	0.62558
662.945	32.9558
666.32	34.5273
669.695	4.09293
673.07	25.0374
676.444	11.9216
679.819	21.3516
683.194	6.26962
686.569	8.31424
689.944	11.2718
693.318	47.5967
696.693	35.6745
700.068	44.2286
703.443	60.5001
706.818	44.9811
710.193	42.1985
713.567	1.02164
716.942	11.2812
720.317	52.2048
723.692	62.3602
727.067	26.4108
730.442	26.4564
733.816	2.12961
737.191	43.6487
740.566	60.9279
743.941	23.7013
747.316	3.92999
750.69	21.3105
754.065	36.2503
757.44	22.7259
760.815	31.1981
764.19	32.4211
767.564	1.88754
770.939	20.9156
774.314	54.6468
777.689	48.0598
781.064	26.9325
784.438	51.8245
787.813	43.4851
791.188	45.0902
794.563	21.1924
797.938	40.5035
801.313	8.1911
804.687	32.7796
808.062	25.0663
811.437	51.3603
814.812	13.5343
818.187	34.905
821.562	45.7697
824.936	28.7279
828.311	23.8536
831.686	44.6846
835.061	3.14075
838.436	3.20102
841.81	7.68741
845.185	0.08606
848.56	1.46759
851.935	6.31357
855.31	11.7898
858.684	42.1922
862.059	10.755
865.434	60.1198
868.809	31.663
872.184	18.3832
875.558	37.0266
878.933	43.1796
882.308	115.337
885.683	126.007
889.058	140.104
892.433	146.259
895.807	130.055
899.182	89.2845
902.557	36.2581
905.932	57.6721
909.307	71.5469
912.682	48.9224
916.056	72.174
919.431	105.62
922.806	118.873
926.181	135.362
929.556	75.4425
932.93	38.6327
936.305	64.9963
939.68	71.2551
943.055	73.8438
946.43	67.2447
949.804	72.895
953.179	82.9446
956.554	89.9506
959.929	153.994
963.304	118.231
966.679	178.872
970.053	161.267
973.428	102.033
976.803	121.861
980.178	58.2316
983.553	32.7905
986.928	74.2611
990.302	31.3412
993.677	7.9682
997.052	51.3917
1000.43	38.725
1003.8	30.9769
1007.18	42.9992
1010.55	42.0656
1013.93	75.4938
1017.3	54.5029
1020.68	7.20581
1024.05	14.2035
1027.42	47.0612
1030.8	48.7985
1034.17	31.4147
1037.55	21.1306
1040.92	54.3306
1044.3	45.3705
1047.67	51.8709
1051.05	12.0247
1054.42	37.6369
1057.8	17.1837
1061.17	5.53461
1064.55	1.84216
1067.92	21.3855
1071.3	31.306
1074.67	24.5343
1078.05	50.6529
1081.42	34.5154
1084.8	31.1593
1088.17	63.5428
1091.55	69.9042
1094.92	55.0095
1098.3	50.2045
1101.67	4.33136
1105.05	24.3706
1108.42	24.1653
1111.8	58.4475
1115.17	47.5677
1118.55	3.7417
1121.92	44.771
1125.3	61.9811
1128.67	71.045
1132.05	6.43487
1135.42	75.0811
1138.79	22.7227
1142.17	32.1167
1145.54	45.623
1148.92	58.7012
1152.29	47.5323
1155.67	17.3493
1159.04	74.0952
1162.42	69.267
1165.79	48.6298
1169.17	34.6204
1172.54	28.8364
1175.92	23.499
1179.29	5.1048
1182.67	54.5778
1186.04	12.1653
1189.42	47.1804
1192.79	63.767
1196.17	39.943
1199.54	47.3177
1202.92	45.5344
1206.29	9.45752
1209.66	69.942
1213.04	56.3387
1216.41	48.3141
1219.79	68.9294
1223.16	25.4051
1226.54	37.1794
1229.91	53.8495
1233.29	53.1291
1236.66	33.7501
1240.04	5.40668
1243.41	80.1157
1246.79	89.596
1250.16	104.289
1253.54	53.692
1256.91	73.7178
1260.29	35.0252
1263.66	1.03351
1267.04	0
