Measurement: Raman, 532 nm, unoriented, Raman Data Processed
Mineral: Clinoatacamite
Rruff sample: R090062
Ideal chemistry: Cu^2+^_2_Cl(OH)_3_
Locality: Copper Queen Mine, Bisbee, Arizona
Source: William W. Pinch
Description: Dark green blocky crystals associated with green acicular atacamite, blue claringbullite, R090016, and cuprite. Some crystals are tabular, and these are untwinned.
Measured chemistry: Cu_2.01_Cl_0.98_(OH)_3_
Raman shift (cm-1)	intensity
187.941	0
190.833	10.6339
193.726	5.1488
196.619	11.0295
199.512	3.31372
202.404	13.0452
205.297	22.2058
208.19	10.2526
211.082	14.8851
213.975	9.94934
216.868	3.78247
219.761	13.6631
222.653	9.15637
225.546	3.15564
228.439	11.6489
231.331	0.903198
234.224	2.17542
237.117	3.5957
240.009	7.66052
242.902	8.2544
245.795	6.33887
248.688	14.0303
251.58	5.39661
254.473	11.7423
257.366	4.78711
260.258	6.38892
263.151	13.4788
266.044	12.9752
268.936	11.1442
271.829	8.34021
274.722	1.94507
277.615	3.66565
280.507	5.33374
283.4	3.53015
286.293	3.54321
289.185	2.92261
292.078	4.06795
294.971	7.6709
297.863	6.62878
300.756	2.67822
303.649	5.16748
306.541	3.66467
309.434	2.39404
312.327	1.23669
315.22	5.08106
318.112	7.17175
321.005	2.62183
323.898	6.9353
326.791	5.89563
329.683	13.2321
332.576	16.0325
335.469	3.08325
338.361	14.8951
341.254	17.0947
344.147	21.9506
347.039	28.0161
349.932	33.6379
352.825	46.3186
355.717	60.3516
358.61	67.7102
361.503	78.2201
364.396	82.812
367.288	76.3135
370.181	74.58
373.074	66.6708
375.966	37.2537
378.859	26.5592
381.752	15.9095
384.644	9.50366
387.537	4.81372
390.43	1.82153
393.323	1.724
396.215	4.38525
399.108	2.50476
402.001	11.7471
404.894	11.5779
407.786	5.53381
410.679	8.39477
413.572	5.45019
416.464	8.04565
419.357	19.5143
422.25	11.3101
425.142	15.9499
428.035	15.4839
430.928	17.6081
433.82	14.4796
436.713	27.0117
439.606	24.7029
442.499	23.6924
445.391	29.418
448.284	25.1268
451.177	12.7297
454.069	16.726
456.962	11.8136
459.855	0.64563
462.748	2.53626
465.64	3.92688
468.533	9.69556
471.426	4.96802
474.318	7.46021
477.211	3.04248
480.104	12.6306
482.996	10.9767
485.889	19.2006
488.782	26.6444
491.675	33.4619
494.567	56.375
497.46	60.6013
500.353	73.9416
503.245	88.1666
506.138	98.312
509.031	119.141
511.923	135.268
514.816	133.488
517.709	106.389
520.602	75.1869
523.494	58.77
526.387	33.1093
529.28	19.4513
532.172	13.3743
535.065	12.4716
537.958	12.3004
540.851	5.74316
543.743	0.737273
546.636	1.35791
549.529	2.95312
552.421	5.68835
555.314	14.3584
558.207	5.99768
561.099	5.71802
563.992	7.82239
566.885	13.2057
569.778	19.6677
572.67	12.1793
575.563	19.9479
578.456	17.8435
581.348	14.8523
584.241	15.3306
587.134	11.7849
590.027	14.4954
592.919	6.896
595.812	4.53809
598.705	4.39697
601.597	3.14258
604.49	3.2959
607.383	1.87073
610.275	3.07007
613.168	4.34546
616.061	1.005
618.953	4.45825
621.846	5.27551
624.739	0.928467
627.632	6.19177
630.524	7.23096
633.417	1.33276
636.31	2.58386
639.202	11.7299
642.095	8.80664
644.988	15.3118
647.881	4.88208
650.773	4.46594
653.666	6.95532
656.559	10.5212
659.451	11.6251
662.344	11.7513
665.237	6.04541
668.13	5.78906
671.022	6.71887
673.915	9.5863
676.808	2.84167
679.7	7.45862
682.593	8.50574
685.486	8.73377
688.378	12.195
691.271	14.7087
694.164	12.765
697.057	1.17603
699.949	3.78125
702.842	14.551
705.735	10.82
708.627	5.828
711.52	12.2104
714.413	8.17456
717.305	9.14014
720.198	6.48035
723.091	0.142944
725.984	4.00818
728.876	1.33691
731.769	3.6814
734.662	7.75293
737.554	3.92273
740.447	5.21423
743.34	2.35596
746.232	9.05505
749.125	2.73816
752.018	5.05164
754.91	4.99793
757.803	4.21277
760.696	1.63708
763.589	5.0575
766.481	3.15881
769.374	10.9994
772.267	9.65259
775.159	8.67053
778.052	4.92908
780.945	10.6277
783.838	12.2782
786.73	12.9799
789.623	9.73852
792.516	18.6837
795.408	15.1997
798.301	20.7964
801.194	27.262
804.087	22.2094
806.979	22.2544
809.872	17.0225
812.765	1.07861
815.657	6.54858
818.55	4.63281
821.443	8.18018
824.335	10.7362
827.228	3.65723
830.121	2.91321
833.014	2.59876
835.906	4.50183
838.799	0.544434
841.692	0.076538
844.584	1.44128
847.477	3.57251
850.37	1.78223
853.263	7.49866
856.155	9.48682
859.048	9.05774
861.941	12.2894
864.833	24.1926
867.726	24.9869
870.619	35.048
873.511	27.2839
876.404	22.9125
879.297	23.6995
882.189	26.102
885.082	38.7022
887.975	47.7056
890.868	66.833
893.76	67.8541
896.653	62.842
899.546	40.252
902.438	26.4388
905.331	23.8948
908.224	4.51245
911.116	8.05115
914.009	6.27356
916.902	13.5924
919.795	20.1324
922.687	37.3197
925.58	46.4185
928.473	59.147
931.365	50.1533
934.258	32.0642
937.151	20.3125
940.044	15.5347
942.936	2.30664
945.829	4.06519
948.722	1.26538
951.614	7.70044
954.507	4.67358
957.4	8.83435
960.293	18.2222
963.185	26.8408
966.078	38.217
968.971	55.4825
971.863	50.9552
974.756	54.2513
977.649	42.6407
980.541	33.6118
983.434	23.4094
986.327	14.6427
989.22	3.27698
992.112	7.37183
995.005	3.55078
997.898	0.006714
1000.79	8.38245
1003.68	3.83545
1006.58	0.484009
1009.47	1.95337
1012.36	5.41492
1015.25	2.41028
1018.15	1.54285
1021.04	4.17554
1023.93	3.12683
1026.83	2.63017
1029.72	8.5614
1032.61	5.8009
1035.5	12.3143
1038.4	14.4937
1041.29	8.91821
1044.18	8.45142
1047.07	5.45898
1049.97	3.36829
1052.86	3.82568
1055.75	2.32434
1058.64	4.63647
1061.54	2.8949
1064.43	8.56726
1067.32	6.29285
1070.21	7.31641
1073.11	6.30957
1076	9.14905
1078.89	4.96887
1081.79	8.35144
1084.68	8.01001
1087.57	0.368164
1090.46	2.38769
1093.36	9.02319
1096.25	9.11218
1099.14	8.84766
1102.04	5.12488
1104.93	10.5841
1107.82	6.07703
1110.71	8.37744
1113.61	4.12585
1116.5	11.0231
1119.39	8.98767
1122.28	9.32251
1125.18	5.03943
1128.07	6.98035
1130.96	5.63269
1133.86	11.585
1136.75	6.74439
1139.64	9.13318
1142.53	7.30615
1145.43	7.26294
1148.32	12.0332
1151.21	7.01575
1154.1	1.54456
1157	1.19727
1159.89	2.9165
1162.78	11.4498
1165.67	4.7854
1168.57	6.94604
1171.46	2.83826
1174.35	9.89355
1177.24	4.302
1180.14	1.61096
1183.03	4.00757
1185.92	5.7229
1188.82	6.05762
1191.71	7.40991
1194.6	4.65161
1197.49	3.84094
1200.39	4.89795
1203.28	4.60889
1206.17	2.18274
1209.07	7.94861
1211.96	3.79968
1214.85	9.6156
1217.74	6.06409
1220.64	2.62244
1223.53	9.67432
1226.42	0.516235
1229.31	2.67078
1232.21	4.42371
1235.1	8.19959
1237.99	0.036621
1240.88	8.75525
1243.78	1.40247
1246.67	7.08911
1249.56	4.89465
1252.45	7.83801
1255.35	3.36914
1258.24	5.65857
1261.13	14.7659
1264.03	6.73022
1266.92	13.656
1269.81	12.1366
1272.7	4.72119
1275.6	5.22485
1278.49	9.35303
1281.38	7.71387
1284.28	8.9176
1287.17	9.66113
1290.06	0.541992
1292.95	10.8691
1295.85	10.9664
1298.74	10.5063
1301.63	1.2616
