Measurement: Raman, 780 nm, unoriented, Raman Data Processed
Mineral: Clinosafflorite
Rruff sample: R130389
Ideal chemistry: Co^2+^As_2_
Locality: Ahrbar, Bou Azzer, Morocco
Source: Rock Currier
Description: Aggregates of metallic platy crystals, associated with arsenopyrite and skutterudite.
Raman shift (cm-1)	intensity
92.6459	0
96.0207	1.59724
99.3956	3.33582
102.77	1.5588
106.145	4.17427
109.52	0.726791
112.895	0.747543
116.27	3.21347
119.644	3.886
123.019	6.34922
126.394	6.46397
129.769	9.62517
133.144	9.26732
136.518	3.89533
139.893	2.38029
143.268	0.199554
146.643	0.178558
150.018	0.065742
153.393	2.01718
156.767	3.6672
160.142	4.62089
163.517	7.7294
166.892	11.3975
170.267	12.0978
173.642	5.4862
177.016	2.89251
180.391	2.18922
183.766	1.43687
187.141	2.35469
190.516	2.99411
193.89	3.82414
197.265	4.26258
200.64	3.61668
204.015	1.59909
207.39	0.639301
210.764	0.159889
214.139	0.30331
217.514	0.152824
220.889	0.229229
224.264	0.058136
227.638	0.430408
231.013	0.4286
234.388	0.726711
237.763	0.675434
241.138	1.88712
244.513	0.612705
247.887	0.736576
251.262	0.104576
254.637	0.101376
258.012	1.44877
261.387	2.1799
264.762	3.16748
268.136	5.13701
271.511	2.60229
274.886	1.92971
278.261	1.84375
281.635	3.11963
285.01	2.63882
288.385	5.40276
291.76	8.0509
295.135	9.61575
298.51	9.86948
301.884	10.5715
305.259	11.6011
308.634	11.3204
312.009	10.3434
315.384	8.87281
318.759	8.70393
322.133	11.2094
325.508	14.9151
328.883	19.2519
332.258	22.8631
335.633	21.8261
339.007	18.6654
342.382	13.3197
345.757	8.70047
349.132	7.46192
352.507	5.96638
355.882	5.38969
359.256	4.79071
362.631	4.54458
366.006	5.46424
369.381	6.77191
372.755	5.35589
376.13	1.71463
379.505	0.566652
382.88	1.13651
386.255	0.381205
389.63	0.585711
393.004	5.02798
396.379	9.64359
399.754	11.8677
403.129	7.72909
406.504	4.51843
409.878	2.79765
413.253	2.45628
416.628	2.84423
420.003	3.04916
423.378	2.34923
426.753	2.54081
430.127	1.89258
433.502	1.17539
436.877	1.16528
440.252	0.800314
443.627	0.157818
447.001	0.034157
450.376	0.397528
453.751	0.026566
457.126	0.09968
460.501	0.378782
463.875	0.187643
467.25	0.161728
470.625	1.46583
474	0.717283
477.375	0.499039
480.75	0.846945
484.124	1.17389
487.499	1.40129
490.874	0.233601
494.249	1.24342
497.624	1.18068
500.998	0.884426
504.373	1.56437
507.748	0.420504
511.123	0.64159
514.498	0.723568
517.873	0.781588
521.247	1.21232
524.622	0.159616
527.997	0.689157
531.372	0.567417
534.747	0.973824
538.121	0.406958
541.496	0.802423
544.871	0.202788
548.246	0.9341
551.621	0.058829
554.995	0.284338
558.37	0.506269
561.745	0.524906
565.12	0.065575
568.495	0.242032
571.87	0.351027
575.244	1.05951
578.619	0.493744
581.994	0.080729
585.369	0.165469
588.744	0.265245
592.119	0.896558
595.493	0.345148
598.868	0.446699
602.243	0.358053
605.618	0.167076
608.993	0.77712
612.367	0.815986
615.742	0.778316
619.117	0.373541
622.492	0.244737
625.867	0.104574
629.241	1.00042
632.616	0.898302
635.991	0.418905
639.366	0.469262
642.741	0.252636
646.115	0.353531
649.49	0.289229
652.865	0.010425
656.24	0.055883
659.615	0.945909
662.99	0.825555
666.364	0.579316
669.739	0.86783
673.114	0.356647
676.489	0.952149
679.864	0.267664
683.239	0.206232
686.613	0.08881
689.988	0.821331
693.363	1.36431
696.738	0.070833
700.112	0.511366
703.487	0.525
706.862	0.105829
710.237	0.674994
713.612	0.443644
716.987	0.350449
720.361	0.10371
723.736	0.206379
727.111	0.292824
730.486	0.484791
733.861	0.752028
737.236	0.69409
740.61	0.505232
743.985	0.166697
747.36	0.624968
750.735	0.468531
754.11	0.396622
757.484	0.335178
760.859	0.564371
764.234	0.556206
767.609	0.065298
770.984	0.753681
774.359	0.053263
777.733	0.448406
781.108	0.198574
784.483	0.32126
787.858	0.589226
791.232	0.955835
794.607	1.33473
797.982	1.19737
801.357	0.932247
804.732	1.77349
808.107	1.70115
811.481	2.09119
814.856	1.75514
818.231	2.532
821.606	2.68901
824.981	2.62977
828.356	3.44043
831.73	3.62802
835.105	3.24932
838.48	3.75604
841.855	4.26097
845.23	4.8375
848.604	4.84011
851.979	4.39234
855.354	4.57451
858.729	3.14264
862.104	4.0763
865.479	3.65671
868.853	3.47006
872.228	3.10341
875.603	2.25452
878.978	2.54206
882.352	1.70056
885.727	2.0539
889.102	1.57044
892.477	1.52211
895.852	1.38466
899.227	1.29254
902.601	0.526925
905.976	0.609861
909.351	0.734719
912.726	0.401237
916.101	0.48115
919.476	0.324127
922.85	0.412428
926.225	0.403606
929.6	0.180882
932.975	0.20527
936.35	0.258202
939.724	0.011925
943.099	0.020273
946.474	0.588467
949.849	0.956942
953.224	0.021404
956.598	0.47903
959.973	0.876001
963.348	0.362246
966.723	0.626815
970.098	0.762719
973.472	0.451589
976.847	0.154406
980.222	0.845737
983.597	0.338496
986.972	0.450888
990.347	0.414322
993.721	0.329178
997.096	0.283401
1000.47	0.591452
1003.85	0.417714
1007.22	0.624773
1010.6	0.007905
1013.97	0.150166
1017.35	0.466633
1020.72	0.869113
1024.1	0.474837
1027.47	0.585032
1030.84	0.729442
1034.22	0.806038
1037.59	0.008991
1040.97	0.574056
1044.34	0.841849
1047.72	0.465127
1051.09	0.695251
1054.47	0.519943
1057.84	0.637554
1061.22	0.711753
1064.59	0.503429
1067.97	0.14252
1071.34	0.252427
1074.72	0.419684
1078.09	0.859948
1081.47	0.803158
1084.84	0.236976
1088.22	0.279588
1091.59	0.210603
1094.97	0.361984
1098.34	0.698698
1101.71	0.272959
1105.09	0.109932
1108.46	0.215891
1111.84	0.324694
1115.21	0.395634
1118.59	0.452391
1121.96	0.438518
1125.34	0.230732
1128.71	0.330132
1132.09	0.617797
1135.46	0.492417
1138.84	0.029385
1142.21	0.613827
1145.59	0.571086
1148.96	0.268456
1152.34	0.24277
1155.71	0.368478
1159.09	0.248883
1162.46	0.539369
1165.84	0.716852
1169.21	0.553206
1172.59	0.417369
1175.96	0.127803
1179.34	0.684374
1182.71	0.210716
1186.09	0.58404
1189.46	0.415884
1192.84	0.139917
1196.21	0.357598
1199.59	0.336953
1202.96	0.090854
1206.34	0.555927
1209.71	0.284935
1213.08	0.447025
1216.46	0.325213
1219.83	0.288362
1223.21	0.653856
1226.58	0.670946
1229.96	0.582131
1233.33	0.344914
1236.71	0.194768
1240.08	0.588158
1243.46	0.717767
1246.83	0.317773
1250.21	0.52004
1253.58	0.527856
1256.96	0.226993
1260.33	0.442005
1263.71	0.795109
1267.08	0.119198
1270.46	0.894694
1273.83	0.417221
1277.21	0.252042
1280.58	0.198161
1283.95	0
