Measurement: Raman, 532 nm, unoriented, Raman Data Processed
Mineral: Clinohumite
Rruff sample: R040122
Ideal chemistry: Mg_9_(SiO_4_)_4_F_2_
Locality: Anzahamazonono,  Madagascar
Source: University of Arizona Mineral Museum
Description: Orange-brown blebs embedded in calcite matrix
Measured chemistry: (Mg_0.96_Fe_0.02_Ti_0.01_Ca_0.01_)_9_(SiO_4_)_4_(F_0.59_(OH)_0.41_)_2_
Raman shift (cm-1)	intensity
160.268	0
163.161	1.83936
166.054	21.5476
168.946	43.3943
171.839	57.5017
174.732	56.4473
177.625	116.604
180.517	134.108
183.41	197.273
186.303	189.644
189.195	145.906
192.088	114.327
194.981	143.283
197.874	153.36
200.766	125.657
203.659	127.042
206.552	120.344
209.444	97.4558
212.337	70.2175
215.23	11.1096
218.122	76.0376
221.015	96.5835
223.908	50.6675
226.8	113.528
229.693	79.5139
232.586	70.5562
235.479	41.1682
238.371	38.8181
241.264	115.767
244.157	31.2192
247.049	66.0239
249.942	71.1526
252.835	41.6882
255.727	50.8506
258.62	67.7808
261.513	47.0918
264.406	38.2385
267.298	6.19531
270.191	15.3023
273.084	96.8994
275.976	16.0671
278.869	26.6504
281.762	21.5566
284.654	59.9131
287.547	30.1572
290.44	5.36035
293.333	16.2688
296.225	5.06714
299.118	38.8735
302.011	38.7737
304.903	93.8572
307.796	200.328
310.689	131.777
313.582	158.674
316.474	250.55
319.367	365.452
322.26	239.344
325.152	172.447
328.045	98.8486
330.938	115.56
333.83	56.0691
336.723	67.1594
339.616	23.9216
342.509	35.7783
345.401	91.2207
348.294	59.8809
351.187	138.815
354.079	70.1245
356.972	75.4121
359.865	19.1819
362.757	16.6265
365.65	36.5264
368.543	75.2581
371.436	58.9407
374.328	82.1218
377.221	50.5803
380.114	66.7913
383.006	78.6148
385.899	30.9397
388.792	82.2053
391.685	72.2615
394.577	33.4424
397.47	33.1238
400.363	4.48022
403.255	75.1531
406.148	23.2358
409.041	43.5251
411.933	75.2922
414.826	123.346
417.719	102.709
420.611	165.109
423.504	222.286
426.397	318.913
429.29	427.173
432.182	421.129
435.075	376.944
437.968	346.41
440.86	392.416
443.753	282.739
446.646	208.964
449.538	113.811
452.431	11.7466
455.324	35.2105
458.217	5.22021
461.109	40.731
464.002	16.2588
466.895	3.98779
469.787	14.6025
472.68	57.7734
475.573	5.84912
478.466	9.74658
481.358	44.248
484.251	65.8057
487.144	15.4551
490.036	57.2202
492.929	72.957
495.822	60.3882
498.714	59.0068
501.607	46.939
504.5	78.6006
507.392	34.3799
510.285	11.79
513.178	20.9273
516.071	4.67725
518.963	8.20898
521.856	23.6064
524.749	54.9072
527.641	128.372
530.534	174.648
533.427	192.208
536.32	287.505
539.212	265.056
542.105	324.669
544.998	306.973
547.89	292.809
550.783	226.475
553.676	95.0845
556.568	39.4624
559.461	71.7314
562.354	51.5815
565.247	85.4946
568.139	85.8154
571.032	97.6479
573.925	99.7271
576.817	233.05
579.71	280.221
582.603	378.073
585.495	335.76
588.388	374.32
591.281	338.361
594.174	358.721
597.066	461.535
599.959	700.274
602.852	974.227
605.744	1089.87
608.637	1050.98
611.53	820.777
614.423	489.466
617.315	259.433
620.208	164.809
623.101	104.91
625.993	120.403
628.886	99.7505
631.779	95.9297
634.671	70.9341
637.564	48.8716
640.457	45.7935
643.35	60.8101
646.242	50.2393
649.135	89.5049
652.028	97.9756
654.92	86.2353
657.813	108.674
660.706	93.416
663.598	94.7944
666.491	51.9917
669.384	41.9941
672.277	59.5591
675.169	107.687
678.062	60.4321
680.955	26.3208
683.847	66.9023
686.74	7.62646
689.633	62.9277
692.525	3.37012
695.418	44.7876
698.311	22.2935
701.204	24.6157
704.096	51.1592
706.989	6.6167
709.882	65.6831
712.774	11.4697
715.667	43.9697
718.56	16.123
721.452	5.70019
724.345	36.2036
727.238	151.547
730.131	257.194
733.023	442.4
735.916	598.853
738.809	810.626
741.701	967.956
744.594	1130.88
747.487	1170.82
750.38	1180.91
753.272	1065.23
756.165	1012.4
759.058	640.368
761.95	346.536
764.843	137.199
767.736	10.3252
770.628	47.5552
773.521	255.602
776.414	526.859
779.307	760.115
782.199	1040.68
785.092	1030.25
787.985	767.793
790.877	397.473
793.77	266.228
796.663	202.238
799.555	230.736
802.448	445.144
805.341	778.54
808.234	921.116
811.126	889.358
814.019	1023.73
816.912	1429.15
819.804	2180.63
822.697	3373.03
825.59	4991.54
828.482	6595.64
831.375	6017.2
834.268	4545.73
837.16	4172.22
840.053	4608.74
842.946	5265.8
845.839	5236.65
848.731	4454.87
851.624	4010.81
854.517	4275.45
857.409	5222.61
860.302	5354.37
863.195	3975.01
866.087	2460.94
868.98	1560.43
871.873	1127.55
874.766	841.436
877.658	592.958
880.551	334.396
883.444	125.822
886.336	36.8852
889.229	44.5938
892.122	90.4014
895.014	60.5703
897.907	33.9678
900.8	66.4536
903.693	156.523
906.585	285.903
909.478	434.316
912.371	440.495
915.263	340.936
918.156	193.315
921.049	224.922
923.942	251.216
926.834	328.45
929.727	446.393
932.62	331.368
935.512	166.586
938.405	36.6299
941.298	2
944.19	4.98682
947.083	11.4898
949.976	79.5127
952.869	160.333
955.761	204.295
958.654	475.796
961.547	812.414
964.439	1151.06
967.332	1284.84
970.225	920.844
973.117	554.797
976.01	458.07
978.903	296.519
981.795	243.85
984.688	120.953
987.581	123.276
990.474	72.4888
993.366	91.7803
996.259	85.7373
999.152	124.893
1002.04	69.9048
1004.94	46.6831
1007.83	82.2612
1010.72	59.208
1013.62	13.481
1016.51	34.8438
1019.4	23.835
1022.29	75.2329
1025.19	76.8144
1028.08	13.165
1030.97	20.8867
1033.86	36.5532
1036.76	74.6196
1039.65	38.6826
1042.54	19.2529
1045.43	72.6484
1048.33	42.6558
1051.22	5.89307
1054.11	20.71
1057.01	26.8433
1059.9	41.228
1062.79	17.3418
1065.68	27.4605
1068.58	1.10352
1071.47	24.2373
1074.36	8.86572
1077.26	50.9556
1080.15	4.34033
1083.04	65.4526
1085.93	14.8223
1088.83	23.9038
1091.72	44.956
1094.61	63.0098
1097.5	91.3452
1100.4	67.3633
1103.29	53.0991
1106.18	75.0801
1109.07	17.165
1111.97	34.9849
1114.86	61.1001
1117.75	123.319
1120.64	66.4883
1123.54	79.4136
1126.43	78.8638
1129.32	40.3174
1132.22	98.4575
1135.11	65.4927
1138	60.1372
1140.89	115.696
1143.79	84.9604
1146.68	10.8896
1149.57	17.0767
1152.46	45.2437
1155.36	49.9785
1158.25	60.2871
1161.14	117.665
1164.04	40.7759
1166.93	27.3149
1169.82	64.1812
1172.71	24.748
1175.61	27.0718
1178.5	43.8457
1181.39	37.3603
1184.29	10.1846
1187.18	105.493
1190.07	33.6602
1192.96	66.5723
1195.86	57.248
1198.75	64.1523
1201.64	87.3823
1204.53	44.4741
1207.43	43.7974
1210.32	69.5674
1213.21	52.3779
1216.1	113.883
1219	77.21
1221.89	50.627
1224.78	65.8301
1227.67	113.942
1230.57	58.9922
1233.46	67.9424
1236.35	64.1094
1239.25	16.0801
1242.14	86.2188
1245.03	79.1562
1247.92	103.352
1250.82	117.586
1253.71	99.8496
1256.6	68.3643
1259.49	85.3076
1262.39	107.167
1265.28	88.1924
1268.17	47.6065
1271.07	136.43
1273.96	81.6787
1276.85	36.459
1279.74	51.8291
1282.64	46.6602
1285.53	83.999
1288.42	47.4844
1291.32	3.18262
1294.21	101.295
1297.1	72.0576
1299.99	41.9824
