Measurement: Raman, 785 nm, unoriented, Raman Data Processed
Mineral: Cobaltite
Rruff sample: R060907
Ideal chemistry: Co^3+^(AsS)^3-^
Locality: Espanola, Ontario, Canada
Source: Royal Ontario Museum
Description: Group of sharp metallic cubes with a thin surface alteration, broken crystals have fresher surfaces.
Measured chemistry: (Co_0.55_Fe_0.24_Ni_0.21_)_Î£=1_As_0.94_S_1.06_
Raman shift (cm-1)	intensity
152.383	0
155.276	71.0478
158.168	6.05273
161.061	54.7227
163.954	218.442
166.846	414.996
169.739	524.288
172.632	393.522
175.524	297.268
178.417	213.911
181.31	287.807
184.203	305.362
187.095	385.663
189.988	489.581
192.881	539.945
195.773	639.019
198.666	755.875
201.559	832.781
204.452	953.177
207.344	988.96
210.237	1074.02
213.13	1182.33
216.022	1241.04
218.915	1369.36
221.808	1540.91
224.7	1614.17
227.593	1777.02
230.486	1974.76
233.379	2181.84
236.271	2340.41
239.164	2513.9
242.057	2475.51
244.949	2394.73
247.842	2197.37
250.735	2006.82
253.627	1855.99
256.52	1799.54
259.413	1709.6
262.305	1640.52
265.198	1503.11
268.091	1418.58
270.984	1180.01
273.876	940.926
276.769	848.286
279.662	702.998
282.554	640.889
285.447	584.213
288.34	417.78
291.233	310.514
294.125	241.236
297.018	125.667
299.911	86.7712
302.803	39.3362
305.696	26.9133
308.589	1.94531
311.481	48.4209
314.374	72.6191
317.267	14.9763
320.159	39.4111
323.052	37.6738
325.945	135.605
328.838	241.166
331.73	278.515
334.623	288.39
337.516	268.882
340.408	299.38
343.301	311.406
346.194	318.586
349.087	397.81
351.979	466.276
354.872	382.874
357.765	351.788
360.657	302.822
363.55	157.067
366.443	105.479
369.335	99.8274
372.228	69.9204
375.121	50.345
378.014	79.3413
380.906	74.9016
383.799	67.0039
386.692	109.226
389.584	89.4893
392.477	103.406
395.37	116.099
398.262	21.7568
401.155	59.2776
404.048	35.3154
406.94	4.30298
409.833	4.1814
412.726	8.22729
415.619	25.6714
418.511	65.9712
421.404	69.0698
424.297	68.717
427.189	69.7913
430.082	29.1304
432.975	23.3008
435.868	30.6797
438.76	3.7041
441.653	42.1101
444.546	18.1985
447.438	33.5994
450.331	29.8325
453.224	38.9072
456.116	75.6472
459.009	45.4438
461.902	79.1765
464.795	61.3342
467.687	21.3286
470.58	21.7554
473.473	2.34888
476.365	44.9319
479.258	13.7554
482.151	71.3176
485.043	16.438
487.936	41.8108
490.829	57.1743
493.722	56.0942
496.614	6.17188
499.507	50.6648
502.4	39.8628
505.292	10.4172
508.185	34.1392
511.078	45.0298
513.971	14.1926
516.863	53.8284
519.756	70.8008
522.649	22.5618
525.541	49.1167
528.434	94.4194
531.327	64.3965
534.219	38.1116
537.112	40.0835
540.005	50.2129
542.898	56.3933
545.79	39.5955
548.683	2.98633
551.576	40.623
554.468	27.5315
557.361	41.9966
560.254	54.8215
563.146	55.6699
566.039	10.0881
568.932	33.5676
571.824	14.9226
574.717	24.323
577.61	46.1313
580.503	38.4915
583.395	29.3596
586.288	11.627
589.181	52.3914
592.073	18.6209
594.966	60.6721
597.859	36.4241
600.751	10.1865
603.644	48.9309
606.537	95.4085
609.43	121.717
612.322	61.5547
615.215	52.4155
618.108	56.3669
621	110.345
623.893	52.1296
626.786	111.859
629.678	101.559
632.571	66.8101
635.464	51.7561
638.357	81.6653
641.249	47.7476
644.142	51.7974
647.035	66.5222
649.927	29.898
652.82	40.8711
655.713	14.9895
658.606	14.0212
661.498	55.376
664.391	33.875
667.284	65.9717
670.176	23.9268
673.069	39.28
675.962	30.5557
678.854	48.4285
681.747	64.4841
684.64	26.7407
687.533	11.1946
690.425	88.5442
693.318	58.5745
696.211	19.1299
699.103	33.4656
701.996	29.4062
704.889	28.0847
707.781	30.2293
710.674	40.3889
713.567	21.6948
716.46	3.52246
719.352	26.603
722.245	27.7605
725.138	32.6399
728.03	24.6028
730.923	58.7661
733.816	10.3826
736.708	38.5256
739.601	79.2778
742.494	28.8728
745.386	21.4248
748.279	64.2725
751.172	31.9253
754.065	59.3013
756.957	56.8455
759.85	47.4766
762.743	66.6728
765.635	35.1614
768.528	17.4827
771.421	41.4822
774.313	52.7214
777.206	11.3894
780.099	38.7707
782.992	40.4868
785.884	61.0388
788.777	74.6333
791.67	57.9209
794.562	60.759
797.455	52.6587
800.348	13.0842
803.24	9.28833
806.133	38.5532
809.026	73.8616
811.919	67.6301
814.811	80.0513
817.704	31.9536
820.597	38.8332
823.489	38.5818
826.382	43.3423
829.275	36.8789
832.168	64.9192
835.06	60.6091
837.953	41.8442
840.846	39.7156
843.738	35.2935
846.631	28.9038
849.524	55.3081
852.416	45.0859
855.309	42.5481
858.202	44.3589
861.095	66.7295
863.987	59.9614
866.88	66.0403
869.773	46.5315
872.665	38.4673
875.558	6.0061
878.451	67.0276
881.343	12.8396
884.236	5.53809
887.129	8.8291
890.021	9.18848
892.914	41.5574
895.807	35.4705
898.7	33.2084
901.592	35.022
904.485	36.224
907.378	21.2274
910.27	32.693
913.163	15.7632
916.056	13.785
918.948	10.7589
921.841	1.3363
924.734	43.0651
927.627	5.46509
930.519	44.0876
933.412	52.0997
936.305	22.9718
939.197	3.90466
942.09	68.3997
944.983	27.887
947.875	38.7291
950.768	52.4247
953.661	44.2026
956.554	51.0095
959.446	27.0021
962.339	81.6055
965.232	57.7194
968.125	55.1489
971.017	65.6025
973.91	34.7728
976.803	62.26
979.695	0.169678
982.588	25.4329
985.481	20.376
988.373	8.24451
991.266	1.87378
994.159	12.6366
997.052	43.3718
999.944	10.0049
1002.84	13.2102
1005.73	51.24
1008.62	56.8879
1011.51	51.9434
1014.41	45.4565
1017.3	103.266
1020.19	35.1698
1023.09	14.09
1025.98	11.7773
1028.87	31.5096
1031.76	47.1234
1034.66	19.5482
1037.55	26.7467
1040.44	95.0676
1043.34	18.5334
1046.23	21.7411
1049.12	30.3086
1052.01	21.4371
1054.9	62.8978
1057.8	56.4714
1060.69	41.2692
1063.58	25.5656
1066.48	44.7056
1069.37	25.2329
1072.26	35.7474
1075.15	27.957
1078.05	10.2684
1080.94	47.3748
1083.83	59.4387
1086.72	32.4965
1089.62	23.0381
1092.51	45.8375
1095.4	36.6036
1098.3	31.8457
1101.19	62.6927
1104.08	19.5125
1106.97	11.2184
1109.87	16.6045
1112.76	31.9934
1115.65	26.1055
1118.55	7.87317
1121.44	21.0936
1124.33	31.9943
1127.22	36.874
1130.12	24.9683
1133.01	46.4188
1135.9	55.8023
1138.79	45.6014
1141.69	29.9929
1144.58	40.8309
1147.47	14.6478
1150.37	16.5391
1153.26	44.7539
1156.15	34.2214
1159.04	75.1992
1161.93	20.0238
1164.83	57.871
1167.72	27.9115
1170.61	29.9308
1173.51	29.385
1176.4	8.45337
1179.29	43.6095
1182.18	9.32141
1185.08	10.3652
1187.97	15.2169
1190.86	60.478
1193.76	16.4785
1196.65	14.7239
1199.54	38.5478
1202.43	9.89526
1205.33	4.70337
1208.22	6.06384
1211.11	35.9517
1214	88.2104
1216.9	96.4934
1219.79	57.1071
1222.68	72.6796
1225.58	38.2551
1228.47	47.8844
1231.36	72.4116
1234.25	55.9906
1237.15	53.0629
1240.04	106.283
1242.93	99.6232
1245.82	102.726
1248.72	75.8398
1251.61	91.7476
1254.5	62.1718
1257.39	41.2439
1260.29	35.4554
1263.18	17.6144
1266.07	28.1462
1268.96	12.2749
