Measurement: Raman, 532 nm, unoriented, Raman Data Processed
Mineral: Cobaltlotharmeyerite
Rruff sample: R070400
Ideal chemistry: CaCo^2+^_2_(As^5+^O_4_)_2_2H_2_O
Locality: Roter Berg District, Schneeberg District, Erzgebirge, Saxony, Germany
Source: Michael Scott
Description: Aggregates of light brown fibers on quartz, associated with metazeunerite R110205
Raman shift (cm-1)	intensity
155.929	0
158.822	16.4551
161.715	67.2183
164.607	177.197
167.5	259.264
170.393	283.834
173.286	253.098
176.178	155.05
179.071	105.38
181.964	31.7197
184.856	18.1162
187.749	11.6514
190.642	21.6907
193.535	12.7776
196.427	44.5701
199.32	46.6892
202.213	40.9788
205.105	48.4578
207.998	59.0735
210.891	102.073
213.783	85.4426
216.676	81.0701
219.569	96.2981
222.462	121.84
225.354	169.269
228.247	133.473
231.14	240.074
234.032	219.96
236.925	240.357
239.818	204.496
242.71	252.35
245.603	250.026
248.496	274.553
251.388	248.279
254.281	214.171
257.174	261.809
260.067	231.702
262.959	216.51
265.852	172.386
268.745	200.829
271.637	157.058
274.53	136.712
277.423	76.6638
280.315	59.6675
283.208	11.813
286.101	30.8118
288.994	5.08545
291.886	15.0029
294.779	18.3093
297.672	21.5664
300.564	36.666
303.457	62.3042
306.35	88.5288
309.243	143.636
312.135	190.105
315.028	203.107
317.921	200.499
320.813	174.908
323.706	153.231
326.599	160.441
329.491	174.485
332.384	181.503
335.277	250.905
338.17	249.221
341.062	295.525
343.955	357.684
346.848	452.681
349.74	442.829
352.633	533.857
355.526	548.066
358.418	490.661
361.311	450.714
364.204	405.339
367.097	303.171
369.989	304.692
372.882	309.016
375.775	272.321
378.667	239.388
381.56	221.429
384.453	232.733
387.346	147.269
390.238	115.132
393.131	23.7905
396.024	8.08691
398.916	29.5405
401.809	45.0366
404.702	10.1782
407.594	7.45068
410.487	11.9951
413.38	51.8633
416.272	34.0928
419.165	28.168
422.058	27.2681
424.951	13.3667
427.843	25.1811
430.736	19.5698
433.629	1.146
436.521	16.9946
439.414	72.4795
442.307	102.193
445.2	140.753
448.092	226.447
450.985	346.132
453.878	420.707
456.77	555.014
459.663	732.23
462.556	755.975
465.448	732.756
468.341	723.56
471.234	637.585
474.127	663.584
477.019	744.924
479.912	844.336
482.805	829.942
485.697	937.717
488.59	1031.34
491.483	1148.06
494.375	1286.5
497.268	1344.36
500.161	1467.01
503.053	1459.03
505.946	1487.89
508.839	1432.39
511.732	1291.98
514.624	1131.31
517.517	939.484
520.41	752.385
523.302	646.06
526.195	603.424
529.088	494.685
531.981	485.288
534.873	492.207
537.766	464.088
540.659	432.915
543.551	379.892
546.444	365.16
549.337	337.886
552.229	307.333
555.122	213.683
558.015	186.987
560.908	95.21
563.8	87.7353
566.693	33.5239
569.586	15.145
572.478	63.3745
575.371	28.8218
578.264	18.3994
581.156	22.582
584.049	2.27685
586.942	59.4629
589.835	45.7217
592.727	0.054199
595.62	63.0225
598.513	42.7398
601.405	25.644
604.298	41.4712
607.191	62.6865
610.083	107.378
612.976	63.0068
615.869	103.931
618.762	96.3188
621.654	108.306
624.547	88.564
627.44	118.923
630.332	166.739
633.225	151.805
636.118	190.67
639.01	187.297
641.903	132.179
644.796	157.812
647.689	224.485
650.581	158.093
653.474	222.593
656.367	169.986
659.259	221.795
662.152	192.769
665.045	209.197
667.938	151.139
670.83	141.535
673.723	151.983
676.616	142.646
679.508	178.851
682.401	116.413
685.294	61.3945
688.186	68.1719
691.079	76.8047
693.972	62.9492
696.865	14.5117
699.757	26.6362
702.65	31.6821
705.543	12.1357
708.435	16.1777
711.328	7.16357
714.221	17.4985
717.113	25.6445
720.006	1.13428
722.899	51.9414
725.792	2.51514
728.684	66.6709
731.577	1.20312
734.47	54.7002
737.362	189.135
740.255	208.919
743.148	235.897
746.04	235.73
748.933	287.044
751.826	325.004
754.719	297.28
757.611	229.284
760.504	240.736
763.397	126.373
766.289	8.53516
769.182	24.0244
772.075	6.26172
774.967	37.4858
777.86	22.0356
780.753	74.6709
783.646	116.014
786.538	256.982
789.431	355.467
792.324	495.727
795.216	565.596
798.109	787.78
801.002	1015.11
803.894	1199.38
806.787	1339.19
809.68	1583.58
812.573	1739.96
815.465	2065.47
818.358	2223.38
821.251	2394.11
824.143	2501.06
827.036	2451.4
829.929	2401.13
832.822	2155.53
835.714	1980.11
838.607	1755.06
841.5	1514
844.392	1216.94
847.285	999.443
850.178	959.256
853.07	769.043
855.963	739.527
858.856	725.444
861.749	781.949
864.641	892.892
867.534	1093.55
870.427	1184.91
873.319	1428.95
876.212	1434.36
879.105	1406.78
881.997	1152.63
884.89	932.293
887.783	736.829
890.676	517.094
893.568	365.817
896.461	243.997
899.354	206.093
902.246	91.3223
905.139	77.1558
908.032	66.3911
910.924	77.6894
913.817	9.7207
916.71	108.29
919.602	1.95898
922.495	5.53271
925.388	14.2646
928.281	62.7251
931.173	9.2959
934.066	44.0342
936.959	16.8916
939.851	6.65527
942.744	26.3852
945.637	55.3774
948.529	46.208
951.422	56.3916
954.315	74.9629
957.208	47.8018
960.1	107.53
962.993	114.986
965.886	142.473
968.778	163.189
971.671	184.658
974.564	178.207
977.457	149.885
980.349	173.963
983.242	184.082
986.135	131.269
989.027	183.215
991.92	203.824
994.813	196.247
997.705	146.803
1000.6	193.224
1003.49	112.378
1006.38	120.659
1009.28	162.351
1012.17	133.211
1015.06	121.171
1017.95	163.558
1020.85	144.625
1023.74	119.682
1026.63	95.3452
1029.53	106.575
1032.42	124.788
1035.31	67.8218
1038.2	90.4834
1041.1	100.268
1043.99	78.2578
1046.88	13.1538
1049.77	85.749
1052.67	38.4966
1055.56	48.2568
1058.45	83.8394
1061.35	83.2534
1064.24	31.373
1067.13	23.4727
1070.02	24.9624
1072.92	11.0205
1075.81	14.6616
1078.7	24.1685
1081.59	30.9346
1084.49	51.7461
1087.38	25.5366
1090.27	19.1704
1093.16	39.0552
1096.06	38.7715
1098.95	12.7744
1101.84	45.3145
1104.73	40.2715
1107.63	16.1514
1110.52	64.0967
1113.41	36.2222
1116.31	16.7778
1119.2	66.4287
1122.09	19.292
1124.98	1.24365
1127.88	26.5244
1130.77	35.3765
1133.66	63.3447
1136.56	65.3159
1139.45	13.5679
1142.34	22.0195
1145.23	108.07
1148.13	62.1367
1151.02	42.2349
1153.91	96.9668
1156.8	89.1689
1159.7	134.019
1162.59	80.4736
1165.48	103.222
1168.38	60.3037
1171.27	82.936
1174.16	64.2295
1177.05	26.2295
1179.95	61.6352
1182.84	11.855
1185.73	45.6914
1188.62	56.0913
1191.52	7.79102
1194.41	13.2685
1197.3	34.7466
1200.19	59.1089
1203.09	35.3867
1205.98	37.3462
1208.87	31.1104
1211.77	74.1274
1214.66	42.2744
1217.55	31.1924
1220.44	28.4766
1223.34	20.9273
1226.23	24.2095
1229.12	102.24
1232.01	35.4145
1234.91	62.7524
1237.8	66.5083
1240.69	80.6333
1243.59	54.9585
1246.48	43.2544
1249.37	45.3335
1252.26	38.1523
1255.16	30.1426
1258.05	60.6675
1260.94	159.156
1263.83	108.894
1266.73	85.2383
1269.62	9.71289
1272.51	69.6934
1275.4	46.0718
1278.3	93.3535
1281.19	31.0977
1284.08	59.1865
1286.98	29.6714
1289.87	62.0967
1292.76	33.0942
1295.65	5.22949
1298.55	10.1812
1301.44	25.2188
