Measurement: Raman, 532 nm, unoriented, Raman Data Processed
Mineral: Cobaltite
Rruff sample: R060907
Ideal chemistry: Co^3+^(AsS)^3-^
Locality: Espanola, Ontario, Canada
Source: Royal Ontario Museum
Description: Group of sharp metallic cubes with a thin surface alteration, broken crystals have fresher surfaces.
Measured chemistry: (Co_0.55_Fe_0.24_Ni_0.21_)_Î£=1_As_0.94_S_1.06_
Raman shift (cm-1)	intensity
138.879	0
142.254	2.81482
145.629	29.1885
149.004	58.5497
152.379	5.9563
155.753	45.2448
159.128	10.2601
162.503	83.8728
165.878	70.3949
169.252	49.9412
172.627	47.6406
176.002	23.5713
179.377	0.290405
182.752	8.72522
186.127	79.642
189.501	83.7305
192.876	103.41
196.251	103.292
199.626	126.678
203.001	156.048
206.375	151.415
209.75	185.13
213.125	206.476
216.5	230.049
219.875	209.923
223.25	190.985
226.624	217.386
229.999	256.834
233.374	270.556
236.749	308.33
240.124	321.241
243.498	322.887
246.873	314.124
250.248	252.354
253.623	215.186
256.998	202.157
260.373	174.67
263.747	180.141
267.122	169.382
270.497	107.711
273.872	94.3818
277.247	80.0084
280.621	98.0476
283.996	19.0984
287.371	22.7775
290.746	28.7684
294.121	6.37585
297.495	5.40027
300.87	39.806
304.245	6.69775
307.62	19.2959
310.995	5.24365
314.37	20.7553
317.744	16.3727
321.119	22.9027
324.494	49.6683
327.869	84.9662
331.244	105.286
334.618	89.9462
337.993	147.948
341.368	131.58
344.743	132.128
348.118	142.434
351.493	176.051
354.867	196.721
358.242	158.999
361.617	120.965
364.992	84.8713
368.366	65.6038
371.741	52.376
375.116	58.0649
378.491	37.9086
381.866	19.0712
385.241	53.0505
388.615	50.9008
391.99	68.5179
395.365	46.5308
398.74	45.1508
402.115	5.34998
405.49	21.3492
408.864	2.34631
412.239	38.9086
415.614	4.12256
418.989	21.676
422.364	9.59863
425.738	28.2156
429.113	23.9927
432.488	10.9376
435.863	29.0101
439.238	18.3379
442.612	18.1948
445.987	37.4177
449.362	23.5316
452.737	40.6399
456.112	59.3689
459.486	23.1543
462.861	38.9159
466.236	37.3226
469.611	34.2843
472.986	56.2634
476.361	9.45862
479.735	15.5416
483.11	37.5656
486.485	50.1271
489.86	75.1853
493.235	51.1567
496.61	11.9542
499.984	8.61646
503.359	61.631
506.734	0.77832
510.109	52.3269
513.484	39.0853
516.858	63.2094
520.233	41.9017
523.608	29.1442
526.983	39.6533
530.358	70.4925
533.732	27.796
537.107	44.9582
540.482	63.5221
543.857	44.8052
547.232	73.6605
550.606	13.4511
553.981	42.696
557.356	32.2122
560.731	21.231
564.106	21.2339
567.481	27.9922
570.855	8.14282
574.23	34.7063
577.605	47.6962
580.98	24.4741
584.355	3.67248
587.729	2.84021
591.104	5.56116
594.479	29.1003
597.854	31.3719
601.229	38.2434
604.604	36.3544
607.978	8.40613
611.353	6.75146
614.728	49.9221
618.103	36.0701
621.477	68.3252
624.852	90.0055
628.227	57.5247
631.602	60.5772
634.977	44.72
638.352	43.6426
641.726	65.3875
645.101	35.245
648.476	68.8231
651.851	78.3263
655.226	13.8506
658.601	33.4681
661.975	26.9874
665.35	37.2904
668.725	25.463
672.1	32.762
675.475	46.3374
678.849	15.1276
682.224	32.684
685.599	27.5429
688.974	45.5889
692.349	38.037
695.723	13.6191
699.098	19.6926
702.473	12.3794
705.848	7.69897
709.223	8.40344
712.597	50.4001
715.972	36.1897
719.347	28.9334
722.722	36.6549
726.097	16.2217
729.472	33.0248
732.846	25.2438
736.221	18.9408
739.596	22.0953
742.971	27.2329
746.346	18.7824
749.721	22.5608
753.095	5.3479
756.47	16.1415
759.845	36.1605
763.22	24.9709
766.595	21.3153
769.969	59.0557
773.344	41.1051
776.719	41.7505
780.094	41.4116
783.469	39.0077
786.843	49.0894
790.218	29.806
793.593	33.1473
796.968	44.9314
800.343	18.9839
803.717	44.4365
807.092	23.5039
810.467	64.3688
813.842	44.2711
817.217	59.962
820.592	35.5281
823.966	61.0288
827.341	47.5748
830.716	26.3978
834.091	13.3379
837.466	40.7593
840.841	29.1366
844.215	23.3921
847.59	22.4854
850.965	10.5437
854.34	11.9597
857.715	10.0092
861.089	58.618
864.464	54.5435
867.839	2.09778
871.214	40.7814
874.589	21.2123
877.963	3.90662
881.338	20.2342
884.713	36.4584
888.088	22.485
891.463	46.0891
894.837	51.9452
898.212	57.4431
901.587	31.1628
904.962	33.4244
908.337	27.475
911.712	31.8633
915.086	59.2179
918.461	46.1108
921.836	71.152
925.211	9.33301
928.586	27.6426
931.96	39.2617
935.335	42.8005
938.71	56.6807
942.085	9.79443
945.46	36.4607
948.835	38.4307
952.209	43.2407
955.584	49.769
958.959	30.7725
962.334	5.19751
965.709	2.83228
969.083	18.2925
972.458	39.0498
975.833	20.4229
979.208	5.13428
982.583	0.030762
985.957	19.5801
989.332	0.194824
992.707	22.7898
996.082	10.377
999.457	55.1553
1002.83	11.3337
1006.21	52.6609
1009.58	26.0322
1012.96	58.2549
1016.33	30.0781
1019.71	60.8501
1023.08	41.5
1026.45	67.1313
1029.83	100.647
1033.2	61.2022
1036.58	35.1636
1039.95	51.5325
1043.33	32.9868
1046.7	32.2009
1050.08	32.1895
1053.45	24.2607
1056.83	56.1494
1060.2	45.7871
1063.58	61.1375
1066.95	52.439
1070.33	0.431885
1073.7	65.2395
1077.08	78.3838
1080.45	51.457
1083.83	85.2573
1087.2	68.9216
1090.58	65.6897
1093.95	49.2942
1097.33	18.7817
1100.7	31.6023
1104.08	41.7996
1107.45	22.0017
1110.83	4.93164
1114.2	33.4995
1117.58	48.4578
1120.95	0.254395
1124.33	39.4829
1127.7	34.5129
1131.07	16.5144
1134.45	7.09814
1137.82	15.7908
1141.2	56.1528
1144.57	19.7981
1147.95	22.4839
1151.32	66.741
1154.7	76.3911
1158.07	84.6704
1161.45	60.6423
1164.82	63.7825
1168.2	66.5557
1171.57	73.8728
1174.95	54.1672
1178.32	83.084
1181.7	65.3071
1185.07	41.689
1188.45	44.7046
1191.82	87.292
1195.2	107.417
1198.57	59.9849
1201.94	50.6062
1205.32	101.444
1208.69	56.5984
1212.07	93.4951
1215.44	10.6177
1218.82	54.4878
1222.19	22.6792
1225.57	18.8403
1228.94	32.5889
1232.32	5.68091
1235.69	40.5496
1239.07	33.8125
1242.44	6.25098
1245.82	4.29883
1249.19	109.006
1252.57	19.2673
1255.94	10.0005
1259.32	65.1912
1262.69	17.352
1266.07	42.7707
1269.44	28.6511
1272.82	64.2085
1276.19	71.6021
1279.57	82.2141
1282.94	49.2751
1286.32	57.4116
1289.69	19.7075
1293.07	10.4961
