Measurement: Raman, 780 nm, unoriented, Raman Data Processed
Mineral: Cobaltite
Rruff sample: R100119
Ideal chemistry: Co^3+^(AsS)^3-^
Locality: Deerhorn mine, Cobalt, Ontario, Canada
Source: Robert Woodside
Description: Metallic silver-gray cubes
Raman shift (cm-1)	intensity
165.333	0
168.226	2.93406
171.119	3.3782
174.012	4.25223
176.904	1.44046
179.797	8.61183
182.69	4.01363
185.582	6.30677
188.475	7.45435
191.368	6.89895
194.261	9.64762
197.153	18.5675
200.046	15.8926
202.939	14.2806
205.831	12.6091
208.724	11.0704
211.617	8.46669
214.509	7.6408
217.402	2.653
220.295	4.8329
223.188	0.639526
226.08	5.06649
228.973	4.62462
231.866	5.74005
234.758	8.41874
237.651	15.3837
240.544	14.772
243.436	14.4846
246.329	14.2
249.222	10.1219
252.114	9.59004
255.007	6.37419
257.9	5.91774
260.793	2.72927
263.685	1.13915
266.578	1.20852
269.471	0.421162
272.363	0.968353
275.256	1.44461
278.149	0.439293
281.041	0.68034
283.934	2.61076
286.827	3.20163
289.719	2.86359
292.612	3.64891
295.505	3.78247
298.398	1.89271
301.29	2.45692
304.183	2.8958
307.076	3.7919
309.968	7.14131
312.861	5.55337
315.754	5.71012
318.647	6.44766
321.539	6.39957
324.432	3.97296
327.325	4.29959
330.217	5.16625
333.11	4.77321
336.003	2.80862
338.895	5.28784
341.788	4.15776
344.681	0.569435
347.574	1.31636
350.466	2.01024
353.359	1.93796
356.252	0.24453
359.144	2.79967
362.037	1.03086
364.93	1.94066
367.822	2.06089
370.715	3.0867
373.608	0.385204
376.5	2.04163
379.393	1.26813
382.286	1.38089
385.179	0.202301
388.071	2.57237
390.964	3.97394
393.857	1.78467
396.749	1.77775
399.642	3.36279
402.535	2.74841
405.427	2.02896
408.32	3.29949
411.213	1.74791
414.106	4.15773
416.998	3.19079
419.891	5.61004
422.784	1.05483
425.676	3.90122
428.569	3.72873
431.462	3.74113
434.354	3.4067
437.247	0.088064
440.14	1.99693
443.033	0.376978
445.925	2.06022
448.818	3.57211
451.711	2.9062
454.603	2.94911
457.496	1.19099
460.389	3.36851
463.281	2.29298
466.174	2.40979
469.067	3.02179
471.959	1.39032
474.852	0.170246
477.745	0.257444
480.638	0.236738
483.53	1.69373
486.423	3.00753
489.316	0.225843
492.208	1.98628
495.101	0.342798
497.994	2.04242
500.887	2.94906
503.779	5.3546
506.672	5.32953
509.565	2.34214
512.457	2.11083
515.35	3.38253
518.243	3.66714
521.135	4.45593
524.028	4.50859
526.921	0.227247
529.813	4.63406
532.706	2.34964
535.599	1.77712
538.492	1.61329
541.384	4.84431
544.277	1.49594
547.17	2.44396
550.062	2.61837
552.955	0.013197
555.848	2.81358
558.74	2.14722
561.633	2.15894
564.526	2.51672
567.418	2.07589
570.311	1.68086
573.204	3.09386
576.097	2.99845
578.989	3.41132
581.882	3.61554
584.775	1.15391
587.667	2.60511
590.56	3.04657
593.453	2.5472
596.346	1.52641
599.238	2.67102
602.131	3.98704
605.024	1.10386
607.916	0.490086
610.809	3.1612
613.702	1.50137
616.594	1.49147
619.487	3.6216
622.38	0.957808
625.273	2.75675
628.165	1.07617
631.058	0.26355
633.951	3.72831
636.843	0.842163
639.736	1.24081
642.629	4.1391
645.521	2.29141
648.414	0.89691
651.307	1.4588
654.199	0.127455
657.092	3.84733
659.985	5.10029
662.878	1.9134
665.77	3.3189
668.663	2.67291
671.556	2.58457
674.448	5.85619
677.341	2.12797
680.234	2.4447
683.126	4.16868
686.019	0.179708
688.912	1.44789
691.805	2.49418
694.697	2.92223
697.59	0.073418
700.483	0.257406
703.375	0.335911
706.268	0.972666
709.161	0.003822
712.053	0.968336
714.946	1.15748
717.839	1.79238
720.731	2.66334
723.624	2.97146
726.517	0.320971
729.41	2.03231
732.302	1.51108
735.195	1.78969
738.088	1.23069
740.98	2.5851
743.873	1.57611
746.766	1.61693
749.659	1.8245
752.551	1.8025
755.444	2.91056
758.337	2.72123
761.229	0.724777
764.122	0.381039
767.015	2.25322
769.907	1.4714
772.8	0.990206
775.693	2.4948
778.586	2.95918
781.478	4.20468
784.371	0.889217
787.264	0.187143
790.156	3.03763
793.049	0.861311
795.942	1.24006
798.834	2.23803
801.727	2.08618
804.62	0.334312
807.513	5.66515
810.405	1.89182
813.298	4.77456
816.191	1.97938
819.083	4.20632
821.976	4.23654
824.869	3.94412
827.761	4.40043
830.654	1.68147
833.547	4.72425
836.439	5.08347
839.332	6.47304
842.225	5.43045
845.118	5.15501
848.01	4.03034
850.903	6.81948
853.796	7.00059
856.688	4.75359
859.581	5.90009
862.474	5.00989
865.366	6.50476
868.259	7.78367
871.152	6.86659
874.044	5.19349
876.937	4.26902
879.83	2.86244
882.723	4.68487
885.615	4.53857
888.508	4.95853
891.401	3.28304
894.293	1.03311
897.186	4.49464
900.079	2.76084
902.971	4.13394
905.864	1.92427
908.757	2.45509
911.65	3.87444
914.542	2.56086
917.435	1.35729
920.328	3.83204
923.22	2.90374
926.113	1.88605
929.006	1.70995
931.899	2.95679
934.791	0.659704
937.684	2.56826
940.577	0.977377
943.469	3.76462
946.362	1.73009
949.255	3.4977
952.147	1.94921
955.04	3.40272
957.933	0.938536
960.825	4.12252
963.718	1.90229
966.611	4.37971
969.504	2.27911
972.396	2.64136
975.289	0.735146
978.182	2.20603
981.074	0.440472
983.967	0.011164
986.86	2.17355
989.752	1.11643
992.645	0.755453
995.538	1.6557
998.431	1.37593
1001.32	2.02607
1004.22	1.93542
1007.11	2.85366
1010	0.108723
1012.89	4.93457
1015.79	1.05992
1018.68	3.54989
1021.57	4.88925
1024.46	0.781816
1027.36	1.26084
1030.25	4.4778
1033.14	0.534889
1036.04	2.27362
1038.93	4.81112
1041.82	2.88156
1044.71	2.45545
1047.61	1.71814
1050.5	2.77159
1053.39	2.02453
1056.29	3.90462
1059.18	1.55464
1062.07	5.05134
1064.96	2.87707
1067.86	2.84892
1070.75	3.62404
1073.64	0.878077
1076.53	3.17265
1079.43	3.3359
1082.32	0.759859
1085.21	4.13107
1088.1	0.148689
1091	2.97481
1093.89	2.24716
1096.78	0.159403
1099.67	2.78978
1102.57	3.02877
1105.46	2.47193
1108.35	1.87726
1111.25	0.573687
1114.14	2.3271
1117.03	2.81478
1119.92	1.89668
1122.82	2.9279
1125.71	2.73815
1128.6	1.65424
1131.49	3.67218
1134.39	2.51308
1137.28	0.671089
1140.17	3.04794
1143.07	4.80995
1145.96	2.65069
1148.85	2.33487
1151.74	3.4204
1154.64	1.79505
1157.53	3.21312
1160.42	4.00605
1163.31	2.96414
1166.21	3.94054
1169.1	6.44979
1171.99	2.9185
1174.88	3.51419
1177.78	3.30533
1180.67	4.02
1183.56	2.68817
1186.46	3.25421
1189.35	5.09913
1192.24	5.40939
1195.13	3.79427
1198.03	3.52127
1200.92	2.91152
1203.81	3.21201
1206.7	1.47569
1209.6	3.73996
1212.49	3.45192
1215.38	2.26333
1218.28	2.56062
1221.17	2.52006
1224.06	2.85935
1226.95	3.80179
1229.85	1.68066
1232.74	0.515325
1235.63	3.3478
1238.53	2.21282
1241.42	2.36228
1244.31	3.97982
1247.2	3.64134
1250.1	3.66162
1252.99	1.11798
1255.88	1.5635
1258.77	3.33238
1261.67	2.27144
1264.56	0.795401
1267.45	2.83688
1270.34	2.43193
1273.24	0.388344
1276.13	1.52242
1279.02	4.02729
1281.91	1.35764
1284.81	0
