Measurement: Raman, 532 nm, unoriented, Raman Data Processed
Mineral: Cobaltite
Rruff sample: R070372
Ideal chemistry: Co^3+^(AsS)^3-^
Locality: Hakansboda, Vastmanland, Sweden
Source: Royal Ontario Museum
Description: Light grey metallic pyritohedron
Raman shift (cm-1)	intensity
163.161	0
166.054	8.45142
168.946	29.0381
171.839	90.6003
174.732	42.2002
177.625	68.9377
180.517	34.6177
183.41	59.3484
186.303	38.3164
189.195	66.6702
192.088	50.644
194.981	34.5855
197.874	36.3665
200.766	47.3633
203.659	66.2158
206.552	57.7947
209.444	62.6709
212.337	31.4441
215.23	86.2978
218.122	48.834
221.015	91.4602
223.908	110.362
226.8	115.152
229.693	71.2251
232.586	141.958
235.479	182.029
238.371	264.572
241.264	313.444
244.157	271.272
247.049	307.301
249.942	263.507
252.835	218.487
255.727	218.302
258.62	194.779
261.513	127.974
264.406	129.148
267.298	149.847
270.191	104.353
273.084	169.719
275.976	135.512
278.869	186.606
281.762	167.633
284.655	186.07
287.547	103.708
290.44	118.483
293.333	72.5117
296.225	67.0923
299.118	48.2427
302.011	13.6382
304.904	30.0596
307.796	21.1895
310.689	3.68213
313.582	5.06836
316.474	19.4297
319.367	39.7593
322.26	20.106
325.152	36.2817
328.045	71.9307
330.938	74.7261
333.83	138.042
336.723	128.367
339.616	178.859
342.509	160.847
345.401	203.984
348.294	188.127
351.187	247.841
354.079	270.817
356.972	203.391
359.865	223.989
362.757	225.804
365.65	192.315
368.543	206.746
371.436	184.99
374.328	137.108
377.221	86.4414
380.114	107.781
383.006	73.2417
385.899	40.7075
388.792	56.2441
391.685	125.496
394.577	87.4546
397.47	51.5269
400.363	61.6821
403.255	17.9941
406.148	35.1025
409.041	27.4341
411.933	12.9273
414.826	30.7583
417.719	8.78809
420.611	62.2647
423.504	65.4648
426.397	54.5615
429.29	11.6792
432.182	21.0874
435.075	31.6621
437.968	44.3799
440.86	50.3784
443.753	25.5435
446.646	44.3535
449.538	70.9795
452.431	38.3892
455.324	73.5952
458.217	54.189
461.109	36.3662
464.002	14.4194
466.895	82.3628
469.787	50.4268
472.68	0.966797
475.573	6.24512
478.466	77.1773
481.358	46.4458
484.251	74.8843
487.144	100.76
490.036	47.3003
492.929	8.56104
495.822	33.0474
498.714	16.5557
501.607	26.5713
504.5	19.3301
507.393	16.0464
510.285	117.751
513.178	71.519
516.071	52.9609
518.963	38.3447
521.856	95.6807
524.749	164.936
527.641	62.1797
530.534	63.0024
533.427	81.1626
536.32	15.6406
539.212	38.5649
542.105	18.9712
544.998	58.1211
547.89	50.7549
550.783	26.4893
553.676	60.5981
556.568	31.2529
559.461	54.625
562.354	13.2632
565.247	16.1719
568.139	38.1118
571.032	45.3037
573.925	78.1162
576.817	19.1621
579.71	100.648
582.603	47.832
585.495	80.4805
588.388	67.3589
591.281	39.1636
594.174	25.7236
597.066	51.4766
599.959	54.3071
602.852	55.0708
605.744	78.5137
608.637	5.44043
611.53	83.8555
614.423	81.6748
617.315	41.7554
620.208	35.8633
623.101	66.6719
625.993	56.7695
628.886	87.1636
631.779	114.831
634.671	77.9253
637.564	84.1069
640.457	36.667
643.35	55.5488
646.242	68.0708
649.135	33.0864
652.028	88.7031
654.92	56.292
657.813	35.5063
660.706	68.9228
663.598	29.0903
666.491	35.5049
669.384	56.1792
672.277	75.9819
675.169	108.831
678.062	22.8335
680.955	6.09473
683.847	67.1079
686.74	33.8852
689.633	35.2466
692.525	22.6777
695.418	3.21533
698.311	54.1597
701.204	45.4277
704.096	71.6187
706.989	33.5977
709.882	9.04688
712.774	46.1216
715.667	55.6992
718.56	67.5503
721.452	47.3315
724.345	0.168945
727.238	24.1611
730.131	44.0752
733.023	28.1523
735.916	42.6553
738.809	56.2559
741.701	66.5566
744.594	17.2564
747.487	72.5317
750.38	47.2422
753.272	66.0972
756.165	50.2656
759.058	67.7378
761.95	40.3047
764.843	43.0181
767.736	19.77
770.628	39.6352
773.521	65.4756
776.414	63.1372
779.307	33.0518
782.199	0.687988
785.092	46.4375
787.985	60.7319
790.877	80.917
793.77	56.3335
796.663	107.53
799.555	36.854
802.448	5.00195
805.341	88.9619
808.234	15.3696
811.126	49.7803
814.019	19.71
816.912	38.1367
819.804	56.0049
822.697	56.314
825.59	0.659668
828.482	63.1382
831.375	14.7178
834.268	15.8818
837.16	83.0352
840.053	48.3315
842.946	29.6655
845.839	30.6104
848.731	105.008
851.624	49.0444
854.517	34.5185
857.409	47.5063
860.302	15.8374
863.195	27.5503
866.087	31.23
868.98	39.8818
871.873	26.4009
874.766	79.1841
877.658	39.0303
880.551	11.3569
883.444	106.535
886.337	61.0117
889.229	49.1309
892.122	79.4492
895.015	40.9263
897.907	41.2798
900.8	41.7852
903.693	19.9375
906.585	40.394
909.478	21.3189
912.371	12.4824
915.264	21.104
918.156	37.3193
921.049	30.523
923.942	40.3223
926.834	11.0537
929.727	49.6846
932.62	105.4
935.512	43.8457
938.405	36.8447
941.298	56.8765
944.191	30.8281
947.083	13.8052
949.976	21.853
952.869	22.9194
955.761	4.34082
958.654	50.6055
961.547	60.6323
964.439	38.1196
967.332	39.606
970.225	52.7368
973.117	39.5791
976.01	16.7202
978.903	89.562
981.796	78.9273
984.688	33.3877
987.581	27.9287
990.474	27.3672
993.366	0.882324
996.259	28.8809
999.152	42.4839
1002.04	3.97022
1004.94	99.5742
1007.83	15.1079
1010.72	77.8921
1013.62	14.5068
1016.51	106.542
1019.4	98.3706
1022.29	35.3218
1025.19	40.335
1028.08	58.9805
1030.97	12.4209
1033.86	146.851
1036.76	72.103
1039.65	99.6523
1042.54	67.2954
1045.43	97.4092
1048.33	64.4175
1051.22	69.582
1054.11	95.1973
1057.01	37.8989
1059.9	87.8755
1062.79	55.1392
1065.68	29.9043
1068.58	100.418
1071.47	102.549
1074.36	4.36133
1077.26	35.8052
1080.15	103.534
1083.04	73.7734
1085.93	53.0762
1088.83	16.8189
1091.72	85.1157
1094.61	5.67725
1097.5	39.0015
1100.4	20.5571
1103.29	86.1084
1106.18	4.31885
1109.07	27.4429
1111.97	8.72949
1114.86	64.1284
1117.75	57.1938
1120.64	78.7495
1123.54	7.47705
1126.43	73.0898
1129.32	74.6753
1132.22	31.4087
1135.11	82.103
1138	126.712
1140.89	109.815
1143.79	24.9556
1146.68	37.3613
1149.57	118.029
1152.46	33.999
1155.36	32.2134
1158.25	26.1689
1161.14	26.2461
1164.04	5.55566
1166.93	75.8848
1169.82	60.419
1172.71	54.6733
1175.61	76.6079
1178.5	78.0234
1181.39	105.071
1184.29	36.8652
1187.18	24.1196
1190.07	37.4185
1192.96	47.9575
1195.86	7.20166
1198.75	12.4477
1201.64	19.5381
1204.53	34.8599
1207.43	4.73584
1210.32	14.7354
1213.21	20.2124
1216.1	67.0044
1219	22.8018
1221.89	45.9702
1224.78	26.8203
1227.67	10.5293
1230.57	48.373
1233.46	161.094
1236.35	18.4053
1239.25	41.0312
1242.14	104.07
1245.03	36.2627
1247.92	88.8272
1250.82	62.1475
1253.71	62.3232
1256.6	60.1152
1259.49	68.4551
1262.39	143.375
1265.28	72.5098
1268.17	23.7041
1271.07	88.792
1273.96	180.89
1276.85	69.0723
1279.74	7.47656
1282.64	70.2129
1285.53	112.46
1288.42	61.8799
1291.32	96.2471
1294.21	44.1475
1297.1	101.324
1299.99	82.4463
1302.88	144.891
1305.78	65.8633
