Measurement: Raman, 785 nm, unoriented, Raman Data Processed
Mineral: Cobaltite
Rruff sample: R070372
Ideal chemistry: Co^3+^(AsS)^3-^
Locality: Hakansboda, Vastmanland, Sweden
Source: Royal Ontario Museum
Description: Light grey metallic pyritohedron
Raman shift (cm-1)	intensity
165.856	0
168.749	51.1103
171.642	154.074
174.534	216.215
177.427	174.523
180.32	69.8013
183.212	3.72607
186.105	112.744
188.998	245.173
191.891	118.126
194.783	301.72
197.676	210.143
200.569	120.953
203.461	225.19
206.354	107.568
209.247	43.9546
212.139	67.1787
215.032	35.1802
217.925	43.4434
220.818	49.6411
223.71	67.5664
226.603	58.7783
229.496	128.457
232.388	238.463
235.281	336.55
238.174	427.727
241.066	539.966
243.959	536.207
246.852	496.977
249.745	446.957
252.637	543.454
255.53	604.033
258.423	544.944
261.315	453.656
264.208	291.009
267.101	228.713
269.993	233.422
272.886	133.025
275.779	138.089
278.672	98.3765
281.564	84.2627
284.457	128.808
287.35	99.8491
290.242	57.8784
293.135	21.4585
296.028	14.2959
298.921	41.6895
301.813	7.73242
304.706	39.4653
307.599	17.9507
310.491	64.0054
313.384	5.59668
316.277	22.6875
319.169	13.2793
322.062	77.7593
324.955	75.937
327.847	126.481
330.74	143.831
333.633	128.526
336.526	193.344
339.418	220.211
342.311	279.97
345.204	267.931
348.096	309.914
350.989	339.65
353.882	336.498
356.774	302.717
359.667	325.628
362.56	242.661
365.452	197.539
368.345	178.427
371.238	134.357
374.131	119.312
377.023	125.865
379.916	55.1416
382.809	101.806
385.701	68.9783
388.594	118.147
391.487	108.262
394.38	104.247
397.272	58.8823
400.165	73.2556
403.058	15.7629
405.95	43.533
408.843	15.2729
411.736	12.2869
414.628	0.744873
417.521	47.1487
420.414	34.5625
423.307	13.9793
426.199	41.7075
429.092	8.32544
431.985	31.9192
434.877	29.4861
437.77	38.8257
440.663	17.364
443.555	35.6902
446.448	90.2083
449.341	38.3479
452.234	63.7822
455.126	32.166
458.019	85.8521
460.912	43.4309
463.804	54.5066
466.697	36.8899
469.59	44.6189
472.483	22.6658
475.375	21.7424
478.268	40.9409
481.161	51.1968
484.053	63.4395
486.946	25.5349
489.839	35.3921
492.731	45.0618
495.624	24.9714
498.517	48.721
501.409	43.0806
504.302	21.5169
507.195	37.4175
510.088	3.30005
512.98	43.6277
515.873	16.4783
518.766	58.7053
521.658	14.2888
524.551	41.1648
527.444	50.2864
530.337	69.1397
533.229	75.8997
536.122	65.157
539.015	85.0295
541.907	32.7224
544.8	52.4941
547.693	55.8433
550.585	7.79443
553.478	28.2986
556.371	11.7368
559.263	59.7424
562.156	43.3247
565.049	79.5169
567.942	24.927
570.834	80.6179
573.727	4.19531
576.62	15.9119
579.512	68.1514
582.405	50.2073
585.298	49.7236
588.19	28.2651
591.083	37.2449
593.976	40.1262
596.869	78.9751
599.761	5.12305
602.654	64.4136
605.547	14.7935
608.439	33.6868
611.332	52.3332
614.225	16.1668
617.117	31.7517
620.01	25.478
622.903	42.5178
625.795	0.974609
628.688	9.38745
631.581	7.17017
634.474	57.4946
637.366	24.1543
640.259	36.1616
643.152	35.9753
646.044	50.3904
648.937	12.218
651.83	7.17725
654.722	38.7666
657.615	15.9604
660.508	14.0027
663.401	45.3259
666.293	5.69238
669.186	27.0659
672.079	11.4021
674.971	7.23364
677.864	47.9285
680.757	31.5115
683.649	71.6843
686.542	43.5991
689.435	30.4934
692.328	24.5041
695.22	29.8149
698.113	41.4487
701.006	64.5684
703.898	61.627
706.791	46.8245
709.684	55.8748
712.577	43.7454
715.469	54.1257
718.362	29.7617
721.255	14.5293
724.147	65.8635
727.04	63.5859
729.933	33.4661
732.825	33.8098
735.718	29.3643
738.611	35.6728
741.504	15.9582
744.396	3.15674
747.289	89.0618
750.182	45.8132
753.074	4.74927
755.967	0.992188
758.86	30.6875
761.752	42.2563
764.645	23.3069
767.538	43.407
770.431	29.2168
773.323	21.0188
776.216	12.6296
779.109	48.3186
782.001	38.7395
784.894	42.1457
787.787	58.7856
790.679	38.3547
793.572	11.9194
796.465	46.0422
799.357	79.29
802.25	22.8242
805.143	19.0803
808.036	46.5144
810.928	14.3472
813.821	0.399902
816.714	83.543
819.606	75.0986
822.499	51.6438
825.392	72.6077
828.284	61.6172
831.177	52.5247
834.07	6.84985
836.963	24.9778
839.855	5.63257
842.748	38.5117
845.641	28.0557
848.533	63.2026
851.426	40.6616
854.319	20.947
857.212	78.4109
860.104	62.812
862.997	40.02
865.89	39.47
868.782	76.029
871.675	48.9971
874.568	1.05591
877.46	33.4983
880.353	16.0217
883.246	17.6355
886.139	49.8135
889.031	45.5034
891.924	16.3242
894.817	4.94995
897.709	57.8765
900.602	15.6299
903.495	26.7686
906.388	48.8381
909.28	79.3418
912.173	0.727051
915.066	11.3279
917.958	13.9748
920.851	11.8423
923.744	6.60693
926.636	55.7515
929.529	45.0366
932.422	84.8123
935.314	16.0461
938.207	6.75366
941.1	34.0425
943.993	19.4609
946.885	3.30005
949.778	17.3218
952.671	1.02637
955.563	13.2998
958.456	41.9053
961.349	0.575439
964.241	33.541
967.134	16.0662
970.027	31.2456
972.92	34.7336
975.812	48.052
978.705	42.4836
981.598	11.23
984.49	43.8701
987.383	27.426
990.276	66.5857
993.168	8.09912
996.061	17.1567
998.954	59.2812
1001.85	37.9421
1004.74	25.0027
1007.63	38.5564
1010.52	1.12183
1013.42	35.1536
1016.31	61.7349
1019.2	83.647
1022.1	33.1682
1024.99	41.2139
1027.88	37.7612
1030.77	8.95801
1033.67	60.908
1036.56	34.9995
1039.45	41.3035
1042.34	7.49756
1045.24	35.6897
1048.13	49.7285
1051.02	55.9587
1053.91	39.721
1056.81	18.6826
1059.7	62.2761
1062.59	11.3569
1065.49	55.9558
1068.38	24.96
1071.27	24.4795
1074.16	38.0105
1077.06	62.167
1079.95	47.8435
1082.84	63.9907
1085.73	32.0095
1088.63	43.2764
1091.52	0.042725
1094.41	20.1692
1097.31	17.2849
1100.2	23.0886
1103.09	14.4712
1105.98	21.3896
1108.88	33.2705
1111.77	20.4014
1114.66	40.7185
1117.56	4.77979
1120.45	42.4329
1123.34	44.0234
1126.23	18.946
1129.12	71.3733
1132.02	62.2375
1134.91	8.88599
1137.8	35.8127
1140.7	76.6702
1143.59	15.6631
1146.48	21.198
1149.37	68.3958
1152.27	23.8852
1155.16	69.7351
1158.05	59.8582
1160.94	53.6721
1163.84	21.5759
1166.73	37.123
1169.62	43.5627
1172.52	5.48535
1175.41	10.2419
1178.3	10.2219
1181.19	38.8782
1184.09	34.7832
1186.98	49.7227
1189.87	67.2625
1192.77	22.9019
1195.66	72.3716
1198.55	45.731
1201.44	64.9868
1204.34	47.6221
1207.23	30.1882
1210.12	10.7685
1213.01	33.0107
1215.91	17.0825
1218.8	44.5703
1221.69	7.85449
