Measurement: Raman, 785 nm, unoriented, Raman Data Processed
Mineral: Cobaltlotharmeyerite
Rruff sample: R070400
Ideal chemistry: CaCo^2+^_2_(As^5+^O_4_)_2_2H_2_O
Locality: Roter Berg District, Schneeberg District, Erzgebirge, Saxony, Germany
Source: Michael Scott
Description: Aggregates of light brown fibers on quartz, associated with metazeunerite R110205
Raman shift (cm-1)	intensity
168.749	0
171.642	40.8802
174.534	28.3574
177.427	10.7594
180.32	12.1211
183.212	3.59485
186.105	33.8721
188.998	64.8455
191.891	77.8413
194.783	98.2031
197.676	127.604
200.569	183.185
203.461	159.368
206.354	146.856
209.247	143.224
212.139	130.668
215.032	145.774
217.925	106.438
220.818	89.2784
223.71	85.8013
226.603	82.8016
229.496	76.9844
232.388	117.753
235.281	88.597
238.174	88.4353
241.066	105.96
243.959	74.5779
246.852	64.3075
249.745	71.689
252.637	45.3712
255.53	78.3939
258.423	72.7983
261.315	52.6299
264.208	92.2318
267.101	61.5658
269.993	32.368
272.886	64.0666
275.779	15.311
278.672	34.2031
281.564	7.67175
284.457	21.8948
287.35	7.01184
290.242	5.76538
293.135	1.05334
296.028	7.17419
298.921	2.70471
301.813	23.8667
304.706	1.84973
307.599	29.1705
310.491	55.6233
313.384	68.8588
316.277	67.0599
319.169	65.7477
322.062	57.3217
324.955	68.5537
327.847	78.7086
330.74	42.0999
333.633	66.6377
336.526	75.7744
339.418	73.6029
342.311	113.596
345.204	108.405
348.096	165.463
350.989	203.567
353.882	232.199
356.774	232.287
359.667	180.521
362.56	169.694
365.452	158.93
368.345	131.843
371.238	120.302
374.131	115.842
377.023	107.166
379.916	101.248
382.809	111.398
385.701	82.9554
388.594	99.238
391.487	59.9445
394.38	55.9268
397.272	37.7926
400.165	39.8944
403.058	11.5547
405.95	46.7925
408.843	22.0593
411.736	3.34631
414.628	27.5554
417.521	59.3276
420.414	18.4326
423.307	0.806274
426.199	2.58972
429.092	10.1548
431.985	13.1029
434.877	8.98462
437.77	14.2278
440.663	46.0903
443.555	2.9165
446.448	53.4442
449.341	88.7355
452.234	158.328
455.126	231.058
458.019	323.475
460.912	462.064
463.804	531.974
466.697	423.836
469.59	277.793
472.483	204.903
475.375	147.561
478.268	150.339
481.161	100.937
484.053	105.592
486.946	166.822
489.839	163.05
492.731	190.214
495.624	212.778
498.517	206.922
501.409	274.131
504.302	261.116
507.195	280.347
510.088	279.932
512.98	236.115
515.873	211.809
518.766	163.229
521.658	139.71
524.551	97.7694
527.444	64.9258
530.337	92.3374
533.229	62.7617
536.122	47.3597
539.015	83.4392
541.907	62.0159
544.8	39.5227
547.693	46.9579
550.585	49.6223
553.478	18.4856
556.371	29.3826
559.263	23.7902
562.156	26.9537
565.049	22.5863
567.942	1.11914
570.834	25.8921
573.727	26.4152
576.62	6.46423
579.512	33.0277
582.405	24.4222
585.298	11.2482
588.19	19.7562
591.083	23.5888
593.976	22.2188
596.869	10.3595
599.761	44.2533
602.654	35.7585
605.547	51.6641
608.439	41.2529
611.332	22.6644
614.225	27.1134
617.117	65.3743
620.01	38.8549
622.903	27.9298
625.795	21.9906
628.688	26.7739
631.581	25.1881
634.474	30.8037
637.366	53.119
640.259	30.5794
643.152	37.0149
646.044	27.0601
648.937	28.9164
651.83	44.6809
654.722	59.3051
657.615	34.7621
660.508	58.9364
663.401	45.5918
666.293	16.8594
669.186	57.5831
672.079	50.0116
674.971	38.1728
677.864	45.5499
680.757	65.8677
683.649	11.9363
686.542	15.1317
689.435	6.62305
692.328	29.6918
695.22	27.3096
698.113	28.7681
701.006	25.9322
703.898	36.9635
706.791	18.245
709.684	10.202
712.577	1.56616
715.469	16.046
718.362	24.8612
721.255	23.8458
724.147	23.8063
727.04	0.244141
729.933	13.9602
732.825	17.4966
735.718	17.8766
738.611	28.8673
741.504	32.1862
744.396	17.8684
747.289	57.7103
750.182	90.3286
753.074	45.5702
755.967	58.9778
758.86	35.9917
761.752	50.1837
764.645	46.6503
767.538	15.147
770.431	24.3457
773.323	23.7679
776.216	15.5312
779.109	1.33215
782.001	19.0048
784.894	8.78955
787.787	54.2821
790.679	92.3919
793.572	92.3729
796.465	134.435
799.357	172.746
802.25	188.627
805.143	254.092
808.036	366.351
810.928	367.176
813.821	469.526
816.714	539.703
819.606	594.489
822.499	653.282
825.392	681.548
828.284	728.778
831.177	633.774
834.07	619.428
836.963	555.375
839.855	465.921
842.748	372.681
845.641	287.897
848.533	279.567
851.426	215.809
854.319	197.189
857.212	205.007
860.104	150.381
862.997	212.205
865.89	181.058
868.782	263.415
871.675	262.785
874.568	345.237
877.46	347.801
880.353	306.78
883.246	253.255
886.139	201.26
889.031	117.251
891.924	111.257
894.817	28.8175
897.709	48.7472
900.602	39.9547
903.495	29.0916
906.388	10.0425
909.28	10.6765
912.173	28.3834
915.066	25.7633
917.958	20.8724
920.851	0.891724
923.744	13.0348
926.636	29.3928
929.529	9.00427
932.422	1.60205
935.314	2.2749
938.207	26.1625
941.1	17.5892
943.993	5.6626
946.885	16.3379
949.778	1.90125
952.671	30.4582
955.563	1.67761
958.456	51.8246
961.349	23.6671
964.241	37.5001
967.134	33.5548
970.027	42.7175
972.92	35.42
975.812	40.4878
978.705	41.4806
981.598	27.3877
984.49	19.0122
987.383	50.0668
990.276	50.0139
993.168	46.0551
996.061	66.47
998.954	33.6744
1001.85	25.5186
1004.74	40.0547
1007.63	39.3831
1010.52	23.9737
1013.42	15.4158
1016.31	41.3173
1019.2	12.5731
1022.1	43.3867
1024.99	12.1389
1027.88	28.4217
1030.77	12.1155
1033.67	21.1813
1036.56	45.6785
1039.45	29.5201
1042.34	51.4976
1045.24	0.55542
1048.13	1.99463
1051.02	18.3695
1053.91	23.2358
1056.81	13.2227
1059.7	11.1984
1062.59	31.2937
1065.49	64.3235
1068.38	27.4123
1071.27	26.4377
1074.16	9.09253
1077.06	16.2565
1079.95	29.2736
1082.84	31.5582
1085.73	33.1122
1088.63	25.5917
1091.52	25.6149
1094.41	17.3649
1097.31	17.1039
1100.2	22.9509
1103.09	3.49036
1105.98	12.6758
1108.88	16.7516
1111.77	4.54663
1114.66	12.7966
1117.56	7.87158
1120.45	36.2581
1123.34	44.8043
1126.23	50.1322
1129.12	23.6821
1132.02	26.4396
1134.91	23.3906
1137.8	47.3844
1140.7	20.0198
1143.59	27.5482
1146.48	8.10962
1149.37	7.35938
1152.27	36.7531
1155.16	34.7946
1158.05	17.4756
1160.94	14.7612
1163.84	41.8572
1166.73	36.8069
1169.62	44.6818
1172.52	22.7136
1175.41	9.9657
1178.3	20.0344
1181.19	26.1162
1184.09	37.3332
1186.98	40.632
1189.87	35.411
1192.77	46.6446
1195.66	5.49231
1198.55	26.5914
1201.44	44.5241
1204.34	22.838
1207.23	27.3672
1210.12	13.6378
1213.01	5.65698
1215.91	11.7405
1218.8	28.877
1221.69	61.2417
1224.58	20.082
1227.48	28.1773
1230.37	10.9261
1233.26	5.10352
