Measurement: Raman, 532 nm, unoriented, Raman Data Processed
Mineral: Cohenite
Rruff sample: R100076
Ideal chemistry: Fe_3_C
Locality: Asuk, Disko, West Greenland, Greenland
Source: Michael Scott
Description: Polished thick section associated with native iron
Measured chemistry: Fe_2.96_Ni_.02_C, normalized to 1 carbon
Raman shift (cm-1)	intensity
134.847	0
138.222	1.20437
141.597	1.12677
144.971	5.90144
148.346	9.75562
151.721	13.2158
155.096	31.6208
158.471	35.0969
161.845	31.4299
165.22	31.714
168.595	28.8985
171.97	30.2743
175.345	31.8148
178.72	19.4125
182.094	15.1203
185.469	19.3578
188.844	12.8705
192.219	8.33902
195.594	12.9456
198.968	9.39904
202.343	7.39848
205.718	6.14637
209.093	6.98219
212.468	3.01191
215.843	10.0523
219.217	12.6167
222.592	8.13975
225.967	14.0682
229.342	11.901
232.717	9.54982
236.091	8.566
239.466	8.24744
242.841	9.06627
246.216	4.31541
249.591	4.1154
252.965	7.67198
256.34	1.33564
259.715	2.45263
263.09	3.44099
266.465	6.09444
269.84	3.71148
273.214	3.30849
276.589	2.53139
279.964	5.48811
283.339	7.41545
286.714	1.71123
290.089	4.73485
293.463	2.13916
296.838	2.8646
300.213	4.03743
303.588	6.93259
306.963	3.51031
310.337	4.74268
313.712	2.49901
317.087	1.22308
320.462	0.088593
323.837	4.66291
327.212	5.00094
330.586	2.20783
333.961	7.63504
337.336	7.3273
340.711	10.8785
344.086	6.32988
347.46	1.87776
350.835	6.78823
354.21	10.2341
357.585	6.63351
360.96	2.0086
364.334	5.89304
367.709	4.76129
371.084	7.14185
374.459	8.72061
377.834	6.37325
381.209	1.93639
384.583	2.55978
387.958	6.33545
391.333	3.16846
394.708	3.15592
398.083	7.40148
401.457	2.95962
404.832	2.49134
408.207	4.62743
411.582	4.03438
414.957	3.89998
418.332	10.9596
421.706	1.08165
425.081	1.91804
428.456	5.96127
431.831	2.46207
435.206	1.01148
438.58	7.06837
441.955	4.90784
445.33	8.28479
448.705	4.30258
452.08	3.58212
455.454	7.20221
458.829	0.732765
462.204	3.80999
465.579	4.96384
468.954	8.57743
472.329	4.77859
475.703	6.35482
479.078	3.67346
482.453	7.71505
485.828	6.66017
489.203	5.22598
492.577	6.95858
495.952	3.25825
499.327	4.64086
502.702	2.26603
506.077	4.65155
509.452	2.20698
512.826	3.85138
516.201	5.77566
519.576	0.766277
522.951	4.96913
526.326	4.32475
529.701	0.223412
533.075	2.19474
536.45	2.54002
539.825	5.1898
543.2	2.41894
546.575	0.71299
549.949	1.06208
553.324	4.65939
556.699	4.94747
560.074	3.23585
563.449	0.778561
566.823	4.07391
570.198	4.22738
573.573	4.51255
576.948	3.47217
580.323	1.01978
583.698	3.1368
587.072	4.29131
590.447	2.81204
593.822	3.53614
597.197	1.40816
600.572	1.22129
603.946	4.90067
607.321	0.76326
610.696	0.287514
614.071	3.6514
617.446	0.570538
620.821	3.21749
624.195	1.50736
627.57	1.41103
630.945	1.86756
634.32	5.444
637.695	4.05343
641.069	4.27005
644.444	1.61438
647.819	3.1224
651.194	4.24283
654.569	2.61182
657.943	2.34084
661.318	6.93494
664.693	1.67288
668.068	2.65078
671.443	1.75477
674.818	3.08403
678.192	4.12646
681.567	3.55444
684.942	3.71961
688.317	4.94516
691.692	5.16927
695.067	4.46286
698.441	7.74377
701.816	6.13782
705.191	3.60198
708.566	1.45779
711.941	0.141903
715.315	3.70337
718.69	0.512257
722.065	0.62957
725.44	2.8612
728.815	5.55275
732.189	3.62669
735.564	6.09314
738.939	4.16918
742.314	1.90997
745.689	1.25429
749.063	4.37935
752.438	3.61332
755.813	5.17575
759.188	3.51293
762.563	0.453793
765.938	4.1243
769.312	2.34879
772.687	6.58354
776.062	5.52292
779.437	1.97174
782.812	1.81077
786.187	0.420986
789.561	2.79256
792.936	5.38223
796.311	0.403637
799.686	0.394371
803.061	3.36521
806.435	3.09772
809.81	5.16592
813.185	4.77328
816.56	2.59548
819.935	1.18177
823.309	3.23327
826.684	0.114958
830.059	1.09872
833.434	2.02671
836.809	1.48403
840.184	2.28289
843.558	3.88109
846.933	4.23587
850.308	3.76104
853.683	3.56344
857.058	3.12822
860.433	2.63468
863.807	5.16975
867.182	0.788256
870.557	2.78411
873.932	1.96219
877.307	2.97756
880.681	6.3037
884.056	3.83861
887.431	2.89138
890.806	2.29752
894.181	0.880571
897.556	5.04177
900.93	3.17874
904.305	1.86711
907.68	3.20669
911.055	4.66449
914.43	1.17949
917.804	4.04514
921.179	0.670326
924.554	2.41098
927.929	3.25241
931.304	6.07295
934.678	6.83822
938.053	5.86191
941.428	6.97936
944.803	4.54394
948.178	4.67406
951.553	3.78534
954.927	3.02147
958.302	6.64354
961.677	1.37498
965.052	5.18044
968.427	3.12722
971.802	7.41788
975.176	7.61229
978.551	2.5171
981.926	4.69514
985.301	5.22886
988.676	0.006584
992.05	1.33181
995.425	3.44183
998.8	2.72347
1002.17	0.207413
1005.55	1.74272
1008.92	3.60392
1012.3	2.24941
1015.67	3.03257
1019.05	0.071404
1022.42	2.50687
1025.8	1.4916
1029.17	3.72936
1032.55	4.28955
1035.92	3.02286
1039.3	2.52189
1042.67	4.38102
1046.05	4.91529
1049.42	2.49626
1052.8	4.00456
1056.17	2.45618
1059.55	7.15795
1062.92	3.3888
1066.3	5.32424
1069.67	5.24454
1073.05	6.84797
1076.42	4.47096
1079.8	0.084202
1083.17	6.4389
1086.55	5.65128
1089.92	8.98686
1093.3	5.1361
1096.67	3.94738
1100.04	1.04078
1103.42	3.58601
1106.79	5.28006
1110.17	3.70567
1113.54	7.88071
1116.92	3.2953
1120.29	5.02507
1123.67	4.01358
1127.04	4.03391
1130.42	0.925156
1133.79	4.16378
1137.17	4.46217
1140.54	3.02811
1143.92	2.95659
1147.29	4.64751
1150.67	3.7948
1154.04	5.3223
1157.42	3.75312
1160.79	1.10142
1164.17	2.28775
1167.54	1.10011
1170.92	2.42095
1174.29	3.94272
1177.66	2.40984
1181.04	2.23287
1184.41	2.65096
1187.79	3.02637
1191.16	4.02274
1194.54	8.16348
1197.91	3.22818
1201.29	2.25045
1204.66	0.134106
1208.04	0.931843
1211.41	6.79639
1214.79	2.49593
1218.16	3.45592
1221.54	4.89156
1224.91	0.898506
1228.29	5.91125
1231.66	1.21574
1235.04	5.40375
1238.41	3.18322
1241.79	3.05778
1245.16	1.24461
1248.54	0.77467
1251.91	2.88276
1255.29	4.2884
1258.66	4.56173
1262.04	5.33999
1265.41	3.20911
1268.79	4.96736
1272.16	0.306213
1275.54	6.10911
1278.91	5.46429
1282.29	1.58304
1285.66	3.35895
1289.03	2.80265
1292.41	3.14235
1295.78	3.58245
1299.16	1.41109
1302.53	3.46819
