Measurement: Raman, 532 nm, unoriented, Raman Data Processed
Mineral: Collinsite
Rruff sample: R120022
Ideal chemistry: Ca_2_Mg(PO_4_)_2_2H_2_O
Locality: Prinz von Hessen mine, Messel, Darmstadt, Hesse, Germany
Source: Dr. JÃ¼rgen Wachsmuth
Description: Radiating outward sprays of light brown, acircular crystals
Raman shift (cm-1)	intensity
220.664	0
223.556	1.58594
226.449	57.4414
229.342	310.668
232.234	418.461
235.127	599.203
238.02	555.231
240.913	469.473
243.805	414.918
246.698	579.008
249.591	677.652
252.483	697.371
255.376	709.582
258.269	664.871
261.161	652.555
264.054	594.68
266.947	563.363
269.84	653.91
272.732	720.301
275.625	892.508
278.518	902.07
281.41	880.152
284.303	542.227
287.196	514.356
290.089	573.266
292.981	840.875
295.874	718.57
298.767	718.801
301.659	612.023
304.552	564.508
307.445	488.34
310.337	432.238
313.23	441.965
316.123	389.32
319.015	365.391
321.908	240.703
324.801	368.273
327.694	363.781
330.586	232.543
333.479	266.379
336.372	370.367
339.264	390.914
342.157	134.168
345.05	29.8086
347.942	55.3164
350.835	121.441
353.728	135.371
356.621	301.391
359.513	211.312
362.406	128.766
365.299	109.32
368.191	183.66
371.084	129.637
373.977	117.664
376.87	10.7656
379.762	77.7812
382.655	26.5469
385.548	20.5547
388.44	99.3359
391.333	11.3984
394.226	36.4844
397.118	107.461
400.011	185.422
402.904	334.078
405.796	513.477
408.689	675.117
411.582	1003.92
414.475	1210.27
417.367	1361.31
420.26	1199.36
423.153	1276.6
426.045	1285.68
428.938	1645.79
431.831	1574.48
434.724	1168.65
437.616	668.805
440.509	411.461
443.402	507.398
446.294	468.312
449.187	524.875
452.08	444.539
454.972	349.805
457.865	352.211
460.758	424.148
463.651	232.219
466.543	110.133
469.436	25.5859
472.329	59.5078
475.221	49.1641
478.114	31.8984
481.007	65.9297
483.899	71.7578
486.792	53.8984
489.685	93.7812
492.577	81.6328
495.47	236.906
498.363	351.906
501.256	292.859
504.148	62.6406
507.041	82.2812
509.934	116.82
512.826	235.188
515.719	234.406
518.612	1.17969
521.505	52.3125
524.397	250.188
527.29	480.742
530.183	221.469
533.075	168.18
535.968	132.383
538.861	176.594
541.753	251.234
544.646	341.047
547.539	449.992
550.432	678.023
553.324	700.617
556.217	639.055
559.11	590.102
562.002	358.492
564.895	306.992
567.788	182.078
570.68	192.594
573.573	211.031
576.466	393.094
579.359	502.109
582.251	654.898
585.144	537.625
588.037	826.766
590.929	995.219
593.822	1241.88
596.715	1372.27
599.607	1272.56
602.5	847.18
605.393	593.617
608.285	457.32
611.178	398.383
614.071	309.922
616.964	191.805
619.856	193.594
622.749	49.2734
625.642	0.585938
628.534	159.539
631.427	45.4219
634.32	97.4453
637.212	175.25
640.105	61.7266
642.998	4.22656
645.891	122.891
648.783	116.742
651.676	119.016
654.569	316.891
657.461	249.125
660.354	369.07
663.247	248.742
666.139	184.023
669.032	155.984
671.925	202.547
674.818	250.18
677.71	244.148
680.603	417.938
683.496	487.492
686.388	397.305
689.281	506.398
692.174	507.492
695.067	391.156
697.959	505.367
700.852	373.695
703.745	98.1484
706.637	207.125
709.53	278.594
712.423	414.633
715.315	196.914
718.208	32.9766
721.101	12.8672
723.994	177.984
726.886	345.141
729.779	495.289
732.672	389
735.564	333.297
738.457	173.867
741.35	44.4375
744.242	92.2031
747.135	3.79688
750.028	43.6953
752.92	385.336
755.813	558.164
758.706	464.484
761.599	213.391
764.491	293.586
767.384	262.289
770.277	170.383
773.169	301.852
776.062	169.453
778.955	308.648
781.847	295.789
784.74	175.719
787.633	61.4609
790.526	183.969
793.418	329.383
796.311	215.531
799.204	102.102
802.096	89.75
804.989	31.8438
807.882	247.305
810.774	6.66406
813.667	141.148
816.56	243.07
819.453	386.523
822.345	438.492
825.238	101.227
828.131	9.08594
831.023	104.102
833.916	58.4219
836.809	25.6797
839.702	47.4141
842.594	142.734
845.487	171.484
848.38	126.25
851.272	57.2109
854.165	136.828
857.058	319.703
859.95	396.07
862.843	260.352
865.736	123.984
868.629	88.8438
871.521	131.539
874.414	286.148
877.307	198.477
880.199	34.8047
883.092	76.0938
885.985	228.102
888.877	512.258
891.77	356.648
894.663	209.312
897.556	44.9531
900.448	53.3438
903.341	67.7344
906.234	278.492
909.126	314.773
912.019	333.68
914.912	361.273
917.804	468.008
920.697	438.078
923.59	293.688
926.482	412.82
929.375	491.984
932.268	333.047
935.161	549.828
938.053	1081.75
940.946	2338.92
943.839	4008.99
946.731	7390.48
949.624	10602.5
952.517	5325.52
955.409	1550.41
958.302	341.781
961.195	71.6875
964.088	69.9453
966.98	2.19531
969.873	140.141
972.766	23.3672
975.658	14.9688
978.551	158.594
981.444	169.422
984.337	28.7578
987.229	48.6562
990.122	144.312
993.015	181.078
995.907	184.664
998.8	26.6562
1001.69	233.859
1004.59	302.922
1007.48	568.086
1010.37	701.297
1013.26	308.516
1016.16	92.5625
1019.05	186.531
1021.94	374.242
1024.83	96.2109
1027.73	37.6562
1030.62	68.9141
1033.51	147.133
1036.4	426.031
1039.3	128.25
1042.19	52.9375
1045.08	38.6172
1047.98	17.7109
1050.87	272.156
1053.76	417.703
1056.65	465.133
1059.55	292.305
1062.44	264.812
1065.33	335.742
1068.22	221.836
1071.12	347.93
1074.01	36.7891
1076.9	3.79688
1079.8	26.5781
1082.69	28.0938
1085.58	119.523
1088.47	88.5156
1091.37	290.172
1094.26	772.039
1097.15	1459.56
1100.04	1196.69
1102.94	515.453
1105.83	257.164
1108.72	96.2266
1111.62	450.383
1114.51	373.148
1117.4	255.484
1120.29	403.109
1123.19	418.812
1126.08	131.195
1128.97	65.2734
1131.86	65.2891
1134.76	79.7188
1137.65	377.18
1140.54	260.344
1143.43	276.336
1146.33	282.438
1149.22	339.977
1152.11	302.055
1155.01	197.945
1157.9	116.57
1160.79	118.953
1163.68	382.102
1166.58	326.414
1169.47	156.266
1172.36	337.438
1175.26	335.016
1178.15	358.859
1181.04	441.383
1183.93	457.484
1186.83	522.602
1189.72	471.703
1192.61	528.016
1195.5	352.578
1198.4	555.664
1201.29	457.57
1204.18	439.039
1207.07	807.336
1209.97	847.18
1212.86	787.836
1215.75	556
1218.64	268.984
1221.54	365.773
1224.43	378.25
1227.32	475.188
1230.22	171.125
1233.11	143.336
1236	203.742
1238.89	139.914
1241.79	205.172
1244.68	351.438
1247.57	201.797
1250.46	75.8203
1253.36	191.43
1256.25	269.688
1259.14	414.719
1262.04	443.789
1264.93	302.266
1267.82	344.039
1270.71	254.68
1273.61	235.508
1276.5	175.391
1279.39	138.305
1282.29	181.383
1285.18	42.0625
1288.07	108.695
1290.96	58.4141
1293.86	295.953
1296.75	184.891
1299.64	394.367
1302.53	70.875
