Measurement: Raman, 785 nm, unoriented, Raman Data Processed
Mineral: Colquiriite
Rruff sample: R070417
Ideal chemistry: CaLiAlF_6_
Locality: Serra Branca pegmatite, Pedra Lavrada, Picuí, Paraíba; Northeast, Brazil
Source: Michael Scott
Description: Colorless thin hexagonal plates associated with strengite and triplite, sample used to update X-ray data in JCPDS files
Raman shift (cm-1)	intensity
202.497	0
205.39	10.3198
208.282	30.4351
211.175	37.5034
214.068	44.9097
216.961	14.9443
219.853	80.1728
222.746	111.917
225.639	63.5386
228.531	62.7866
231.424	86.0293
234.317	132.369
237.209	97.1851
240.102	156.237
242.995	182.952
245.888	199.476
248.78	169.575
251.673	96.4639
254.566	92.6748
257.458	71.3979
260.351	75.5986
263.244	123.444
266.137	149.547
269.029	89.5254
271.922	166.332
274.815	189.724
277.707	319.558
280.6	404.313
283.493	303.94
286.385	145.636
289.278	93.6909
292.171	49.2026
295.063	62.1148
297.956	12.1709
300.849	33.0039
303.742	10.9526
306.634	33.395
309.527	18.9258
312.42	39.7847
315.312	37.5386
318.205	66.6958
321.098	127.648
323.99	201.967
326.883	270.065
329.776	446.792
332.669	621.72
335.561	423.767
338.454	168.381
341.347	67.9214
344.239	43.5591
347.132	36.6113
350.025	51.2119
352.918	33.8828
355.81	81.2358
358.703	119.609
361.596	173.246
364.488	171.698
367.381	156.564
370.274	86.4385
373.166	93.375
376.059	46.1328
378.952	30.9145
381.844	50.9204
384.737	3.30859
387.63	29.9624
390.523	25.6299
393.415	0.453613
396.308	47.8496
399.201	22.4551
402.093	100.782
404.986	125.278
407.879	114.325
410.772	155.742
413.664	204.38
416.557	175.375
419.45	113.229
422.342	130.982
425.235	100.344
428.128	118.434
431.02	157.451
433.913	125.688
436.806	77.77
439.699	56.8433
442.591	106.393
445.484	55.7056
448.377	9.29492
451.269	85.8433
454.162	14.3296
457.055	70.0366
459.947	4.88232
462.84	25.9585
465.733	64.3481
468.625	8.65723
471.518	39.8833
474.411	26.0273
477.304	23.1387
480.196	41.1728
483.089	15.7114
485.982	46.9307
488.874	63.1343
491.767	7.64356
494.66	3.91553
497.553	36.8091
500.445	8.2002
503.338	10.6304
506.231	46.6406
509.123	20.7095
512.016	5.96191
514.909	23.2549
517.802	43.9477
520.694	47.0132
523.587	45.4512
526.48	93.4805
529.372	27.8257
532.265	36.876
535.158	144.811
538.05	185.176
540.943	256.086
543.836	236.953
546.729	452.422
549.621	590.296
552.514	803.751
555.407	1067.04
558.299	1427.16
561.192	1657.62
564.085	1702.02
566.977	1375.69
569.87	988.617
572.763	669.703
575.655	526.377
578.548	478.891
581.441	338.803
584.333	324.178
587.226	209.402
590.119	102.954
593.012	128.132
595.904	106.257
598.797	43.5376
601.69	78.9356
604.582	74.1655
607.475	64.8481
610.368	51.8516
613.26	42.7085
616.153	7.3208
619.046	28.4404
621.939	38.0107
624.831	15.5288
627.724	18.209
630.617	29.1743
633.509	34.9658
636.402	51.2349
639.295	18.9282
642.188	27.6001
645.08	24.4082
647.973	29.4697
650.866	80.8828
653.758	48.3706
656.651	59.8652
659.544	81.3188
662.436	27.8975
665.329	68.2104
668.222	30.8589
671.115	76.7061
674.007	37.4145
676.9	72.9126
679.793	75.4614
682.685	58.9971
685.578	46.043
688.471	72.9023
691.363	60.396
694.256	38.0957
697.149	45.6953
700.042	112.487
702.934	71.019
705.827	85.2534
708.72	55.5381
711.612	44.6636
714.505	58.8555
717.398	55.5874
720.29	90.3994
723.183	84.0908
726.076	71.0967
728.968	84.7925
731.861	39.9727
734.754	69.6143
737.647	49.7427
740.539	88.5435
743.432	83.4853
746.325	42.9023
749.217	84.4487
752.11	29.2188
755.003	13.9146
757.895	47.8247
760.788	8.39014
763.681	67.8648
766.574	60.6553
769.466	77.3174
772.359	29.7959
775.252	106.442
778.144	24.1465
781.037	43.416
783.93	54.8921
786.822	71.2554
789.715	11.4424
792.608	76.3257
795.501	36.6138
798.393	17.8887
801.286	65.4394
804.179	47.6245
807.071	22.9995
809.964	87.4228
812.857	18.6636
815.75	22.0718
818.642	89.1113
821.535	33.855
824.428	14.229
827.32	63.9243
830.213	40.6768
833.106	57.5552
835.998	50.4731
838.891	49.8603
841.784	14.8599
844.677	17.5557
847.569	34.8735
850.462	19.5225
853.355	50.3481
856.247	31.7358
859.14	52.2373
862.033	75.9038
864.925	62.7705
867.818	77.7432
870.711	75.2104
873.604	87.2734
876.496	93.8843
879.389	35.2056
882.282	44.0688
885.174	15.2559
888.067	50.3726
890.96	66.519
893.852	44.3355
896.745	72.4961
899.638	72.7144
902.53	30.9297
905.423	72.1064
908.316	49.1958
911.209	20.8023
914.101	26.5142
916.994	54.6753
919.887	37.6592
922.779	1.59131
925.672	15.7808
928.565	20.7578
931.457	19.1802
934.35	53.8442
937.243	32.4248
940.136	21.5464
943.028	60.6514
945.921	33.2915
948.814	41.1831
951.706	35.646
954.599	51.1645
957.492	8.14795
960.385	38.0068
963.277	47.168
966.17	20.5708
969.063	81.7817
971.955	106.671
974.848	71.7388
977.741	133.886
980.633	149.273
983.526	156.299
986.419	111.927
989.312	75.7451
992.204	72.7769
995.097	76.7212
997.99	52.3018
1000.88	109.909
1003.77	109.309
1006.67	53.6011
1009.56	113.752
1012.45	41.1577
1015.35	71.3208
1018.24	7.95166
1021.13	87.2432
1024.02	86.355
1026.92	47.2241
1029.81	51.1504
1032.7	56.5254
1035.6	76.4146
1038.49	81.8008
1041.38	43.4248
1044.27	20.1977
1047.17	18.7236
1050.06	4.78223
1052.95	38.356
1055.84	64.6123
1058.74	16.602
1061.63	61.1909
1064.52	11.5991
1067.41	11.3276
1070.31	60.9883
1073.2	17.2617
1076.09	35.6118
1078.98	89.2978
1081.88	38.1187
1084.77	30.5771
1087.66	94.6816
1090.56	4.28125
1093.45	4.95117
1096.34	32.3706
1099.23	53.7505
1102.13	50.647
1105.02	45.6504
1107.91	45.9253
1110.81	33.1802
1113.7	43.3247
1116.59	67.3096
1119.48	29.2197
1122.38	81.5347
1125.27	36.0171
1128.16	95.7822
1131.05	67.811
1133.95	58.541
1136.84	64.8315
1139.73	63.9282
1142.62	90.7485
1145.52	30.647
1148.41	58.2095
1151.3	9.83301
1154.19	51.8486
1157.09	26.0049
1159.98	61.5767
1162.87	12.792
1165.77	65.7124
1168.66	6.28027
1171.55	90.8052
1174.44	8.01416
1177.34	70.2148
1180.23	84.8594
1183.12	78.9238
1186.02	71.8301
1188.91	68.2573
1191.8	60.8164
1194.69	38.29
1197.59	78.9146
1200.48	76.0459
1203.37	46.6069
1206.26	47.9976
1209.16	51.8267
1212.05	112.205
1214.94	58.0122
1217.84	2.32715
1220.73	101.656
1223.62	59.9351
1226.51	33.0259
1229.41	50.0918
1232.3	22.2627
1235.19	0.133301
