Measurement: Raman, 532 nm, unoriented, Raman Data Processed
Mineral: Colquiriite
Rruff sample: R070417
Ideal chemistry: CaLiAlF_6_
Locality: Serra Branca pegmatite, Pedra Lavrada, Picuí, Paraíba; Northeast, Brazil
Source: Michael Scott
Description: Colorless thin hexagonal plates associated with strengite and triplite, sample used to update X-ray data in JCPDS files
Raman shift (cm-1)	intensity
164.607	0
167.5	21.1445
170.393	0.390625
173.286	71.6675
176.178	60.001
179.071	75.5312
181.964	86.1289
184.856	66.5869
187.749	71.9077
190.642	97.5859
193.535	110.94
196.427	126.699
199.32	153.156
202.213	52.4673
205.105	136.25
207.998	87.5083
210.891	108.991
213.783	92.1509
216.676	129.824
219.569	101.769
222.462	100.76
225.354	147.615
228.247	128.889
231.14	118.052
234.032	155.059
236.925	216.366
239.818	222.783
242.71	262.207
245.603	240.465
248.496	178.035
251.388	120.181
254.281	100.966
257.174	98.3721
260.067	47.2607
262.959	159.853
265.852	103.897
268.745	164.234
271.637	200.984
274.53	284.125
277.423	361.768
280.315	466.176
283.208	277.433
286.101	137.024
288.994	76.2734
291.886	17.2036
294.779	3.91846
297.672	6.97314
300.564	8.76807
303.457	1.49609
306.35	20.3096
309.243	21.105
312.135	3.10596
315.028	46.7402
317.921	38.2139
320.813	168.705
323.706	223.9
326.599	306.946
329.491	554.49
332.384	727.531
335.277	417.15
338.17	157.834
341.062	96.7519
343.955	27.0547
346.848	29.6724
349.74	77.7935
352.633	27.1543
355.526	117.193
358.418	89.1636
361.311	120.352
364.204	165.749
367.097	94.7671
369.989	102.51
372.882	83.2935
375.775	26.7207
378.667	14.4707
381.56	17.0727
384.453	31.6836
387.346	40.0371
390.238	93.9058
393.131	80.0908
396.024	98.689
398.916	249.107
401.809	313.77
404.702	361.948
407.594	440.121
410.487	478.869
413.38	487.271
416.272	457.789
419.165	418.469
422.058	315.009
424.951	254.977
427.843	249.041
430.736	216.962
433.629	232.759
436.521	198.424
439.414	165.968
442.307	120.588
445.2	87.9624
448.092	76.1904
450.985	71.9302
453.878	69.9717
456.77	96.6616
459.663	70.1484
462.556	2.52197
465.448	22.2935
468.341	14.0566
471.234	30.5566
474.127	2.91065
477.019	51.2695
479.912	8.5083
482.805	7.49365
485.697	24.3745
488.59	32.3306
491.483	14.0503
494.375	11.1807
497.268	29.8545
500.161	34.8857
503.053	39.8779
505.946	64.2647
508.839	14.1855
511.732	46.793
514.624	89.4609
517.517	71.4248
520.41	67.9287
523.302	88.6397
526.195	99.5322
529.088	83.5654
531.981	185.055
534.873	234.819
537.766	285.684
540.659	398.578
543.551	484.425
546.444	658.612
549.337	942.115
552.229	1330.65
555.122	1795.92
558.015	2240.34
560.908	2559.4
563.8	2414.2
566.693	1910.53
569.586	1405.25
572.478	1048.47
575.371	789.97
578.264	648.031
581.156	577.467
584.049	414.199
586.942	295.601
589.835	283.256
592.727	96.7939
595.62	77.2314
598.513	93.5039
601.405	49.666
604.298	74.4824
607.191	54.5938
610.083	115.956
612.976	123.916
615.869	43.2812
618.762	1.53223
621.654	59.6367
624.547	38.7949
627.44	6.96484
630.332	31.0986
633.225	14.8701
636.118	27.6475
639.01	21.8877
641.903	34.3779
644.796	31.3643
647.689	85.0537
650.581	14.0254
653.474	68.3643
656.367	89.0078
659.259	58.9434
662.152	79.5801
665.045	73.4023
667.938	45.7685
670.83	63.4756
673.723	77.2549
676.616	3.85156
679.508	95.5469
682.401	120.068
685.294	28.1133
688.186	27.3838
691.079	60.5039
693.972	90.3779
696.865	39.7266
699.757	55.6924
702.65	22.9141
705.543	58.5986
708.435	40.3984
711.328	41.458
714.221	99.4902
717.113	17.9062
720.006	39.5742
722.899	65.3291
725.792	15.1582
728.684	2.35254
731.577	23.3594
734.47	37.6152
737.362	25.7373
740.255	43.1201
743.148	100.02
746.04	28.8848
748.933	20.3848
751.826	24.0498
754.719	31.9648
757.611	16.5146
760.504	56.0225
763.397	52.1533
766.289	83.7432
769.182	36.3428
772.075	41.04
774.967	70.4482
777.86	53.4014
780.753	0.884766
783.646	66.6445
786.538	112.148
789.431	55.7627
792.324	66.9541
795.216	101.967
798.109	74.541
801.002	28.0303
803.894	63.8926
806.787	111.793
809.68	2.08008
812.573	124.861
815.465	71.6426
818.358	48.4522
821.251	74.21
824.143	56.9883
827.036	2.91211
829.929	91.2764
832.822	36.5059
835.714	76.79
838.607	2.90332
841.5	62.2959
844.392	2.34473
847.285	47.8994
850.178	43.5723
853.07	17.3174
855.963	35.0986
858.856	48.2383
861.749	21.4102
864.641	34.2607
867.534	81.5068
870.427	4.40918
873.319	83.1709
876.212	104.127
879.105	16.9033
881.997	22.6504
884.89	36.9033
887.783	113.494
890.676	115.513
893.568	43.0977
896.461	56.7539
899.354	41.2432
902.246	83.9092
905.139	50.7285
908.032	83.2266
910.924	50.2109
913.817	52.7002
916.71	10.9014
919.602	12.0107
922.495	7.65039
925.388	112.049
928.281	16.666
931.173	37.085
934.066	101.077
936.959	37.1992
939.851	8.77051
942.744	76.3682
945.637	50.0166
948.529	71.1856
951.422	69.5693
954.315	32.9492
957.208	87.04
960.1	67.2266
962.993	25.9756
965.886	114.009
968.778	92.0147
971.671	60.5527
974.564	141.414
977.457	93.6758
980.349	160.011
983.242	212.926
986.135	79.5029
989.027	100.58
991.92	94.9385
994.813	92.7432
997.705	102.404
1000.6	101.422
1003.49	95.0508
1006.38	111.393
1009.28	21.3213
1012.17	109.473
1015.06	135.873
1017.95	20.5977
1020.85	90.0068
1023.74	157.527
1026.63	63.3877
1029.53	153.164
1032.42	120.75
1035.31	46.623
1038.2	74.6045
1041.1	117.409
1043.99	97.8701
1046.88	42.5527
1049.77	45.9082
1052.67	58.915
1055.56	56.3691
1058.45	89.9248
1061.35	46.1494
1064.24	104.293
1067.13	13.457
1070.02	8.87012
1072.92	115.176
1075.81	28.8057
1078.7	63.2207
1081.59	14.626
1084.49	38.6045
1087.38	88.791
1090.27	138.696
1093.16	26.0654
1096.06	87.1191
1098.95	120.309
1101.84	45.7715
1104.73	31.4365
1107.63	14.085
1110.52	111.256
1113.41	148.306
1116.31	82.7178
1119.2	124.403
1122.09	45.1494
1124.98	43.0185
1127.88	92.4893
1130.77	33.6777
1133.66	67.7627
1136.56	41.8252
1139.45	160.315
1142.34	57.7353
1145.23	133.818
1148.13	46.6357
1151.02	70.4961
1153.91	88.4014
1156.8	118.223
1159.7	138.661
1162.59	59.9297
1165.48	70.1416
1168.38	119.698
1171.27	85.6416
1174.16	26.6787
1177.05	131.742
1179.95	126.028
1182.84	53.752
1185.73	64.9912
1188.62	23.165
1191.52	26.8457
1194.41	18.5977
1197.3	87.8984
1200.19	107.017
1203.09	29.4844
1205.98	83.833
1208.87	10.373
1211.77	94.8047
1214.66	113.047
1217.55	95.6338
1220.44	71.0889
1223.34	22.0293
1226.23	70.1816
1229.12	133.948
1232.01	65.6738
1234.91	68.6689
1237.8	210.862
1240.69	64.4697
1243.59	4.59668
1246.48	1.12891
1249.37	10.1855
1252.26	6.28516
1255.16	23.6943
1258.05	110.572
1260.94	47.6699
1263.83	6.45606
1266.73	118.61
1269.62	93.6016
1272.51	150.565
1275.4	113.971
1278.3	73.833
1281.19	96.8457
1284.08	9.39844
1286.98	27.8408
1289.87	77.9346
1292.76	43.0752
1295.65	136.085
1298.55	86.3564
1301.44	116.033
1304.33	72.8897
