Measurement: Raman, 514 nm, unoriented, Raman Data Processed
Mineral: Columbite-(Mn)
Rruff sample: R050359
Ideal chemistry: Mn^2+^Nb^5+^_2_O_6_
Locality: Black Hills, South Dakota, USA
Source: University of Arizona Mineral Museum
Description: Black cleavage fragment
Measured chemistry: (Mn^2+^_0.58_Fe^2+^_0.38_Ti_0.02_[box]_0.02_)(Nb_0.66_Ta_0.34_)_2_O_6_
Raman shift (cm-1)	intensity
90.587	0
94.768	200.261
98.947	452.213
103.124	557.077
107.3	1262.48
111.473	965.762
115.644	1560.02
119.813	1953.1
123.981	1253.12
128.146	963.12
132.309	554.821
136.47	566.713
140.63	339.22
144.787	78.544
148.942	90.745
153.096	52.82
157.247	62.991
161.396	240.936
165.544	61.044
169.689	308.317
173.833	100.062
177.974	57.399
182.114	105.211
186.251	286.883
190.387	214.183
194.52	445.972
198.652	395.613
202.782	514.776
206.909	634.644
211.035	536.409
215.159	587.253
219.281	609.188
223.4	702.268
227.518	815.996
231.634	903.884
235.748	1025.73
239.86	1166.03
243.97	1232.65
248.079	1319.2
252.185	1412.9
256.289	1500.21
260.391	1324.81
264.492	1382.9
268.59	1381.16
272.687	1362.86
276.781	1325.94
280.874	1348.5
284.964	1105.66
289.053	998.292
293.14	933.119
297.225	1131.57
301.308	1037.49
305.389	944.778
309.468	1101.19
313.545	774.183
317.62	702.295
321.693	608.748
325.765	531.772
329.834	323.882
333.902	244.896
337.967	352.09
342.031	269.511
346.093	208.871
350.153	279.083
354.21	259.736
358.267	292.289
362.321	382.749
366.373	309.495
370.423	190.758
374.471	137.544
378.518	206.677
382.563	252.285
386.605	160.589
390.646	140.577
394.685	105.987
398.722	27.03
402.757	108.064
406.79	165.534
410.821	97.845
414.851	196.991
418.878	0.572
422.904	165.645
426.927	214.083
430.949	37.084
434.969	36.367
438.987	78.303
443.003	78.307
447.018	77.631
451.03	6.812
455.041	198.029
459.049	37.209
463.056	304.047
467.061	292.814
471.064	412.193
475.065	121.529
479.064	479.541
483.062	413.287
487.057	270.76
491.051	148.842
495.043	558.438
499.032	470.531
503.02	480.252
507.007	465.76
510.991	531.393
514.973	564.963
518.954	506.953
522.933	414.906
526.91	479.744
530.885	549.676
534.858	520.832
538.829	365.002
542.799	687.898
546.766	576.896
550.732	350.99
554.696	476.246
558.658	403.957
562.618	470.295
566.576	480.076
570.533	634.871
574.488	498.357
578.44	396.266
582.391	389.746
586.341	428.014
590.288	656.684
594.233	487.408
598.177	342.428
602.119	514.367
606.059	417.363
609.997	531.719
613.933	414.146
617.868	453.34
621.801	378.457
625.731	593.582
629.66	306.777
633.588	367.135
637.513	429.482
641.437	378.266
645.358	376.426
649.278	252.594
653.196	760.748
657.113	369.887
661.027	443.867
664.94	534.705
668.851	190.398
672.76	227.936
676.667	211.336
680.572	376.604
684.476	318.748
688.378	107.787
692.278	302.723
696.176	23.467
700.072	322.066
703.967	147.412
707.86	353.67
711.751	42.201
715.64	236.664
719.527	5.973
723.413	19.666
727.297	60.404
731.179	98.33
735.059	8.793
738.937	234.113
742.814	293.824
746.689	183.16
750.562	209.129
754.433	184.511
758.303	278.125
762.17	89.623
766.036	155.191
769.901	233.895
773.763	532.711
777.624	481.463
781.482	238.244
785.339	78.553
789.195	195.346
793.048	628.957
796.9	628.311
800.75	539.711
804.598	914.143
808.445	694.637
812.289	1069.33
816.132	775.209
819.973	1061.87
823.813	1173.17
827.65	1204.43
831.486	1851.98
835.32	2290
839.152	2103.2
842.983	2332.09
846.812	3151.5
850.639	3684.82
854.464	4072.58
858.288	4399.47
862.11	4779.31
865.93	4793.63
869.748	4806.76
873.564	4634.48
877.379	3884.71
881.192	3223.25
885.004	2294.29
888.813	2039.3
892.621	1384.7
896.427	678.002
900.232	597.289
904.034	904.258
907.835	1029.39
911.634	485.178
915.432	437.604
919.227	585.104
923.021	152.703
926.813	445.773
930.604	343.33
934.393	546.414
938.18	647.52
941.965	365.553
945.749	140.26
949.53	552.73
953.311	404.785
957.089	658.029
960.866	1043.47
964.641	607.025
968.414	695.029
972.185	502.188
975.955	407.254
979.723	767.768
983.49	1028.86
987.254	967.428
991.017	829.736
994.779	820.615
998.538	858.979
1002.3	315.119
1006.05	675.531
1009.81	447.965
1013.56	671.299
1017.31	418.408
1021.06	417.807
1024.81	436.146
1028.55	440.701
1032.3	311.266
1036.04	258.012
1039.78	320.41
1043.52	124.143
1047.26	351.561
1050.99	478.979
1054.73	222.789
1058.46	758.416
1062.19	601.494
1065.92	465.32
1069.65	239.873
1073.37	357.975
1077.1	141.525
1080.82	368.568
1084.54	340.059
1088.26	214.941
1091.97	247.055
1095.69	256.527
1099.4	245.783
1103.12	474.408
1106.83	7.676
1110.54	380.342
1114.24	246.268
1117.95	495.646
1121.65	856.621
1125.35	916.654
1129.06	152.98
1132.75	231.943
1136.45	578.248
1140.15	61.244
1143.84	322.51
1147.53	201.637
1151.22	40.373
1154.91	279.771
1158.6	101.551
1162.28	295.229
1165.97	539.717
1169.65	500.092
1173.33	411.592
1177.01	335.078
1180.69	307.354
1184.36	583.555
1188.04	436.734
1191.71	839.057
1195.38	624.377
1199.05	528.307
1202.71	785.061
1206.38	667.805
1210.04	363.092
1213.71	667.053
1217.37	852.645
1221.03	707.465
1224.68	707.75
1228.34	451.906
1231.99	673.461
1235.65	528.039
1239.3	191.898
1242.95	452.793
1246.59	838.945
1250.24	746.334
1253.88	304.139
1257.53	174.844
1261.17	298.207
1264.81	334.15
1268.45	272.971
1272.08	216.15
1275.72	307.725
1279.35	311.014
1282.98	217.98
1286.61	91.324
1290.24	13.633
1293.87	165.941
1297.49	202.741
1301.11	303.555
1304.73	221.891
1308.36	238.918
1311.97	75.453
1315.59	12.496
1319.2	151.738
1322.82	149.176
1326.43	434.867
1330.04	114.031
1333.65	78.535
1337.26	49.25
1340.86	251.992
1344.47	149.359
1348.07	494.578
1351.67	459.965
1355.27	780.395
1358.87	916.383
1362.46	565.062
1366.06	489.605
1369.65	604.371
1373.24	361.66
1376.83	530.809
1380.42	461.949
1384	674.961
1387.59	227.961
1391.17	594.594
1394.75	495.484
1398.33	380.301
1401.91	537.238
1405.49	248.004
1409.06	415.492
1412.64	697.473
1416.21	250.785
1419.78	491.484
1423.35	131.895
1426.91	469.297
1430.48	715.387
1434.05	752.434
1437.61	847.043
1441.17	812.25
1444.73	903.816
1448.29	693.938
1451.84	809.461
1455.4	961.008
1458.95	520.375
1462.5	311.605
1466.05	152.887
1469.6	478.32
1473.15	51.316
1476.69	52.289
1480.24	2.941
1483.78	446.902
1487.32	201.152
1490.86	129.391
