Measurement: Raman, 514 nm, unoriented, Raman Data Processed
Mineral: Columbite-(Mn)
Rruff sample: R040083
Ideal chemistry: Mn^2+^Nb^5+^_2_O_6_
Locality: Mina Miramica, Santa Cruz, Bolivia
Source: University of Arizona Mineral Museum
Description: Fragment consisting of multiple phases as shown by both X-ray diffraction and microprobe.
Measured chemistry: Light bands: (Mn^2+^_0.78_Fe^2+^_0.21_Ti_0.01_)(Nb_0.74_Ta_0.25_Ti_0.01_)_2_O_6_; Dark bands:(Mn^2+^_0.73_Fe^2+^_0.26_Ti_0.01_)(Nb_0.86_Ta_0.13_Ti_0.01_)_2_O_6_
Raman shift (cm-1)	intensity
117.918	0
120.439	4.254
122.96	254.815
125.48	340.999
127.998	626.963
130.516	1060.4
133.033	1134.76
135.549	960.128
138.064	814.209
140.579	610.894
143.092	328.983
145.604	217.257
148.116	164.848
150.626	98.171
153.136	171.678
155.645	197.614
158.153	43.393
160.66	95.798
163.166	29.903
165.671	11.512
168.175	15.946
170.679	1.418
173.181	8.073
175.683	3.497
178.184	8.456
180.683	10.003
183.182	2.592
185.68	30.891
188.177	136.28
190.674	87.72
193.169	174.078
195.663	234.031
198.157	315.609
200.649	345.033
203.141	402.913
205.632	336.148
208.122	311.959
210.611	210.93
213.099	144.056
215.586	125.332
218.073	122.892
220.558	158.906
223.043	166.105
225.526	174.928
228.009	187.884
230.491	214.083
232.972	239.077
235.452	333.105
237.932	351.327
240.41	381.495
242.887	380.394
245.364	342.042
247.84	364.475
250.314	325.627
252.788	303.595
255.261	269.553
257.734	346.998
260.205	293.874
262.675	266.26
265.145	312.964
267.613	402.84
270.081	526.358
272.548	400.521
275.014	359.444
277.479	438.6
279.943	389.487
282.407	412.258
284.869	344.367
287.331	370.737
289.791	405.155
292.251	403.621
294.71	386.139
297.168	422.716
299.625	445.355
302.081	462.056
304.537	357.818
306.991	235.638
309.445	221.007
311.898	193.449
314.35	127.462
316.801	92.53
319.251	72.657
321.7	30.828
324.149	50.015
326.596	0.546
329.043	4.098
331.489	0.7
333.934	9.869
336.378	3.776
338.821	2.352
341.263	7.136
343.705	3.236
346.145	14.997
348.585	5.369
351.024	35.575
353.462	34.9
355.899	63.595
358.335	121.848
360.771	194.215
363.205	233.736
365.639	252.055
368.071	351.126
370.503	429.595
372.934	535.975
375.365	588.589
377.794	689.653
380.222	733.656
382.65	854.483
385.077	956.729
387.503	1011.9
389.928	977.25
392.352	1016.93
394.775	982.635
397.197	902.37
399.619	864.13
402.04	655.943
404.459	637.814
406.878	541.015
409.297	489.673
411.714	422.684
414.13	416.751
416.546	318.842
418.96	302.952
421.374	329.132
423.787	191.985
426.199	206.506
428.611	211.474
431.021	154.816
433.431	158.237
435.839	141.477
438.247	126.71
440.654	78.552
443.06	19.344
445.466	55.505
447.87	42.597
450.274	4.821
452.676	15.778
455.078	5.412
457.479	2.961
459.88	8.463
462.279	8.323
464.677	6.629
467.075	12.424
469.472	9.572
471.868	40.937
474.263	4.414
476.657	11.163
479.051	66.724
481.443	58.668
483.835	27.62
486.226	101.478
488.616	50.754
491.005	96.305
493.393	105.881
495.781	88.288
498.167	45.563
500.553	64.272
502.938	100.702
505.322	55.506
507.706	52.352
510.088	108.831
512.47	150.576
514.85	177.291
517.23	98.819
519.609	175.64
521.988	92.611
524.365	131.541
526.742	218.366
529.117	207.929
531.492	211.718
533.866	158.946
536.24	142.25
538.612	145.762
540.984	158.156
543.354	89.578
545.724	93.695
548.093	160.085
550.461	105.956
552.829	104.266
555.195	89.114
557.561	94.018
559.926	105.59
562.29	31.583
564.653	29.275
567.015	50.498
569.377	59.916
571.738	40.528
574.098	4.89
576.457	5.781
578.815	26.803
581.172	2.207
583.529	16.534
585.885	44.953
588.24	15.374
590.594	2.595
592.947	38.609
595.299	0.889
597.651	6.592
600.002	2.085
602.352	0.179
604.701	50.745
607.049	45.532
609.397	6.403
611.743	14.124
614.089	13.032
616.434	61.763
618.778	35.704
621.122	47.554
623.464	57.338
625.806	66.874
628.147	39.217
630.487	0.424
632.826	62.965
635.165	98.781
637.502	83.062
639.839	54.689
642.175	10.117
644.51	64.935
646.845	52.338
649.178	111.5
651.511	8.908
653.843	50.496
656.174	35.116
658.504	38.263
660.834	23.592
663.162	10.926
665.49	7.745
667.817	28.426
670.143	31.602
672.469	0.045
674.793	36.678
677.117	1.472
679.44	1.639
681.762	16.539
684.083	24.897
686.404	29.525
688.724	8.602
691.043	12.74
693.361	20.915
695.678	4.75
697.994	45.472
700.31	43.715
702.625	3.501
704.939	40.555
707.252	3.726
709.565	3.391
711.876	5.49
714.187	36.896
716.497	3.081
718.806	0.843
721.115	14.643
723.422	6.2
725.729	6.546
728.035	16.897
730.34	32.581
732.644	45.507
734.948	17.691
737.251	29.525
739.553	10.921
741.854	19.872
744.154	1.785
746.454	55.967
748.753	89.82
751.051	61.721
753.348	125.988
755.644	128.446
757.94	133.14
760.234	109.11
762.528	175.364
764.822	107.625
767.114	117.695
769.405	177.673
771.696	209.369
773.986	123.343
776.275	168.862
778.564	205.728
780.851	215.027
783.138	231.961
785.424	243.119
787.709	213.056
789.994	270.799
792.277	262.877
794.56	262.421
796.842	266.098
799.123	287.813
801.404	262.78
803.684	342.844
805.962	384.07
808.24	423.503
810.518	497.437
812.794	504.407
815.07	610.795
817.345	682.115
819.619	664.987
821.892	764.37
824.165	862.178
826.437	865.855
828.708	834.276
830.978	865.845
833.247	885.042
835.516	949.472
837.784	956.792
840.051	1011.01
842.317	891.122
844.582	1037.93
846.847	1129.99
849.111	1195.82
851.374	1394.94
853.636	1547.38
855.898	1691.19
858.159	1849.6
860.419	2173.17
862.678	2478.08
864.936	2727.79
867.194	3192.5
869.451	3717.13
871.707	4168.92
873.962	4560.07
876.217	4708.52
878.471	4288.34
880.723	3656.01
882.976	2899.64
885.227	2242.95
887.478	1607.93
889.728	1213.84
891.977	972.735
894.225	808.494
896.472	713.096
898.719	691.502
900.965	577.788
903.21	458.911
905.455	398.927
907.698	218.857
909.941	179.678
912.183	75.439
914.425	77.276
916.665	22.976
918.905	4.446
921.144	12.749
923.382	0.289
925.62	4.072
927.856	7.923
930.092	5.049
932.327	22.855
934.562	17.564
936.795	5.097
939.028	6.313
941.26	1.407
943.492	3.994
945.722	1.866
947.952	0.102
950.181	34.434
952.409	67.076
954.637	22.057
956.863	28.446
959.089	88.317
961.314	90.174
963.539	102.768
965.762	85.606
967.985	102.26
970.207	79.458
972.429	115.79
974.649	95.8
976.869	85.208
979.088	62.331
981.306	91.553
983.524	92.405
985.741	115.64
987.957	57.472
990.172	17.331
992.386	22.403
994.6	61.74
996.813	61.503
999.025	70.129
1001.24	11.98
1003.45	0.537
1005.66	0
