Measurement: Raman, 532 nm, unoriented, Raman Data Processed
Mineral: Columbite-(Fe)
Rruff sample: R050348
Ideal chemistry: Fe^2+^Nb^5+^_2_O_6_
Locality: Lord Hill mine, Stoneham, Oxford County, Maine, USA
Source: California Institute of Technology
Description: Black fragment
Measured chemistry: (Fe^2+^_0.69_Mn^2+^_0.30_Ti_0.01_)(Nb_0.89_Ta_0.10_Ti_0.01_)_2_O_6_
Raman shift (cm-1)	intensity
133.816	0
137.19	11.0304
140.565	17.4551
143.94	14.3364
147.315	10.6963
150.69	5.57718
154.065	6.55487
157.439	3.19864
160.814	1.73111
164.189	1.72153
167.564	1.50394
170.939	2.80121
174.313	1.9353
177.688	1.15979
181.063	3.02902
184.438	1.409
187.813	0.346893
191.187	2.0426
194.562	0.964691
197.937	1.56558
201.312	4.69186
204.687	6.19556
208.061	5.73904
211.436	4.69495
214.811	9.32629
218.186	5.61023
221.561	6.13278
224.936	3.25604
228.31	3.65897
231.685	9.34528
235.06	4.66849
238.435	8.28162
241.81	15.811
245.185	11.3472
248.559	13.4924
251.934	17.1849
255.309	17.2515
258.684	17.0337
262.059	17.6179
265.433	19.6928
268.808	16.9764
272.183	19.8629
275.558	20.4703
278.933	20.7982
282.308	18.1294
285.682	18.5025
289.057	16.4178
292.432	16.8809
295.807	15.0514
299.182	12.4738
302.556	13.4755
305.931	11.9523
309.306	11.6954
312.681	3.74655
316.056	4.00308
319.43	5.23764
322.805	6.57434
326.18	5.97931
329.555	3.72165
332.93	1.12463
336.305	0.563873
339.679	1.09641
343.054	1.45413
346.429	0.252106
349.804	1.19351
353.179	3.78152
356.553	2.72553
359.928	3.47357
363.303	1.8194
366.678	2.28375
370.053	6.38461
373.428	7.56619
376.802	7.6329
380.177	8.09253
383.552	9.58127
386.927	7.8353
390.302	5.55902
393.676	8.36023
397.051	8.29361
400.426	9.70285
403.801	3.73666
407.176	5.7886
410.55	1.72839
413.925	3.03336
417.3	2.56003
420.675	2.59131
424.05	3.58862
427.425	1.21719
430.799	1.20514
434.174	4.64719
437.549	3.36002
440.924	0.89801
444.299	0.715149
447.673	3.00766
451.048	5.28186
454.423	2.61459
457.798	4.18021
461.173	3.51212
464.548	1.60919
467.922	1.41205
471.297	3.42319
474.672	0.367188
478.047	2.47192
481.422	3.29309
484.796	1.84729
488.171	3.0928
491.546	1.79038
494.921	1.48938
498.296	0.794525
501.671	2.3793
505.045	0.12439
508.42	0.583252
511.795	1.23773
515.17	1.66718
518.545	0.187744
521.919	0.479736
525.294	1.67285
528.669	2.83283
532.044	4.30942
535.419	0.636902
538.794	1.56903
542.168	1.73691
545.543	2.50558
548.918	5.55838
552.293	4.27994
555.668	3.86844
559.043	2.10205
562.417	3.27249
565.792	0.06012
569.167	1.7421
572.542	5.47858
575.917	5.33597
579.291	6.29199
582.666	6.1243
586.041	6.43039
589.416	5.01462
592.791	5.16211
596.165	6.47821
599.54	5.26157
602.915	6.41165
606.29	9.02502
609.665	6.9169
613.04	4.87534
616.414	5.41568
619.789	5.57477
623.164	8.32941
626.539	8.65161
629.914	7.34772
633.288	7.54025
636.663	7.19254
640.038	8.33795
643.413	5.45392
646.788	5.24796
650.163	5.15631
653.537	6.45773
656.912	8.53494
660.287	7.04333
663.662	7.8717
667.037	5.68863
670.411	6.20096
673.786	5.14508
677.161	5.89664
680.536	3.83112
683.911	2.06787
687.285	0.552734
690.66	1.24426
694.035	1.15012
697.41	1.82321
700.785	0.831879
704.16	2.26251
707.534	0.530792
710.909	1.25253
714.284	1.12326
717.659	0.370331
721.034	0.696991
724.409	2.96921
727.783	0.639618
731.158	2.52206
734.533	0.463776
737.908	0.070129
741.283	2.26993
744.657	2.88254
748.032	3.66479
751.407	2.82291
754.782	4.81863
758.157	7.42346
761.532	6.74091
764.906	7.63342
768.281	8.54752
771.656	8.91647
775.031	9.76697
778.406	7.78686
781.78	11.3253
785.155	11.8504
788.53	14.6781
791.905	11.7055
795.28	14.4438
798.654	11.8063
802.029	14.8453
805.404	19.2944
808.779	19.3407
812.154	21.4003
815.529	25.692
818.903	28.7831
822.278	30.7976
825.653	35.1544
829.028	37.1455
832.403	42.8886
835.778	50.0705
839.152	52.1658
842.527	60.9689
845.902	67.4814
849.277	75.0316
852.652	90.2875
856.026	100.487
859.401	112.687
862.776	124.215
866.151	130.403
869.526	129.849
872.9	121.719
876.275	100.63
879.65	76.9989
883.025	54.4518
886.4	34.5115
889.774	21.1364
893.149	10.4634
896.524	5.98611
899.899	2.45319
903.274	0.731628
906.649	2.36951
910.023	1.03909
913.398	0.979736
916.773	1.92438
920.148	0.168549
923.523	0.185974
926.898	0.116211
930.272	2.37412
933.647	3.17117
937.022	2.17172
940.397	2.13327
943.772	1.47235
947.146	1.47427
950.521	3.21527
953.896	4.66821
957.271	3.73694
960.646	3.27026
964.02	4.0094
967.395	5.86224
970.77	5.54922
974.145	7.79086
977.52	5.52063
980.895	8.323
984.269	2.73672
987.644	5.35272
991.019	5.26456
994.394	4.33847
997.769	2.57523
1001.14	2.96768
1004.52	3.81631
1007.89	2.21454
1011.27	4.52762
1014.64	3.09244
1018.02	6.87415
1021.39	6.65411
1024.77	0.201569
1028.14	4.23068
1031.52	0.18335
1034.89	2.6055
1038.27	4.81064
1041.64	3.82016
1045.02	3.5094
1048.39	3.58823
1051.77	2.89062
1055.14	5.1853
1058.52	3.86832
1061.89	2.35327
1065.27	1.53381
1068.64	0.937653
1072.02	1.07056
1075.39	1.16379
1078.76	2.48743
1082.14	2.77762
1085.51	3.38345
1088.89	1.43729
1092.26	0.41626
1095.64	2.75754
1099.01	1.46802
1102.39	0.446045
1105.76	2.69022
1109.14	1.09854
1112.51	0.518402
1115.89	2.08304
1119.26	2.02527
1122.64	1.57318
1126.01	0.69931
1129.39	4.94754
1132.76	1.3884
1136.14	3.55844
1139.51	1.82669
1142.89	4.24234
1146.26	0.287415
1149.63	2.60535
1153.01	1.09235
1156.38	1.82867
1159.76	2.35373
1163.13	3.96783
1166.51	4.2088
1169.88	1.15851
1173.26	6.35998
1176.63	2.21542
1180.01	0.323395
1183.38	1.94605
1186.76	0.966278
1190.13	3.54477
1193.51	3.05594
1196.88	1.07718
1200.26	2.11978
1203.63	0.7258
1207.01	2.94592
1210.38	2.8645
1213.76	2.79755
1217.13	1.48587
1220.51	0.923126
1223.88	0.628998
1227.26	1.9928
1230.63	4.47513
1234.01	2.02924
1237.38	1.58173
1240.76	1.77002
1244.13	1.3168
1247.51	1.51233
1250.88	3.42636
1254.26	3.44537
1257.63	1.87491
1261	2.56146
1264.38	3.20999
1267.75	0.376404
1271.13	4.43805
1274.5	3.80991
1277.88	2.06058
1281.25	3.07269
1284.63	1.37634
1288	0.937073
1291.38	3.63361
1294.75	4.00024
1298.13	0.156403
1301.5	3.63248
