Measurement: Raman, 514 nm, unoriented, Raman Data Processed
Mineral: Columbite-(Fe)
Rruff sample: R050348
Ideal chemistry: Fe^2+^Nb^5+^_2_O_6_
Locality: Lord Hill mine, Stoneham, Oxford County, Maine, USA
Source: California Institute of Technology
Description: Black fragment
Measured chemistry: (Fe^2+^_0.69_Mn^2+^_0.30_Ti_0.01_)(Nb_0.89_Ta_0.10_Ti_0.01_)_2_O_6_
Raman shift (cm-1)	intensity
121.203	0
125.369	671.828
129.534	2113.31
133.696	3295.95
137.857	3750.27
142.016	2549.7
146.172	1146.02
150.327	112.988
154.48	66.0566
158.63	19.0684
162.779	90.6074
166.926	412.16
171.07	309.969
175.213	683.769
179.354	403.338
183.493	123.475
187.63	179.514
191.765	392.023
195.898	268.688
200.029	877.502
204.158	1027.49
208.285	914.711
212.41	402.68
216.533	93.7207
220.654	69.7559
224.773	28.6172
228.891	100.791
233.006	415.062
237.119	337.312
241.231	623.096
245.34	911.445
249.448	936.658
253.553	828.477
257.657	874.256
261.758	965.477
265.858	942.994
269.956	612.18
274.052	711.391
278.146	506.721
282.237	213.172
286.327	341.047
290.416	283.898
294.502	249.201
298.586	138.902
302.668	142.85
306.749	147.727
310.827	131.266
314.903	108.318
318.978	230.816
323.051	34.5938
327.121	41.4551
331.19	112.742
335.257	373.316
339.322	133.934
343.385	224.062
347.446	238.062
351.505	458.758
355.563	531.394
359.618	358.293
363.672	194.379
367.723	484.797
371.773	1079.55
375.821	891.441
379.866	1199.14
383.91	1129.73
387.952	1508.48
391.992	1418.47
396.031	1087.99
400.067	1052.94
404.101	774.414
408.134	593.547
412.165	428.856
416.193	386.16
420.22	633.66
424.245	239.629
428.268	487.484
432.289	60.5078
436.309	185.566
440.326	280.922
444.342	576.094
448.355	262.918
452.367	130.414
456.377	310.613
460.385	216.625
464.391	310.027
468.395	459.188
472.398	152.074
476.398	199.969
480.397	469.156
484.394	476.262
488.389	494.723
492.382	567.343
496.373	451.839
500.362	574.092
504.349	402.664
508.335	450.477
512.319	956.195
516.3	1047.16
520.28	1260.28
524.259	1308.27
528.235	1418.66
532.209	1305.05
536.182	1208.47
540.152	1315.5
544.121	305.336
548.088	838.754
552.053	667.57
556.017	239.966
559.978	384.951
563.938	326.914
567.895	74.8477
571.851	214.312
575.805	228.519
579.758	237.504
583.708	615.766
587.657	371.758
591.603	332.5
595.548	582.793
599.491	227.863
603.432	336.414
607.372	623.129
611.309	170.852
615.245	340.617
619.179	153.719
623.111	423.113
627.041	227.547
630.97	161.168
634.896	151.156
638.821	123.773
642.744	274.656
646.665	115.723
650.584	751
654.502	79.6406
658.418	100.914
662.331	29.2227
666.244	38.1602
670.154	301.18
674.062	490.609
677.969	308.117
681.874	57.1094
685.777	77.5195
689.678	251.984
693.577	157.289
697.475	381.535
701.371	383.621
705.265	716.926
709.157	76.4414
713.047	786.168
716.936	492.106
720.823	973.262
724.708	802.945
728.591	586.86
732.472	959.285
736.352	1046.24
740.23	1176.84
744.106	1280.41
747.98	1193.23
751.853	1564.3
755.723	1354.62
759.592	1239.21
763.459	1894.05
767.325	1892.13
771.188	1875.47
775.05	1671.06
778.91	1894.33
782.768	1857.26
786.625	2336.59
790.479	2133.98
794.332	1967.31
798.183	2114.3
802.033	2271.74
805.88	1808.69
809.726	2496.17
813.57	2527.34
817.413	2690.12
821.253	3059.25
825.092	3149.49
828.929	3408.28
832.764	3532.73
836.598	4083.24
840.429	4878
844.259	5540.35
848.088	6848.39
851.914	7780.09
855.739	9551.11
859.562	11467.6
863.383	13855.3
867.203	16823.3
871.02	16793.5
874.836	15155
878.65	11800.8
882.463	8018.85
886.274	5366.26
890.083	3407
893.89	2342.74
897.695	1680.62
901.499	1514.63
905.301	608.762
909.102	551.016
912.9	842.16
916.697	580.559
920.492	475.246
924.285	491.023
928.077	1425.54
931.867	679.219
935.655	462.09
939.442	109.016
943.226	260.008
947.009	299
950.791	79.0273
954.57	142.785
958.348	277.394
962.124	88.9062
965.899	52.2852
969.671	75.4062
973.442	54.0547
977.211	404.773
980.979	252.836
984.745	399.348
988.509	382.439
992.271	216.949
996.032	279.992
999.791	134.773
1003.55	308.297
1007.3	447.547
1011.06	447.887
1014.81	352.176
1018.56	631.906
1022.31	446.582
1026.06	586.664
1029.8	544.113
1033.55	293.535
1037.29	344.723
1041.03	845.754
1044.77	840.867
1048.5	881.359
1052.24	913.09
1055.97	491.496
1059.7	780.551
1063.43	908.293
1067.16	416.07
1070.89	777.941
1074.61	717.371
1078.34	541.324
1082.06	830.242
1085.78	656.359
1089.5	722.445
1093.21	727.023
1096.93	802.668
1100.64	591.906
1104.35	448.981
1108.06	757.996
1111.77	530.152
1115.48	493.981
1119.18	373.992
1122.89	745.539
1126.59	199.231
1130.29	508.199
1133.99	112.984
1137.68	103.781
1141.38	151.023
1145.07	192.136
1148.76	176.883
1152.45	315.195
1156.14	260.449
1159.83	269.922
1163.51	343.664
1167.19	152.84
1170.88	273.082
1174.56	388.633
1178.23	137.238
1181.91	12.5586
1185.59	251.57
1189.26	468.836
1192.93	602.754
1196.6	219.637
1200.27	442.93
1203.94	110.894
1207.6	613.629
1211.27	590.574
1214.93	530.066
1218.59	847.285
1222.25	822.375
1225.9	401.117
1229.56	317.848
1233.21	447.945
1236.86	490.031
1240.51	861.914
1244.16	721.602
1247.81	788.106
1251.45	763.926
1255.1	441.473
1258.74	46.4336
1262.38	285.234
1266.02	537.953
1269.66	372.668
1273.29	245.516
1276.93	191.582
1280.56	350.539
1284.19	160.106
1287.82	206.644
1291.45	558.731
1295.07	315.547
1298.7	189.184
1302.32	293.871
1305.94	115.828
1309.56	33.1523
1313.18	367.195
1316.8	290.379
1320.41	485.406
1324.02	626.117
1327.63	290.391
1331.24	275.106
1334.85	431.324
1338.46	488.66
1342.06	537.621
1345.67	728.074
1349.27	516.445
1352.87	671.219
1356.47	510.449
1360.07	359.871
1363.66	633.863
1367.25	835.535
1370.85	556.359
1374.44	471.301
1378.03	735.203
1381.61	419.457
1385.2	739.754
1388.78	463.277
1392.37	314.547
1395.95	288.356
1399.53	747.434
1403.1	430.766
1406.68	593.773
1410.26	746.941
1413.83	411.598
1417.4	570.871
1420.97	479.176
1424.54	407.336
1428.1	311.746
1431.67	96.8359
1435.23	0
