Measurement: Raman, 532 nm, unoriented, Raman Data Processed
Mineral: Comancheite
Rruff sample: R060734
Ideal chemistry: Hg^2+^_55_N^3-^_24_(N^3-^H_2_,OH)_4_(Cl,Br)_34_
Locality: Terlinguia, Texas, USA
Source: Bob Jenkins
Description: Radiating sprays of reddish-brown prismatic crystals associated with colorless calcite
Raman shift (cm-1)	intensity
126.826	0
130.201	156.789
133.576	906.009
136.951	2098.41
140.325	2299.37
143.7	2081.69
147.075	1570.72
150.45	1076.99
153.824	843.778
157.199	885.135
160.574	1161.86
163.949	1706
167.324	1814.76
170.699	1533.29
174.073	1026.49
177.448	984.224
180.823	1163.13
184.198	1248.68
187.573	538.648
190.947	180.914
194.322	156.73
197.697	192.919
201.072	90.6231
204.447	116.19
207.822	405.657
211.196	643.859
214.571	720.502
217.946	829.011
221.321	694.184
224.696	530.193
228.07	367.559
231.445	370.733
234.82	306.259
238.195	264.448
241.57	326.145
244.945	408.475
248.319	439.489
251.694	421.293
255.069	330.752
258.444	294.302
261.819	313.612
265.193	357.842
268.568	386.948
271.943	422.382
275.318	439.986
278.693	589.658
282.068	756.163
285.442	905.589
288.817	1062.48
292.192	1203.56
295.567	1330.29
298.942	1353.79
302.316	1363.59
305.691	1301.08
309.066	1095.03
312.441	820.953
315.816	557.904
319.19	332.847
322.565	200.307
325.94	108.191
329.315	114.856
332.69	25.3911
336.065	23.8394
339.439	15.7271
342.814	17.4556
346.189	6.98731
349.564	47.6982
352.939	30.6113
356.313	52.3931
359.688	8.33447
363.063	26.1782
366.438	28.6245
369.813	0.622559
373.188	3.59912
376.562	31.5459
379.937	77.064
383.312	8.41504
386.687	44.2144
390.062	86.4146
393.436	85.7739
396.811	62.8882
400.186	21.4023
403.561	23.6401
406.936	53.4976
410.31	68.0347
413.685	120.324
417.06	203.456
420.435	150.679
423.81	192.231
427.185	165.945
430.559	132.373
433.934	165.727
437.309	157.173
440.684	144.232
444.059	144.609
447.433	107.558
450.808	127.314
454.183	126.253
457.558	130.491
460.933	87.6445
464.307	12.646
467.682	47.581
471.057	30.5444
474.432	42.3457
477.807	51.3301
481.181	99.9228
484.556	31.1016
487.931	9.896
491.306	31.3628
494.681	40.7388
498.056	126.138
501.43	145.996
504.805	336.667
508.18	466.332
511.555	663.625
514.93	809.695
518.305	989.467
521.679	1257.78
525.054	1410.24
528.429	1551.36
531.804	1595.97
535.179	1614.21
538.553	1641.39
541.928	1716.31
545.303	1752.68
548.678	1814.46
552.053	1774.17
555.427	1845.9
558.802	2019.29
562.177	2044.46
565.552	2108.77
568.927	2145.2
572.302	2093.78
575.676	2004.5
579.051	1875.54
582.426	1687.29
585.801	1489.69
589.176	1272.38
592.55	901.757
595.925	767.768
599.3	587.098
602.675	505.449
606.05	469.325
609.424	446.617
612.799	396.452
616.174	404.309
619.549	371.392
622.924	464.888
626.299	414.1
629.673	408.213
633.048	330.743
636.423	277.807
639.798	240.006
643.173	130.844
646.547	106.719
649.922	66.0547
653.297	18.5615
656.672	43.2378
660.047	11.9658
663.422	15.7329
666.796	16.4277
670.171	23.1777
673.546	11.7183
676.921	71.1733
680.296	6.16553
683.67	4.97461
687.045	19.5098
690.42	8.31934
693.795	38.1992
697.17	6.521
700.544	42.2935
703.919	22.646
707.294	70.8662
710.669	76.4644
714.044	122.913
717.419	84.4482
720.793	181.766
724.168	217.462
727.543	212.515
730.918	229.334
734.293	298.986
737.667	320.455
741.042	247.801
744.417	264.189
747.792	235.603
751.167	260.591
754.542	137.83
757.916	172.669
761.291	130.619
764.666	183.428
768.041	179.472
771.416	198.983
774.79	123.128
778.165	162.836
781.54	161.965
784.915	136.84
788.29	118.612
791.664	128.607
795.039	84.3584
798.414	69.8398
801.789	76.0352
805.164	56.4268
808.539	13.0767
811.913	85.3574
815.288	40.3115
818.663	136.393
822.038	44.3355
825.413	73.0772
828.787	60.6118
832.162	2.66992
835.537	18.1743
838.912	19.165
842.287	17.0513
845.661	60.3901
849.036	19.9482
852.411	24.7886
855.786	44.9927
859.161	108.18
862.536	3.80859
865.91	102.634
869.285	11.0815
872.66	27.2832
876.035	0.304688
879.41	60.5098
882.784	1.86035
886.159	61.9458
889.534	17.6094
892.909	98.811
896.284	96.5845
899.659	33.2266
903.033	44.8262
906.408	47.0024
909.783	30.5967
913.158	10.1069
916.533	60.1958
919.907	9.88232
923.282	43.7602
926.657	57.4116
930.032	48.5855
933.407	22.9927
936.781	1.16553
940.156	53.7593
943.531	68.4795
946.906	98.2881
950.281	78.3267
953.656	57.6221
957.03	96.7256
960.405	42.7134
963.78	42.6025
967.155	9.61377
970.53	50.0859
973.904	57.4341
977.279	96.2075
980.654	82.3784
984.029	36.5166
987.404	62.8477
990.779	11.9985
994.153	10.9502
997.528	7.53125
1000.9	0.219238
1004.28	16.2632
1007.65	34.5684
1011.03	27.1865
1014.4	21.8027
1017.78	52.477
1021.15	97.0708
1024.53	97.4844
1027.9	103.284
1031.28	121.845
1034.65	78.2964
1038.03	54.4395
1041.4	81.8799
1044.78	28.6104
1048.15	22.8208
1051.53	4.2207
1054.9	66.96
1058.28	42.9336
1061.65	38.6494
1065.02	11.9629
1068.4	26.9854
1071.77	43.1362
1075.15	29.1289
1078.52	30.7681
1081.9	9.80225
1085.27	13.4702
1088.65	23.1641
1092.02	3.6875
1095.4	79.3359
1098.77	34.9302
1102.15	48.4844
1105.52	62.251
1108.9	98.2939
1112.27	70.4619
1115.65	12.5942
1119.02	16.5327
1122.4	55.5137
1125.77	6.22412
1129.15	104.394
1132.52	41.8071
1135.9	37.8057
1139.27	74.2949
1142.64	93.083
1146.02	20.8008
1149.39	53.8984
1152.77	71.71
1156.14	25.9311
1159.52	17.0806
1162.89	46.436
1166.27	32.6304
1169.64	22.0942
1173.02	66.3394
1176.39	42.4746
1179.77	47.6567
1183.14	76.6528
1186.52	73.8516
1189.89	26.9238
1193.27	36.9219
1196.64	85.2524
1200.02	35.6113
1203.39	2.5293
1206.77	166.675
1210.14	101.368
1213.52	72.7593
1216.89	56.5557
1220.27	68.3696
1223.64	28.6753
1227.02	2.64941
1230.39	54.77
1233.77	24.98
1237.14	48.0493
1240.52	63.4546
1243.89	80.4141
1247.26	122.549
1250.64	90.0161
1254.01	82.9082
1257.39	56.0469
1260.76	72.1318
1264.14	26.1782
1267.51	10.3911
1270.89	83.7398
1274.26	62.5742
1277.64	54.0142
1281.01	20.5781
1284.39	16.8447
