Measurement: Raman, 532 nm, unoriented, Raman Data Processed
Mineral: Congolite
Rruff sample: R070149
Ideal chemistry: Fe^2+^_3_B_7_O_13_Cl
Locality: Lower Saxony, Germany
Source: James Shigley
Description: Light brown pseudocubic crystal
Measured chemistry: light core: (Fe^2+^_2.32_Mg_0.52_Mn_0.16_)_Σ=3_B_7_O_13_Cl_1.00_ ; gray rim: (Fe^2+^_2.16_Mg_0.77_Mn_0.17_)_Σ=3_B_7_O_13_Cl_1.00_ ; B estimated by difference and stoichiometry
Raman shift (cm-1)	intensity
164.645	0
167.538	113.398
170.431	327.211
173.323	245.391
176.216	165.281
179.109	169.781
182.001	118.617
184.894	18.2617
187.787	174.254
190.679	249.129
193.572	574.285
196.465	551.359
199.358	671.988
202.25	668.426
205.143	734.109
208.036	766.695
210.928	1032.22
213.821	913.953
216.714	802.418
219.607	805.562
222.499	913.383
225.392	621.758
228.285	757.481
231.177	575.969
234.07	459.086
236.963	527.668
239.855	443.668
242.748	476.695
245.641	387.914
248.534	492.242
251.426	494.656
254.319	500.074
257.212	448.398
260.104	440.984
262.997	433.254
265.89	388.793
268.782	344.902
271.675	316.949
274.568	228.348
277.461	203.992
280.353	190.953
283.246	215.004
286.139	43.1016
289.031	215.07
291.924	87.5859
294.817	196.82
297.709	237.914
300.602	75.7148
303.495	204.438
306.387	127.484
309.28	149.445
312.173	98.2188
315.066	121.461
317.958	26.0195
320.851	96.5742
323.744	199.398
326.637	6.92188
329.529	20.4219
332.422	81.9336
335.315	23.3984
338.207	274.781
341.1	351.356
343.993	427.043
346.885	749.09
349.778	890.086
352.671	568.758
355.563	314.648
358.456	117.562
361.349	330.703
364.242	408.16
367.134	399.769
370.027	801.359
372.92	854.031
375.812	975.594
378.705	1135.23
381.598	1190.43
384.49	942.977
387.383	701.965
390.276	342.516
393.169	356.184
396.061	364.617
398.954	170.758
401.847	98.4727
404.739	8.08984
407.632	13.0664
410.525	147.469
413.418	394.375
416.31	73.8086
419.203	2.24219
422.096	220.074
424.988	139.981
427.881	349.59
430.774	315.449
433.666	385.277
436.559	277.949
439.452	346.543
442.344	180.422
445.237	349.16
448.13	319.481
451.023	369.902
453.915	242.809
456.808	316.816
459.701	89.5156
462.593	59.3867
465.486	8.6875
468.379	118.738
471.272	76.9336
474.164	80.9023
477.057	20.9766
479.95	117.84
482.842	68.1484
485.735	142.996
488.628	45.918
491.52	167.676
494.413	28.5742
497.306	256.098
500.199	40.4922
503.091	174.785
505.984	324.949
508.877	304.41
511.769	432.926
514.662	463.312
517.555	754.016
520.447	814.133
523.34	952.426
526.233	670.043
529.125	553.875
532.018	209.004
534.911	261.531
537.804	167.734
540.696	141.992
543.589	286.117
546.482	305.121
549.375	522.57
552.267	639.656
555.16	735.484
558.053	367.367
560.945	291.828
563.838	96.4102
566.731	249.988
569.623	61.2578
572.516	109.039
575.409	9.86328
578.302	25.918
581.194	148.398
584.087	3.10156
586.98	183.203
589.872	123.898
592.765	146.219
595.658	287.445
598.55	334.644
601.443	532.785
604.336	595.668
607.229	960.914
610.121	783.488
613.014	746.473
615.907	688.656
618.799	786.32
621.692	1109.73
624.585	939.566
627.477	1094.16
630.37	1079.5
633.263	1686.86
636.155	2053.66
639.048	2753.66
641.941	3245.36
644.834	3068.27
647.726	2140.93
650.619	1392.78
653.512	1181.18
656.404	990.25
659.297	1218.56
662.19	1842.12
665.083	2029.87
667.975	2146.3
670.868	1882.68
673.761	1369.44
676.653	914.684
679.546	646.176
682.439	199.879
685.332	227.242
688.224	33.2734
691.117	93.2539
694.01	155.34
696.902	82.5703
699.795	22.5938
702.688	12.1406
705.58	231.078
708.473	156.199
711.366	232.723
714.259	349.137
717.151	239.793
720.044	411.547
722.937	250.68
725.829	437.375
728.722	354.019
731.615	406.676
734.507	97.7539
737.4	55.9688
740.293	254.051
743.186	47.4336
746.078	70.625
748.971	2.20703
751.864	41.5078
754.756	138.688
757.649	67.082
760.542	51.6445
763.434	45.0781
766.327	324.672
769.22	70.6484
772.112	269.852
775.005	131.137
777.898	137.375
780.791	181.488
783.683	184.008
786.576	188.332
789.469	365.394
792.361	438.074
795.254	243.473
798.147	327.336
801.04	249.867
803.932	199.438
806.825	9.17578
809.718	118.109
812.61	175.734
815.503	207.25
818.396	70.5703
821.288	227.984
824.181	220.508
827.074	31.25
829.967	165.664
832.859	63.0547
835.752	225.414
838.645	91.6094
841.537	150.742
844.43	247.914
847.323	241.594
850.216	277.82
853.108	386.109
856.001	372.492
858.894	337.078
861.786	370.25
864.679	257.859
867.572	315.398
870.464	331.086
873.357	233.883
876.25	117.18
879.143	347.484
882.035	212.031
884.928	120.422
887.821	208.383
890.713	290.508
893.606	381.406
896.499	323.578
899.391	264.797
902.284	237.047
905.177	2.85938
908.069	267.82
910.962	313.359
913.855	196.172
916.748	296.547
919.64	233.945
922.533	243.383
925.426	243.477
928.318	211.18
931.211	282.078
934.104	155.422
936.996	47.0781
939.889	68.8203
942.782	80.75
945.675	252.211
948.567	43.9922
951.46	292.266
954.353	386.359
957.245	431.773
960.138	434.945
963.031	490.617
965.923	358.172
968.816	545.859
971.709	441.445
974.602	426.328
977.494	331.445
980.387	293.789
983.28	278.852
986.172	166.914
989.065	370.078
991.958	417.258
994.851	293.781
997.743	201.492
1000.64	98.2344
1003.53	215.023
1006.42	0.664063
1009.31	329.172
1012.21	243.695
1015.1	213.594
1017.99	179.773
1020.88	70.0703
1023.78	96.3125
1026.67	184.602
1029.56	234.75
1032.46	259.734
1035.35	425.398
1038.24	357.82
1041.13	456.883
1044.03	483.477
1046.92	868.656
1049.81	902.695
1052.7	760.766
1055.6	190.406
1058.49	272.219
1061.38	213.102
1064.28	340.641
1067.17	85.5625
1070.06	203.109
1072.95	329.656
1075.85	188.586
1078.74	8.48438
1081.63	40
1084.52	381.727
1087.42	245.305
1090.31	164.773
1093.2	67.4609
1096.1	39.0781
1098.99	305.141
1101.88	147.484
1104.77	84.5
1107.67	191.922
1110.56	11.0938
1113.45	138.961
1116.34	45.1562
1119.24	93.8906
1122.13	233.648
1125.02	117.82
1127.91	273.516
1130.81	177.289
1133.7	121.039
1136.59	260.383
1139.49	257.875
1142.38	466.469
1145.27	408.414
1148.16	499.391
1151.06	872.445
1153.95	1038.23
1156.84	1075.08
1159.73	950.766
1162.63	965.352
1165.52	686.297
1168.41	734.242
1171.31	640.195
1174.2	325.914
1177.09	369.953
1179.98	287.305
1182.88	317.75
1185.77	385.227
1188.66	225.281
1191.55	26.3984
1194.45	236.656
1197.34	151.016
1200.23	8.10156
1203.12	60.9219
1206.02	51.8203
1208.91	245.812
1211.8	149.359
1214.7	227.039
1217.59	381.094
1220.48	568.477
1223.37	465.727
1226.27	407.258
1229.16	542.039
1232.05	342.523
1234.94	212.148
1237.84	285.445
1240.73	235.367
1243.62	240.469
1246.52	138.07
1249.41	391.297
1252.3	162.195
1255.19	297
1258.09	232.562
1260.98	155.664
1263.87	429.914
1266.77	397.648
1269.66	75.1562
1272.55	422.484
1275.44	348.703
1278.34	138.805
1281.23	182.211
1284.12	324.797
1287.01	297.352
1289.91	328.25
1292.8	326.414
1295.69	164.555
1298.58	381.469
1301.48	103.227
1304.37	292.766
1307.26	148.859
1310.15	361.664
1313.05	5.96094
1315.94	310.234
