Measurement: Raman, 780 nm, unoriented, Raman Data Processed
Mineral: Congolite
Rruff sample: R110153
Ideal chemistry: Fe^2+^_3_B_7_O_13_Cl
Locality: Potash Corporation of Saskatchewan mine, Penobsquis, Kings County, New Brunswick, Canada
Source: Donald M Doell and Brian Roulston
Description: Colorless cubes, extracted by dissolving the matrix of sylvite/halite, associated with strontioginorite R110149, howlite R110150, volkovskite R110151, ruitenbergite R110152, and hilgardite
Raman shift (cm-1)	intensity
157.171	0
160.064	1.60809
162.957	1.25391
165.85	1.94556
168.742	5.22528
171.635	1.20062
174.528	2.85248
177.42	4.2569
180.313	2.07855
183.206	3.39136
186.098	0.020752
188.991	0.18396
191.884	1.06531
194.776	3.25061
197.669	0.138306
200.562	0.661316
203.455	0.511292
206.347	2.58746
209.24	4.32397
212.133	4.63861
215.025	2.86108
217.918	4.90961
220.811	2.3703
223.703	1.16589
226.596	4.74542
229.489	3.67426
232.382	2.58154
235.274	1.28571
238.167	4.29858
241.06	3.73077
243.952	6.65533
246.845	7.03186
249.738	9.98981
252.631	4.1983
255.523	0.753967
258.416	0.818176
261.309	6.4425
264.201	5.97064
267.094	4.98792
269.987	2.4372
272.879	5.04236
275.772	5.5556
278.665	7.07678
281.558	2.90643
284.45	3.41577
287.343	3.19769
290.236	3.47192
293.128	6.08899
296.021	3.66553
298.914	1.61029
301.806	0.50177
304.699	1.4826
307.592	4.26788
310.485	2.25659
313.377	0.766113
316.27	4.90375
319.163	0.400513
322.055	2.56635
324.948	6.76617
327.841	1.92151
330.733	5.04565
333.626	3.86902
336.519	8.10028
339.411	9.07184
342.304	8.24988
345.197	6.33197
348.09	8.64026
350.982	11.2404
353.875	13.3519
356.768	18.4314
359.66	21.9402
362.553	19.8395
365.446	17.824
368.339	19.1401
371.231	20.0626
374.124	13.9299
377.017	12.6044
379.909	11.3188
382.802	7.08704
385.695	6.90424
388.587	10.8904
391.48	4.92511
394.373	3.22418
397.265	6.14691
400.158	2.11035
403.051	3.06763
405.944	3.54358
408.836	1.53686
411.729	3.86322
414.622	1.74225
417.514	1.28998
420.407	3.0271
423.3	1.53076
426.192	3.37115
429.085	0.115784
431.978	1.83234
434.871	0.439819
437.763	2.87213
440.656	0.312561
443.549	1.14111
446.441	2.23743
449.334	7.52631
452.227	5.80304
455.12	2.05664
458.012	3.88092
460.905	5.05554
463.798	6.9978
466.69	2.02002
469.583	3.33521
472.476	6.43555
475.368	6.86585
478.261	4.44684
481.154	4.78375
484.046	4.61371
486.939	0.563232
489.832	3.63599
492.725	2.72565
495.617	7.89014
498.51	6.47821
501.403	5.69983
504.295	8.11066
507.188	9.06061
510.081	8.92383
512.973	9.57947
515.866	8.98676
518.759	6.11517
521.652	4.02979
524.544	0.950684
527.437	2.09583
530.33	3.81567
533.222	0.093079
536.115	4.90491
539.008	3.65063
541.9	1.31647
544.793	0.309998
547.686	0.47876
550.579	0.681335
553.471	2.34808
556.364	0.723694
559.257	2.3783
562.149	0.234802
565.042	1.24689
567.935	0.075562
570.827	2.57129
573.72	0.67334
576.613	1.40399
579.506	2.77911
582.398	0.942078
585.291	3.76196
588.184	2.66156
591.076	1.77832
593.969	3.31085
596.862	8.67847
599.755	5.60248
602.647	7.24353
605.54	8.02148
608.433	7.91498
611.325	13.5184
614.218	13.0746
617.111	13.3231
620.003	15.3923
622.896	16.998
625.789	20.8565
628.682	25.9166
631.574	29.5261
634.467	34.2982
637.36	37.4098
640.252	38.2694
643.145	40.2613
646.038	43.5613
648.93	41.8614
651.823	42.1882
654.716	36.5881
657.609	33.8026
660.501	29.4273
663.394	23.793
666.287	19.3418
669.179	18.0069
672.072	12.8866
674.965	10.7201
677.857	7.77484
680.75	6.9975
683.643	3.86243
686.535	3.93451
689.428	0.554504
692.321	2.33807
695.214	3.9014
698.106	0.313568
700.999	3.18424
703.892	1.94601
706.784	4.58118
709.677	1.1106
712.57	2.418
715.462	1.46164
718.355	3.77518
721.248	3.86832
724.141	3.99414
727.033	1.28549
729.926	2.9017
732.819	3.017
735.711	0.393188
738.604	1.34946
741.497	0.696503
744.389	0.648224
747.282	3.04929
750.175	4.73056
753.068	0.149872
755.96	0.409698
758.853	0.404877
761.746	0.702759
764.638	2.25485
767.531	2.19235
770.424	0.316681
773.317	1.64078
776.209	0.362305
779.102	3.05191
781.995	1.67633
784.887	0.572632
787.78	2.06491
790.673	4.32153
793.565	8.33038
796.458	3.05197
799.351	4.90848
802.244	6.56076
805.136	4.19046
808.029	5.38516
810.922	6.86401
813.814	5.91028
816.707	7.39032
819.6	7.77606
822.492	6.96201
825.385	7.39175
828.278	9.01718
831.17	8.13855
834.063	7.57062
836.956	9.4176
839.849	8.77463
842.741	9.92239
845.634	6.18103
848.527	9.39615
851.419	8.00879
854.312	8.17691
857.205	9.47263
860.097	8.8558
862.99	6.49945
865.883	8.37723
868.776	7.58948
871.668	7.1582
874.561	6.6015
877.454	6.33408
880.346	5.50028
883.239	7.30951
886.132	5.42984
889.024	3.76257
891.917	6.27899
894.81	1.00555
897.703	0.46225
900.595	2.64319
903.488	1.88382
906.381	2.53293
909.273	3.78702
912.166	1.13791
915.059	3.08432
917.952	2.92645
920.844	5.9581
923.737	0.908325
926.63	1.75818
929.522	1.92194
932.415	1.3732
935.308	2.01282
938.2	3.18509
941.093	3.04013
943.986	0.026794
946.879	0.178558
949.771	2.59729
952.664	2.79953
955.557	5.16071
958.449	3.8429
961.342	2.85397
964.235	2.24921
967.127	2.49994
970.02	1.19763
972.913	1.95911
975.806	0.719025
978.698	2.38565
981.591	2.77667
984.484	4.60718
987.376	1.52115
990.269	4.98016
993.162	0.021729
996.054	3.93228
998.947	2.95108
1001.84	2.51147
1004.73	1.92035
1007.62	2.54819
1010.52	2.10699
1013.41	4.81433
1016.3	2.56348
1019.2	2.53854
1022.09	2.09738
1024.98	0.846313
1027.87	4.25839
1030.77	7.42706
1033.66	1.28863
1036.55	8.43164
1039.44	4.31531
1042.34	1.46399
1045.23	2.95728
1048.12	4.85644
1051.02	6.01767
1053.91	4.58612
1056.8	5.54703
1059.69	4.62289
1062.59	6.66562
1065.48	4.68698
1068.37	1.41251
1071.27	4.11386
1074.16	4.36356
1077.05	3.55203
1079.94	2.56869
1082.84	1.91202
1085.73	4.46326
1088.62	6.57443
1091.51	2.18396
1094.41	6.46219
1097.3	0.920074
1100.19	0.701782
1103.08	0.009125
1105.98	1.24094
1108.87	5.52896
1111.76	1.73288
1114.65	0.417725
1117.55	2.64279
1120.44	1.25674
1123.33	0.657318
1126.23	2.5256
1129.12	4.96378
1132.01	2.24551
1134.9	2.034
1137.8	2.35107
1140.69	3.86108
1143.58	2.29309
1146.47	5.82333
1149.37	5.56943
1152.26	5.12573
1155.15	3.40939
1158.05	4.30661
1160.94	3.47235
1163.83	4.11432
1166.72	3.84131
1169.62	6.6506
1172.51	3.36295
1175.4	4.2312
1178.3	5.23914
1181.19	4.96112
1184.08	0.40567
1186.97	5.98294
1189.87	4.70877
1192.76	8.78949
1195.65	6.62115
1198.54	5.03964
1201.44	3.60846
1204.33	4.59711
1207.22	2.992
1210.11	5.4852
1213.01	7.17487
1215.9	5.14566
1218.79	4.94196
1221.68	3.04086
1224.58	4.20193
1227.47	4.59192
1230.36	4.23767
1233.26	1.28153
1236.15	6.13135
1239.04	3.88605
1241.93	2.97861
1244.83	1.64145
1247.72	5.06421
1250.61	2.33853
1253.51	2.45416
1256.4	4.16324
1259.29	2.73575
1262.18	2.14838
1265.08	6.82101
1267.97	1.85602
1270.86	4.84445
1273.75	2.43127
1276.65	3.79633
1279.54	1.21799
1282.43	1.82706
1285.32	0
