Measurement: Raman, 532 nm, unoriented, Raman Data Processed
Mineral: Congolite
Rruff sample: R110153
Ideal chemistry: Fe^2+^_3_B_7_O_13_Cl
Locality: Potash Corporation of Saskatchewan mine, Penobsquis, Kings County, New Brunswick, Canada
Source: Donald M Doell and Brian Roulston
Description: Colorless cubes, extracted by dissolving the matrix of sylvite/halite, associated with strontioginorite R110149, howlite R110150, volkovskite R110151, ruitenbergite R110152, and hilgardite
Raman shift (cm-1)	intensity
208.611	0
211.504	3.74365
214.396	8.68823
217.289	25.5347
220.182	24.7866
223.074	45.1638
225.967	56.4429
228.86	60.1543
231.752	52.2048
234.645	45.0312
237.538	42.4912
240.43	33.5203
243.323	22.4797
246.216	15.1235
249.109	11.8648
252.001	15.9077
254.894	3.68799
257.787	15.4746
260.679	14.7376
263.572	9.97437
266.465	20.2127
269.358	14.0991
272.25	10.3716
275.143	22.4138
278.036	23.1885
280.928	21.1875
283.821	7.70142
286.714	1.38135
289.606	7.48804
292.499	4.97803
295.392	3.28833
298.284	4.73755
301.177	4.75464
304.07	18.6531
306.963	13.8249
309.855	13.9114
312.748	12.5906
315.641	12.4917
318.533	21.4834
321.426	15.3257
324.319	10.6001
327.212	7.6853
330.104	5.80005
332.997	3.77685
335.89	21.2063
338.782	31.0625
341.675	39.5166
344.568	50.1052
347.46	65.4287
350.353	71.6089
353.246	73.5476
356.139	67.4724
359.031	50.4863
361.924	35.6262
364.817	45.0388
367.709	75.3064
370.602	106.485
373.495	132.187
376.387	142.572
379.28	161.538
382.173	181.341
385.065	160.723
387.958	112.373
390.851	63.0996
393.744	44.2707
396.636	28.5811
399.529	22.3967
402.422	12.7722
405.314	16.0122
408.207	12.4412
411.1	17.6497
413.993	23.2293
416.885	14.1204
419.778	5.34204
422.671	2.89356
425.563	7.38013
428.456	25.4363
431.349	32.5642
434.241	23.344
437.134	16.6575
440.027	14.4727
442.92	19.793
445.812	13.9907
448.705	14.4373
451.598	11.2124
454.49	0.395752
457.383	6.83838
460.276	7.81299
463.168	14.529
466.061	5.10815
468.954	7.51416
471.846	1.16162
474.739	5.2063
477.632	10.1338
480.525	5.03711
483.417	9.77612
486.31	3.7229
489.203	9.45044
492.095	10.2627
494.988	26.6084
497.881	35.0981
500.774	33.7602
503.666	22.6265
506.559	35.4236
509.452	45.054
512.344	68.2822
515.237	77.4512
518.13	92.1682
521.022	102.48
523.915	115.241
526.808	103.915
529.701	76.1462
532.593	41.029
535.486	13.908
538.379	4.86743
541.271	4.11035
544.164	16.9551
547.057	16.709
549.949	38.0388
552.842	48.7803
555.735	58.5425
558.628	46.7117
561.52	37.4175
564.413	15.1143
567.306	13.9233
570.198	9.52612
573.091	10.4404
575.984	0.644531
578.876	0.481689
581.769	15.5271
584.662	17.2034
587.554	28.3579
590.447	31.0664
593.34	47.4605
596.232	40.5024
599.125	47.9739
602.018	63.801
604.911	81.2986
607.803	107.785
610.696	108.686
613.589	117.353
616.481	141.87
619.374	151.715
622.267	139.073
625.159	112.874
628.052	93.4109
630.945	98.2239
633.838	127.996
636.73	187.19
639.623	250.582
642.516	310.62
645.408	335.995
648.301	297.528
651.194	205.265
654.087	178.508
656.979	170.568
659.872	202.877
662.765	239.235
665.657	279.509
668.55	278.922
671.443	230.993
674.335	161.591
677.228	94.0073
680.121	54.5901
683.014	41.2288
685.906	22.0395
688.799	8.04004
691.692	6.21167
694.584	6.98926
697.477	15.1999
700.37	2.17261
703.263	5.00366
706.155	5.02637
709.048	17.6851
711.941	18.635
714.833	16.1072
717.726	7.84448
720.619	12.7964
723.511	28.4875
726.404	32.1279
729.297	38.1025
732.189	34.9155
735.082	19.731
737.975	13.5066
740.868	14.8931
743.76	3.75952
746.653	13.0984
749.546	3.41309
752.438	11.166
755.331	15.0525
758.224	17.4155
761.116	2.73315
764.009	5.80957
766.902	0.901611
769.795	3.76147
772.687	6.98169
775.58	4.0376
778.473	7.25586
781.365	19.5581
784.258	20.8535
787.151	22.3088
790.043	14.4487
792.936	43.0632
795.829	51.062
798.722	28.7827
801.614	24.5073
804.507	14.8569
807.4	15.3745
810.292	16.6768
813.185	11.9575
816.078	22.3984
818.971	21.4546
821.863	29.9868
824.756	15.4634
827.649	3.71973
830.541	0.838379
833.434	16.8174
836.327	7.73389
839.219	0.473145
842.112	14.9463
845.005	22.3955
847.898	24.1611
850.79	25.4922
853.683	41.6382
856.576	42.7119
859.468	40.456
862.361	22.7681
865.254	16.7153
868.146	1.06348
871.039	18.7866
873.932	18.6396
876.824	17.4307
879.717	1.39258
882.61	0.070313
885.503	9.72461
888.395	22.5874
891.288	18.3926
894.181	10.9219
897.073	3.01172
899.966	0.59082
902.859	2.86914
905.751	11.0361
908.644	19.6929
911.537	7.56934
914.43	15.3818
917.322	30.835
920.215	29.3579
923.108	27.6977
926	10.873
928.893	14.831
931.786	12.5552
934.678	5.87988
937.571	1.4209
940.464	0.30957
943.357	2.32031
946.249	16.0898
949.142	12.6401
952.035	5.90479
954.927	7.50244
957.82	7.21582
960.713	11.2905
963.606	17.5024
966.498	18.4839
969.391	21.8315
972.284	14.4121
975.176	1.40234
978.069	10.1494
980.962	7.92871
983.854	16.04
986.747	6.03613
989.64	12.1636
992.533	30.6148
995.425	16.9311
998.318	10.957
1001.21	7.57275
1004.1	2.9707
1007	14.3438
1009.89	11.4898
1012.78	0.224121
1015.67	9.8833
1018.57	10.0747
1021.46	21.9863
1024.35	5.50293
1027.24	5.16455
1030.14	1.32812
1033.03	14.9863
1035.92	28.1811
1038.82	26.979
1041.71	32.9019
1044.6	48.876
1047.49	57.9912
1050.39	76.1245
1053.28	73.0474
1056.17	70.9097
1059.07	63.7681
1061.96	46.9556
1064.85	45.8926
1067.74	41.707
1070.63	32.6514
1073.53	16.812
1076.42	20.0664
1079.31	4.45166
1082.21	5.37402
1085.1	10.375
1087.99	5.85352
1090.88	9.7876
1093.78	1.24805
1096.67	8.14893
1099.56	17.1294
1102.45	11.1528
1105.35	11.4185
1108.24	16.6079
1111.13	11.4819
1114.03	33.5059
1116.92	27.0244
1119.81	28.3735
1122.7	32.0898
1125.6	35.6846
1128.49	42.3682
1131.38	23.501
1134.28	47.377
1137.17	55.6426
1140.06	60.3447
1142.95	58.3711
1145.85	49.4873
1148.74	48.6685
1151.63	51.9805
1154.52	44.917
1157.42	44.1084
1160.31	47.8203
1163.2	63.9917
1166.09	47.1284
1168.99	23.02
1171.88	34.9141
1174.77	18.2749
1177.66	25.2666
1180.56	14.9419
1183.45	12.813
1186.34	22.8535
1189.24	17.8496
1192.13	19.9292
1195.02	7.12842
1197.91	9.70312
1200.81	17.5151
1203.7	14.833
1206.59	34.6187
1209.48	37.604
1212.38	40.8496
1215.27	35.5195
1218.16	23.9175
1221.06	31.5498
1223.95	32.8901
1226.84	37.4292
1229.73	31.5825
1232.63	22.1865
1235.52	8.68799
1238.41	3.50635
1241.31	3.40332
1244.2	5.92334
1247.09	7.6958
1249.98	1.35254
1252.88	4.22607
1255.77	7.53027
1258.66	17.4575
1261.55	15.9941
1264.45	17.5088
1267.34	13.7495
1270.23	23.0967
1273.12	11.8091
1276.02	10.2319
1278.91	6.58008
1281.8	12.9619
1284.69	6.61426
1287.59	11.8784
1290.48	0.69043
1293.37	3.10938
1296.27	21.2188
1299.16	18.2974
1302.05	12.0444
