Measurement: Raman, 532 nm, unoriented, Raman Data Processed
Mineral: Corkite
Rruff sample: R070403
Ideal chemistry: Pb^2+^Fe^3+^_3_(S^6+^O_4_)(PO_4_)(OH)_6_
Locality: Waldschacht mine (shaft 26), Neust√§dtel, Schneeberg District, Erzgebirge, Saxony, Germany
Source: Michael Scott
Description: Pale yellow globules
Raman shift (cm-1)	intensity
171.839	0
174.732	134.535
177.625	6.87207
180.517	29.918
183.41	3.99219
186.303	32.8076
189.195	84.9658
192.088	67.29
194.981	82.6348
197.874	162.747
200.766	345.458
203.659	372.543
206.552	552.551
209.444	609.81
212.337	868.814
215.23	1088.86
218.122	1230.37
221.015	1358.45
223.908	1447.84
226.8	1545.09
229.693	1488.19
232.586	1365.56
235.479	1236.36
238.371	1190.3
241.264	1033.53
244.157	954.51
247.049	884.752
249.942	696.655
252.835	720.382
255.727	628.653
258.62	540.959
261.513	610.366
264.406	485.239
267.298	440.205
270.191	469.047
273.084	424.807
275.976	366.455
278.869	194.998
281.762	313.062
284.655	202.065
287.547	98.8506
290.44	91.6094
293.333	64.6103
296.225	41.5566
299.118	44.8057
302.011	88.0713
304.904	4.59863
307.796	61.3975
310.689	0.27832
313.582	28.1445
316.474	118.07
319.367	130.526
322.26	168.312
325.152	176.809
328.045	245.365
330.938	287.371
333.83	325.251
336.723	295.538
339.616	315.343
342.509	307.623
345.401	205.832
348.294	307.237
351.187	113.523
354.079	64.6484
356.972	103.939
359.865	47.5664
362.757	67.8613
365.65	0.864258
368.543	14.8115
371.436	11.126
374.328	42.6865
377.221	38.5107
380.114	42.2305
383.006	24.9668
385.899	7.16211
388.792	7.72852
391.685	126.078
394.577	117.475
397.47	205.289
400.363	317.727
403.255	397.607
406.148	445.728
409.041	565.773
411.933	704.631
414.826	755.428
417.719	846.551
420.611	1020.96
423.504	1161.27
426.397	1281.55
429.29	1453.32
432.182	1746.82
435.075	1845.88
437.968	1936.08
440.86	1867.86
443.753	1610.45
446.646	1229.16
449.538	967.793
452.431	709.273
455.324	523.287
458.217	416.062
461.109	368.398
464.002	312.82
466.895	308.178
469.787	203.709
472.68	200.336
475.573	197.475
478.466	139.268
481.358	63.6504
484.251	70.2285
487.144	73.1191
490.036	26.7812
492.929	19.666
495.822	40.0137
498.714	45.8027
501.607	44.5
504.5	6.19141
507.393	39.8359
510.285	19.6953
513.178	20.0371
516.071	106.512
518.963	176.111
521.856	247.934
524.749	188.65
527.641	262.846
530.534	216.56
533.427	343.519
536.32	401.635
539.212	452.103
542.105	557.424
544.998	585.383
547.89	686.086
550.783	609.746
553.676	611.393
556.568	626.144
559.461	683.449
562.354	734.691
565.247	794.572
568.139	672.809
571.032	749.738
573.925	702.58
576.817	729.445
579.71	554.387
582.603	421.113
585.495	462.719
588.388	476.127
591.281	436.953
594.174	283.111
597.066	212.894
599.959	238.898
602.852	155.475
605.744	121.68
608.637	117.352
611.53	102.703
614.423	63.6758
617.315	57.6504
620.208	0.283203
623.101	28.1133
625.993	19.5547
628.886	26.0098
631.779	22.0684
634.671	63.5762
637.564	26.3145
640.457	31.9082
643.35	52.4023
646.242	20.5137
649.135	119.846
652.028	84.5019
654.92	112.945
657.813	150.826
660.706	202.793
663.598	2.91992
666.491	38.6387
669.384	96.4277
672.277	43.377
675.169	89.584
678.062	100.055
680.955	74.0469
683.847	36.3203
686.74	73.5879
689.633	53.7988
692.525	145.791
695.418	70.8008
698.311	85.2129
701.204	32.2148
704.096	137.209
706.989	33.1855
709.882	4.30273
712.774	141.486
715.667	184.938
718.56	90.3652
721.452	82.1699
724.345	38.6387
727.238	102.904
730.131	29.9277
733.023	54.5957
735.916	30.6934
738.809	56.1133
741.701	96.1055
744.594	21.0781
747.487	60.5645
750.38	15.8652
753.272	71.1094
756.165	47.9023
759.058	140.527
761.95	78.4531
764.843	139.176
767.736	13.7891
770.628	86.5527
773.521	47.1211
776.414	95.8555
779.307	160.266
782.199	57.9609
785.092	24.3496
787.985	224.326
790.877	68.291
793.77	37.25
796.663	85.4121
799.555	148.264
802.448	123.057
805.341	100.6
808.234	125.428
811.126	202.467
814.019	287.371
816.912	224.531
819.804	195.519
822.697	114.312
825.59	28.1543
828.482	150.213
831.375	23.7031
834.268	134.477
837.16	194.434
840.053	223.953
842.946	11.4512
845.839	154.611
848.731	90.7539
851.624	147.949
854.517	141.209
857.409	145.062
860.302	106.055
863.195	188.295
866.087	231.832
868.98	115.689
871.873	111.842
874.766	131.598
877.658	144.723
880.551	2.37891
883.444	128.174
886.337	60.6973
889.229	145.92
892.122	147.5
895.015	19.5312
897.907	54.4375
900.8	63.1445
903.693	56.6699
906.585	2.24023
909.478	75.1758
912.371	7.68359
915.264	60.2715
918.156	183.248
921.049	4.95312
923.942	167.764
926.834	8.02344
929.727	102.842
932.62	205.185
935.512	125.418
938.405	138.668
941.298	235.445
944.191	318.039
947.083	281.826
949.976	257.822
952.869	382.621
955.761	334.246
958.654	431.635
961.547	442.734
964.439	342.938
967.332	415.629
970.225	380.859
973.117	377.572
976.01	440.676
978.903	442.34
981.796	530.264
984.688	601.646
987.581	527.533
990.474	491.715
993.366	550.199
996.259	534.518
999.152	467.809
1002.04	529.838
1004.94	549.117
1007.83	541.148
1010.72	337.195
1013.62	357.369
1016.51	316.5
1019.4	72.8457
1022.29	123.26
1025.19	211.197
1028.08	40.6777
1030.97	108.25
1033.86	7.74023
1036.76	32.1348
1039.65	93.5117
1042.54	66.9883
1045.43	42.6445
1048.33	83.834
1051.22	132.496
1054.11	63.3535
1057.01	319.639
1059.9	368.969
1062.79	307.481
1065.68	321.074
1068.58	296.055
1071.47	371.441
1074.36	414.631
1077.26	467.658
1080.15	275.705
1083.04	347.24
1085.93	283.717
1088.83	270.58
1091.72	304.91
1094.61	266.594
1097.5	61.2207
1100.4	130.34
1103.29	173.44
1106.18	190.5
1109.07	88.9453
1111.97	99.082
1114.86	178.617
1117.75	23.9766
1120.64	104.484
1123.54	71.2227
1126.43	236.805
1129.32	172.383
1132.22	257.293
1135.11	4.89844
1138	102.695
1140.89	126.945
1143.79	23.0703
1146.68	92.4961
1149.57	233.477
1152.46	25.7383
1155.36	214.551
1158.25	169.266
1161.14	78.9844
1164.04	82.793
1166.93	124.977
1169.82	94.3281
1172.71	37.3828
1175.61	128.293
1178.5	38.2227
1181.39	20.6875
1184.29	1.26953
1187.18	181.836
1190.07	93.4883
1192.96	84.9219
1195.86	106.133
1198.75	6.97266
1201.64	103.613
1204.53	14.6797
1207.43	124.648
1210.32	125.891
1213.21	250.164
1216.1	122.402
1219	153.277
1221.89	147.117
1224.78	166.75
1227.67	171.523
1230.57	192.004
1233.46	179.484
1236.35	205.137
1239.25	142.894
1242.14	185.191
1245.03	2.14453
1247.92	171.289
1250.82	101.441
1253.71	1.13672
1256.6	127.66
1259.49	113.176
1262.39	95.4102
1265.28	150.641
1268.17	5.14453
1271.07	92.6523
1273.96	74.5625
1276.85	53.2344
1279.74	173.043
1282.64	94.2969
1285.53	198.34
1288.42	47.3555
1291.32	0.132813
