Measurement: Raman, 785 nm, unoriented, Raman Data Processed
Mineral: Corkite
Rruff sample: R070403
Ideal chemistry: Pb^2+^Fe^3+^_3_(S^6+^O_4_)(PO_4_)(OH)_6_
Locality: Waldschacht mine (shaft 26), Neust√§dtel, Schneeberg District, Erzgebirge, Saxony, Germany
Source: Michael Scott
Description: Pale yellow globules
Raman shift (cm-1)	intensity
181.284	0
184.177	109.984
187.069	19.8047
189.962	113.387
192.855	403.519
195.748	730.434
198.64	1258
201.533	1719.13
204.426	2073.57
207.318	2207.68
210.211	2453.91
213.104	2874.69
215.996	3489.16
218.889	3985.52
221.782	4624.17
224.674	4944.28
227.567	4750.47
230.46	4523.71
233.353	4499.5
236.245	4153.91
239.138	3884.73
242.031	3461.75
244.923	3363.97
247.816	3054.7
250.709	2484.84
253.601	2045.52
256.494	1992.12
259.387	2093.28
262.28	1749.02
265.172	1756.98
268.065	1461.05
270.958	1409.88
273.85	999.109
276.743	949.199
279.636	825.613
282.529	862.57
285.421	722.582
288.314	684.941
291.207	431.762
294.099	318.656
296.992	49.4805
299.885	12.5117
302.777	130.043
305.67	130.031
308.563	245.336
311.455	270.25
314.348	142.836
317.241	129.332
320.134	201.984
323.026	224.41
325.919	514.484
328.812	522.746
331.704	568.918
334.597	749.672
337.49	453.941
340.382	609.004
343.275	317.606
346.168	422.324
349.061	411.594
351.953	311.629
354.846	280.856
357.739	253.711
360.631	225.977
363.524	129.891
366.417	135.168
369.31	89.5586
372.202	76.6289
375.095	95.5508
377.988	2.33203
380.88	44.1406
383.773	52.2734
386.666	38.9453
389.558	29.2266
392.451	358.055
395.344	349.508
398.236	728.707
401.129	715.996
404.022	835.234
406.915	1024.44
409.807	1125.21
412.7	1423.94
415.593	1801.49
418.485	2200
421.378	2649.87
424.271	2750.02
427.163	2825.34
430.056	3100.21
432.949	3830.89
435.842	4241.84
438.734	4356.65
441.627	4230.66
444.52	3545.82
447.412	2726.76
450.305	2061.85
453.198	1449.01
456.091	1266.21
458.983	806.871
461.876	877.16
464.769	876.297
467.661	570.496
470.554	585.531
473.447	439.426
476.339	397.098
479.232	117.07
482.125	34.125
485.017	92.8359
487.91	28.7266
490.803	69.8164
493.696	70.7578
496.588	10.5664
499.481	98.2812
502.374	43.1836
505.266	34.168
508.159	191.07
511.052	237.098
513.944	216.918
516.837	330.137
519.73	153.934
522.623	505.211
525.515	566.656
528.408	654.293
531.301	732.297
534.193	893.035
537.086	1059.14
539.979	1149.56
542.871	1290.82
545.764	1281.23
548.657	1315.91
551.55	1451.21
554.442	1290.99
557.335	1379.21
560.228	1580.46
563.12	1635.45
566.013	1546.94
568.906	1591.31
571.798	1506.67
574.691	1408.97
577.584	1259.82
580.477	1187.11
583.369	983.133
586.262	864.945
589.155	687.434
592.047	422.879
594.94	534.18
597.833	588.398
600.726	513.547
603.618	416.367
606.511	192.023
609.404	266.492
612.296	72.6406
615.189	261.914
618.082	33.5742
620.974	61.2188
623.867	26.2031
626.76	37.5156
629.653	79.4648
632.545	140.016
635.438	16.1367
638.331	29.8281
641.223	35.6719
644.116	33.4258
647.009	166.559
649.901	119.82
652.794	42.7773
655.687	8.03906
658.58	26.5234
661.472	101.445
664.365	36.832
667.258	64.7734
670.15	66.6211
673.043	189.109
675.936	172.691
678.828	218.891
681.721	201.508
684.614	151.133
687.506	184.566
690.399	185.051
693.292	321.328
696.185	270.074
699.077	305.547
701.97	397.199
704.863	514.477
707.755	402.141
710.648	373.066
713.541	241.734
716.433	166.941
719.326	244.945
722.219	249.508
725.112	314.676
728.004	145.449
730.897	411.301
733.79	156.859
736.682	177.773
739.575	71.8789
742.468	94.8945
745.361	56.7773
748.253	322.625
751.146	174.16
754.039	167.988
756.931	16.3711
759.824	116.195
762.717	20.5977
765.609	44.4141
768.502	64.3008
771.395	35.125
774.288	104.207
777.18	150.898
780.073	60.4336
782.966	2.66797
785.858	161.988
788.751	33.6406
791.644	94.6992
794.536	217.305
797.429	27.0703
800.322	113.543
803.215	43.0508
806.107	210.262
809	238.738
811.893	129.113
814.785	112.863
817.678	222.328
820.571	251.273
823.463	117.336
826.356	272.91
829.249	81.5547
832.141	192.898
835.034	175.25
837.927	130.625
840.82	9.81641
843.712	333.656
846.605	155.277
849.498	199.117
852.39	188.66
855.283	190.793
858.176	35.4844
861.068	173.188
863.961	213.727
866.854	307.109
869.747	305.129
872.639	182.402
875.532	112.344
878.425	162.906
881.317	173.91
884.21	116.156
887.103	128.656
889.995	142.129
892.888	109.445
895.781	20.4141
898.674	23.4844
901.566	119.703
904.459	59.8555
907.352	102.695
910.244	22.3281
913.137	87.832
916.03	150.281
918.923	23.3438
921.815	1.30469
924.708	46.7617
927.601	131.422
930.493	214.519
933.386	121.932
936.279	6.32812
939.171	185.193
942.064	211.781
944.957	305.795
947.85	490.959
950.742	532.416
953.635	583.633
956.528	571.455
959.42	804.273
962.313	610.443
965.206	688.475
968.098	689.676
970.991	749.463
973.884	669.959
976.777	678.193
979.669	673.35
982.562	768.229
985.455	817.504
988.347	952.607
991.24	986.613
994.133	943.189
997.025	1024.32
999.918	1166.53
1002.81	961.438
1005.7	957.967
1008.6	789.178
1011.49	686.375
1014.38	513.533
1017.27	484.435
1020.17	316.188
1023.06	334.58
1025.95	171.287
1028.85	155.691
1031.74	0.896484
1034.63	27.4355
1037.52	4.91211
1040.42	69.1426
1043.31	25.3086
1046.2	33.9492
1049.09	62.0977
1051.99	307.014
1054.88	251.723
1057.77	410.631
1060.66	427.982
1063.56	730.184
1066.45	645.856
1069.34	685.732
1072.24	793.141
1075.13	986.912
1078.02	680.133
1080.91	540.742
1083.81	468.508
1086.7	386.08
1089.59	365.644
1092.48	430.221
1095.38	237.621
1098.27	345.988
1101.16	327.926
1104.06	272.842
1106.95	247.174
1109.84	311.543
1112.73	271.529
1115.63	305.01
1118.52	309.316
1121.41	286.457
1124.3	353.139
1127.2	256.527
1130.09	257.383
1132.98	295.697
1135.88	194.856
1138.77	232.889
1141.66	124.275
1144.55	140.449
1147.45	199.531
1150.34	229.971
1153.23	93.4394
1156.12	121.5
1159.02	7.44727
1161.91	34.6953
1164.8	31.2578
1167.69	40.1133
1170.59	56.4883
1173.48	96.168
1176.37	103.717
1179.27	2.6543
1182.16	129.025
1185.05	49.2266
1187.94	157.82
1190.84	206.377
1193.73	266.867
1196.62	186.106
1199.51	114.359
1202.41	53.834
1205.3	118.92
1208.19	107.445
1211.09	151.121
1213.98	100.943
1216.87	28.0312
1219.76	166.83
1222.66	36.2578
