Measurement: Raman, 532 nm, unoriented, Raman Data Processed
Mineral: Coronadite
Rruff sample: R090056
Ideal chemistry: Pb^2+^(Mn^4+^_6_Mn^3+^_2_)O_16_
Locality: Taouz, Er Rachidia Province, Mekn√®s-Tafilalet Region, Morocco
Source: Bob Downs
Description: Spherical aggregates of black fine-grained material associated with vanadinite
Raman shift (cm-1)	intensity
144.743	0
148.118	2.07427
151.493	5.5115
154.867	6.0627
158.242	1.90473
161.617	0.998873
164.992	1.58139
168.367	1.71715
171.742	1.27852
175.116	1.57669
178.491	0.795003
181.866	0.863102
185.241	0.891043
188.616	0.798631
191.99	0.889468
195.365	0.007198
198.74	0.278497
202.115	0.09076
205.49	0.023229
208.864	0.011871
212.239	0.035126
215.614	0.175805
218.989	0.117686
222.364	0.04642
225.739	0.724641
229.113	0.643461
232.488	0.959145
235.863	0.445671
239.238	1.48652
242.613	0.439189
245.988	0.340622
249.362	0.746797
252.737	1.27924
256.112	1.12499
259.487	0.92689
262.862	1.07541
266.236	0.640268
269.611	1.54766
272.986	1.4478
276.361	1.68233
279.736	1.89474
283.111	2.18172
286.485	1.26504
289.86	1.75451
293.235	1.31083
296.61	2.3517
299.985	1.43412
303.36	0.496112
306.734	1.08004
310.109	0.982264
313.484	0.597651
316.859	0.094573
320.234	1.16015
323.608	0.129316
326.983	1.12435
330.358	1.23229
333.733	0.112785
337.108	0.037458
340.483	0.242979
343.857	2.02508
347.232	1.06987
350.607	1.01887
353.982	1.27784
357.357	0.090052
360.731	0.799372
364.106	0.969713
367.481	2.7474
370.856	2.05127
374.231	1.76806
377.606	1.6618
380.98	2.71668
384.355	2.27825
387.73	1.68075
391.105	2.34695
394.48	1.05675
397.854	0.364651
401.229	0.846935
404.604	0.339222
407.979	0.638368
411.354	0.080877
414.729	0.226581
418.103	0.316956
421.478	0.044368
424.853	0.314299
428.228	0.080833
431.603	0.006419
434.978	0.349921
438.352	0.165509
441.727	1.37762
445.102	1.22825
448.477	1.35583
451.852	0.616064
455.226	0.829182
458.601	0.734003
461.976	0.413289
465.351	0.943434
468.726	1.24628
472.101	1.10886
475.475	0.991153
478.85	1.21051
482.225	0.394826
485.6	1.19198
488.975	0.66061
492.349	0.909559
495.724	0.791946
499.099	0.777771
502.474	1.24162
505.849	0.373281
509.224	0.888557
512.598	0.06571
515.973	0.718663
519.348	0.099233
522.723	0.058353
526.098	0.171334
529.472	0.134892
532.847	0.130046
536.222	0.093442
539.597	0.164369
542.972	0.078482
546.347	0.773441
549.721	1.78267
553.096	2.8618
556.471	4.60442
559.846	5.66841
563.221	5.30791
566.596	8.65004
569.97	8.19137
573.345	9.20771
576.72	8.26708
580.095	8.68754
583.47	6.50999
586.845	5.90701
590.219	4.87139
593.594	4.58498
596.969	3.01649
600.344	3.29717
603.719	3.32115
607.093	2.69059
610.468	3.82848
613.843	4.06814
617.218	2.81926
620.593	2.85896
623.967	1.91759
627.342	1.69023
630.717	2.02664
634.092	2.44527
637.467	2.31332
640.842	0.828785
644.216	1.42393
647.591	0.90218
650.966	0.50407
654.341	1.11679
657.716	0.619318
661.091	0.404335
664.465	0.178566
667.84	0.053405
671.215	0.315789
674.59	0.492379
677.965	0.086134
681.34	0.137242
684.714	0.003237
688.089	0.033227
691.464	1.37764
694.839	0.178873
698.214	0.529459
701.588	0.372475
704.963	0.116339
708.338	1.18666
711.713	1.36625
715.088	0.507178
718.462	1.037
721.837	1.77034
725.212	0.955466
728.587	0.110931
731.962	0.848583
735.337	0.370723
738.712	1.49391
742.086	0.82041
745.461	0.607489
748.836	0.702144
752.211	0.108529
755.586	0.687182
758.96	1.19143
762.335	0.852411
765.71	1.15
769.085	0.491648
772.46	0.086542
775.835	0.46075
779.209	0.708669
782.584	0.926125
785.959	0.660547
789.334	0.078077
792.709	0.545455
796.083	0.396106
799.458	0.005104
802.833	0.760147
806.208	1.06914
809.583	0.801859
812.957	1.33299
816.332	0.40645
819.707	0.760474
823.082	0.351158
826.457	0.45893
829.832	0.63644
833.207	0.683783
836.581	0.675167
839.956	1.22746
843.331	1.53809
846.706	0.75756
850.081	1.21396
853.455	1.51617
856.83	2.10127
860.205	1.45319
863.58	1.8086
866.955	1.73914
870.33	1.61603
873.704	0.141881
877.079	1.01085
880.454	0.344933
883.829	0.049029
887.204	0.104531
890.578	0.165637
893.953	0.029995
897.328	0.834784
900.703	0.056555
904.078	0.074686
907.452	0.23687
910.827	0.125804
914.202	0.3479
917.577	0.794277
920.952	0.049036
924.327	0.03852
927.702	0.421024
931.076	0.408082
934.451	0.452807
937.826	1.13051
941.201	1.06188
944.576	0.014397
947.95	0.017926
951.325	0.07385
954.7	1.60409
958.075	0.042427
961.45	0.483738
964.824	0.471764
968.199	1.2612
971.574	0.829366
974.949	0.055828
978.324	0.852867
981.699	1.75337
985.073	1.09939
988.448	0.853642
991.823	0.07708
995.198	1.5018
998.573	0.984427
1001.95	1.26225
1005.32	0.518716
1008.7	0.809212
1012.07	0.649753
1015.45	0.671734
1018.82	0.02714
1022.2	0.781471
1025.57	0.767261
1028.95	0.080664
1032.32	1.11839
1035.7	0.506781
1039.07	1.07326
1042.44	1.16371
1045.82	0.049533
1049.19	1.51134
1052.57	0.146894
1055.94	0.186345
1059.32	0.53856
1062.69	0.855743
1066.07	1.45479
1069.44	0.65173
1072.82	0.536365
1076.19	0.068082
1079.57	0.422029
1082.94	0.552178
1086.32	1.04582
1089.69	1.23905
1093.07	0.974611
1096.44	0.265758
1099.82	0.533294
1103.19	0.238768
1106.57	1.03928
1109.94	0.746811
1113.32	1.44212
1116.69	0.498279
1120.07	0.083959
1123.44	1.45021
1126.82	0.071793
1130.19	0.757206
1133.57	0.006099
1136.94	0.206924
1140.32	0.593037
1143.69	0.268388
1147.07	0.013399
1150.44	1.04231
1153.81	0.897012
1157.19	0.904486
1160.56	0.546251
1163.94	0.927286
1167.31	0.049688
1170.69	1.60447
1174.06	0.997153
1177.44	1.33235
1180.81	0.844921
1184.19	0.605873
1187.56	0.89411
1190.94	0.736109
1194.31	0.067672
1197.69	1.28791
1201.06	0.05039
1204.44	0.857876
1207.81	0.825335
1211.19	0.536551
1214.56	0.112246
1217.94	0.025471
1221.31	0.687535
1224.69	1.12583
1228.06	0.22377
1231.43	0.035577
1234.81	0.279601
1238.18	0.771688
1241.56	1.53253
1244.93	0.664117
1248.31	0.371958
1251.68	0.797235
1255.06	0.70735
1258.43	0.236752
1261.81	0.01438
1265.18	0.740888
1268.56	1.91195
1271.93	1.00714
1275.31	1.27047
1278.68	0.127509
1282.06	0.753467
1285.43	1.22552
1288.81	1.54882
1292.18	0.793661
1295.56	0.416151
1298.93	0.408073
1302.31	0
