Measurement: Raman, 532 nm, unoriented, Raman Data Processed
Mineral: Coronadite
Rruff sample: R060258
Ideal chemistry: Pb^2+^(Mn^4+^_6_Mn^3+^_2_)O_16_
Locality: Tsumeb mine, Tsumeb, Otavi District, Oshikoto, Namibia
Source: Michael Scott
Description: Dark gray to black fibrous botryoidal aggregates
Raman shift (cm-1)	intensity
169.559	0
172.452	0.965546
175.345	2.17743
178.237	6.7626
181.13	5.83095
184.023	0.161804
186.916	12.0019
189.808	6.38298
192.701	12.8687
195.594	5.84921
198.486	10.2679
201.379	10.2354
204.272	6.69972
207.164	7.47229
210.057	8.50989
212.95	10.3299
215.843	5.88426
218.735	1.70381
221.628	2.98203
224.521	9.26387
227.413	6.51016
230.306	7.62676
233.199	5.04076
236.091	5.72881
238.984	5.43973
241.877	7.34584
244.769	1.74532
247.662	14.4182
250.555	4.39475
253.448	18.2226
256.34	9.47641
259.233	18.6643
262.126	13.4694
265.018	14.2903
267.911	16.8071
270.804	16.7338
273.697	11.7981
276.589	18.4605
279.482	14.224
282.375	15.7776
285.267	13.7216
288.16	17.6243
291.053	2.39864
293.945	12.494
296.838	7.25412
299.731	7.3764
302.623	12.1175
305.516	9.42108
308.409	2.59488
311.302	8.37233
314.194	3.2068
317.087	7.83669
319.98	8.81894
322.872	5.80453
325.765	5.37732
328.658	4.79324
331.55	1.43701
334.443	1.49547
337.336	4.17284
340.229	10.5811
343.121	4.69594
346.014	4.80431
348.907	3.242
351.799	5.24901
354.692	5.36336
357.585	12.6668
360.478	13.2179
363.37	11.8437
366.263	12.2577
369.156	14.8404
372.048	18.4521
374.941	27.8573
377.834	29.301
380.726	31.0033
383.619	33.6811
386.512	29.8045
389.404	28.7386
392.297	23.4057
395.19	21.6493
398.083	19.6531
400.975	24.1551
403.868	15.9507
406.761	12.752
409.653	20.6169
412.546	5.76561
415.439	5.34879
418.332	5.00954
421.224	3.1163
424.117	17.8735
427.01	2.91966
429.902	7.67941
432.795	2.01729
435.688	3.34573
438.58	6.3779
441.473	10.2298
444.366	2.98364
447.259	3.70973
450.151	2.5343
453.044	3.56175
455.937	1.90894
458.829	1.57967
461.722	2.06009
464.615	4.98853
467.507	4.81276
470.4	0.833801
473.293	4.17659
476.185	1.55643
479.078	5.81525
481.971	1.05492
484.864	8.52646
487.756	2.90315
490.649	2.58006
493.542	2.71977
496.434	6.57732
499.327	1.49928
502.22	1.3296
505.113	4.44569
508.005	4.06924
510.898	2.51344
513.791	5.19432
516.683	0.635666
519.576	12.3061
522.469	2.73534
525.361	8.85552
528.254	11.7118
531.147	16.7307
534.04	21.6383
536.932	21.6057
539.825	31.1937
542.718	34.1469
545.61	44.7383
548.503	48.4114
551.396	59.4198
554.288	63.0087
557.181	63.9493
560.074	72.1924
562.967	68.3098
565.859	72.4828
568.752	69.4099
571.645	61.9584
574.537	66.8169
577.43	54.3455
580.323	52.5662
583.216	46.7537
586.108	32.3224
589.001	23.3436
591.894	31.9617
594.786	20.7474
597.679	24.6802
600.572	16.8051
603.464	11.909
606.357	15.7541
609.25	18.2881
612.142	19.6288
615.035	14.5537
617.928	7.82033
620.821	11.1102
623.713	6.76007
626.606	18.1507
629.499	10.4917
632.391	12.3115
635.284	10.9497
638.177	6.28709
641.069	5.36258
643.962	10.1182
646.855	6.1031
649.747	5.25049
652.64	1.78467
655.533	4.38687
658.426	2.77722
661.318	6.84961
664.211	2.09677
667.104	6.50836
669.996	0.560806
672.889	4.22949
675.782	0.737137
678.674	0.202057
681.567	2.41966
684.46	7.32176
687.353	6.1004
690.245	1.44025
693.138	0.68634
696.031	2.35068
698.923	4.90222
701.816	3.89442
704.709	1.67427
707.601	6.02278
710.494	2.9283
713.387	9.22075
716.28	3.25731
719.172	6.33318
722.065	13.3413
724.958	12.4741
727.85	6.2396
730.743	5.7548
733.636	12.7238
736.529	9.59222
739.421	0.213387
742.314	11.4611
745.207	5.34649
748.099	7.0901
750.992	8.11025
753.885	12.7677
756.777	7.74587
759.67	9.24816
762.563	5.52294
765.456	8.73332
768.348	13.6865
771.241	6.46319
774.134	1.72968
777.026	5.83953
779.919	1.06481
782.812	8.77697
785.704	4.40335
788.597	9.85642
791.49	7.53026
794.383	4.03461
797.275	7.20945
800.168	0.833893
803.061	1.10621
805.953	3.4339
808.846	4.77604
811.739	5.14752
814.631	9.00289
817.524	3.20474
820.417	7.48949
823.309	5.28694
826.202	6.25736
829.095	6.82897
831.988	5.00166
834.88	1.43021
837.773	5.19096
840.666	8.42345
843.558	4.44632
846.451	2.95455
849.344	4.9137
852.236	9.66126
855.129	6.47556
858.022	0.474403
860.915	2.98711
863.807	0.524963
866.7	0.906693
869.593	2.46726
872.485	2.58668
875.378	1.10368
878.271	8.12982
881.163	4.16308
884.056	2.18446
886.949	8.20602
889.842	7.45029
892.734	2.27675
895.627	1.15506
898.52	8.23299
901.412	5.56107
904.305	3.07149
907.198	5.18685
910.091	8.10821
912.983	2.1921
915.876	6.25084
918.769	7.88249
921.661	7.00792
924.554	8.59399
927.447	1.48696
930.339	10.4777
933.232	3.9153
936.125	3.52608
939.018	5.28899
941.91	7.19576
944.803	7.29499
947.696	7.16528
950.588	9.38463
953.481	3.31829
956.374	7.19788
959.266	3.72466
962.159	5.30575
965.052	11.2887
967.944	5.93533
970.837	0.378502
973.73	1.35606
976.623	5.5154
979.515	3.22273
982.408	5.99689
985.301	0.073906
988.193	6.56666
991.086	7.2806
993.979	2.62348
996.871	2.43
999.764	0.876007
1002.66	10.934
1005.55	5.51304
1008.44	0.231758
1011.34	3.04243
1014.23	5.22084
1017.12	6.12166
1020.01	5.98918
1022.91	5.99161
1025.8	4.96123
1028.69	5.34789
1031.58	11.9798
1034.48	2.82343
1037.37	8.86148
1040.26	6.62632
1043.15	5.85867
1046.05	3.45781
1048.94	4.84715
1051.83	2.15094
1054.73	2.41259
1057.62	4.39743
1060.51	2.83917
1063.4	7.11958
1066.3	6.59626
1069.19	8.2884
1072.08	7.04762
1074.97	5.73897
1077.87	6.43253
1080.76	3.91468
1083.65	6.11745
1086.55	4.99954
1089.44	4.58442
1092.33	9.63545
1095.22	9.69769
1098.12	6.70146
1101.01	2.54292
1103.9	2.01968
1106.79	1.10821
1109.69	9.9097
1112.58	5.47773
1115.47	13.6289
1118.37	7.14185
1121.26	6.49565
1124.15	3.65698
1127.04	2.20294
1129.94	6.54361
1132.83	7.01798
1135.72	4.2006
1138.61	10.7113
1141.51	5.40541
1144.4	0.758579
1147.29	11.1331
1150.18	9.49076
1153.08	7.74933
1155.97	9.60437
1158.86	11.1457
1161.76	8.18822
1164.65	1.257
1167.54	0.371296
1170.43	4.13673
1173.33	3.75672
1176.22	9.68598
1179.11	3.29569
1182	5.90131
1184.9	0.577042
1187.79	3.76053
1190.68	3.97277
1193.58	4.34376
1196.47	5.28951
1199.36	4.45226
1202.25	2.40872
1205.15	4.97472
1208.04	4.6665
1210.93	2.42535
1213.82	4.69329
1216.72	2.46759
1219.61	3.00787
1222.5	3.67823
1225.39	5.13276
1228.29	1.16164
1231.18	2.17956
1234.07	9.97359
1236.97	7.05905
1239.86	5.24975
1242.75	3.61118
1245.64	5.05524
1248.54	4.93804
1251.43	6.89785
1254.32	6.28186
1257.21	1.83792
1260.11	6.76525
1263	2.82426
1265.89	2.95036
1268.79	3.78205
1271.68	9.38084
1274.57	1.48037
1277.46	5.17327
1280.36	5.77804
1283.25	6.0225
1286.14	6.13765
1289.03	0.143501
1291.93	8.13294
1294.82	8.97091
1297.71	4.92617
1300.61	1.59619
