Measurement: Raman, 780 nm, unoriented, Raman Data Processed
Mineral: Coronadite
Rruff sample: R060258
Ideal chemistry: Pb^2+^(Mn^4+^_6_Mn^3+^_2_)O_16_
Locality: Tsumeb mine, Tsumeb, Otavi District, Oshikoto, Namibia
Source: Michael Scott
Description: Dark gray to black fibrous botryoidal aggregates
Raman shift (cm-1)	intensity
119.014	0
121.907	11.3374
124.799	0.516968
127.692	11.4625
130.585	5.99085
133.477	13.6226
136.37	15.9143
139.263	10.803
142.155	10.3525
145.048	6.87744
147.941	1.97253
150.834	7.23938
153.726	7.03894
156.619	9.43762
159.512	15.6263
162.404	5.69263
165.297	17.8301
168.19	4.28748
171.083	14.9053
173.975	8.00085
176.868	14.142
179.761	11.0295
182.653	1.93372
185.546	7.00671
188.439	8.71716
191.331	7.08313
194.224	9.0426
197.117	6.59155
200.01	10.0853
202.902	0.653564
205.795	11.2291
208.688	7.68018
211.58	3.93359
214.473	5.49451
217.366	1.14209
220.258	1.26208
223.151	4.69861
226.044	4.78345
228.936	4.59131
231.829	4.98938
234.722	11.035
237.615	6.61414
240.507	4.1687
243.4	12.5905
246.293	3.33569
249.185	12.3585
252.078	4.84302
254.971	7.39697
257.863	12.2462
260.756	22.0194
263.649	17.3737
266.542	15.6355
269.434	13.3812
272.327	13.4155
275.22	12.4399
278.112	16.4601
281.005	14.9818
283.898	14.2638
286.791	16.8984
289.683	20.2459
292.576	7.3092
295.469	11.2988
298.361	7.96973
301.254	10.936
304.147	6.24744
307.039	11.3911
309.932	10.5844
312.825	11.1506
315.717	2.12647
318.61	4.36243
321.503	14.6008
324.396	6.95764
327.288	14.9485
330.181	7.77856
333.074	12.4854
335.966	11.5832
338.859	9.0946
341.752	26.2942
344.644	25.0328
347.537	23.1099
350.43	9.92285
353.323	10.8269
356.215	11.2074
359.108	18.7643
362.001	18.7826
364.893	13.902
367.786	5.70752
370.679	12.0308
373.572	13.1716
376.464	9.47681
379.357	0.872314
382.25	5.00134
385.142	0.441406
388.035	6.84192
390.928	2.55542
393.82	2.01025
396.713	4.59741
399.606	4.34827
402.498	2.28467
405.391	1.53333
408.284	18.0798
411.177	10.3291
414.069	9.71082
416.962	11.2731
419.855	6.78809
422.747	18.2976
425.64	12.3778
428.533	7.68957
431.425	12.8278
434.318	5.12756
437.211	4.62415
440.104	9.21362
442.996	8.13855
445.889	7.9021
448.782	16.0685
451.674	22.142
454.567	16.1193
457.46	9.5271
460.353	14.0247
463.245	9.82214
466.138	12.1913
469.031	10.8381
471.923	17.3375
474.816	13.8038
477.709	13.5231
480.601	4.46692
483.494	17.3845
486.387	12.214
489.279	9.13379
492.172	12.4076
495.065	18.7233
497.958	15.8649
500.85	0.317383
503.743	7.15283
506.636	17.7189
509.528	8.98975
512.421	4.00452
515.314	6.99719
518.207	1.92932
521.099	1.47986
523.992	2.75464
526.885	9.89453
529.777	1.2135
532.67	8.83386
535.563	2.85571
538.455	4.23328
541.348	2.81116
544.241	3.9635
547.134	0.730347
550.026	3.52185
552.919	6.28979
555.812	3.89771
558.704	5.47217
561.597	11.4085
564.49	5.58594
567.382	16.0693
570.275	3.33765
573.168	7.62769
576.061	4.06201
578.953	3.14746
581.846	10.6834
584.739	4.34521
587.631	7.26856
590.524	21.7368
593.417	23.9451
596.309	29.3745
599.202	27.2224
602.095	28.6406
604.987	42.2085
607.88	47.9417
610.773	56.7996
613.666	61.8433
616.558	67.8318
619.451	77.5547
622.344	76.9648
625.236	113.295
628.129	112.31
631.022	118.145
633.915	130.214
636.807	122.315
639.7	124.879
642.593	116.207
645.485	108.601
648.378	94.3325
651.271	79.9131
654.163	73.6802
657.056	62.4023
659.949	64.1172
662.842	40.7051
665.734	48.2458
668.627	52.2454
671.52	35.0737
674.412	20.4299
677.305	21.8774
680.198	20.3892
683.091	29.2109
685.983	7.32349
688.876	11.7961
691.769	5.56763
694.661	13.9431
697.554	2.31982
700.447	3.11035
703.339	2.09326
706.232	1.69605
709.125	6.45825
712.018	1.67603
714.91	5.64575
717.803	13.5969
720.696	18.7085
723.588	6.51025
726.481	12.4473
729.374	13.6477
732.266	16.9927
735.159	11.1431
738.052	16.9744
740.944	7.61304
743.837	10.0007
746.73	15.7078
749.623	17.8608
752.515	11.0659
755.408	8.25879
758.301	4.0481
761.193	6.77319
764.086	12.1169
766.979	2.85669
769.871	0.484863
772.764	7.23144
775.657	1.94385
778.55	4.41479
781.442	2.19116
784.335	7.28247
787.228	5.31445
790.12	9.23023
793.013	11.7712
795.906	18.457
798.798	7.35107
801.691	0.825928
804.584	0.202881
807.477	17.0134
810.369	14.4314
813.262	0.433838
816.155	14.8245
819.047	6.65576
821.94	15.6013
824.833	12.794
827.726	8.94556
830.618	0.127686
833.511	0.195557
836.404	7.48242
839.296	16.3987
842.189	15.0601
845.082	10.2932
847.974	17.0215
850.867	9.75317
853.76	7.96021
856.653	26.8899
859.545	19.3052
862.438	12.6638
865.331	1.96631
868.223	3.8894
871.116	0.234375
874.009	15.4607
876.901	2.98804
879.794	8.58569
882.687	22.1025
885.58	10.8533
888.472	8.21753
891.365	7.11914
894.258	6.67944
897.15	2.27002
900.043	3.25391
902.936	7.88721
905.828	1.16675
908.721	1.81128
911.614	6.03394
914.506	9.69751
917.399	7.65356
920.292	18.1814
923.185	15.9968
926.077	12.3447
928.97	11.698
931.863	19.9512
934.755	9.26514
937.648	6.19287
940.541	7.17334
943.433	10.2517
946.326	12.3772
949.219	9.73291
952.112	7.32812
955.004	3.82715
957.897	2.65039
960.79	9.82251
963.682	10.8345
966.575	5.4729
969.468	10.4414
972.361	15.0239
975.253	6.10742
978.146	13.3828
981.039	2.17944
983.931	1.51221
986.824	3.23731
989.717	9.8855
992.609	0.138428
995.502	8.63599
998.395	26.3003
1001.29	21.9724
1004.18	6.87598
1007.07	11.9099
1009.97	8.27612
1012.86	26.2756
1015.75	11.0381
1018.64	17.8071
1021.54	18.6262
1024.43	11.9062
1027.32	23.8728
1030.21	21.9321
1033.11	21.6726
1036	23.3252
1038.89	14.7952
1041.79	14.6387
1044.68	11.5854
1047.57	16.3567
1050.46	24.4531
1053.36	7.08716
1056.25	8.26807
1059.14	17.908
1062.03	23.3464
1064.93	29.3875
1067.82	38.3442
1070.71	20.293
1073.61	13.3586
1076.5	29.49
1079.39	21.7739
1082.28	21.2839
1085.18	31.5544
1088.07	18.0652
1090.96	16.2075
1093.85	12.5317
1096.75	10.1011
1099.64	14.0913
1102.53	0.805908
1105.42	4.74292
1108.32	9.51318
1111.21	10.0742
1114.1	2.73364
1116.99	3.43213
1119.89	11.4941
1122.78	10.9988
1125.67	14.3704
1128.57	16.615
1131.46	4.08765
1134.35	3.63452
1137.24	16.9961
1140.14	24.4556
1143.03	21.3564
1145.92	17.7976
1148.82	12.2732
1151.71	24.114
1154.6	32.8843
1157.49	17.3484
1160.39	14.9153
1163.28	21.4636
1166.17	8.25879
1169.06	21.9692
1171.96	3.39795
1174.85	7.99194
1177.74	27.1299
1180.63	30.8037
1183.53	16.8477
1186.42	9.8335
1189.31	10.5544
1192.21	19.5222
1195.1	15.4438
1197.99	17.6091
1200.88	4.87524
1203.78	8.22046
1206.67	11.1387
1209.56	20.3479
1212.45	7.94971
1215.35	7.93311
1218.24	12.4873
1221.13	1.44019
1224.03	7.38501
1226.92	17.9416
1229.81	16.0584
1232.7	17.8462
1235.6	25.22
1238.49	24.2336
