Measurement: Raman, 532 nm, unoriented, Raman Data Processed
Mineral: Correianevesite
Rruff sample: R090069
Ideal chemistry: Fe^2+^Mn^2+^_2_(PO_4_)_2_3H_2_O
Locality: Cigana mine, Galiléia, Minas Gerais  Brazil
Source: Royal Ontario Museum
Description: Druse of reddish-brown pseudo-octahedral crystals associated with pink hureaulite R090070 and colorless ludlamite R090071
Measured chemistry: (Mn^+2^_1.85_Fe^+2^_1.13_Ca_0.01_)_Σ=2.99_(PO_4_)_2_·3H_2_O
Raman shift (cm-1)	intensity
168.735	0
171.627	4.78543
174.52	9.72504
177.413	2.58774
180.305	4.40888
183.198	8.23636
186.091	16.162
188.984	8.02713
191.876	20.1988
194.769	10.3977
197.662	11.8897
200.554	3.99655
203.447	5.36646
206.34	3.22186
209.232	2.12946
212.125	8.86804
215.018	1.41864
217.911	3.48465
220.803	7.33804
223.696	5.26331
226.589	7.46677
229.481	2.5217
232.374	11.6289
235.267	13.3544
238.159	21.2359
241.052	21.1802
243.945	23.3436
246.838	26.0767
249.73	27.6694
252.623	31.2918
255.516	28.5055
258.408	30.8624
261.301	35.0039
264.194	34.6699
267.086	36.3408
269.979	34.4133
272.872	33.964
275.764	32.4885
278.657	28.894
281.55	23.3245
284.443	17.3322
287.335	17.5127
290.228	19.1911
293.121	13.569
296.013	12.0599
298.906	9.98554
301.799	13.4177
304.692	6.01288
307.584	9.06927
310.477	6.65027
313.37	4.12756
316.262	3.08441
319.155	8.70517
322.048	5.80289
324.94	5.03629
327.833	0.916229
330.726	7.13458
333.618	5.41919
336.511	6.76413
339.404	4.59283
342.297	11.0724
345.189	12.4175
348.082	6.61279
350.975	15.2726
353.867	19.2379
356.76	19.2579
359.653	25.575
362.546	24.4674
365.438	28.1342
368.331	23.895
371.224	25.262
374.116	24.4832
377.009	17.8344
379.902	19.8191
382.794	16.325
385.687	9.88538
388.58	12.5301
391.473	10.1254
394.365	8.1123
397.258	6.13351
400.151	5.6843
403.043	3.51562
405.936	7.34393
408.829	11.8728
411.721	16.2799
414.614	11.9877
417.507	10.327
420.399	4.4714
423.292	4.80008
426.185	2.89844
429.078	4.38767
431.97	5.92346
434.863	3.86972
437.756	5.95956
440.648	2.40225
443.541	0.407135
446.434	3.46158
449.327	2.09009
452.219	3.58695
455.112	4.48575
458.005	8.104
460.897	6.06555
463.79	10.8738
466.683	12.7804
469.575	9.74896
472.468	15.3163
475.361	18.6397
478.253	25.4393
481.146	20.6842
484.039	17.7732
486.932	18.2416
489.824	17.947
492.717	13.355
495.61	17.844
498.502	13.9004
501.395	10.9828
504.288	13.6555
507.18	7.48718
510.073	7.83343
512.966	13.0563
515.859	19.4252
518.751	26.8706
521.644	32.1776
524.537	39.3168
527.429	41.9808
530.322	53.0749
533.215	51.8315
536.107	52.7731
539	53.8197
541.893	48.9871
544.786	49.2403
547.678	40.154
550.571	33.7196
553.464	30.5451
556.356	22.7515
559.249	28.3079
562.142	31.6179
565.034	30.8385
567.927	34.901
570.82	39.2543
573.713	46.5266
576.605	55.0615
579.498	59.753
582.391	69.1315
585.283	81.6268
588.176	80.8648
591.069	90.3758
593.961	96.5353
596.854	95.2733
599.747	93.5289
602.639	87.3541
605.532	83.1211
608.425	76.3859
611.318	61.147
614.21	53.3629
617.103	36.8064
619.996	30.7698
622.888	25.1803
625.781	15.564
628.674	11.3998
631.567	10.2242
634.459	2.3047
637.352	1.11136
640.245	0.13678
643.137	3.73625
646.03	0.788071
648.923	0.099838
651.815	6.81783
654.708	2.59232
657.601	1.11012
660.494	0.819554
663.386	4.23613
666.279	4.45371
669.172	0.009613
672.064	2.59784
674.957	6.29803
677.85	7.54294
680.742	9.30292
683.635	8.35092
686.528	10.3212
689.42	11.2438
692.313	9.51337
695.206	8.35971
698.099	10.5721
700.991	8.92113
703.884	9.1685
706.777	9.29057
709.669	5.34058
712.562	6.31895
715.455	5.56328
718.347	4.73613
721.24	4.1978
724.133	6.76695
727.026	0.115448
729.918	6.87572
732.811	2.62361
735.704	6.24649
738.596	2.14989
741.489	6.85588
744.382	3.89351
747.274	5.54242
750.167	7.05037
753.06	6.63127
755.953	7.17255
758.845	2.78175
761.738	7.03011
764.631	7.8909
767.523	0.244263
770.416	3.62822
773.309	5.19139
776.202	2.37569
779.094	2.60471
781.987	1.53775
784.88	3.29538
787.772	1.86494
790.665	1.88574
793.558	2.73587
796.45	5.79436
799.343	6.31642
802.236	6.5795
805.129	6.64781
808.021	9.57465
810.914	9.61525
813.807	8.96291
816.699	13.151
819.592	10.4733
822.485	16.3926
825.377	13.9552
828.27	14.2413
831.163	12.7493
834.056	13.8183
836.948	13.4439
839.841	13.8268
842.734	17.4389
845.626	11.8872
848.519	16.4935
851.412	14.2775
854.304	13.3088
857.197	14.0194
860.09	14.0066
862.982	12.0107
865.875	11.6956
868.768	11.0915
871.661	6.20256
874.553	6.08798
877.446	9.68523
880.339	3.31152
883.231	6.5246
886.124	0.948578
889.017	2.30722
891.909	6.39456
894.802	1.66649
897.695	3.39378
900.588	0.222565
903.48	2.09026
906.373	0.670563
909.266	1.54063
912.158	0.591934
915.051	5.9351
917.944	0.002167
920.837	1.81724
923.729	0.052109
926.622	5.58177
929.515	12.5388
932.407	15.8643
935.3	19.7662
938.193	30.5377
941.085	34.0486
943.978	40.2893
946.871	54.9368
949.764	70.9117
952.656	94.1191
955.549	124.518
958.442	154.303
961.334	185.635
964.227	224.294
967.12	243.672
970.012	241.822
972.905	214.213
975.798	158.869
978.691	123.442
981.583	104.042
984.476	88.9215
987.369	79.8296
990.261	72.9351
993.154	66.0575
996.047	55.2488
998.939	49.3787
1001.83	42.773
1004.73	43.3951
1007.62	31.3944
1010.51	27.4711
1013.4	19.6397
1016.3	10.6827
1019.19	1.88477
1022.08	0.147064
1024.97	0.039246
1027.87	3.72623
1030.76	1.91119
1033.65	0.423859
1036.54	1.89725
1039.44	6.06036
1042.33	12.2559
1045.22	12.8277
1048.12	20.2231
1051.01	24.6549
1053.9	19.9638
1056.79	25.3388
1059.69	26.7175
1062.58	32.0641
1065.47	33.5921
1068.36	35.0345
1071.26	40.0501
1074.15	47.4771
1077.04	51.2468
1079.93	63.3818
1082.83	67.6619
1085.72	73.8484
1088.61	79.8207
1091.51	86.6184
1094.4	90.3303
1097.29	94.8238
1100.18	94.9206
1103.08	94.1082
1105.97	89.8312
1108.86	86.9211
1111.76	84.8122
1114.65	78.9644
1117.54	69.2924
1120.43	61.5825
1123.33	52.7934
1126.22	49.667
1129.11	37.5964
1132	27.4712
1134.9	21.6757
1137.79	14.3114
1140.68	17.7915
1143.57	9.38667
1146.47	5.99265
1149.36	1.22861
1152.25	1.36484
1155.14	3.17974
1158.04	1.10774
1160.93	1.19121
1163.82	1.90926
1166.72	3.20797
1169.61	1.58109
1172.5	5.96852
1175.39	0.485611
1178.29	4.30824
1181.18	2.56227
1184.07	7.34309
1186.96	9.82239
1189.86	13.8481
1192.75	4.49782
1195.64	12.0241
1198.54	15.0064
1201.43	10.9323
1204.32	12.5821
1207.21	11.7585
1210.11	12.7882
1213	15.1652
1215.89	8.38675
1218.79	13.1469
1221.68	12.3638
1224.57	8.4175
1227.46	7.54431
1230.36	10.0192
1233.25	9.74329
1236.14	7.7504
1239.03	3.145
1241.93	5.58234
1244.82	8.43581
1247.71	4.54393
1250.6	0.766891
1253.5	4.39961
1256.39	4.29669
1259.28	6.88742
1262.17	7.64212
1265.07	1.47044
1267.96	4.54082
1270.85	4.10921
1273.75	5.01871
1276.64	5.37174
1279.53	4.79036
1282.42	1.09294
1285.32	4.37863
1288.21	4.74292
1291.1	0.299683
1293.99	2.86882
1296.89	5.05989
1299.78	0.770889
1302.67	2.35802
