Measurement: Raman, 532 nm, unoriented, Raman Data Processed
Mineral: Corundum
Rruff sample: R100142
Ideal chemistry: Al_2_O_3_
Locality: Nepal
Source: William W. Pinch
Description: Polished lavendar cab
Raman shift (cm-1)	intensity
214.939	0
217.832	7.60889
220.725	4.7356
223.617	9.11084
226.51	12.8569
229.403	6.84692
232.296	26.0078
235.188	4.13818
238.081	9.23291
240.974	10.0825
243.866	18.0627
246.759	14.5207
249.652	15.9912
252.544	11.7637
255.437	5.59351
258.33	6.01953
261.223	9.65161
264.115	5.10669
267.008	4.87744
269.901	3.11216
272.793	1.33643
275.686	3.47949
278.579	2.06226
281.471	4.27759
284.364	12.7578
287.257	20.5811
290.15	38.4155
293.042	24.7627
295.935	20.852
298.828	29.8745
301.72	22.5332
304.613	14.417
307.506	14.4653
310.399	13.355
313.291	20.2158
316.184	24.8643
319.077	13.9993
321.969	18.7564
324.862	11.5942
327.755	11.3162
330.647	12.6438
333.54	16.1514
336.433	2.78809
339.325	4.26367
342.218	4.55005
345.111	2.69946
348.004	3.48755
350.896	6.96973
353.789	8.59058
356.682	13.6504
359.574	8.65625
362.467	27.5007
365.36	43.428
368.253	50.8059
371.145	62.5664
374.038	108.546
376.931	204.202
379.823	298.373
382.716	91.8809
385.609	10.238
388.502	3.86719
391.394	4.91528
394.287	3.25977
397.18	4.0918
400.072	28.5867
402.965	81.8137
405.858	111.012
408.75	158.723
411.643	251.418
414.536	506.885
417.428	857.025
420.321	484.514
423.214	111.427
426.107	75.7459
428.999	90.7593
431.892	100.981
434.785	40.4026
437.677	25.9226
440.57	24.7607
443.463	35.1807
446.356	57.7922
449.248	66.6619
452.141	34.4001
455.034	8.28882
457.926	8.43774
460.819	5.21216
463.712	4.04199
466.604	2.38696
469.497	10.6855
472.39	3.17017
475.283	10.7512
478.175	3.04199
481.068	6.1543
483.961	3.87769
486.853	3.07373
489.746	2.17944
492.639	14.429
495.531	24.4544
498.424	32.1025
501.317	21.5317
504.21	21.4199
507.102	11.0759
509.995	9.98706
512.888	21.7827
515.78	23.0613
518.673	15.022
521.566	5.4314
524.458	15.2241
527.351	14.8709
530.244	11.658
533.137	8.99512
536.029	10.6589
538.922	5.39185
541.815	12.5308
544.707	12.866
547.6	13.7078
550.493	19.7102
553.386	19.2971
556.278	20.5476
559.171	22.0769
562.064	40.1167
564.956	33.1372
567.849	26.511
570.742	32.9758
573.635	40.3723
576.527	44.8308
579.42	27.9812
582.313	16.6414
585.205	12.199
588.098	20.1045
590.991	20.061
593.883	5.90967
596.776	5.80884
599.669	11.2913
602.562	5.44946
605.454	1.78516
608.347	2.4314
611.24	6.54077
614.132	7.70679
617.025	1.4104
619.918	4.84595
622.81	2.87036
625.703	7.44702
628.596	14.0581
631.489	15.5566
634.381	32.2441
637.274	58.3281
640.167	90.7463
643.059	124.023
645.952	119.991
648.845	69.0061
651.737	29.1843
654.63	25.813
657.523	22.7051
660.416	23.908
663.308	17.5137
666.201	11.8298
669.094	11.74
671.986	12.0998
674.879	26.771
677.772	13.5513
680.664	7.22729
683.557	19.1348
686.45	13.6001
689.343	7.02588
692.235	3.76074
695.128	2.18897
698.021	5.13721
700.913	1.16113
703.806	4.52686
706.699	8.62427
709.592	8.32007
712.484	8.86621
715.377	1.75366
718.27	1.83154
721.162	0.781738
724.055	4.78155
726.948	4.57422
729.841	7.12158
732.733	11.938
735.626	28.8042
738.519	36.0576
741.411	48.9629
744.304	56.4106
747.197	73.9692
750.089	79.2739
752.982	66.3828
755.875	64.8833
758.768	37.0168
761.66	35.301
764.553	22.6304
767.446	20.4712
770.338	24.2065
773.231	21.4402
776.124	13.3232
779.016	5.81567
781.909	19.7646
784.802	6.17505
787.694	2.72266
790.587	1.61572
793.48	9.52002
796.373	9.11011
799.265	17.8298
802.158	16.5676
805.051	12.2078
807.943	10.8516
810.836	5.59814
813.729	2.29419
816.621	7.53198
819.514	12.9739
822.407	12.7498
825.3	8.4917
828.192	2.22144
831.085	2.62231
833.978	9.31592
836.87	3.22119
839.763	3.38989
842.656	5.04932
845.549	10.6526
848.441	9.70898
851.334	8.00635
854.227	16.1494
857.119	24.2939
860.012	15.0532
862.905	20.1909
865.798	25.3252
868.69	45.9268
871.583	38.9131
874.476	38.7852
877.368	34.7871
880.261	36.148
883.154	18.1724
886.046	12.4146
888.939	6.80029
891.832	9.97168
894.725	5.85205
897.617	10.5273
900.51	18.2461
903.403	27.2393
906.295	31.2515
909.188	43.8682
912.081	37.9038
914.973	37.7993
917.866	43.1211
920.759	49.0449
923.652	55.9556
926.544	61.8989
929.437	59.9487
932.33	50.4678
935.222	42.6973
938.115	18.8877
941.008	0.07373
943.9	4.32568
946.793	4.29883
949.686	0.776093
952.579	0.046875
955.471	15.2017
958.364	16.5864
961.257	14.1929
964.149	21.6743
967.042	31.9487
969.935	36.4468
972.827	36.4346
975.72	27.3516
978.613	34.8794
981.506	23.5615
984.398	34.6455
987.291	27.5215
990.184	28.981
993.077	30.5386
995.969	26.5098
998.862	40.0747
1001.75	36.0493
1004.65	15.3623
1007.54	16.2412
1010.43	19.7261
1013.33	15.0771
1016.22	35.0918
1019.11	18.8174
1022	18.769
1024.9	2.78223
1027.79	5.75488
1030.68	10.377
1033.57	3.11768
1036.47	25.4424
1039.36	5.37158
1042.25	11.1655
1045.14	2.8916
1048.04	10.2602
1050.93	7.54248
1053.82	17.2583
1056.72	20.9741
1059.61	9.49316
1062.5	1.61084
1065.39	2.36328
1068.29	3.17773
1071.18	20.8511
1074.07	7.30811
1076.96	12.5195
1079.86	15.8052
1082.75	26.3999
1085.64	27.6216
1088.54	33.5928
1091.43	32.2446
1094.32	24.5493
1097.21	17.2754
1100.11	15.5117
1103	22.4341
1105.89	39.3672
1108.79	35.4487
1111.68	37.7417
1114.57	16.187
1117.46	21.8896
1120.36	32.479
1123.25	29.8945
1126.14	17.5874
1129.03	29.5234
1131.93	19.9717
1134.82	15.3838
1137.71	4.57178
1140.6	4.47266
1143.5	0.169922
1146.39	13.6592
1149.28	7.79346
1152.17	10.3935
1155.07	6.84082
1157.96	9.7041
1160.85	28.9087
1163.75	44.5234
1166.64	48.9522
1169.53	29.5518
1172.42	25.4561
1175.32	22.1367
1178.21	1.4834
1181.1	12.4756
1183.99	9.41895
1186.89	6.30957
1189.78	4.37988
1192.67	24.4785
1195.57	0.025391
