Measurement: Raman, 780 nm, unoriented, Raman Data Processed
Mineral: Corundum
Rruff sample: X080006
Ideal chemistry: Al_2_O_3_
Locality: Synthetic
Source: Gemological Institute of America
Description: Faceted blue sapphire gemstone, 2.46 ct
Raman shift (cm-1)	intensity
98.1222	0
101.497	0.668972
104.872	1.24989
108.247	2.20113
111.621	0.210335
114.996	1.94769
118.371	3.22719
121.746	2.77895
125.121	0.982899
128.496	1.18263
131.87	0.468586
135.245	0.817886
138.62	0.146767
141.995	1.06757
145.37	0.14917
148.744	1.84281
152.119	0.008114
155.494	2.05739
158.869	4.85527
162.244	8.0322
165.619	8.44949
168.994	11.5515
172.368	12.7009
175.743	15.3692
179.118	15.3166
182.493	15.7949
185.868	16.4104
189.242	13.1454
192.617	12.0753
195.992	10.3149
199.367	10.4183
202.742	8.46067
206.117	7.96483
209.491	7.63509
212.866	5.36883
216.241	7.31175
219.616	6.63488
222.991	8.16151
226.365	8.27068
229.74	10.0453
233.115	10.7756
236.49	12.3834
239.865	12.6555
243.239	14.9207
246.614	15.7365
249.989	15.9118
253.364	14.5657
256.739	14.43
260.114	13.1388
263.488	11.9743
266.863	10.2022
270.238	9.43825
273.613	8.24158
276.988	6.56975
280.363	6.79725
283.737	6.24974
287.112	3.70916
290.487	3.28033
293.862	1.6615
297.237	0.839062
300.611	0.13324
303.986	0.57412
307.361	0.597446
310.736	0.528732
314.111	0.441025
317.486	0.501724
320.86	0.167065
324.235	0.555805
327.61	1.45806
330.985	0.963474
334.36	0.269402
337.734	1.59813
341.109	2.75035
344.484	6.50711
347.859	5.45425
351.234	2.45563
354.608	2.9141
357.983	5.34093
361.358	6.63743
364.733	7.76465
368.108	10.3782
371.483	10.5019
374.857	12.5586
378.232	16.9291
381.607	15.6068
384.982	7.28979
388.357	5.11051
391.731	5.0942
395.106	5.67651
398.481	6.40848
401.856	13.4328
405.231	14.2918
408.606	18.2702
411.98	26.8876
415.355	75.5141
418.73	167.274
422.105	22.4928
425.48	4.01462
428.854	9.31603
432.229	9.77281
435.604	1.75902
438.979	0.541084
442.354	1.30117
445.729	4.93046
449.103	13.8345
452.478	2.96464
455.853	2.33276
459.228	1.65977
462.603	4.1108
465.978	5.88757
469.352	7.98583
472.727	8.51933
476.102	9.34633
479.477	4.66473
482.852	5.27034
486.226	3.63121
489.601	0.402374
492.976	0.885803
496.351	1.0425
499.726	1.47767
503.101	2.21216
506.475	2.4265
509.85	1.05561
513.225	0.958145
516.6	1.16383
519.975	0.367432
523.349	0.53054
526.724	1.91529
530.099	3.79575
533.474	3.17677
536.849	5.18449
540.223	6.2269
543.598	5.07807
546.973	3.52472
550.348	2.0596
553.723	1.58205
557.098	1.70123
560.472	1.0891
563.847	1.98824
567.222	1.1831
570.597	4.12845
573.972	10.5657
577.346	28.8907
580.721	10.6536
584.096	1.09097
587.471	0.527317
590.846	0.842617
594.221	0.376961
597.596	0.104931
600.97	0.43718
604.345	0.8755
607.72	2.35499
611.095	1.5335
614.47	0.864605
617.844	1.99102
621.219	1.46459
624.594	2.11433
627.969	2.00077
631.344	1.49581
634.718	3.08928
638.093	4.13227
641.468	3.3662
644.843	3.12582
648.218	3.96244
651.592	3.39935
654.967	5.24461
658.342	6.63832
661.717	7.17577
665.092	8.65128
668.467	10.0508
671.841	9.64829
675.216	9.66654
678.591	7.90845
681.966	6.93947
685.341	6.00336
688.716	6.40231
692.09	6.97534
695.465	8.65674
698.84	11.0298
702.215	11.6075
705.59	17.4517
708.965	18.6078
712.339	11.6279
715.714	4.94598
719.089	0.789848
722.464	0.239994
725.839	0.006214
729.213	0.24332
732.588	1.87769
735.963	6.56854
739.338	10.8712
742.713	18.3054
746.087	28.9579
749.462	42.1901
752.837	36.9631
756.212	22.5849
759.587	12.4304
762.962	6.73696
766.336	3.00573
769.711	1.28864
773.086	1.54919
776.461	1.80196
779.836	1.09887
783.21	1.55304
786.585	0.805321
789.96	0.764389
793.335	0.542213
796.71	1.3586
800.085	0.120068
803.459	0.533493
806.834	0.64275
810.209	0.819016
813.584	0.444073
816.959	0.113098
820.333	0.076645
823.708	0.510616
827.083	0.028816
830.458	0.275711
833.833	0.544216
837.208	0.220783
840.582	0.739021
843.957	1.5224
847.332	1.10083
850.707	1.64543
854.082	1.44416
857.457	2.06615
860.831	2.95837
864.206	2.3422
867.581	1.6309
870.956	0.71727
874.331	1.3818
877.705	2.08912
881.08	0.795486
884.455	1.23991
887.83	1.80801
891.205	1.59797
894.58	0.58622
897.954	0.637367
901.329	0.993324
904.704	0.7113
908.079	1.0053
911.454	1.50153
914.828	1.32526
918.203	0.892014
921.578	1.21086
924.953	0.64761
928.328	0.486057
931.702	0.774868
935.077	0.399979
938.452	0.583107
941.827	0.748608
945.202	0.90654
948.577	1.2181
951.951	0.324921
955.326	0.99659
958.701	0.918846
962.076	0.533905
965.451	0.923992
968.826	1.06556
972.2	1.15444
975.575	1.26529
978.95	0.606102
982.325	0.181572
985.7	0.506229
989.074	0.483418
992.449	0.705395
995.824	1.02798
999.199	1.15986
1002.57	0.060722
1005.95	0.648533
1009.32	2.36146
1012.7	0.128677
1016.07	0.431671
1019.45	1.01797
1022.82	1.02468
1026.2	0.168259
1029.57	0.504242
1032.95	0.939297
1036.32	0.998257
1039.7	1.17996
1043.07	0.623314
1046.45	0.790897
1049.82	1.63329
1053.2	1.12852
1056.57	1.95479
1059.95	1.771
1063.32	1.42512
1066.69	1.11525
1070.07	1.17925
1073.44	1.69308
1076.82	0.836506
1080.19	1.63234
1083.57	1.82842
1086.94	0.637409
1090.32	0.86684
1093.69	0.806252
1097.07	0.65572
1100.44	1.0968
1103.82	1.05211
1107.19	0.509693
1110.57	0.779026
1113.94	0.081589
1117.32	0.376068
1120.69	0.828819
1124.07	0.036606
1127.44	0.808674
1130.82	0.860294
1134.19	0.09444
1137.57	0.353497
1140.94	1.08828
1144.32	1.11687
1147.69	0.755547
1151.07	0.779045
1154.44	2.09457
1157.82	0.643353
1161.19	0.266609
1164.57	1.57311
1167.94	0.915375
1171.32	1.23317
1174.69	0.657127
1178.06	1.19477
1181.44	0.636005
1184.81	0.831417
1188.19	0.832859
1191.56	0.903645
1194.94	1.27205
1198.31	1.46022
1201.69	0.829796
1205.06	1.31975
1208.44	1.05689
1211.81	0.3027
1215.19	1.65386
1218.56	0.605736
1221.94	0.267742
1225.31	0.652447
1228.69	1.40666
1232.06	0.61927
1235.44	0.467655
1238.81	1.33916
1242.19	1.3285
1245.56	1.1343
1248.93	2.05539
1252.31	1.5489
1255.68	1.05073
1259.06	1.79855
1262.43	0.837036
1265.81	1.17022
1269.18	0.018738
1272.56	0.333393
1275.93	1.15114
1279.31	2.07934
1282.68	0.755825
1286.06	0.459412
