Measurement: Raman, 532 nm, unoriented, Raman Data Processed
Mineral: Corundum
Rruff sample: R110117
Ideal chemistry: Al_2_O_3_
Locality: Synthetic
Source: Gemological Institute of America
Description: A cut, dark blue (1.51ct) sapphire gemstone, flux grown.
Raman shift (cm-1)	intensity
150.757	0
153.649	4.88629
156.542	0.357178
159.435	14.0251
162.328	17.9598
165.22	32.1291
168.113	59.5634
171.006	82.8435
173.898	106.016
176.791	129.685
179.684	132.182
182.577	132.662
185.469	138.25
188.362	130.638
191.255	118.637
194.147	108.74
197.04	97.6963
199.933	92.3411
202.825	90.1457
205.718	85.9198
208.611	79.4444
211.504	73.5312
214.396	64.3485
217.289	65.1952
220.182	65.0597
223.074	66.0363
225.967	67.7116
228.86	75.4907
231.752	77.7584
234.645	86.2634
237.538	95.2125
240.43	102.33
243.323	107.315
246.216	109.938
249.109	107.345
252.001	104.02
254.894	95.2478
257.787	84.3326
260.679	75.0567
263.572	68.1971
266.465	62.7401
269.358	56.1364
272.25	50.9364
275.143	45.8148
278.036	48.1632
280.928	47.4961
283.821	41.9749
286.714	31.9899
289.606	21.7887
292.499	12.1354
295.392	6.78711
298.284	6.56215
301.177	1.77017
304.07	3.86102
306.963	4.88719
309.855	1.37915
312.748	0.396347
315.641	0.317307
318.533	0.706238
321.426	1.08496
324.319	2.24355
327.212	2.39496
330.104	6.62434
332.997	5.50809
335.89	3.56575
338.782	3.73848
341.675	5.04999
344.568	11.0856
347.46	8.85429
350.353	8.10721
353.246	11.0522
356.139	18.8533
359.031	25.7084
361.924	34.8638
364.817	41.6332
367.709	46.839
370.602	57.5182
373.495	60.4426
376.387	70.2858
379.28	68.2428
382.173	53.2731
385.065	43.2624
387.958	39.9027
390.851	33.8242
393.744	32.2617
396.636	35.9859
399.529	47.1321
402.422	74.0432
405.314	97.8784
408.207	122.974
411.1	171.254
413.993	301.932
416.885	495.554
419.778	205.065
422.671	39.8307
425.563	32.7199
428.456	42.2245
431.349	35.9488
434.241	13.5699
437.134	9.00996
440.027	11.2138
442.92	18.8512
445.812	33.1476
448.705	53.8462
451.598	17.235
454.49	10.8197
457.383	12.0082
460.276	17.3771
463.168	20.3336
466.061	27.5738
468.954	29.4044
471.846	34.7473
474.739	32.9702
477.632	25.5877
480.525	21.8107
483.417	16.4309
486.31	12.6258
489.203	5.88623
492.095	1.63541
494.988	0.892929
497.881	1.79631
500.774	1.3607
503.666	2.84891
506.559	0.976898
509.452	1.62009
512.344	1.92969
515.237	0.821548
518.13	3.00197
521.022	1.49217
523.915	4.12277
526.808	9.55122
529.701	15.998
532.593	17.3692
535.486	21.5603
538.379	21.4208
541.271	23.5004
544.164	21.3007
547.057	19.8568
549.949	16.4449
552.842	13.241
555.735	10.2682
558.628	6.26958
561.52	10.154
564.413	14.185
567.306	18.3616
570.198	31.9764
573.091	58.4719
575.984	105.069
578.876	59.5652
581.769	13.2233
584.662	3.20038
587.554	1.3783
590.447	1.92748
593.34	2.63571
596.232	0.951706
599.125	0.287796
602.018	2.41757
604.911	3.10687
607.803	5.83723
610.696	8.6989
613.589	9.69016
616.481	10.4009
619.374	14.142
622.267	10.1535
625.159	13.5758
628.052	11.3169
630.945	13.012
633.838	17.2734
636.73	17.5114
639.623	16.8264
642.516	16.8947
645.408	17.2025
648.301	21.2129
651.194	24.2789
654.087	25.6511
656.979	29.9964
659.872	31.888
662.765	38.5256
665.657	46.5121
668.55	46.2217
671.443	44.5493
674.335	43.8687
677.228	41.9213
680.121	36.7694
683.014	34.5683
685.906	29.0478
688.799	31.8548
691.692	34.8822
694.584	35.5341
697.477	40.0238
700.37	43.9302
703.263	54.3858
706.155	61.6442
709.048	52.9829
711.941	32.0205
714.833	13.1983
717.726	2.64078
720.619	3.946
723.511	3.62724
726.404	0.859192
729.297	8.10439
732.189	15.6741
735.082	37.1357
737.975	60.7707
740.868	95.3459
743.76	138.575
746.653	185.523
749.546	205.503
752.438	171.096
755.331	106.976
758.224	66.2774
761.116	38.8616
764.009	23.4074
766.902	14.9833
769.795	12.3727
772.687	8.41574
775.58	5.13716
778.473	6.92726
781.365	4.56744
784.258	4.18262
787.151	0.624756
790.043	3.08104
792.936	2.74461
795.829	5.18193
798.722	4.40498
801.614	1.24448
804.507	4.94643
807.4	3.72199
810.292	2.46683
813.185	2.97348
816.078	4.53847
818.971	4.01975
821.863	3.58141
824.756	1.33035
827.649	2.31042
830.541	1.47011
833.434	1.25411
836.327	0.357773
839.219	0.353012
842.112	0.516739
845.005	0.107635
847.898	1.76788
850.79	1.88881
853.683	1.95416
856.576	1.43539
859.468	4.18471
862.361	2.65327
865.254	2.35509
868.146	0.090576
871.039	2.53896
873.932	3.9458
876.824	2.18297
879.717	4.45717
882.61	0.362961
885.503	3.84477
888.395	3.22006
891.288	2.90169
894.181	3.31844
897.073	3.23872
899.966	4.58598
902.859	4.96008
905.751	2.75722
908.644	3.58998
911.537	3.49818
914.43	4.2059
917.322	3.37164
920.215	5.38359
923.108	4.96376
926	5.97693
928.893	4.84114
931.786	3.96828
934.678	2.5
937.571	4.58514
940.464	2.06494
943.357	0.275879
946.249	3.69815
949.142	4.11562
952.035	5.34403
954.927	2.52155
957.82	6.31271
960.713	6.85744
963.606	3.70865
966.498	4.64668
969.391	3.44952
972.284	1.75131
975.176	5.86841
978.069	4.94428
980.962	3.69675
983.854	2.82567
986.747	2.43434
989.64	0.327408
992.533	3.5519
995.425	1.35803
998.318	1.2666
1001.21	3.98526
1004.1	2.5894
1007	3.41318
1009.89	0.439774
1012.78	1.20058
1015.67	0.297607
1018.57	2.06569
1021.46	4.05176
1024.35	0.440033
1027.24	0.248032
1030.14	1.01038
1033.03	2.18938
1035.92	2.55621
1038.82	3.65092
1041.71	1.23619
1044.6	1.64506
1047.49	1.67171
1050.39	3.2225
1053.28	4.64123
1056.17	3.39755
1059.07	3.85226
1061.96	2.532
1064.85	3.00502
1067.74	2.33131
1070.63	1.12736
1073.53	3.81326
1076.42	0.66954
1079.31	2.08008
1082.21	4.44379
1085.1	2.55844
1087.99	3.34064
1090.88	0.449707
1093.78	1.23392
1096.67	5.35822
1099.56	2.5361
1102.45	1.64844
1105.35	2.47775
1108.24	1.80679
1111.13	2.15476
1114.03	2.30252
1116.92	1.69189
1119.81	1.45074
1122.7	1.87299
1125.6	0.993652
1128.49	2.42627
1131.38	1.47138
1134.28	1.06229
1137.17	0.172241
1140.06	0.242432
1142.95	4.44739
1145.85	0.952026
1148.74	0.799896
1151.63	0.460693
1154.52	0.77951
1157.42	4.89578
1160.31	0.639252
1163.2	2.5542
1166.09	1.49695
1168.99	2.43411
1171.88	4.67755
1174.77	3.01092
1177.66	5.33118
1180.56	2.57196
1183.45	0.809143
1186.34	4.53082
1189.24	3.63702
1192.13	4.1485
1195.02	2.65958
1197.91	3.93964
1200.81	4.47354
1203.7	4.55164
1206.59	2.50116
1209.48	6.0834
1212.38	3.94708
1215.27	4.44367
1218.16	0.182312
1221.06	1.11627
1223.95	2.15018
1226.84	1.16132
1229.73	2.43201
1232.63	2.58746
1235.52	1.50897
1238.41	0.890442
1241.31	2.11984
1244.2	2.57632
1247.09	2.33469
1249.98	0.536682
1252.88	1.65842
1255.77	2.21085
1258.66	5.13446
1261.55	1.45343
1264.45	2.60284
1267.34	2.75162
1270.23	4.14471
1273.12	1.47116
1276.02	2.04172
1278.91	4.20517
1281.8	3.67282
1284.69	2.45218
1287.59	5.29712
1290.48	4.76117
1293.37	1.57672
1296.27	6.02338
1299.16	1.39862
1302.05	1.39831
