Measurement: Raman, 532 nm, unoriented, Raman Data Processed
Mineral: Corundum
Rruff sample: R110110
Ideal chemistry: Al_2_O_3_
Locality: Synthetic
Source: Gemological Institute of America
Description: A cut, blue (3.26ct) sapphire gemstone, grown by flame fusion.
Raman shift (cm-1)	intensity
90.4922	0
93.867	0.879883
97.2418	4.25693
100.617	3.18756
103.992	2.70583
107.366	5.30215
110.741	1.78035
114.116	7.41782
117.491	6.55661
120.865	9.29088
124.24	6.605
127.615	6.05135
130.99	5.79793
134.365	2.13715
137.74	1.84984
141.114	0.8284
144.489	1.06554
147.864	2.39996
151.239	3.67009
154.614	5.20328
157.988	9.82478
161.363	21.4225
164.738	30.1407
168.113	42.3922
171.488	55.0147
174.863	70.9807
178.237	78.0601
181.612	75.1664
184.987	67.3441
188.362	63.3375
191.737	57.4346
195.112	51.3392
198.486	47.0835
201.861	43.2054
205.236	40.8617
208.611	38.7113
211.986	32.1569
215.36	31.6468
218.735	32.3406
222.11	29.7611
225.485	31.7159
228.86	31.7831
232.234	33.9162
235.609	36.1638
238.984	39.0255
242.359	41.0727
245.734	44.9717
249.109	44.4704
252.483	42.7045
255.858	42.1284
259.233	32.8808
262.608	29.9964
265.983	27.0053
269.358	21.5563
272.732	19.1137
276.107	19.9871
279.482	17.8077
282.857	18.3525
286.232	16.4794
289.606	8.78162
292.981	5.90152
296.356	2.1405
299.731	0.63028
303.106	1.74559
306.481	1.52574
309.855	1.56757
313.23	3.17299
316.605	0.733002
319.98	0.729813
323.355	0.049652
326.729	0.507629
330.104	2.05737
333.479	2.6595
336.854	3.86655
340.229	0.058823
343.603	2.85307
346.978	4.05987
350.353	2.45406
353.728	2.62494
357.103	5.85098
360.478	8.66713
363.852	16.5404
367.227	24.9118
370.602	35.8056
373.977	54.9408
377.352	110.452
380.726	164.339
384.101	36.8727
387.476	20.3445
390.851	14.0739
394.226	13.7409
397.601	13.2834
400.975	15.8784
404.35	28.0555
407.725	40.4299
411.1	59.2907
414.475	113.624
417.849	269.6
421.224	73.0214
424.599	24.3574
427.974	35.7043
431.349	54.7597
434.724	18.4186
438.098	5.132
441.473	1.90576
444.848	2.16833
448.223	9.05766
451.598	5.08678
454.972	2.34145
458.347	2.00194
461.722	5.14593
465.097	6.8329
468.472	7.77292
471.846	12.4403
475.221	14.3477
478.596	10.8928
481.971	9.25696
485.346	6.59479
488.721	4.04774
492.095	0.645187
495.47	1.43869
498.845	1.62234
502.22	1.73453
505.595	7.28131
508.969	1.36839
512.344	0.844421
515.719	0.700653
519.094	1.71819
522.469	1.13422
525.844	2.80121
529.218	6.7524
532.593	6.04338
535.968	9.29787
539.343	9.59285
542.718	10.5087
546.092	10.2946
549.467	8.83194
552.842	4.43572
556.217	6.40475
559.592	5.5081
562.967	2.25253
566.341	4.01364
569.716	4.80839
573.091	8.08777
576.466	21.4357
579.841	15.398
583.216	3.04833
586.59	0.328568
589.965	0.437607
593.34	0.55307
596.715	1.65924
600.09	1.3214
603.464	0.487991
606.839	1.29381
610.214	2.63899
613.589	4.03824
616.964	3.33156
620.338	4.49992
623.713	3.92464
627.088	6.39644
630.463	7.6057
633.838	12.4154
637.212	15.6583
640.587	23.1513
643.962	32.0877
647.337	27.9053
650.712	19.983
654.087	16.7355
657.461	16.2471
660.836	17.816
664.211	17.3596
667.586	20.1483
670.961	20.0221
674.335	19.9257
677.71	15.5029
681.085	16.1981
684.46	15.9365
687.835	13.4179
691.21	14.2827
694.584	14.6129
697.959	15.8562
701.334	18.2417
704.709	23.2208
708.084	28.0849
711.458	21.8376
714.833	11.3988
718.208	4.77559
721.583	1.96046
724.958	0.408371
728.332	2.33639
731.707	1.31317
735.082	2.05629
738.457	5.55511
741.832	12.8079
745.207	22.0995
748.581	34.0864
751.956	34.8855
755.331	22.656
758.706	10.8527
762.081	8.21782
765.456	3.94661
768.83	1.87675
772.205	2.11696
775.58	3.13278
778.955	2.00468
782.33	1.49849
785.704	0.604645
789.079	2.54402
792.454	1.00328
795.829	0.830368
799.204	2.52226
802.578	0.208466
805.953	1.097
809.328	2.07227
812.703	2.25932
816.078	2.65324
819.453	4.48292
822.827	2.31418
826.202	0.766342
829.577	1.34862
832.952	1.66702
836.327	0.540329
839.702	0.928574
843.076	0.505127
846.451	2.01549
849.826	2.0846
853.201	0.20285
856.576	0.414642
859.95	1.22524
863.325	1.55266
866.7	1.9566
870.075	1.05362
873.45	2.06799
876.824	2.55867
880.199	1.18085
883.574	2.00017
886.949	2.59692
890.324	2.82529
893.698	0.80574
897.073	0.464218
900.448	0.864456
903.823	1.1534
907.198	2.13937
910.573	4.90318
913.947	0.777039
917.322	2.76811
920.697	3.2049
924.072	3.56099
927.447	2.85722
930.822	2.30095
934.196	0.873306
937.571	0.048355
940.946	0.143143
944.321	0.235153
947.696	0.0923
951.07	0.884796
954.445	2.03528
957.82	1.57098
961.195	1.11354
964.57	1.55397
967.944	2.02052
971.319	2.23752
974.694	0.25029
978.069	2.79768
981.444	0.651535
984.819	0.44519
988.193	2.37953
991.568	0.423965
994.943	0.826385
998.318	1.20901
1001.69	2.85281
1005.07	0.481903
1008.44	1.7661
1011.82	1.15398
1015.19	0.28331
1018.57	0.477859
1021.94	0.59845
1025.32	1.19394
1028.69	1.83873
1032.07	1.8203
1035.44	2.77182
1038.82	0.527145
1042.19	2.00098
1045.57	1.65978
1048.94	2.33408
1052.32	2.53751
1055.69	2.20912
1059.07	2.767
1062.44	2.51463
1065.81	2.24361
1069.19	0.630402
1072.56	2.07884
1075.94	2.1366
1079.31	1.52957
1082.69	2.02812
1086.06	0.225189
1089.44	1.55512
1092.81	3.59319
1096.19	2.61391
1099.56	3.28831
1102.94	0.435287
1106.31	1.43396
1109.69	0.629669
1113.06	0.943405
1116.44	2.11162
1119.81	3.40398
1123.19	2.80396
1126.56	1.70979
1129.94	1.42819
1133.31	1.59938
1136.68	0.228989
1140.06	2.24153
1143.43	0.774185
1146.81	1.23785
1150.18	1.35649
1153.56	2.02956
1156.93	0.997528
1160.31	1.5159
1163.68	1.19742
1167.06	2.51181
1170.43	0.306854
1173.81	0.882385
1177.18	2.26495
1180.56	0.567139
1183.93	2.33888
1187.31	1.53944
1190.68	1.33466
1194.06	0.509323
1197.43	3.99698
1200.81	2.50577
1204.18	2.86664
1207.56	1.68803
1210.93	1.53836
1214.31	3.72156
1217.68	1.64392
1221.06	0.67041
1224.43	1.2551
1227.81	1.90997
1231.18	1.45346
1234.56	0.788116
1237.93	2.74292
1241.31	0.378967
1244.68	2.52087
1248.05	1.45154
1251.43	1.99152
1254.8	0.325287
1258.18	1.09543
1261.55	0.889099
1264.93	1.70728
1268.3	1.6926
1271.68	3.62512
1275.05	3.92069
1278.43	3.31757
1281.8	1.59363
1285.18	0.045044
1288.55	4.84525
1291.93	0.46582
1295.3	0.975372
1298.68	1.41782
1302.05	0.770203
