Measurement: Raman, 532 nm, unoriented, Raman Data Processed
Mineral: Corundum
Rruff sample: X080005
Ideal chemistry: Al_2_O_3_
Locality: Synthetic
Source: Gemological Institute of America
Description: Faceted pink sapphire gemstone, 2.51 ct
Raman shift (cm-1)	intensity
144.523	0
147.416	8.16968
150.308	3.53638
153.201	12.1362
156.094	9.61267
158.986	4.56055
161.879	8.96045
164.772	11.88
167.664	7.66956
170.557	4.34741
173.45	5.70007
176.343	7.25513
179.235	10.3248
182.128	6.76367
185.021	12.0754
187.913	12.0245
190.806	15.6714
193.699	5.93286
196.591	7.12939
199.484	4.30823
202.377	0.138184
205.269	4.91711
208.162	3.27942
211.055	1.18518
213.948	8.07349
216.84	14.1654
219.733	18.9552
222.626	18.5182
225.518	30.4675
228.411	20.978
231.304	16.4021
234.196	32.0504
237.089	31.4424
239.982	27.328
242.875	31.0299
245.767	21.7053
248.66	30.6003
251.553	32.9712
254.445	27.6916
257.338	27.8102
260.231	22.807
263.123	25.1077
266.016	29.3058
268.909	21.3279
271.802	19.2897
274.694	18.4301
277.587	16.6809
280.48	16.4183
283.372	22.8672
286.265	20.9471
289.158	18.6301
292.05	23.4866
294.943	19.5243
297.836	14.1079
300.729	14.871
303.621	8.9917
306.514	3.77283
309.407	3.49219
312.299	12.4341
315.192	5.62671
318.085	5.64661
320.978	1.87158
323.87	5.13086
326.763	2.99402
329.656	7.9541
332.548	5.27966
335.441	6.52966
338.334	14.5442
341.226	1.54675
344.119	0.088379
347.012	0.59082
349.904	8.72217
352.797	7.01233
355.69	0.323608
358.583	11.1538
361.475	3.82703
364.368	0.815796
367.261	1.89954
370.153	6.07422
373.046	8.03064
375.939	11.6036
378.832	18.9072
381.724	5.44385
384.617	6.79297
387.51	7.83533
390.402	4.35144
393.295	0.266113
396.188	9.05579
399.08	14.7006
401.973	32.783
404.866	38.5077
407.759	77.4688
410.651	126.323
413.544	267.553
416.437	601.826
419.329	364.349
422.222	59.8961
425.115	38.5853
428.007	43.8657
430.9	47.402
433.793	20.0496
436.685	8.9928
439.578	6.38623
442.471	9.67993
445.364	19.2533
448.256	51.9159
451.149	18.187
454.042	3.97009
456.934	0.323486
459.827	1.71838
462.72	3.90051
465.613	4.63672
468.505	3.28711
471.398	1.55286
474.291	8.79883
477.183	4.20544
480.076	0.187744
482.969	5.71741
485.861	6.15344
488.754	3.60583
491.647	1.23755
494.539	8.11121
497.432	8.66431
500.325	10.8695
503.218	8.4696
506.11	15.5306
509.003	7.52405
511.896	6.31287
514.788	0.01123
517.681	1.54504
520.574	4.11169
523.466	5.84827
526.359	0.649536
529.252	8.51636
532.145	6.84045
535.037	2.92297
537.93	5.9126
540.823	6.47839
543.715	13.3675
546.608	7.93066
549.501	8.14038
552.394	5.85547
555.286	3.04187
558.179	5.66968
561.072	12.7239
563.964	16.8385
566.857	20.6219
569.75	32.4476
572.642	49.3951
575.535	97.271
578.428	67.8815
581.321	21.2599
584.213	18.366
587.106	9.65076
589.999	3.27478
592.891	7.19287
595.784	5.38953
598.677	1.71863
601.569	4.31677
604.462	1.8468
607.355	5.36646
610.247	8.26282
613.14	5.50037
616.033	2.21094
618.926	0.923706
621.818	1.23389
624.711	2.52051
627.604	0.409424
630.496	1.47058
633.389	2.61365
636.282	8.6499
639.174	12.7866
642.067	10.4987
644.96	10.5542
647.852	3.38452
650.745	2.46399
653.638	3.1217
656.531	17.4627
659.423	7.28894
662.316	3.20642
665.209	5.23657
668.101	7.04651
670.994	7.22144
673.887	6.0885
676.779	6.55261
679.672	5.88843
682.565	10.386
685.458	6.24036
688.35	7.32349
691.243	2.48987
694.136	2.99133
697.028	0.301147
699.921	3.14734
702.814	0.748413
705.707	4.86218
708.599	8.92993
711.492	7.38525
714.385	5.75195
717.277	10.4006
720.17	10.0934
723.063	9.44653
725.955	11.2045
728.848	27.944
731.741	32.7672
734.634	41.6708
737.526	57.3422
740.419	84.6279
743.312	117.834
746.204	157.998
749.097	187.79
751.99	155.477
754.882	107.665
757.775	73.2683
760.668	48.2549
763.561	38.6892
766.453	23.4998
769.346	22.2335
772.239	16.1442
775.131	15.6511
778.024	15.221
780.917	11.0155
783.809	3.56177
786.702	1.82739
789.595	2.01758
792.487	5.05786
795.38	4.61267
798.273	0.022095
801.166	9.25085
804.058	4.29614
806.951	8.52637
809.844	10.937
812.736	7.26502
815.629	17.2942
818.522	12.7587
821.415	11.422
824.307	4.80811
827.2	3.61585
830.093	5.73132
832.985	1.42749
835.878	8.76965
838.771	4.88477
841.663	11.9876
844.556	8.81812
847.449	9.11792
850.342	14.6979
853.234	14.7692
856.127	11.7516
859.02	14.491
861.912	20.7715
864.805	23.0037
867.698	19.1378
870.591	18.8795
873.483	19.0713
876.376	15.485
879.269	12.5549
882.161	6.68591
885.054	5.19299
887.947	1.58826
890.839	5.50256
893.732	2.89795
896.625	2.27991
899.518	4.58264
902.41	9.91736
905.303	8.18872
908.196	12.7335
911.088	14.9233
913.981	15.4524
916.874	16.2395
919.766	22.1599
922.659	26.6272
925.552	26.4229
928.444	26.6467
931.337	21.6211
934.23	6.52393
937.123	7.09668
940.015	4.87109
942.908	4.70728
945.801	2.01562
948.693	1.80469
951.586	0.136963
954.479	3.5
957.371	5.8772
960.264	7.96997
963.157	11.9968
966.05	9.71509
968.942	8.85596
971.835	5.62769
974.728	10.8474
977.62	10.2278
980.513	20.7146
983.406	19.0523
986.298	17.0959
989.191	9.05225
992.084	7.88061
994.977	14.1611
997.869	16.0706
1000.76	10.5498
1003.65	11.0176
1006.55	13.8005
1009.44	5.86792
1012.33	16.8027
1015.23	9.2373
1018.12	1.21655
1021.01	7.16455
1023.9	8.41382
1026.8	5.24951
1029.69	9.24707
1032.58	0.466064
1035.47	2.15772
1038.37	4.66602
1041.26	12.0666
1044.15	14.1668
1047.05	17.2351
1049.94	8.58032
1052.83	5.50635
1055.72	10.0005
1058.62	7.96753
1061.51	12.3103
1064.4	15.1199
1067.29	7.51904
1070.19	2.31177
1073.08	7.95654
1075.97	11.7546
1078.87	13.6174
1081.76	13.0471
1084.65	8.71411
1087.54	1.12891
1090.44	6.14917
1093.33	3.39087
1096.22	13.5244
1099.11	12.4956
1102.01	25.5879
1104.9	24.2227
1107.79	16.667
1110.68	9.18921
1113.58	12.3113
1116.47	12.3254
1119.36	9.62305
1122.26	18.5068
1125.15	5.75928
1128.04	17.6235
1130.93	15.969
1133.83	19.9448
1136.72	18.3911
1139.61	15.3945
1142.5	14.1365
1145.4	0.32251
1148.29	2.63843
1151.18	7.65454
1154.08	3.00317
1156.97	10.4087
1159.86	3.98096
1162.75	1.17725
1165.65	8.68115
1168.54	12.2622
1171.43	8.98145
1174.32	9.04565
1177.22	16.5073
1180.11	11.1997
1183	6.33838
1185.89	13.2407
1188.79	13.3298
1191.68	8.38281
1194.57	13.9255
1197.47	12.4895
1200.36	16.6531
1203.25	5.2251
1206.14	2.06152
