Measurement: Raman, 532 nm, unoriented, Raman Data Processed
Mineral: Corundum
Rruff sample: X080006
Ideal chemistry: Al_2_O_3_
Locality: Synthetic
Source: Gemological Institute of America
Description: Faceted blue sapphire gemstone, 2.46 ct
Raman shift (cm-1)	intensity
91.0078	0
94.3826	0.186737
97.7575	1.90173
101.132	1.27154
104.507	4.94046
107.882	5.87216
111.257	9.2189
114.632	17.0059
118.006	17.4634
121.381	25.9142
124.756	31.0297
128.131	36.2169
131.506	40.751
134.88	22.2458
138.255	17.5518
141.63	9.52899
145.005	3.62573
148.38	2.14957
151.755	0.025299
155.129	2.67996
158.504	4.95752
161.879	4.62293
165.254	7.09668
168.629	13.0956
172.003	15.7268
175.378	18.1484
178.753	17.1681
182.128	15.3727
185.503	16.1021
188.877	12.8138
192.252	11.4311
195.627	6.47501
199.002	3.47015
202.377	2.78076
205.752	0.272614
209.126	0.892258
212.501	0.905563
215.876	0.351089
219.251	2.7493
222.626	2.92935
226	6.14125
229.375	8.50565
232.75	9.73756
236.125	16.7899
239.5	22.0592
242.875	26.9557
246.249	27.2067
249.624	27.3569
252.999	28.6381
256.374	26.8377
259.749	23.1373
263.123	21.2231
266.498	20.1984
269.873	18.9709
273.248	16.5154
276.623	15.4739
279.998	12.9642
283.372	14.7447
286.747	11.1007
290.122	9.39792
293.497	5.40301
296.872	3.84299
300.247	2.05373
303.621	0.971146
306.996	0.836273
310.371	1.06374
313.746	1.80115
317.12	0.999588
320.495	1.50156
323.87	0.646774
327.245	0.723022
330.62	0.195068
333.995	1.68315
337.369	0.346848
340.744	1.12573
344.119	2.49731
347.494	2.95378
350.869	4.08055
354.243	4.05981
357.618	6.26494
360.993	8.75195
364.368	10.5574
367.743	11.0951
371.118	15.7537
374.492	19.8667
377.867	31.1192
381.242	21.0954
384.617	12.629
387.992	10.5219
391.366	9.52423
394.741	9.55983
398.116	13.6778
401.491	27.6729
404.866	39.3134
408.241	54.553
411.615	90.8748
414.99	202.257
418.365	283.676
421.74	36.9275
425.115	21.7367
428.49	36.3506
431.864	29.9514
435.239	9.09906
438.614	5.92442
441.989	10.3717
445.364	20.696
448.738	48.1212
452.113	8.84123
455.488	1.12575
458.863	4.00253
462.238	6.90996
465.613	7.0909
468.987	10.6494
472.362	9.74138
475.737	9.47244
479.112	8.16443
482.486	5.48305
485.861	4.40457
489.236	0.471024
492.611	0.953232
495.986	1.23489
499.361	1.53
502.735	1.67409
506.11	1.862
509.485	0.578476
512.86	0.808258
516.235	0.160461
519.61	1.76636
522.984	2.18797
526.359	4.00221
529.734	6.82471
533.109	7.15497
536.484	7.67638
539.859	10.0575
543.233	10.475
546.608	8.22757
549.983	6.70454
553.358	4.94725
556.732	5.9482
560.107	7.53853
563.482	10.9878
566.857	15.4477
570.232	29.1023
573.607	54.1802
576.981	97.4664
580.356	25.641
583.731	5.87787
587.106	1.94163
590.481	0.524368
593.856	0.600662
597.23	1.40181
600.605	0.106903
603.98	0.356049
607.355	2.37941
610.73	4.30987
614.104	3.87103
617.479	1.71208
620.854	1.68222
624.229	1.91916
627.604	2.96495
630.979	2.5507
634.353	5.60771
637.728	4.79202
641.103	4.80185
644.478	3.49422
647.852	3.82211
651.227	4.69302
654.602	6.75543
657.977	7.7641
661.352	7.9697
664.727	12.8483
668.101	9.55327
671.476	11.1264
674.851	9.72058
678.226	7.13649
681.601	8.28989
684.976	5.12526
688.35	3.45668
691.725	5.54863
695.1	6.91872
698.475	10.7974
701.85	11.0722
705.224	18.0484
708.599	19.3667
711.974	7.54305
715.349	1.95036
718.724	0.089966
722.098	0.30777
725.473	1.89284
728.848	9.0226
732.223	19.965
735.598	35.6121
738.973	63.5641
742.347	98.4062
745.722	145.374
749.097	176.436
752.472	144.724
755.847	83.969
759.221	47.3142
762.596	27.8661
765.971	17.5154
769.346	12.6063
772.721	8.21231
776.096	7.46549
779.47	4.18881
782.845	1.11115
786.22	1.57458
789.595	0.744141
792.97	0.777679
796.345	1.70084
799.719	1.59976
803.094	1.31467
806.469	1.91205
809.844	1.07642
813.219	0.209625
816.593	2.3338
819.968	3.44022
823.343	0.381744
826.718	1.81528
830.093	0.827698
833.467	0.444061
836.842	0.229095
840.217	1.64105
843.592	2.61682
846.967	1.42389
850.342	0.830933
853.716	2.3067
857.091	2.60602
860.466	3.74979
863.841	5.23444
867.216	2.7298
870.591	3.49939
873.965	3.16327
877.34	2.77033
880.715	2.81851
884.09	1.56314
887.465	1.09381
890.839	0.620667
894.214	0.062286
897.589	0.041351
900.964	1.49304
904.339	2.39227
907.713	1.17786
911.088	2.24884
914.463	3.5596
917.838	2.51984
921.213	3.63236
924.587	3.34546
927.962	2.29361
931.337	2.71075
934.712	4.79767
938.087	2.30924
941.462	1.23221
944.836	0.706116
948.211	0.410004
951.586	0.643951
954.961	2.69135
958.336	1.41946
961.711	2.51276
965.085	2.03989
968.46	0.227386
971.835	1.82638
975.21	0.428223
978.585	1.55533
981.959	2.65472
985.334	0.987091
988.709	2.22882
992.084	3.43674
995.459	2.51733
998.833	1.96027
1002.21	1.15588
1005.58	0.112152
1008.96	2.10208
1012.33	1.64535
1015.71	0.924164
1019.08	1.36807
1022.46	1.94955
1025.83	1.06506
1029.21	1.65045
1032.58	1.60083
1035.96	0.586609
1039.33	0.079498
1042.71	4.19275
1046.08	3.5144
1049.46	2.72971
1052.83	1.29349
1056.2	5.00607
1059.58	5.18796
1062.95	2.79489
1066.33	3.81488
1069.7	2.9548
1073.08	2.04745
1076.45	4.40067
1079.83	6.09644
1083.2	4.29392
1086.58	1.41354
1089.95	0.424347
1093.33	2.44034
1096.7	3.51669
1100.08	4.14899
1103.45	4.3537
1106.83	1.79483
1110.2	1.2355
1113.58	0.263611
1116.95	0.934418
1120.33	4.43481
1123.7	4.60489
1127.08	1.97946
1130.45	3.49185
1133.83	2.77554
1137.2	2.56409
1140.58	2.43024
1143.95	1.13156
1147.33	1.69611
1150.7	2.60657
1154.08	2.72858
1157.45	4.11496
1160.83	2.93234
1164.2	6.80627
1167.57	2.52033
1170.95	2.67242
1174.32	0.083069
1177.7	2.83575
1181.07	2.74167
1184.45	2.35663
1187.82	0.335449
1191.2	4.51303
1194.57	0.03833
1197.95	2.65421
1201.32	4.38168
1204.7	0.525024
1208.07	1.46799
1211.45	1.50464
1214.82	5.46759
1218.2	2.77792
1221.57	3.41794
1224.95	3.62613
1228.32	3.9353
1231.7	1.6832
1235.07	1.26883
1238.44	1.72543
1241.82	1.26093
1245.19	2.80222
1248.57	1.7681
1251.94	2.16705
1255.32	1.55356
1258.69	1.20789
1262.07	2.63287
1265.44	2.31891
1268.82	3.8974
1272.19	3.88751
1275.57	1.35071
1278.94	5.82898
1282.32	4.88696
1285.69	3.42218
1289.07	1.91675
1292.44	2.31775
1295.82	2.77216
1299.19	1.86359
1302.57	0.024658
