Measurement: Raman, 532 nm, unoriented, Raman Data Processed
Mineral: Corundum
Rruff sample: R110098
Ideal chemistry: Al_2_O_3_
Locality: Synthetic
Source: Gemological Institute of America
Description: A blue, cut (.93ct) sapphire gemstone, hydrothermally grown.
Raman shift (cm-1)	intensity
203.79	0
206.682	3.50281
209.575	4.59106
212.468	6.33106
215.36	3.31628
218.253	7.70837
221.146	1.20593
224.038	5.91785
226.931	3.68811
229.824	5.28638
232.717	7.48755
235.609	6.46887
238.502	5.49731
241.395	0.367676
244.287	3.46826
247.18	1.29956
250.073	4.71069
252.965	2.40344
255.858	1.45325
258.751	6.49695
261.644	6.32239
264.536	2.90088
267.429	5.43616
270.322	7.33411
273.214	9.32996
276.107	14.7109
279	16.4851
281.892	20.0102
284.785	21.3563
287.678	22.2878
290.571	26.6677
293.463	28.4464
296.356	30.7966
299.249	39.5549
302.141	35.4103
305.034	28.6581
307.927	24.6696
310.82	19.348
313.712	14.415
316.605	15.1063
319.498	8.93433
322.39	3.63605
325.283	2.01062
328.176	1.14075
331.068	2.05469
333.961	3.37665
336.854	5.93091
339.747	1.88348
342.639	9.62293
345.532	6.33203
348.425	6.65039
351.317	8.58087
354.21	8.97082
357.103	4.77985
359.995	8.09051
362.888	14.122
365.781	20.9142
368.673	25.3048
371.566	37.1619
374.459	62.6054
377.352	97.3837
380.244	104.07
383.137	25.3648
386.03	6.80481
388.922	0.987366
391.815	0.425964
394.708	4.57388
397.601	2.04596
400.493	12.7241
403.386	29.9603
406.279	38.9421
409.171	61.5307
412.064	100.624
414.957	168.208
417.849	250.185
420.742	85.4703
423.635	29.4066
426.527	30.4242
429.42	35.7129
432.313	36.657
435.206	17.6073
438.098	15.4663
440.991	12.5941
443.884	12.3314
446.776	9.27844
449.669	13.0832
452.562	9.2395
455.454	8.55072
458.347	10.5508
461.24	14.4102
464.133	14.7337
467.025	13.4004
469.918	17.3908
472.811	21.8527
475.703	21.108
478.596	20.2128
481.489	13.7696
484.382	3.25995
487.274	2.40253
490.167	6.65051
493.06	0.187805
495.952	5.02753
498.845	2.77344
501.738	9.30139
504.63	7.08862
507.523	7.24402
510.416	4.50549
513.308	9.5567
516.201	4.95111
519.094	1.93982
521.987	0.806641
524.879	5.28619
527.772	6.909
530.665	7.11139
533.557	7.41479
536.45	7.24347
539.343	6.68848
542.236	15.9315
545.128	14.1034
548.021	17.8125
550.914	12.903
553.806	12.8188
556.699	7.51898
559.592	12.9917
562.484	16.0149
565.377	18.9902
568.27	19.7006
571.163	23.0367
574.055	30.493
576.948	31.9415
579.841	26.8571
582.733	27.2704
585.626	18.0582
588.519	13.9985
591.411	7.38074
594.304	5.59888
597.197	1.30518
600.09	1.95923
602.982	1.8866
605.875	0.084229
608.768	1.55371
611.66	6.7478
614.553	9.31775
617.446	13.0709
620.338	12.2754
623.231	13.3293
626.124	11.5131
629.016	11.5107
631.909	11.7913
634.802	15.0283
637.695	22.3634
640.587	31.9518
643.48	38.6631
646.373	39.4373
649.265	20.4574
652.158	15.1069
655.051	14.3621
657.943	15.7808
660.836	13.4456
663.729	12.7705
666.622	6.5061
669.514	9.26074
672.407	6.05444
675.3	9.78406
678.192	5.89941
681.085	7.19263
683.978	11.8198
686.87	9.67981
689.763	13.3956
692.656	15.2707
695.549	12.1824
698.441	10.9891
701.334	9.22534
704.227	5.25
707.119	4.89978
710.012	4.08472
712.905	4.90845
715.798	3.44165
718.69	1.52192
721.583	2.4209
724.476	8.59021
727.368	20.6464
730.261	25.8469
733.154	30.2573
736.046	22.9365
738.939	24.2637
741.832	23.7557
744.725	31.3331
747.617	36.6152
750.51	41.8639
753.403	38.9335
756.295	29.2669
759.188	22.2294
762.081	14.2412
764.973	14.1439
767.866	12.969
770.759	8.67883
773.652	10.4036
776.544	13.9983
779.437	0.03418
782.33	3.00208
785.222	0.927368
788.115	2.41113
791.008	4.56531
793.9	5.96643
796.793	8.01379
799.686	8.25671
802.578	0.530518
805.471	7.45325
808.364	6.55542
811.257	3.04224
814.149	1.92529
817.042	9.58423
819.935	9.01636
822.827	4.74243
825.72	0.496216
828.613	0.819458
831.505	4.53943
834.398	1.44922
837.291	0.885864
840.184	7.15271
843.076	7.5271
845.969	3.17639
848.862	4.99414
851.754	5.98889
854.647	6.93164
857.54	8.44714
860.433	12.8201
863.325	13.8492
866.218	6.20081
869.111	1.38831
872.003	7.29541
874.896	12.0568
877.789	10.3949
880.681	2.70606
883.574	4.55835
886.467	8.63098
889.36	7.48584
892.252	9.86804
895.145	7.34351
898.038	6.51794
900.93	4.57788
903.823	14.0574
906.716	12.4748
909.608	14.7942
912.501	14.0747
915.394	15.4216
918.287	16.3743
921.179	15.2596
924.072	20.5549
926.965	20.7656
929.857	7.6001
932.75	3.85998
935.643	15.0114
938.535	11.6923
941.428	10.5043
944.321	15.8328
947.213	18.0665
950.106	9.64502
952.999	9.58203
955.892	7.00793
958.784	5.51856
961.677	3.34683
964.57	5.22278
967.462	15.9171
970.355	6.94824
973.248	1.68884
976.14	0.990845
979.033	2.64758
981.926	7.71924
984.819	4.47266
987.711	4.87207
990.604	11.0601
993.497	10.4546
996.389	8.61365
999.282	0.015381
1002.17	8.35754
1005.07	3.50342
1007.96	2.20728
1010.85	3.64017
1013.75	0.414917
1016.64	1.92151
1019.53	5.38403
1022.42	13.3543
1025.32	7.87476
1028.21	16.4917
1031.1	9.68103
1033.99	13.0102
1036.89	16.8942
1039.78	7.26611
1042.67	2.21423
1045.57	3.39832
1048.46	5.47168
1051.35	6.68726
1054.24	10.8147
1057.14	22.1445
1060.03	24.9968
1062.92	32.4075
1065.81	23.4424
1068.71	20.8189
1071.6	12.3147
1074.49	3.47559
1077.38	2.64819
1080.28	6.70996
1083.17	2.30396
1086.06	12.082
1088.96	16.7146
1091.85	18.4304
1094.74	25.895
1097.63	26.0657
1100.53	24.2034
1103.42	21.8516
1106.31	22.2891
1109.2	17.5234
1112.1	22.825
1114.99	8.47729
1117.88	10.5828
1120.78	16.5125
1123.67	6.04858
1126.56	7.87231
1129.45	3.41724
1132.35	6.06079
1135.24	4.12158
1138.13	0.524658
1141.02	5.29224
1143.92	0.126953
1146.81	4.37598
1149.7	12.3398
1152.6	6.44751
1155.49	1.65967
1158.38	6.55933
1161.27	6.75171
1164.17	24.1186
1167.06	16.9407
1169.95	16.6326
1172.84	21.7766
1175.74	24.6509
1178.63	22.7832
1181.52	34.1118
1184.41	26.874
1187.31	21.761
1190.2	22.7639
1193.09	29.5049
1195.99	30.8355
1198.88	33.8337
1201.77	29.4148
1204.66	32.7881
1207.56	43.8213
1210.45	47.5608
1213.34	53.2964
1216.23	25.0303
1219.13	12.5193
1222.02	5.73413
1224.91	7.30078
1227.81	19.8311
1230.7	6.70996
1233.59	3.70459
1236.48	7.58447
1239.38	4.02783
1242.27	7.05444
1245.16	14.105
1248.05	11.5068
1250.95	4.03589
1253.84	13.4499
1256.73	16.54
1259.62	27.9817
1262.52	21.5991
1265.41	19.1504
1268.3	25.7029
1271.2	23.1919
1274.09	31.1575
1276.98	28.0261
1279.87	25.3279
1282.77	22.5579
1285.66	13.456
1288.55	17.7964
1291.44	19.4067
1294.34	9.41748
1297.23	0.884766
1300.12	12.1055
1303.02	0
