Measurement: Raman, 780 nm, unoriented, Raman Data Processed
Mineral: Corundum
Rruff sample: R100142
Ideal chemistry: Al_2_O_3_
Locality: Nepal
Source: William W. Pinch
Description: Polished lavendar cab
Raman shift (cm-1)	intensity
114.229	0
117.604	0.486588
120.979	1.7868
124.354	2.34821
127.728	2.54922
131.103	1.07536
134.478	2.59148
137.853	1.67583
141.228	1.14827
144.602	4.41173
147.977	5.26511
151.352	6.07854
154.727	4.55278
158.102	6.40933
161.477	3.81976
164.851	4.49998
168.226	1.96234
171.601	1.86302
174.976	0.938263
178.351	0.979126
181.726	1.2202
185.1	2.95834
188.475	2.51344
191.85	3.27097
195.225	2.9317
198.6	3.93646
201.974	4.56067
205.349	3.17482
208.724	5.34058
212.099	3.58695
215.474	3.06805
218.848	2.70323
222.223	4.88719
225.598	2.93301
228.973	1.84798
232.348	5.3544
235.722	3.96726
239.097	2.00583
242.472	4.17923
245.847	4.18362
249.222	3.02345
252.597	3.09543
255.971	0.830368
259.346	0.086838
262.721	2.13211
266.096	1.79877
269.471	2.14038
272.846	1.80527
276.22	1.81906
279.595	3.11005
282.97	4.17593
286.345	3.08665
289.719	2.08354
293.094	0.086899
296.469	1.06979
299.844	1.98964
303.219	0.24176
306.594	2.11578
309.968	1.75244
313.343	0.317215
316.718	0.735596
320.093	1.73152
323.468	3.03844
326.842	0.608932
330.217	2.47569
333.592	4.48067
336.967	0.552979
340.342	4.22684
343.717	1.05333
347.091	2.10046
350.466	1.02898
353.841	0.541809
357.216	1.78493
360.591	3.41894
363.965	6.43176
367.34	6.20871
370.715	6.61346
374.09	15.0472
377.465	56.7852
380.839	31.7996
384.214	2.62848
387.589	0.411499
390.964	0.601059
394.339	0.077255
397.714	2.6799
401.088	8.80118
404.463	9.03388
407.838	17.4308
411.213	39.5317
414.588	160.369
417.962	262.681
421.337	32.1207
424.712	10.8827
428.087	18.4188
431.462	15.2562
434.837	5.3127
438.211	5.56384
441.586	7.08903
444.961	19.0457
448.336	45.5397
451.711	17.1159
455.085	6.44543
458.46	4.58672
461.835	6.02754
465.21	4.82964
468.585	7.68044
471.959	6.43018
475.334	5.68967
478.709	7.87083
482.084	8.90231
485.459	8.3161
488.834	10.0214
492.208	9.96025
495.583	8.98738
498.958	8.82031
502.333	8.96201
505.708	6.05611
509.082	5.65526
512.457	6.64531
515.832	5.31833
519.207	0.775894
522.582	2.12286
525.957	1.23077
529.331	1.82658
532.706	0.449234
536.081	0.922989
539.456	1.06796
542.831	0.489929
546.205	0.208801
549.58	3.66667
552.955	3.11771
556.33	0.769257
559.705	1.20633
563.08	3.43308
566.454	0.283356
569.829	3.15721
573.204	12.8209
576.579	25.3866
579.954	6.82845
583.328	2.11984
586.703	0.2052
590.078	1.12279
593.453	0.68132
596.828	0.746254
600.202	0.599159
603.577	1.37334
606.952	1.77145
610.327	1.56239
613.702	0.725899
617.077	1.83834
620.451	0.011131
623.826	3.53194
627.201	2.2546
630.576	3.60072
633.951	5.65619
637.325	7.31197
640.7	15.3494
644.075	19.9177
647.45	13.2718
650.825	8.58835
654.199	3.15893
657.574	3.48803
660.949	2.858
664.324	1.4909
667.699	2.1186
671.073	0.00827
674.448	0.459976
677.823	1.02815
681.198	1.64459
684.573	1.08414
687.948	1.02642
691.322	0.850952
694.697	0.764664
698.072	0.9142
701.447	0.761368
704.822	1.30462
708.197	0.155327
711.571	2.2931
714.946	2.65938
718.321	3.61951
721.696	5.58725
725.071	7.04933
728.445	9.77928
731.82	13.8193
735.195	18.36
738.57	23.8938
741.945	34.3072
745.319	48.9464
748.694	63.842
752.069	57.1005
755.444	43.4706
758.819	35.2707
762.193	33.8178
765.568	34.2818
768.943	34.8974
772.318	38.3491
775.693	40.292
779.068	43.0423
782.442	41.0037
785.817	42.7278
789.192	42.0882
792.567	39.8276
795.942	36.1515
799.317	32.9604
802.691	29.5287
806.066	24.9696
809.441	20.1053
812.816	15.133
816.191	13.0146
819.565	11.1992
822.94	7.56918
826.315	5.65106
829.69	2.42268
833.065	1.29678
836.439	1.80862
839.814	2.5547
843.189	0.733017
846.564	1.50192
849.939	0.12735
853.313	0.011063
856.688	1.65073
860.063	0.781082
863.438	0.226929
866.813	0.612183
870.188	1.3535
873.562	0.198929
876.937	0.077515
880.312	0.483963
883.687	1.62387
887.062	1.02415
890.437	1.36191
893.811	1.63827
897.186	1.37077
900.561	1.33623
903.936	3.53745
907.311	2.0827
910.685	2.26435
914.06	2.89346
917.435	2.17924
920.81	3.20895
924.185	0.141708
927.559	3.5621
930.934	3.47665
934.309	1.50946
937.684	2.11726
941.059	0.954361
944.433	1.36754
947.808	2.23164
951.183	1.30708
954.558	1.38898
957.933	2.40067
961.308	1.83511
964.682	0.052727
968.057	1.10578
971.432	1.57996
974.807	1.16401
978.182	1.52949
981.557	1.40757
984.931	2.66267
988.306	0.659752
991.681	3.17094
995.056	2.80073
998.431	1.2174
1001.8	1.89239
1005.18	1.35729
1008.55	2.20905
1011.93	1.82833
1015.3	1.33689
1018.68	2.04487
1022.05	2.60459
1025.43	2.02024
1028.8	1.78506
1032.18	1.02133
1035.55	2.35442
1038.93	1.42592
1042.3	1.32053
1045.68	2.81273
1049.05	1.89391
1052.43	0.827553
1055.8	0.390511
1059.18	0.29731
1062.55	0.301575
1065.93	0.793045
1069.3	1.7328
1072.68	0.274323
1076.05	1.29472
1079.43	0.235718
1082.8	1.7247
1086.18	0.374687
1089.55	0.561462
1092.92	1.90085
1096.3	4.25488
1099.67	6.22167
1103.05	8.8341
1106.42	14.6767
1109.8	20.692
1113.17	29.8074
1116.55	43.321
1119.92	63.3588
1123.3	96.9643
1126.67	154.397
1130.05	244.295
1133.42	382.304
1136.8	572.735
1140.17	699.239
1143.55	681.384
1146.92	686.883
1150.3	751.751
1153.67	719.935
1157.05	539.811
1160.42	355.064
1163.8	232.834
1167.17	160.868
1170.55	112.2
1173.92	81.0207
1177.3	61.4307
1180.67	44.525
1184.05	35.6335
1187.42	27.0449
1190.8	21.5157
1194.17	18.1777
1197.55	13.0133
1200.92	8.63889
1204.29	5.25624
1207.67	5.22211
1211.04	5.1585
1214.42	2.76884
1217.79	0.002045
1221.17	1.90869
1224.54	1.24453
1227.92	0.579514
1231.29	1.0789
1234.67	0.224312
1238.04	0.341141
1241.42	0.793114
1244.79	0.278999
1248.17	1.43317
1251.54	2.18562
1254.92	3.52439
1258.29	3.84917
1261.67	4.25526
1265.04	1.8325
1268.42	2.2372
1271.79	1.7878
1275.16	1.96401
1278.54	1.9948
1281.91	1.82826
