Measurement: Raman, 780 nm, unoriented, Raman Data Processed
Mineral: Corundum
Rruff sample: R110110
Ideal chemistry: Al_2_O_3_
Locality: Synthetic
Source: Gemological Institute of America
Description: A cut, blue (3.26ct) sapphire gemstone, grown by flame fusion.
Raman shift (cm-1)	intensity
91.6035	0
94.9783	127.856
98.3531	79.9259
101.728	43.5756
105.103	45.0471
108.478	56.3184
111.852	32.1768
115.227	21.8132
118.602	1.53845
121.977	7.48865
125.352	14.926
128.726	12.3975
132.101	1.82202
135.476	21.0521
138.851	63.5588
142.226	104.347
145.601	163.629
148.975	221.587
152.35	264.409
155.725	291.052
159.1	302.926
162.475	317.137
165.85	342.776
169.224	371.423
172.599	397.789
175.974	423.061
179.349	422.489
182.724	412.04
186.098	384.305
189.473	346.263
192.848	317.441
196.223	292.527
199.598	277.812
202.972	271.662
206.347	287.016
209.722	299.586
213.097	325.224
216.472	361.85
219.847	386.387
223.221	415.448
226.596	427.888
229.971	445.301
233.346	438.521
236.721	427.257
240.095	443.455
243.47	460.448
246.845	455.623
250.22	428.645
253.595	396.411
256.969	340.273
260.344	273.435
263.719	234.892
267.094	202.202
270.469	166.424
273.844	136.361
277.218	120.805
280.593	102.677
283.968	77.2472
287.343	37.2355
290.718	10.5685
294.092	0.334839
297.467	15.4913
300.842	1.62439
304.217	18.8301
307.592	31.477
310.967	21.1206
314.341	13.1737
317.716	3.83813
321.091	0.268799
324.466	10.3594
327.841	22.1796
331.216	21.1168
334.59	13.563
337.965	24.9083
341.34	65.964
344.715	90.6697
348.09	70.5975
351.464	75.0901
354.839	122.459
358.214	202.432
361.589	286.844
364.964	332.086
368.339	397.316
371.713	497.793
375.088	692.04
378.463	1131.01
381.838	529.41
385.213	282.094
388.587	225.393
391.962	204.291
395.337	200.573
398.712	264.174
402.087	414.473
405.462	467.816
408.836	624.198
412.211	936.277
415.586	2012.53
418.961	1497.73
422.336	139.085
425.71	78.9039
429.085	163.784
432.46	69.1375
435.835	12.7689
439.21	3.84741
442.584	34.582
445.959	76.01
449.334	78.154
452.709	41.4976
456.084	77.5019
459.459	119.962
462.833	171.953
466.208	224.032
469.583	273.951
472.958	310.663
476.333	261.035
479.707	188.692
483.082	153.954
486.457	98.2114
489.832	35.2695
493.207	13.6165
496.582	66.585
499.956	105.96
503.331	92.2566
506.706	71.3354
510.081	53.9054
513.456	24.8785
516.83	16.0354
520.205	4.55408
523.58	4.29797
526.955	38.8081
530.33	53.9121
533.705	81.5204
537.079	102.193
540.454	120.792
543.829	97.7311
547.204	80.4298
550.579	46.3511
553.953	24.5828
557.328	2.99402
560.703	3.22461
564.078	1.64783
567.453	6.93677
570.827	25.1279
574.202	67.891
577.577	90.5282
580.952	27.36
584.327	0.593384
587.702	14.5607
591.077	28.2899
594.451	12.0941
597.826	3.22473
601.201	9.17456
604.576	19.4446
607.951	29.2244
611.325	37.4496
614.7	33.5397
618.075	51.8417
621.45	53.2993
624.825	61.9578
628.199	96.2214
631.574	131.744
634.949	183.125
638.324	256.491
641.699	367.056
645.073	423.751
648.448	349.266
651.823	325.237
655.198	336.519
658.573	383.784
661.948	432.947
665.322	477.201
668.697	488.237
672.072	476.663
675.447	454.861
678.822	411.199
682.197	379.186
685.571	387.753
688.946	421.709
692.321	495.908
695.696	581.044
699.071	661.166
702.445	732.43
705.82	739.29
709.195	592.343
712.57	359.899
715.945	201.134
719.319	116.089
722.694	64.3467
726.069	37.626
729.444	24.3283
732.819	27.3356
736.194	31.1816
739.568	55.2771
742.943	90.8054
746.318	141.22
749.693	165.466
753.068	109.658
756.442	41.3656
759.817	4.91138
763.192	11.2599
766.567	18.9774
769.942	12.6526
773.317	2.02332
776.691	6.14123
780.066	15.9797
783.441	22.3527
786.816	20.5095
790.191	29.3445
793.566	26.8256
796.94	34.5284
800.315	22.0121
803.69	20.9941
807.065	28.0789
810.44	22.1919
813.814	17.6078
817.189	20.7666
820.564	20.6283
823.939	14.3846
827.314	2.85095
830.688	6.07556
834.063	0.939453
837.438	2.14038
840.813	6.38257
844.188	6.73169
847.563	5.0448
850.937	12.5436
854.312	10.9468
857.687	9.02087
861.062	10.016
864.437	10.4763
867.812	11.996
871.186	10.2736
874.561	15.3405
877.936	11.2443
881.311	4.98596
884.686	7.2323
888.06	4.16931
891.435	2.20337
894.81	7.75879
898.185	4.72327
901.56	0.407471
904.934	3.25635
908.309	6.43042
911.684	9.15271
915.059	5.68689
918.434	12.6686
921.808	14.5039
925.183	9.43933
928.558	11.4043
931.933	17.9305
935.308	14.6003
938.683	16.5916
942.057	13.9125
945.432	15.1625
948.807	15.1693
952.182	25.5973
955.557	22.4623
958.932	22.734
962.306	20.8489
965.681	13.1803
969.056	11.3851
972.431	7.8385
975.806	6.19653
979.18	4.61121
982.555	13.7758
985.93	7.29663
989.305	2.07843
992.68	4.95581
996.054	0.980164
999.429	0.558411
1002.8	3.55011
1006.18	1.43665
1009.55	6.2041
1012.93	7.60229
1016.3	2.34509
1019.68	1.5387
1023.05	8.80048
1026.43	10.0584
1029.8	9.91205
1033.18	9.66718
1036.55	19.3915
1039.93	16.8636
1043.3	7.0545
1046.68	11.85
1050.05	7.56116
1053.43	17.1799
1056.8	19.7797
1060.18	16.8291
1063.55	13.5265
1066.93	18.2256
1070.3	15.5121
1073.67	11.4523
1077.05	9.77252
1080.42	11.0517
1083.8	8.0506
1087.17	0.185608
1090.55	5.38995
1093.92	10.9216
1097.3	5.02704
1100.67	10.2237
1104.05	5.46399
1107.42	3.42883
1110.8	3.1366
1114.17	0.798645
1117.55	1.02313
1120.92	2.66235
1124.3	0.116638
1127.67	2.883
1131.05	6.09112
1134.42	10.5146
1137.8	3.74615
1141.17	6.2345
1144.55	12.4962
1147.92	12.7672
1151.3	7.80353
1154.67	8.00098
1158.05	8.95026
1161.42	14.9044
1164.8	11.3061
1168.17	14.3373
1171.55	18.6002
1174.92	20.2582
1178.3	10.4936
1181.67	13.5255
1185.04	12.5903
1188.42	15.2941
1191.79	16.752
1195.17	15.8332
1198.54	17.0844
1201.92	7.401
1205.29	18.8631
1208.67	11.4482
1212.04	14.7197
1215.42	18.4267
1218.79	9.08655
1222.17	10.4565
1225.54	8.95215
1228.92	0.455261
1232.29	8.62616
1235.67	2.25909
1239.04	4.12439
1242.42	6.02032
1245.79	1.58746
1249.17	0.137207
1252.54	2.83691
1255.91	8.09912
1259.29	2.78333
1262.66	2.83881
1266.04	6.8512
1269.41	0.4104
1272.79	2.79883
1276.16	10.8873
1279.54	3.46924
1282.91	0.30835
