Measurement: Raman, 532 nm, unoriented, Raman Data Processed
Mineral: Corvusite
Rruff sample: R060265
Ideal chemistry: (Na,Ca,K)_1-x_(V^5+^,V^4+^,Fe^2+^)_8_O_20_4H_2_O
Locality: Monument no. 2 mine, Monument Valley, Apache County, Arizona, USA
Source: Michael Scott
Description: Dark brown lathlike bladed crystals in parallel
Raman shift (cm-1)	intensity
178.237	0
181.13	2.4948
184.023	1.53643
186.916	2.1202
189.808	3.02837
192.701	3.26679
195.594	3.19585
198.486	0.598625
201.379	2.11945
204.272	1.65886
207.164	0.966148
210.057	1.02019
212.95	1.07606
215.843	2.52445
218.735	0.974083
221.628	4.61086
224.521	3.87251
227.413	3.29684
230.306	3.66061
233.199	4.89654
236.091	6.50666
238.984	6.54738
241.877	8.61837
244.769	9.13554
247.662	14.5201
250.555	16.4816
253.448	22.3663
256.34	24.61
259.233	24.6516
262.126	28.789
265.018	28.563
267.911	26.7648
270.804	21.0087
273.697	18.9432
276.589	14.0313
279.482	14.2919
282.375	11.9478
285.267	9.04979
288.16	13.7655
291.053	13.4942
293.945	7.86067
296.838	8.32645
299.731	6.94734
302.623	7.03695
305.516	5.04875
308.409	6.73915
311.302	5.72276
314.194	5.49089
317.087	4.98913
319.98	3.02414
322.872	3.42563
325.765	2.17282
328.658	4.32158
331.55	3.10622
334.443	0.56678
337.336	2.59164
340.229	0.161171
343.121	0.853485
346.014	0.351265
348.907	1.08757
351.799	1.27869
354.692	0.801857
357.585	2.46566
360.478	0.039238
363.37	1.15575
366.263	1.34725
369.156	0.48893
372.048	1.194
374.941	2.58041
377.834	2.76189
380.726	2.73065
383.619	4.68087
386.512	5.86564
389.404	8.11682
392.297	8.51189
395.19	11.7155
398.083	12.2071
400.975	14.0133
403.868	12.0797
406.761	15.5982
409.653	12.8703
412.546	15.0515
415.439	11.2999
418.332	10.6211
421.224	9.49823
424.117	6.44474
427.01	6.7317
429.902	4.09644
432.795	2.6868
435.688	1.28776
438.58	2.15543
441.473	1.03021
444.366	0.177498
447.259	2.03097
450.151	0.400688
453.044	2.53186
455.937	0.742645
458.829	0.417755
461.722	3.23117
464.615	5.76457
467.507	6.56025
470.4	5.60622
473.293	7.57594
476.185	10.1202
479.078	10.6536
481.971	11.0176
484.864	11.7331
487.756	15.9049
490.649	14.9814
493.542	14.3168
496.434	17.5548
499.327	20.7838
502.22	22.8208
505.113	23.3693
508.005	25.2118
510.898	25.5076
513.791	25.2119
516.683	21.5022
519.576	19.9676
522.469	16.1215
525.361	15.5146
528.254	12.7337
531.147	11.8916
534.04	8.81559
536.932	9.43919
539.825	6.00397
542.718	3.19473
545.61	2.50465
548.503	2.29269
551.396	2.19576
554.288	1.75198
557.181	0.804924
560.074	3.51968
562.967	4.40617
565.859	7.65675
568.752	10.253
571.645	10.685
574.537	10.0694
577.43	9.89372
580.323	9.58463
583.216	10.2821
586.108	8.22691
589.001	8.77853
591.894	4.29774
594.786	3.06239
597.679	3.52607
600.572	2.86616
603.464	0.952217
606.357	0.085716
609.25	1.04099
612.142	3.21623
615.035	2.26021
617.928	0.664047
620.821	0.623825
623.713	1.19746
626.606	0.075027
629.499	0.151169
632.391	1.01809
635.284	0.370338
638.177	0.271263
641.069	0.674377
643.962	1.37271
646.855	0.446457
649.747	0.934631
652.64	1.34669
655.533	1.15896
658.426	1.17327
661.318	1.80608
664.211	1.27458
667.104	0.027512
669.996	0.694611
672.889	0.685936
675.782	2.73682
678.674	3.65117
681.567	5.83142
684.46	6.57131
687.353	5.86761
690.245	6.5543
693.138	8.12134
696.031	9.31193
698.923	9.41727
701.816	8.84467
704.709	8.05946
707.601	7.23367
710.494	5.35638
713.387	3.75578
716.28	3.55283
719.172	0.613487
722.065	0.498474
724.958	1.27181
727.85	1.57687
730.743	0.596512
733.636	2.13296
736.529	2.64399
739.421	0.113464
742.314	1.83638
745.207	2.6989
748.099	4.48247
750.992	5.47044
753.885	5.85845
756.777	4.9285
759.67	5.49552
762.563	5.71748
765.456	7.07645
768.348	6.92505
771.241	8.91915
774.134	7.14654
777.026	7.81867
779.919	8.16368
782.812	7.65978
785.704	9.07998
788.597	9.80782
791.49	10.0919
794.383	8.93414
797.275	8.92297
800.168	8.1534
803.061	7.31215
805.953	8.72561
808.846	10.2893
811.739	8.02187
814.631	9.12534
817.524	10.3038
820.417	8.56939
823.309	10.5222
826.202	10.9218
829.095	10.4618
831.988	9.15485
834.88	10.3459
837.773	9.69345
840.666	7.08728
843.558	7.72933
846.451	8.34696
849.344	7.01829
852.236	6.16912
855.129	4.5379
858.022	4.3437
860.915	3.60336
863.807	1.79913
866.7	2.675
869.593	1.50466
872.485	1.64346
875.378	0.032707
878.271	0.592171
881.163	2.01683
884.056	0.04792
886.949	0.725555
889.842	0.203964
892.734	1.37656
895.627	1.40335
898.52	1.61126
901.412	1.19865
904.305	1.79595
907.198	1.71931
910.091	1.79004
912.983	1.07703
915.876	1.80402
918.769	1.35904
921.661	1.51394
924.554	2.57138
927.447	0.973755
930.339	1.98848
933.232	2.34412
936.125	0.927116
939.018	1.29992
941.91	1.73071
944.803	2.04128
947.696	2.12801
950.588	2.04236
953.481	1.67491
956.374	2.20734
959.266	2.98322
962.159	1.85743
965.052	2.53975
967.944	3.44202
970.837	4.28673
973.73	4.46183
976.623	6.25283
979.515	7.74921
982.408	9.27369
985.301	7.32035
988.193	8.6356
991.086	8.74378
993.979	10.8517
996.871	9.71054
999.764	14.5645
1002.66	15.9099
1005.55	16.6201
1008.44	16.5969
1011.34	20.0785
1014.23	20.6482
1017.12	20.4363
1020.01	18.3058
1022.91	15.945
1025.8	14.2808
1028.69	12.4708
1031.58	8.32102
1034.48	5.69032
1037.37	4.17414
1040.26	0.461636
1043.15	0.98914
1046.05	0.10408
1048.94	0.229656
1051.83	0.151505
1054.73	0.509369
1057.62	0.440369
1060.51	2.48314
1063.4	1.91199
1066.3	1.03059
1069.19	2.2623
1072.08	0.843269
1074.97	1.69559
1077.87	1.03226
1080.76	2.15005
1083.65	0.670101
1086.55	1.63834
1089.44	2.657
1092.33	0.035282
1095.22	2.113
1098.12	2.93462
1101.01	1.50493
1103.9	1.2827
1106.79	3.30552
1109.69	1.66576
1112.58	2.88014
1115.47	2.1221
1118.37	1.95001
1121.26	2.06739
1124.15	0.037968
1127.04	1.1953
1129.94	0.508526
1132.83	2.32011
1135.72	1.7574
1138.61	0.305199
1141.51	1.38361
1144.4	3.23716
1147.29	2.18856
1150.18	2.6916
1153.08	2.69173
1155.97	0.256813
1158.86	0.298923
1161.76	2.37547
1164.65	1.95303
1167.54	1.76116
1170.43	1.69059
1173.33	1.95214
1176.22	0.299637
1179.11	0.43354
1182	0.739731
1184.9	1.23451
1187.79	1.06613
1190.68	0.642494
1193.58	1.34683
1196.47	2.71842
1199.36	1.43572
1202.25	0.409286
1205.15	1.34821
1208.04	2.07038
1210.93	2.0815
1213.82	0.856812
1216.72	1.56063
1219.61	0.768917
1222.5	1.39065
1225.39	0.69043
1228.29	0.774937
1231.18	2.26732
1234.07	1.12233
1236.97	1.2418
1239.86	0.366356
1242.75	0.588722
1245.64	0.659561
1248.54	0.924484
1251.43	2.13192
1254.32	1.05918
1257.21	1.87148
1260.11	1.938
1263	0.269287
1265.89	1.99755
1268.79	0.486973
1271.68	2.20609
1274.57	1.24009
1277.46	1.13447
1280.36	1.29657
1283.25	0.486691
1286.14	1.00327
1289.03	1.806
1291.93	1.94951
1294.82	2.619
1297.71	1.5391
1300.61	0.548889
