Measurement: Raman, 532 nm, unoriented, Raman Data Processed
Mineral: Cosalite
Rruff sample: R060229
Ideal chemistry: Pb^2+^_2_Bi^3+^_2_S^2-^_5_
Locality: Amax mine, Kitsault, near Alice Arm, British Columbia, Canada
Source: Michael Scott
Description: Parallel group of black metallic acicular crystals
Measured chemistry: (Pb_1.84_Cu_0.16_)_Î£=2_Bi_2.00_S_5.00_
Raman shift (cm-1)	intensity
127.755	0
131.13	1.61278
134.504	1.52186
137.879	2.55915
141.254	11.7702
144.629	15.8766
148.004	17.6494
151.379	17.746
154.753	24.1926
158.128	21.687
161.503	18.8778
164.878	21.2891
168.252	17.4003
171.627	18.0677
175.002	18.1307
178.377	16.3741
181.752	14.0446
185.127	13.4479
188.501	12.1581
191.876	11.5032
195.251	9.73856
198.626	8.36037
202.001	7.08305
205.375	5.9292
208.75	3.64455
212.125	4.88393
215.5	3.32929
218.875	2.52745
222.25	2.53275
225.624	2.13505
228.999	1.8235
232.374	0.45009
235.749	2.35423
239.124	0.160858
242.499	2.40536
245.873	3.51741
249.248	5.83071
252.623	7.89619
255.998	8.64449
259.373	12.84
262.747	9.91867
266.122	13.4286
269.497	14.5394
272.872	15.8768
276.247	15.3874
279.622	16.8255
282.996	15.482
286.371	10.2061
289.746	7.78794
293.121	3.92213
296.495	1.06382
299.87	0.353719
303.245	0.144301
306.62	0.496198
309.995	0.123085
313.37	0.530493
316.744	0.238192
320.119	1.10316
323.494	0.137732
326.869	1.06041
330.244	0.006955
333.618	1.04415
336.993	2.17495
340.368	3.24162
343.743	2.03816
347.118	3.037
350.493	1.86556
353.867	3.15609
357.242	3.6667
360.617	3.93389
363.992	3.84119
367.367	4.18386
370.741	5.14385
374.116	4.12014
377.491	4.0243
380.866	3.30586
384.241	2.2488
387.616	3.17944
390.99	4.50494
394.365	2.53667
397.74	5.14275
401.115	3.33567
404.49	3.06776
407.865	3.11649
411.239	3.75631
414.614	2.03954
417.989	3.2443
421.364	2.2085
424.739	2.40194
428.113	3.26312
431.488	2.44569
434.863	1.51413
438.238	0.101598
441.613	1.31829
444.987	0.956411
448.362	2.19716
451.737	0.197424
455.112	0.315294
458.487	0.160266
461.861	2.60213
465.236	0.875765
468.611	2.09046
471.986	1.31637
475.361	1.42387
478.736	1.76615
482.11	0.36702
485.485	0.162938
488.86	1.24989
492.235	0.459669
495.61	5.10647
498.985	0.446108
502.359	0.727203
505.734	0.412474
509.109	1.0847
512.484	1.42607
515.859	2.09724
519.233	0.506319
522.608	1.83622
525.983	0.757385
529.358	1.17144
532.733	0.765992
536.107	1.40716
539.482	0.057807
542.857	1.83748
546.232	1.90971
549.607	1.6876
552.982	2.03334
556.356	1.10031
559.731	1.16191
563.106	0.176152
566.481	2.45261
569.856	1.38743
573.231	1.52451
576.605	0.208479
579.98	0.74981
583.355	0.089702
586.73	1.75845
590.105	0.224888
593.479	0.85739
596.854	1.67365
600.229	1.65185
603.604	3.16745
606.979	1.83358
610.353	2.0792
613.728	2.35401
617.103	1.63758
620.478	2.99409
623.853	0.108476
627.227	2.98332
630.602	2.82988
633.977	2.48143
637.352	2.41558
640.727	0.688303
644.102	1.30615
647.476	1.35384
650.851	1.41379
654.226	1.66987
657.601	0.079696
660.976	2.17946
664.351	0.052201
667.725	0.402368
671.1	1.70437
674.475	3.10552
677.85	2.09247
681.225	1.68325
684.599	2.44453
687.974	0.908702
691.349	1.41993
694.724	1.36243
698.099	0.973082
701.473	2.11687
704.848	0.169382
708.223	0.093308
711.598	1.08978
714.973	0.731862
718.347	1.12289
721.722	0.938062
725.097	1.75302
728.472	0.321135
731.847	0.86918
735.222	0.067364
738.596	2.44156
741.971	2.29967
745.346	1.2932
748.721	0.39321
752.096	0.026132
755.471	0.458236
758.845	0.365087
762.22	1.53791
765.595	1.31814
768.97	1.67932
772.345	2.43763
775.719	0.102796
779.094	1.43266
782.469	0.207329
785.844	2.75791
789.219	1.33479
792.593	1.47892
795.968	1.67485
799.343	0.105653
802.718	0.41607
806.093	1.17637
809.467	0.896142
812.842	0.491055
816.217	1.47164
819.592	2.22971
822.967	0.297242
826.342	0.753252
829.716	0.91772
833.091	1.38322
836.466	2.18377
839.841	0.497317
843.216	1.93972
846.591	1.99701
849.965	0.132189
853.34	1.21981
856.715	1.4389
860.09	0.112121
863.465	1.97388
866.839	2.89349
870.214	0.008813
873.589	3.01151
876.964	1.70439
880.339	2.07968
883.713	1.23556
887.088	0.958276
890.463	1.42157
893.838	1.34485
897.213	1.56752
900.588	1.96501
903.962	0.960951
907.337	1.22576
910.712	1.43659
914.087	0.076765
917.462	0.868313
920.837	0.833727
924.211	0.738829
927.586	0.140265
930.961	0.752788
934.336	0.638736
937.711	0.430684
941.085	0.918176
944.46	0.362433
947.835	0.255717
951.21	1.6335
954.585	0.525265
957.96	0.945031
961.334	1.09702
964.709	0.303378
968.084	0.388917
971.459	1.94892
974.834	0.367448
978.208	0.852758
981.583	0.838672
984.958	0.277326
988.333	1.04509
991.708	0.054578
995.082	0.527538
998.457	1.0372
1001.83	1.38671
1005.21	3e-06
1008.58	0.745551
1011.96	1.22964
1015.33	0.340567
1018.71	0.327118
1022.08	1.51379
1025.46	1.49147
1028.83	0.725675
1032.2	0.970606
1035.58	1.23294
1038.95	2.90019
1042.33	0.617968
1045.7	1.05146
1049.08	0.624175
1052.45	1.70652
1055.83	0.920677
1059.2	1.94113
1062.58	1.21539
1065.95	1.11538
1069.33	0.176151
1072.7	0.532349
1076.08	1.94469
1079.45	1.63419
1082.83	2.28184
1086.2	0.089492
1089.58	2.18835
1092.95	1.65583
1096.33	2.38236
1099.7	0.136217
1103.08	2.65808
1106.45	2.01472
1109.83	2.5361
1113.2	0.837937
1116.58	1.76124
1119.95	0.342455
1123.33	2.73541
1126.7	1.17224
1130.08	0.403443
1133.45	1.22176
1136.83	2.28145
1140.2	1.89463
1143.57	0.780365
1146.95	0.12956
1150.32	1.79292
1153.7	0.235707
1157.07	1.25208
1160.45	1.10015
1163.82	0.133835
1167.2	1.62707
1170.57	1.74216
1173.95	1.29021
1177.32	1.35142
1180.7	0.869163
1184.07	0.890514
1187.45	1.0673
1190.82	1.68962
1194.2	0.895985
1197.57	1.62666
1200.95	1.64685
1204.32	0.175952
1207.7	2.03538
1211.07	1.80814
1214.44	1.39279
1217.82	2.70493
1221.19	0.331087
1224.57	0.844547
1227.94	1.46329
1231.32	0.477465
1234.69	0.991659
1238.07	1.44622
1241.44	0.406419
1244.82	1.36319
1248.19	2.17391
1251.57	0.731751
1254.94	1.8803
1258.32	1.65416
1261.69	1.86962
1265.07	1.82266
1268.44	0.106913
1271.82	1.01747
1275.19	1.87278
1278.57	0.025827
1281.94	1.67535
1285.32	0.079043
1288.69	1.82136
1292.07	1.32155
1295.44	1.18682
1298.82	2.69501
1302.19	0.009405
