Measurement: Raman, 780 nm, unoriented, Raman Data Processed
Mineral: Cosalite
Rruff sample: R060229
Ideal chemistry: Pb^2+^_2_Bi^3+^_2_S^2-^_5_
Locality: Amax mine, Kitsault, near Alice Arm, British Columbia, Canada
Source: Michael Scott
Description: Parallel group of black metallic acicular crystals
Measured chemistry: (Pb_1.84_Cu_0.16_)_Î£=2_Bi_2.00_S_5.00_
Raman shift (cm-1)	intensity
150.163	0
153.056	1.08547
155.949	0.106735
158.841	0.489111
161.734	0.053006
164.627	0.468383
167.519	0.28004
170.412	0.910705
173.305	1.42706
176.198	1.52952
179.09	1.78283
181.983	2.72795
184.876	4.18052
187.768	5.32803
190.661	6.39926
193.554	8.27874
196.446	10.4094
199.339	12.4945
202.232	15.9493
205.125	16.9683
208.017	20.2413
210.91	22.8044
213.803	25.7753
216.695	28.3698
219.588	30.1477
222.481	33.7703
225.374	35.8214
228.266	36.301
231.159	36.3883
234.052	36.9615
236.944	36.0184
239.837	33.8081
242.73	31.7554
245.622	29.1611
248.515	27.2728
251.408	21.75
254.3	17.7381
257.193	14.2846
260.086	12.3212
262.978	8.56323
265.871	7.76501
268.764	4.97236
271.657	4.56301
274.549	2.88928
277.442	2.33944
280.335	0.373689
283.227	0.975933
286.12	1.01224
289.013	0.585031
291.906	0.276758
294.798	0.314949
297.691	0.199667
300.584	0.058594
303.476	0.584329
306.369	0.079337
309.262	0.13854
312.154	0.31944
315.047	0.471886
317.94	0.747575
320.833	0.673662
323.725	0.777519
326.618	1.22593
329.511	1.74992
332.403	0.937294
335.296	1.99844
338.189	1.32235
341.082	2.30771
343.974	1.88028
346.867	1.69512
349.76	0.757185
352.652	1.30322
355.545	0.500917
358.438	1.1113
361.33	0.212019
364.223	0.196229
367.116	0.30378
370.009	0.032915
372.901	0.442088
375.794	0.265175
378.687	0.157781
381.579	0.08688
384.472	0.166988
387.365	0.3546
390.257	0.951121
393.15	0.646634
396.043	0.228946
398.935	0.37583
401.828	1.02986
404.721	2.72797
407.614	1.31536
410.506	1.66757
413.399	1.84524
416.292	2.03238
419.184	2.91333
422.077	4.51314
424.97	4.12139
427.863	6.22855
430.755	5.80216
433.648	5.69357
436.541	5.071
439.433	4.66152
442.326	2.92446
445.219	2.01046
448.111	3.00186
451.004	1.35326
453.897	1.12496
456.789	1.14914
459.682	0.88154
462.575	0.396926
465.467	0.809419
468.36	1.45558
471.253	0.826793
474.146	1.10255
477.038	1.12831
479.931	0.007674
482.824	0.823395
485.716	0.016279
488.609	1.09943
491.502	0.091857
494.394	0.959551
497.287	0.221196
500.18	0.08774
503.073	0.112211
505.965	0.849796
508.858	1.03972
511.751	0.85291
514.643	0.537993
517.536	0.106609
520.429	0.082548
523.322	0.572333
526.214	0.400897
529.107	0.12361
532	0.840163
534.892	0.816975
537.785	0.064186
540.678	0.000124
543.57	0.432031
546.463	0.001331
549.356	1.54727
552.249	1.81872
555.141	1.5465
558.034	0.065351
560.927	0.808551
563.819	0.035594
566.712	0.056818
569.605	0.867634
572.497	0.546195
575.39	0.872608
578.283	0.515103
581.176	0.040659
584.068	0.928187
586.961	0.927192
589.854	0.992567
592.746	1.26107
595.639	1.40545
598.532	2.06471
601.424	1.80186
604.317	1.08659
607.21	1.18351
610.102	0.949389
612.995	0.911328
615.888	1.64272
618.781	0.783944
621.673	0.398306
624.566	1.59875
627.459	1.43524
630.351	0.92794
633.244	0.296795
636.137	0.697404
639.029	1.52418
641.922	1.05668
644.815	0.885673
647.708	0.693962
650.6	1.57795
653.493	0.458571
656.386	1.0794
659.278	0.097244
662.171	0.445043
665.064	0.77032
667.957	1.26196
670.849	0.864263
673.742	1.16961
676.635	0.056736
679.527	0.315644
682.42	0.089398
685.313	1.05835
688.205	0.278511
691.098	0.433921
693.991	1.00827
696.884	0.0877
699.776	0.765903
702.669	0.019229
705.562	1.21662
708.454	0.620837
711.347	0.101149
714.24	0.879677
717.132	0.083936
720.025	0.534722
722.918	0.324911
725.811	0.317602
728.703	1.27222
731.596	0.922936
734.489	1.00027
737.381	2.65234
740.274	0.605923
743.167	1.47578
746.059	1.91124
748.952	1.06077
751.845	0.272126
754.737	0.305429
757.63	0.380217
760.523	0.112044
763.416	0.173479
766.308	0.596661
769.201	0.070928
772.094	0.29249
774.986	0.875351
777.879	0.081072
780.772	1.01035
783.665	0.4623
786.557	0.126424
789.45	0.364891
792.343	1.58743
795.235	1.10483
798.128	0.796266
801.021	0.057997
803.913	0.82354
806.806	0.209421
809.699	1.14604
812.592	0.444472
815.484	0.55889
818.377	0.101145
821.27	0.571828
824.162	1.38107
827.055	1.20063
829.948	1.28887
832.84	0.044799
835.733	1.65427
838.626	0.868354
841.519	1.68211
844.411	0.474918
847.304	0.689258
850.197	0.77904
853.089	0.800032
855.982	0.780624
858.875	0.517326
861.767	0.542006
864.66	0.596463
867.553	0.500333
870.446	0.686624
873.338	0.208267
876.231	0.051182
879.124	0.0011
882.016	1.06304
884.909	1.21544
887.802	0.662143
890.694	0.109643
893.587	0.098486
896.48	0.212836
899.372	0.364412
902.265	0.073811
905.158	0.335379
908.051	0.046756
910.943	0.119953
913.836	0.051854
916.729	0.458095
919.621	0.760492
922.514	1.06407
925.407	1.11957
928.299	1.58439
931.192	1.07747
934.085	1.98097
936.978	2.66858
939.87	4.39161
942.763	5.08564
945.656	5.94915
948.548	7.23904
951.441	8.49064
954.334	8.84581
957.226	9.4968
960.119	9.95757
963.012	9.01512
965.905	6.60779
968.797	5.75116
971.69	4.52976
974.583	3.24793
977.475	2.26648
980.368	1.54665
983.261	1.61895
986.154	1.66663
989.046	1.97815
991.939	0.971361
994.832	0.268739
997.724	0.272018
1000.62	0.248826
1003.51	0.923029
1006.4	0.544635
1009.29	0.146005
1012.19	0.159891
1015.08	0.810411
1017.97	0.432293
1020.87	0.121937
1023.76	0.014183
1026.65	0.27843
1029.54	1.02655
1032.44	0.455803
1035.33	0.147062
1038.22	0.271546
1041.12	0.477031
1044.01	1.36651
1046.9	1.43036
1049.79	0.843893
1052.69	2.03232
1055.58	0.980266
1058.47	0.868994
1061.36	1.26832
1064.26	1.66734
1067.15	0.476734
1070.04	0.684611
1072.93	0.912382
1075.83	1.33415
1078.72	1.0957
1081.61	0.809225
1084.51	1.79001
1087.4	0.232772
1090.29	0.738525
1093.18	0.926678
1096.08	0.653124
1098.97	0.246823
1101.86	0.183554
1104.75	0.172434
1107.65	0.268578
1110.54	0.843731
1113.43	0.576686
1116.33	0.738559
1119.22	1.43299
1122.11	1.05246
1125	1.38104
1127.9	0.837015
1130.79	0.531289
1133.68	0.229856
1136.57	1.60924
1139.47	0.578839
1142.36	0.734514
1145.25	1.02384
1148.14	1.0457
1151.04	1.13869
1153.93	0.777854
1156.82	1.23165
1159.71	0.044665
1162.61	1.15069
1165.5	0.71581
1168.39	1.14422
1171.29	0.356758
1174.18	1.33776
1177.07	0.472215
1179.96	0.75479
1182.86	0.895178
1185.75	0.406246
1188.64	0.684564
1191.54	1.83855
1194.43	1.16499
1197.32	0.323415
1200.21	0.170404
1203.11	1.47467
1206	0.12776
1208.89	1.2403
1211.78	0.457304
1214.68	0.685168
1217.57	0.627658
1220.46	1.65706
1223.36	0.53043
1226.25	0.494132
1229.14	0.560486
1232.03	0.038632
1234.93	1.43809
1237.82	2.74049
1240.71	0.709476
1243.6	0.962317
1246.5	1.27361
1249.39	0.149712
1252.28	1.83024
1255.17	1.12146
1258.07	0.984816
1260.96	0.101538
1263.85	1.47042
1266.74	0.801354
1269.64	1.0942
1272.53	0.838618
1275.42	0.076968
1278.32	0.394379
1281.21	0.874751
1284.1	0.371361
