Measurement: Raman, 780 nm, unoriented, Raman Data Processed
Mineral: Covellite
Rruff sample: R060143
Ideal chemistry: Cu^1+^S
Locality: Butte, Montana, USA
Source: Marcus Origlieri
Description: Irridescent blue to purple hexagonal plates
Measured chemistry: Cu_1.00_S_1.00_
Raman shift (cm-1)	intensity
132.041	0
134.934	0.030766
137.826	2.49014
140.719	2.67163
143.612	1.69355
146.505	1.19644
149.397	0.630774
152.29	0.686232
155.183	0.562364
158.075	0.193964
160.968	0.278199
163.861	0.794256
166.753	1.12584
169.646	0.927227
172.539	0.760815
175.431	0.904115
178.324	0.276167
181.217	0.531186
184.11	0.71354
187.002	0.283849
189.895	0.046036
192.788	0.517408
195.68	0.315237
198.573	0.101236
201.466	0.247864
204.358	0.003956
207.251	0.15259
210.144	0.586357
213.037	0.285137
215.929	0.024304
218.822	0.093723
221.715	0.090107
224.607	0.209467
227.5	0.748108
230.393	0.983449
233.286	0.669708
236.178	1.67123
239.071	1.9035
241.964	2.32777
244.856	3.03339
247.749	3.00048
250.642	2.94006
253.534	3.18579
256.427	2.73252
259.32	3.38293
262.212	3.05269
265.105	2.97803
267.998	3.13915
270.891	3.4381
273.783	2.86664
276.676	3.63293
279.569	4.0457
282.461	6.01163
285.354	6.91842
288.247	6.50701
291.139	7.42625
294.032	7.07816
296.925	6.21071
299.817	5.22284
302.71	4.12515
305.603	3.19716
308.496	2.37749
311.388	2.07703
314.281	0.470095
317.174	0.57849
320.066	0.0898
322.959	0.14752
325.852	0.08739
328.745	1.12701
331.637	0.95062
334.53	0.787813
337.423	1.53823
340.315	1.41285
343.208	1.05347
346.101	1.39069
348.993	0.309643
351.886	0.751539
354.779	0.675569
357.671	0.419286
360.564	0.117663
363.457	0.120178
366.35	0.0072
369.242	0.11791
372.135	0.197682
375.028	0.231924
377.92	0.141946
380.813	0.090152
383.706	0.065489
386.599	0.029895
389.491	0.2007
392.384	0.081017
395.277	1.24063
398.169	1.56539
401.062	2.05923
403.955	3.50437
406.847	4.1777
409.74	4.93618
412.633	4.27262
415.526	1.83524
418.418	1.1183
421.311	0.95097
424.204	0.55763
427.096	1.28998
429.989	1.2217
432.882	1.5713
435.774	0.848435
438.667	1.34786
441.56	0.445795
444.452	0.827043
447.345	0.451083
450.238	0.379404
453.13	0.960748
456.023	0.941439
458.916	1.71432
461.809	2.46978
464.701	3.01261
467.594	3.81972
470.487	5.00407
473.379	4.5622
476.272	2.90167
479.165	1.73942
482.058	0.755816
484.95	0.885109
487.843	0.473354
490.736	0.451007
493.628	0.181684
496.521	0.384142
499.414	0.537457
502.306	0.251732
505.199	0.036315
508.092	0.04222
510.985	0.597656
513.877	0.488484
516.77	0.35965
519.663	0.105895
522.555	0.053295
525.448	0.21972
528.341	0.066085
531.233	0.900584
534.126	0.259187
537.019	0.389354
539.912	0.840538
542.804	0.940914
545.697	1.23104
548.59	1.18424
551.482	0.928047
554.375	0.772335
557.268	1.02839
560.16	0.000694
563.053	0.23472
565.946	0.6079
568.838	0.164896
571.731	0.403759
574.624	0.564206
577.516	0.454684
580.409	0.644317
583.302	1.1182
586.195	0.953294
589.087	0.414221
591.98	0.233147
594.873	0.361294
597.765	0.045787
600.658	0.631911
603.551	0.04952
606.443	0.418776
609.336	0.191443
612.229	0.294581
615.122	0.034595
618.014	0.060792
620.907	0.606024
623.8	0.00389
626.692	0.619017
629.585	0.079003
632.478	0.233549
635.37	0.115663
638.263	0.04351
641.156	0.190041
644.049	0.371175
646.941	0.591351
649.834	0.049899
652.727	0.616179
655.619	0.491733
658.512	0.523675
661.405	0.306849
664.298	0.555367
667.19	0.254116
670.083	0.557306
672.976	0.721185
675.868	0.404959
678.761	0.556063
681.654	0.89023
684.546	0.364052
687.439	0.640553
690.332	0.129037
693.225	0.484717
696.117	0.672628
699.01	0.034957
701.903	0.055421
704.795	0.155577
707.688	0.644594
710.581	0.482389
713.473	0.110399
716.366	0.460225
719.259	0.335655
722.151	0.283597
725.044	0.154228
727.937	0.644554
730.83	0.657705
733.722	0.71514
736.615	0.513542
739.508	0.293194
742.4	0.311707
745.293	0.004831
748.186	0.947071
751.078	0.348383
753.971	0.291409
756.864	0.279411
759.756	0.007949
762.649	0.598307
765.542	0.595308
768.435	0.371533
771.327	0.120692
774.22	0.026751
777.113	0.343916
780.005	0.105676
782.898	0.257339
785.791	0.660044
788.683	0.590915
791.576	0.373916
794.469	0.123897
797.362	0.511358
800.254	0.382601
803.147	0.145121
806.04	0.148315
808.932	0.887975
811.825	0.465359
814.718	0.696136
817.611	0.217982
820.503	0.390608
823.396	0.845523
826.289	1.2761
829.181	0.601206
832.074	0.596735
834.967	0.692897
837.859	0.316074
840.752	0.971648
843.645	0.667765
846.538	1.1172
849.43	0.760599
852.323	0.814345
855.216	0.746341
858.108	0.80108
861.001	0.67827
863.894	0.90158
866.786	0.614785
869.679	0.629753
872.572	0.576439
875.464	0.959101
878.357	1.02941
881.25	0.734084
884.143	0.451962
887.035	0.487703
889.928	0.194019
892.821	0.385104
895.713	0.627334
898.606	0.579395
901.499	0.044762
904.391	0.104464
907.284	0.101773
910.177	0.00151
913.069	0.345274
915.962	0.233071
918.855	0.663061
921.748	0.498736
924.64	0.045831
927.533	0.403062
930.426	0.189302
933.318	0.537989
936.211	0.185929
939.104	0.349889
941.996	0.206767
944.889	0.039869
947.782	0.406985
950.675	0.001893
953.567	0.153107
956.46	0.426354
959.353	0.163413
962.245	0.146429
965.138	0.36069
968.031	0.320408
970.923	0.056559
973.816	0.196514
976.709	0.291992
979.602	0.462852
982.494	0.403332
985.387	0.379068
988.28	0.071744
991.172	0.389865
994.065	0.216264
996.958	0.176244
999.851	0.151817
1002.74	0.497972
1005.64	0.199132
1008.53	0.388789
1011.42	0.506587
1014.31	0.292572
1017.21	0.086543
1020.1	0.593844
1022.99	0.442224
1025.88	0.006733
1028.78	0.386174
1031.67	0.562991
1034.56	0.201698
1037.46	0.22891
1040.35	0.29886
1043.24	0.074922
1046.13	0.339184
1049.03	0.204449
1051.92	0.135773
1054.81	0.399185
1057.7	0.343714
1060.6	0.267186
1063.49	0.359795
1066.38	0.772086
1069.28	0.285011
1072.17	0.225392
1075.06	0.317913
1077.95	0.480841
1080.85	0.172847
1083.74	0.249414
1086.63	0.770019
1089.52	0.556684
1092.42	0.411334
1095.31	0.230813
1098.2	0.121081
1101.1	0.386046
1103.99	0.337143
1106.88	0.082994
1109.77	0.335678
1112.67	0.031332
1115.56	0.050439
1118.45	0.255548
1121.34	0.56162
1124.24	0.572926
1127.13	0.597807
1130.02	0.531869
1132.91	0.22126
1135.81	0.093041
1138.7	0.020975
1141.59	0.539729
1144.48	0.286178
1147.38	0.497053
1150.27	0.58198
1153.16	0.503719
1156.06	0.786755
1158.95	0.697976
1161.84	0.637396
1164.73	0.385167
1167.63	0.439018
1170.52	0.380027
1173.41	0.662103
1176.31	0.601598
1179.2	0.415119
1182.09	0.515632
1184.98	0.079579
1187.88	0.056291
1190.77	0.703077
1193.66	0.148279
1196.55	0.712206
1199.45	0.711841
1202.34	0.693841
1205.23	0.107647
1208.12	0.267349
1211.02	0.253679
1213.91	0.159364
1216.8	0.636079
1219.7	0.474425
1222.59	0.549349
1225.48	0.560631
1228.37	0.65186
1231.27	0.302016
1234.16	0.501157
1237.05	0.635142
1239.94	0.424178
1242.84	0.5251
1245.73	0.374843
1248.62	0.699457
1251.52	0.577069
1254.41	0.81728
1257.3	0.137107
1260.19	0.083152
1263.09	0.535877
1265.98	0.89577
1268.87	0.781368
1271.76	0.618207
1274.66	0.576076
1277.55	0.584194
1280.44	0.505078
1283.34	0.009408
1286.23	0
