Measurement: Raman, 780 nm, unoriented, Raman Data Processed
Mineral: Covellite
Rruff sample: R060306
Ideal chemistry: Cu^1+^S
Locality: 3800' level, Leonard mine, Butte, Silver Bow County, Montana, USA
Source: Michael Scott
Description: Blue iridescent metallic hexagonal plates
Measured chemistry: Cu_1.00_S_1.00_
Raman shift (cm-1)	intensity
144.566	0
147.459	0.580193
150.351	1.2293
153.244	3.6769
156.137	1.59943
159.03	2.79404
161.922	2.47499
164.815	2.41031
167.708	2.33484
170.6	2.58584
173.493	1.73387
176.386	2.15548
179.278	2.33645
182.171	1.78994
185.064	3.0201
187.957	2.19175
190.849	1.49145
193.742	2.8506
196.635	1.80236
199.527	0.298653
202.42	1.52824
205.313	0.733208
208.205	0.947998
211.098	2.77161
213.991	2.52279
216.884	1.8161
219.776	3.53313
222.669	0.60704
225.562	3.13353
228.454	4.87838
231.347	2.55967
234.24	2.44041
237.132	4.11841
240.025	6.28078
242.918	7.42808
245.811	9.045
248.703	10.7539
251.596	12.1762
254.489	8.5158
257.381	10.7713
260.274	8.45238
263.167	7.19634
266.059	8.08483
268.952	4.40102
271.845	2.76475
274.738	2.4535
277.63	0.902927
280.523	1.58515
283.416	1.97999
286.308	1.03963
289.201	0.418396
292.094	1.45101
294.986	0.077896
297.879	0.589695
300.772	0.902401
303.665	1.72632
306.557	2.13337
309.45	1.43497
312.343	0.908859
315.235	2.18324
318.128	0.210419
321.021	1.33033
323.913	0.023201
326.806	2.05202
329.699	2.86685
332.592	3.24913
335.484	3.42729
338.377	3.4376
341.27	3.33333
344.162	1.84532
347.055	2.82288
349.948	2.85068
352.841	0.51725
355.733	2.62353
358.626	2.03313
361.519	3.12419
364.411	2.2876
367.304	3.35806
370.197	2.47213
373.089	1.39039
375.982	2.91898
378.875	0.187157
381.767	1.96969
384.66	1.80495
387.553	1.32774
390.446	0.753582
393.338	0.940998
396.231	0.505627
399.124	2.03294
402.016	0.328739
404.909	0.032681
407.802	0.369152
410.695	0.178082
413.587	0.1833
416.48	0.227943
419.373	0.11401
422.265	1.5742
425.158	3.18224
428.051	2.5673
430.943	0.609177
433.836	0.024357
436.729	1.82396
439.622	2.37691
442.514	2.54345
445.407	3.13396
448.3	4.26178
451.192	5.51601
454.085	9.77936
456.978	12.6606
459.87	15.9887
462.763	18.1638
465.656	20.7634
468.548	22.8563
471.441	19.7768
474.334	13.7125
477.227	9.73402
480.119	4.26212
483.012	4.04127
485.905	2.00833
488.797	2.22158
491.69	0.701302
494.583	1.98193
497.476	1.70147
500.368	0.631165
503.261	1.00564
506.154	0.708889
509.046	0.97578
511.939	2.27261
514.832	2.00237
517.724	1.00175
520.617	1.72221
523.51	0.33009
526.403	1.73062
529.295	0.662182
532.188	0.972404
535.081	1.79212
537.973	1.04559
540.866	3.57293
543.759	3.73341
546.651	8.46803
549.544	6.74299
552.437	3.86361
555.33	2.14793
558.222	2.24659
561.115	1.72526
564.008	0.133015
566.9	0.398159
569.793	1.80424
572.686	0.738022
575.578	0.07008
578.471	1.34779
581.364	1.13358
584.256	0.00803
587.149	1.18814
590.042	1.42839
592.935	0.996532
595.827	0.794338
598.72	2.18896
601.613	0.26487
604.505	2.40957
607.398	1.0864
610.291	2.15474
613.183	0.335003
616.076	1.35203
618.969	0.028301
621.862	0.801685
624.754	1.75012
627.647	0.124561
630.54	1.33879
633.432	2.50173
636.325	2.11566
639.218	1.94441
642.111	1.28917
645.003	1.94495
647.896	0.349068
650.789	0.329933
653.681	2.38159
656.574	0.867321
659.467	0.861046
662.359	0.084991
665.252	1.82144
668.145	0.721287
671.038	1.68721
673.93	2.10085
676.823	1.90573
679.716	1.45827
682.608	1.02387
685.501	0.675552
688.394	0.082561
691.286	0.483601
694.179	0.387489
697.072	2.308
699.965	0.098183
702.857	1.15705
705.75	0.520344
708.643	3.74363
711.535	1.99446
714.428	0.150024
717.321	1.10494
720.213	1.88223
723.106	0.644337
725.999	0.63562
728.891	1.1723
731.784	1.06634
734.677	0.384678
737.57	0.124397
740.462	0.954918
743.355	1.40655
746.248	0.127457
749.14	2.15151
752.033	1.60171
754.926	0.796333
757.818	1.60177
760.711	0.032536
763.604	2.19022
766.497	0.764732
769.389	0.411236
772.282	1.5156
775.175	1.31968
778.067	1.17079
780.96	1.15371
783.853	2.78146
786.745	2.3548
789.638	0.957321
792.531	1.78259
795.424	1.49408
798.316	2.72836
801.209	0.953884
804.102	2.7982
806.994	0.429012
809.887	0.177437
812.78	1.95201
815.673	2.50125
818.565	3.69944
821.458	2.74171
824.351	1.77356
827.243	1.05432
830.136	2.84541
833.029	3.33336
835.921	2.30646
838.814	2.76959
841.707	3.29569
844.6	1.90718
847.492	2.84523
850.385	3.71761
853.278	3.85258
856.17	3.79425
859.063	3.56079
861.956	2.89561
864.848	3.9139
867.741	2.29491
870.634	2.04549
873.527	2.21217
876.419	1.68915
879.312	1.86539
882.205	1.18105
885.097	0.538078
887.99	1.65545
890.883	0.513966
893.775	1.39399
896.668	0.196028
899.561	1.27824
902.454	1.62219
905.346	0.750004
908.239	0.3363
911.132	0.038691
914.024	0.516279
916.917	0.119232
919.81	0.434134
922.702	1.62288
925.595	1.76635
928.488	2.50015
931.381	0.411106
934.273	1.50872
937.166	1.64932
940.059	0.95649
942.951	0.295862
945.844	1.19083
948.737	1.26519
951.63	2.09692
954.522	2.50622
957.415	0.443462
960.308	1.48354
963.2	1.23695
966.093	1.18629
968.986	2.62935
971.878	1.80457
974.771	0.764498
977.664	2.52853
980.557	1.87017
983.449	0.090086
986.342	0.51396
989.235	1.33791
992.127	1.27583
995.02	1.98718
997.913	2.58397
1000.8	0.447647
1003.7	0.770639
1006.59	0.889879
1009.48	1.7561
1012.38	1.8276
1015.27	0.20067
1018.16	0.714783
1021.05	0.868193
1023.95	1.72578
1026.84	0.121365
1029.73	0.857977
1032.62	1.14502
1035.52	1.68039
1038.41	1.90155
1041.3	2.47543
1044.2	2.90042
1047.09	3.07951
1049.98	2.35892
1052.87	2.01334
1055.77	1.00574
1058.66	0.799688
1061.55	2.67633
1064.44	1.70077
1067.34	2.99847
1070.23	2.38831
1073.12	0.269346
1076.02	0.898455
1078.91	1.15548
1081.8	0.999521
1084.69	2.35038
1087.59	1.81038
1090.48	2.48992
1093.37	1.31792
1096.27	2.2461
1099.16	1.90412
1102.05	2.27983
1104.94	1.0086
1107.84	1.72295
1110.73	2.37718
1113.62	0.10474
1116.51	3.80667
1119.41	1.54194
1122.3	2.28418
1125.19	2.59337
1128.08	1.76695
1130.98	2.46573
1133.87	0.107899
1136.76	1.66017
1139.65	1.84929
1142.55	2.66423
1145.44	1.16932
1148.33	1.34735
1151.23	0.31489
1154.12	1.12289
1157.01	0.673958
1159.9	1.25887
1162.8	3.01739
1165.69	0.317274
1168.58	2.30783
1171.47	0.117815
1174.37	0.733704
1177.26	2.3141
1180.15	2.05796
1183.05	1.34395
1185.94	1.90571
1188.83	0.115934
1191.72	0.69943
1194.62	1.77477
1197.51	2.43387
1200.4	2.39404
1203.29	0.001501
1206.19	0.476954
1209.08	1.83817
1211.97	0.674597
1214.87	1.99083
1217.76	2.05637
1220.65	3.68992
1223.54	0.229158
1226.44	0.927519
1229.33	0.643234
1232.22	1.49228
1235.11	1.70172
1238.01	1.45401
1240.9	0.76156
1243.79	1.85546
1246.68	0.102991
1249.58	3.1247
1252.47	1.32997
1255.36	0.971878
1258.26	1.31346
1261.15	1.90048
1264.04	1.20417
1266.93	2.36724
1269.83	1.0898
1272.72	1.65402
1275.61	0.919733
1278.51	0.717299
1281.4	0.090834
1284.29	0.17836
