Measurement: Raman, 785 nm, unoriented, Raman Data Processed
Mineral: Coyoteite
Rruff sample: R070143
Ideal chemistry: NaFe^3+^_3_S^2-^_5_2H_2_O
Locality: Coyote Peak, Orick, Humboldt County, California, USA
Source: Michael Scott
Description: Black metallic grains, co-type material
Raman shift (cm-1)	intensity
152.647	0
155.54	72.1335
158.433	40.0159
161.325	302.953
164.218	263.519
167.111	200.968
170.004	131.948
172.896	110.299
175.789	67.4873
178.682	78.9106
181.574	35.6089
184.467	52.1649
187.36	53.0527
190.252	77.3409
193.145	87.3605
196.038	61.6177
198.93	90.9481
201.823	27.9652
204.716	33.8669
207.609	4.39612
210.501	18.6569
213.394	13.8868
216.287	27.9451
219.179	20.3242
222.072	9.89355
224.965	15.5577
227.857	9.65552
230.75	0.455322
233.643	12.8203
236.536	19.6462
239.428	16.1717
242.321	21.5348
245.214	36.849
248.106	41.6881
250.999	48.608
253.892	59.3505
256.784	83.0181
259.677	56.5006
262.57	53.3479
265.463	85.9086
268.355	115.32
271.248	95.3287
274.141	61.8805
277.033	76.1831
279.926	129.986
282.819	131.182
285.712	103.268
288.604	151.787
291.497	131.909
294.39	110.049
297.282	120.15
300.175	113.237
303.068	162.331
305.96	144.713
308.853	118.53
311.746	170.462
314.639	133.094
317.531	134.856
320.424	86.2617
323.317	111.957
326.209	74.1582
329.102	22.5286
331.995	77.5057
334.887	73.8125
337.78	62.7117
340.673	16.727
343.565	17.4352
346.458	54.6638
349.351	14.2759
352.244	5.03357
355.136	2.93152
358.029	41.3314
360.922	10.7468
363.814	11.1384
366.707	36.9989
369.6	2.43652
372.493	30.8508
375.385	5.72314
378.278	31.1239
381.171	23.6754
384.063	21.2622
386.956	30.7111
389.849	7.07873
392.741	19.4512
395.634	16.3781
398.527	10.3696
401.419	4.53772
404.312	21.1078
407.205	25.842
410.098	44.422
412.99	2.62781
415.883	47.5886
418.776	45.2285
421.668	29.6976
424.561	15.8217
427.454	32.3729
430.346	27.9222
433.239	46.8463
436.132	40.314
439.024	35.6805
441.917	12.7366
444.81	24.2996
447.703	66.0135
450.595	23.2955
453.488	57.0035
456.381	68.9493
459.273	44.202
462.166	36.7638
465.059	35.5544
467.952	41.1099
470.844	44.6593
473.737	34.3715
476.63	7.55835
479.522	23.4618
482.415	42.8586
485.308	5.14453
488.2	46.1093
491.093	15.8297
493.986	23.0885
496.878	21.855
499.771	29.7765
502.664	27.3344
505.557	23.0663
508.449	40.1551
511.342	54.1049
514.235	48.4191
517.127	62.1598
520.02	77.5237
522.913	73.7081
525.806	89.8418
528.698	38.6185
531.591	65.1847
534.484	64.006
537.376	58.2854
540.269	31.4189
543.162	48.037
546.054	41.8646
548.947	39.2443
551.84	10.8842
554.732	9.29211
557.625	0.800659
560.518	12.6135
563.411	19.6134
566.303	12.3159
569.196	36.2878
572.089	19.9484
574.981	11.7065
577.874	33.8396
580.767	5.90356
583.659	5.45398
586.552	0.024536
589.445	29.077
592.338	33.1276
595.23	6.45923
598.123	33.0797
601.016	64.8273
603.908	28.5607
606.801	58.7756
609.694	53.0814
612.587	59.3291
615.479	105.126
618.372	101.696
621.265	134.497
624.157	204.502
627.05	170.888
629.943	211.146
632.835	270.056
635.728	277.011
638.621	302.1
641.514	388.123
644.406	413.156
647.299	466.239
650.192	513.57
653.084	566.721
655.977	592.989
658.87	609.548
661.762	640.666
664.655	679.682
667.548	624.209
670.441	610.718
673.333	545.676
676.226	516.903
679.119	463.661
682.011	391.656
684.904	372.919
687.797	338.88
690.689	313.329
693.582	225.632
696.475	215.561
699.367	167.887
702.26	178.584
705.153	125.075
708.046	124.726
710.938	92.1957
713.831	50.3823
716.724	74.9164
719.616	50.6531
722.509	36.8015
725.402	28.207
728.294	29.1315
731.187	25.6984
734.08	13.1503
736.973	60.286
739.865	52.6749
742.758	2.18396
745.651	3.6095
748.543	30.3059
751.436	2.07141
754.329	0.55249
757.221	23.801
760.114	23.2345
763.007	5.02698
765.899	12.2639
768.792	1.22522
771.685	5.51208
774.578	5.08862
777.47	23.9315
780.363	18.1282
783.256	13.9012
786.148	20.6675
789.041	46.4135
791.934	38.6062
794.827	5.51495
797.719	6.77612
800.612	7.60333
803.505	24.6778
806.397	7.72852
809.29	28.3721
812.183	22.907
815.075	28.6332
817.968	6.87543
820.861	26.6667
823.754	43.4051
826.646	43.4315
829.539	35.371
832.432	13.9683
835.324	17.4149
838.217	25.9453
841.11	56.6957
844.002	38.1052
846.895	60.4446
849.788	18.8498
852.681	18.6362
855.573	50.5883
858.466	48.1956
861.359	36.0587
864.251	37.3839
867.144	46.6237
870.037	47.7715
872.929	23.0581
875.822	1.2818
878.715	30.1118
881.607	15.8767
884.5	41.8409
887.393	35.5361
890.286	0.767151
893.178	20.3387
896.071	33.511
898.964	29.3581
901.856	15.0168
904.749	23.2627
907.642	32.7084
910.534	51.0063
913.427	9.03198
916.32	31.8867
919.213	27.1158
922.105	40.7941
924.998	49.0345
927.891	49.9855
930.783	40.496
933.676	58.3454
936.569	32.5625
939.462	40.8763
942.354	23.3614
945.247	8.44635
948.14	38.9206
951.032	47.2345
953.925	12.7737
956.818	39.4564
959.71	20.9885
962.603	10.7624
965.496	18.6843
968.389	54.7831
971.281	33.0307
974.174	16.26
977.067	15.0707
979.959	39.8488
982.852	26.7521
985.745	31.655
988.637	22.3826
991.53	38.2754
994.423	47.2943
997.316	49.6347
1000.21	32.0699
1003.1	50.7517
1005.99	45.9449
1008.89	52.3367
1011.78	49.5932
1014.67	20.7124
1017.56	46.9077
1020.46	49.808
1023.35	47.3787
1026.24	25.5598
1029.13	35.7935
1032.03	8.86084
1034.92	41.895
1037.81	16.5308
1040.71	30.7961
1043.6	44.4609
1046.49	46.4999
1049.38	14.7296
1052.28	22.2443
1055.17	31.7706
1058.06	16.6821
1060.95	30.7581
1063.85	18.9362
1066.74	46.6788
1069.63	26.2239
1072.53	42.5619
1075.42	16.2741
1078.31	34.928
1081.2	25.5692
1084.1	33.5621
1086.99	39.3052
1089.88	21.58
1092.78	47.936
1095.67	42.5841
1098.56	19.6716
1101.45	13.5939
1104.35	18.4327
1107.24	33.7162
1110.13	13.3816
1113.02	38.2065
1115.92	9.81793
1118.81	31.3813
1121.7	40.1944
1124.59	18.6111
1127.49	23.8301
1130.38	24.5605
1133.27	6.81641
1136.16	41.2181
1139.06	17.3777
1141.95	19.7289
1144.84	26.1861
1147.74	15.2524
1150.63	17.9058
1153.52	4.51025
1156.41	16.9341
1159.31	5.20831
1162.2	0.233154
1165.09	5.01508
1167.98	15.7196
1170.88	11.5833
1173.77	5.79199
1176.66	8.10309
1179.56	17.8226
1182.45	7.60437
1185.34	10.797
1188.23	27.118
1191.13	6.6181
1194.02	34.6266
1196.91	18.8412
1199.8	17.6334
1202.7	50.3135
1205.59	28.9193
1208.48	19.1276
1211.38	21.1019
1214.27	27.3005
1217.16	53.0677
1220.05	32.6161
1222.95	20.8483
1225.84	65.3468
1228.73	53.6153
1231.62	37.6906
1234.52	0
