Measurement: Raman, 532 nm, unoriented, Raman Data Processed
Mineral: Coyoteite
Rruff sample: R070143
Ideal chemistry: NaFe^3+^_3_S^2-^_5_2H_2_O
Locality: Coyote Peak, Orick, Humboldt County, California, USA
Source: Michael Scott
Description: Black metallic grains, co-type material
Raman shift (cm-1)	intensity
166.573	0
169.466	37.6204
172.359	23.8344
175.252	0.685791
178.144	58.0568
181.037	36.158
183.93	36.7328
186.822	60.7428
189.715	63.541
192.608	49.4348
195.5	67.6101
198.393	66.859
201.286	51.1894
204.179	47.0739
207.071	45.356
209.964	37.3714
212.857	20.5239
215.749	9.25928
218.642	27.7836
221.535	18.026
224.428	20.7953
227.32	8.66571
230.213	8.9848
233.106	8.54779
235.998	7.99353
238.891	18.2424
241.784	21.9598
244.676	5.12494
247.569	58.8451
250.462	46.7451
253.355	21.0311
256.247	43.6285
259.14	60.1483
262.033	64.9247
264.925	52.8613
267.818	78.7117
270.711	59.3063
273.603	111.293
276.496	102.247
279.389	89.9308
282.281	119.214
285.174	147.402
288.067	144.784
290.959	147.03
293.852	131.374
296.745	134.395
299.638	131.705
302.53	134.793
305.423	149.518
308.316	114.944
311.208	128.195
314.101	135.802
316.994	129.3
319.887	106.915
322.779	96.91
325.672	87.577
328.565	80.1028
331.457	79.7158
334.35	43.0675
337.243	39.4711
340.135	37.6292
343.028	37.9021
345.921	24.0956
348.813	3.89697
351.706	30.3418
354.599	25.4896
357.492	12.1659
360.384	6.60181
363.277	29.2688
366.17	14.5306
369.062	15.3579
371.955	38.5806
374.848	40.0836
377.74	3.62598
380.633	20.4742
383.526	9.11694
386.418	43.1921
389.311	19.3738
392.204	3.58191
395.097	12.6829
397.989	2.75208
400.882	14.7338
403.775	24.7614
406.667	27.5444
409.56	48.8201
412.453	14.1521
415.346	29.9675
418.238	13.8979
421.131	11.8303
424.024	1.24548
426.916	1.78723
429.809	2.44788
432.702	17.3905
435.594	6.53088
438.487	9.07642
441.38	4.89356
444.272	15.0489
447.165	21.7222
450.058	14.2925
452.951	61.688
455.843	53.0156
458.736	25.1504
461.629	31.4423
464.521	15.0641
467.414	40.4805
470.307	51.771
473.2	38.6886
476.092	18.026
478.985	49.2999
481.878	14.2058
484.77	49.8809
487.663	57.2024
490.556	28.1963
493.448	41.7434
496.341	19.7443
499.234	20.3035
502.127	67.0217
505.019	96.6891
507.912	80.9731
510.805	89.8623
513.697	84.6077
516.59	81.0657
519.483	111.617
522.375	149.121
525.268	143.179
528.161	154.525
531.053	157.456
533.946	128.582
536.839	143.074
539.731	155.673
542.624	155.699
545.517	105.353
548.41	157.885
551.302	74.0688
554.195	81.2452
557.088	83.8434
559.98	52.349
562.873	40.053
565.766	27.5378
568.659	15.3142
571.551	43.2549
574.444	15.1707
577.337	4.35559
580.229	14.2797
583.122	5.46814
586.015	0.536621
588.907	21.0928
591.8	6.66833
594.693	24.3487
597.585	31.5221
600.478	19.4075
603.371	52.1368
606.264	33.9093
609.156	54.4362
612.049	82.0599
614.942	96.8317
617.834	69.8805
620.727	153.895
623.62	132.747
626.513	204.693
629.405	220.856
632.298	271.264
635.191	306.605
638.083	362.308
640.976	370.622
643.869	444.867
646.761	476.148
649.654	551.015
652.547	591.21
655.439	618.737
658.332	656.591
661.225	678.801
664.117	683.497
667.01	619.756
669.903	605.458
672.796	556.617
675.688	531.705
678.581	475.872
681.474	459.283
684.366	407.479
687.259	335.376
690.152	322.003
693.044	248.232
695.937	229.536
698.83	214.267
701.723	154.762
704.615	129.229
707.508	135.604
710.401	134.877
713.293	60.9152
716.186	82.8206
719.079	87.6156
721.971	45.6793
724.864	91.6721
727.757	52.4375
730.649	23.4169
733.542	32.4117
736.435	74.2198
739.328	24.304
742.22	26.4624
745.113	33.1073
748.006	27.495
750.898	14.7466
753.791	20.8251
756.684	10.2797
759.577	4.9668
762.469	14.5744
765.362	0.407288
768.255	0.308777
771.147	15.3758
774.04	4.59747
776.933	11.7547
779.825	8.74066
782.718	17.2776
785.611	25.8681
788.504	2.18036
791.396	22.5358
794.289	22.554
797.182	38.8921
800.074	31.3928
802.967	16.5199
805.86	28.8588
808.752	40.4627
811.645	46.4283
814.538	47.8883
817.431	33.5324
820.323	39.4074
823.216	49.0472
826.109	47.735
829.001	28.326
831.894	32.0468
834.787	70.7504
837.679	56.3841
840.572	46.1735
843.465	4.6474
846.357	20.599
849.25	50.0421
852.143	19.7229
855.036	26.451
857.928	20.059
860.821	33.2775
863.714	37.2036
866.606	27.0642
869.499	12.9842
872.392	36.1767
875.284	38.672
878.177	16.4326
881.07	43.6801
883.962	36.8798
886.855	52.2888
889.748	62.9158
892.641	13.1979
895.533	33.2968
898.426	31.0316
901.319	11.895
904.211	21.9879
907.104	28.9311
909.997	6.01825
912.889	48.1285
915.782	38.443
918.675	19.1962
921.568	39.8671
924.46	43.0184
927.353	27.4187
930.246	44.3606
933.138	7.98273
936.031	15.616
938.924	47.2213
941.817	24.151
944.709	31.5316
947.602	37.6388
950.495	21.396
953.387	25.3524
956.28	23.9358
959.173	23.0855
962.065	6.68079
964.958	29.7398
967.851	38.7095
970.744	35.9921
973.636	29.4767
976.529	10.8305
979.422	33.8146
982.314	8.10407
985.207	12.9156
988.1	34.0025
990.992	55.2656
993.885	33.7385
996.778	57.0689
999.67	56.6503
1002.56	69.6515
1005.46	46.1293
1008.35	34.8312
1011.24	63.7024
1014.13	8.79248
1017.03	28.6487
1019.92	52.1813
1022.81	15.1555
1025.7	29.199
1028.6	20.1396
1031.49	45.0696
1034.38	30.7692
1037.28	30.481
1040.17	15.1832
1043.06	34.2665
1045.95	50.2688
1048.85	49.1341
1051.74	33.9539
1054.63	52.2412
1057.52	55.4472
1060.42	58.8673
1063.31	18.1791
1066.2	19.2001
1069.1	60.4497
1071.99	53.5361
1074.88	19.0224
1077.77	27.3023
1080.67	50.0977
1083.56	51.5782
1086.45	32.256
1089.34	79.4337
1092.24	18.2875
1095.13	28.167
1098.02	26.7314
1100.91	48.7307
1103.81	27.1063
1106.7	29.4717
1109.59	35.771
1112.49	58.0922
1115.38	28.5917
1118.27	2.29132
1121.16	37.2445
1124.06	46.1644
1126.95	53.3379
1129.84	10.5571
1132.73	17.1912
1135.63	27.059
1138.52	51.365
1141.41	22.6793
1144.31	25.9615
1147.2	56.3765
1150.09	29.5537
1152.98	11.4535
1155.88	21.7748
1158.77	8.86975
1161.66	14.951
1164.55	28.0768
1167.45	16.4233
1170.34	14.216
1173.23	53.3932
1176.12	13.0618
1179.02	53.6642
1181.91	32.2747
1184.8	14.1642
1187.7	44.82
1190.59	61.6776
1193.48	11.4178
1196.37	17.1147
1199.27	25.1949
1202.16	0.020935
1205.05	30.7555
1207.94	23.4217
1210.84	9.60767
1213.73	76.6773
1216.62	15.0901
1219.52	41.0364
1222.41	26.5179
1225.3	27.4352
1228.19	45.3197
1231.09	57.9958
1233.98	9.07764
1236.87	15.9946
1239.76	20.834
1242.66	9.31342
1245.55	25.3917
1248.44	53.0204
1251.34	74.9653
1254.23	25.9033
1257.12	10.353
1260.01	57.2989
1262.91	18.9026
1265.8	41.8591
1268.69	37.6382
1271.58	11.3674
1274.48	47.4597
1277.37	16.2865
1280.26	49.5237
1283.15	18.1324
1286.05	1.21118
1288.94	56.6165
1291.83	14.3165
1294.73	2.10339
