Measurement: Raman, 785 nm, unoriented, Raman Data Processed
Mineral: Crandallite
Rruff sample: R060399
Ideal chemistry: CaAl_3_(PO_4_)(PO_3_OH)(OH)_6_
Locality: Bustillos Province, Bolivia
Source: American Museum of Natural History
Description: Aggregate of tan colored spherical groups associated with wavellite and quartz
Raman shift (cm-1)	intensity
158.172	0
161.065	22.7412
163.958	115.568
166.851	273.773
169.743	262.481
172.636	221.981
175.529	167.552
178.421	43.3418
181.314	23.8799
184.207	60.5283
187.099	77.7773
189.992	82.8491
192.885	158.197
195.778	121.189
198.67	137.041
201.563	215.348
204.456	161.082
207.348	382.413
210.241	384.097
213.134	404.715
216.026	415.729
218.919	495.125
221.812	424.335
224.704	435.127
227.597	369.567
230.49	298.462
233.383	253.677
236.275	300.88
239.168	154.632
242.061	167.504
244.953	134.291
247.846	120.653
250.739	72.4688
253.631	129.098
256.524	33.6582
259.417	4.54248
262.31	5.19678
265.202	4.8374
268.095	72.0908
270.988	18.6089
273.88	38.2422
276.773	32.8355
279.666	21.3355
282.559	45.9199
285.451	16.373
288.344	74.4243
291.237	63.4429
294.129	115.585
297.022	39.2959
299.915	13.9404
302.808	11.209
305.7	7.8418
308.593	76.5688
311.486	94.9629
314.378	60.4238
317.271	66.6338
320.164	22.8633
323.056	74.4668
325.949	21.2036
328.842	26.0186
331.735	19.2339
334.627	14.0298
337.52	29.4722
340.413	92.6226
343.305	62.5649
346.198	44.0669
349.091	3.30859
351.983	3.37744
354.876	126.606
357.769	21.9697
360.661	68.1016
363.554	73.7817
366.447	19.1274
369.34	68.8169
372.232	20.894
375.125	59.7085
378.018	42.2266
380.91	37.1641
383.803	23.3311
386.696	41.9463
389.589	45.0371
392.481	61.3335
395.374	81.4394
398.267	85.9497
401.159	58.915
404.052	13.4746
406.945	11.957
409.837	44.7539
412.73	69.2109
415.623	91.1328
418.515	106.413
421.408	111.27
424.301	77.9741
427.194	68.6255
430.086	132.08
432.979	123.328
435.872	206.155
438.764	272.974
441.657	241.948
444.55	302.994
447.442	349.945
450.335	360.326
453.228	385.622
456.121	418.72
459.013	329.491
461.906	276.728
464.799	329.743
467.691	235.465
470.584	325.481
473.477	372.569
476.37	360.152
479.262	400.675
482.155	364.969
485.048	288.767
487.94	352.295
490.833	322.361
493.726	268.008
496.618	217.816
499.511	183.931
502.404	163.094
505.296	224.298
508.189	144.133
511.082	76.1528
513.975	34.7344
516.867	5.87842
519.76	2.20068
522.653	11.0342
525.545	4.87305
528.438	35.3589
531.331	9.35449
534.223	45.4853
537.116	31.9448
540.009	51.2788
542.902	28.6289
545.794	72.6465
548.687	41.46
551.58	56.0718
554.472	64.4443
557.365	45.1831
560.258	117.775
563.15	69.3921
566.043	96.353
568.936	63.7964
571.829	48.3477
574.721	83.0039
577.614	38.1597
580.507	24.2759
583.399	80.4966
586.292	78.5693
589.185	47.3193
592.077	93.2349
594.97	25.2778
597.863	67.7163
600.756	87.5874
603.648	76.4458
606.541	133.477
609.434	117.539
612.326	159.217
615.219	136.458
618.112	194.498
621.005	259.742
623.897	237.908
626.79	279.395
629.683	319.963
632.575	279.517
635.468	357.58
638.361	342.438
641.253	376.71
644.146	277.32
647.039	323.703
649.932	268.254
652.824	248.707
655.717	206.15
658.61	149.21
661.502	95.8003
664.395	40.4365
667.288	82.646
670.18	4.99023
673.073	51.6987
675.966	5.10303
678.859	38.8799
681.751	47.8398
684.644	41.1641
687.537	54.9204
690.429	1.39893
693.322	18.6089
696.215	35.5405
699.107	40.4155
702	52.9683
704.893	46.8149
707.785	35.0054
710.678	42.1895
713.571	29.0161
716.464	59.0586
719.356	71.7485
722.249	20.9751
725.142	67.4629
728.034	17.499
730.927	18.167
733.82	70.0029
736.712	47.0366
739.605	52.27
742.498	71.105
745.391	66.0229
748.283	76.582
751.176	25.8408
754.069	51.082
756.961	0.51123
759.854	59.0269
762.747	23.4165
765.639	44.5537
768.532	37.1035
771.425	0.306152
774.318	79.8506
777.21	67.4448
780.103	18.3535
782.996	60.7236
785.888	71.1421
788.781	39.1045
791.674	39.5547
794.567	35.5791
797.459	53.3472
800.352	23.3438
803.245	48.6103
806.137	62.4209
809.03	48.2681
811.923	28.5102
814.815	36.9131
817.708	50.2607
820.601	16.2866
823.494	41.3472
826.386	3.04346
829.279	46.8579
832.172	15.3633
835.064	69.9463
837.957	108.968
840.85	47.5454
843.742	23.5112
846.635	12.0605
849.528	32.1001
852.421	21.7539
855.313	10.7632
858.206	57.0527
861.099	24.2979
863.991	52.0591
866.884	70.9438
869.777	34.96
872.669	55.9966
875.562	49.8623
878.455	31.8608
881.348	22.2358
884.24	75.9155
887.133	56.9487
890.026	96.0029
892.918	71.1787
895.811	76.5088
898.704	14.8569
901.596	122.012
904.489	19.0669
907.382	40.2446
910.275	55.8794
913.167	106.345
916.06	14.6367
918.953	55.6665
921.845	80.7188
924.738	46.8931
927.631	95.207
930.524	67.4165
933.416	66.5322
936.309	66.6509
939.202	27.4365
942.094	7.78467
944.987	17.5596
947.88	39.5444
950.772	31.2622
953.665	43.1592
956.558	42.7017
959.451	24.2646
962.343	2.43066
965.236	60.3706
968.129	55.0913
971.021	102.662
973.914	98.1982
976.807	95.5947
979.699	156.802
982.592	143.079
985.485	265.924
988.378	346.683
991.27	453.58
994.163	505.61
997.056	605.013
999.948	642.016
1002.84	750.304
1005.73	838.397
1008.63	959.501
1011.52	1132.05
1014.41	1277.68
1017.3	1158.99
1020.2	1114.41
1023.09	809.084
1025.98	480.079
1028.88	382.8
1031.77	230.341
1034.66	153.429
1037.55	114.611
1040.45	147.696
1043.34	107.429
1046.23	118.717
1049.12	132.225
1052.02	76.0527
1054.91	103.392
1057.8	130.843
1060.69	108.529
1063.59	85.478
1066.48	117.436
1069.37	85.8525
1072.27	84.0371
1075.16	108.398
1078.05	60.6138
1080.94	63.3721
1083.84	19.6899
1086.73	28.7568
1089.62	39.5825
1092.52	7.41455
1095.41	0.463867
1098.3	31.1143
1101.19	58.1665
1104.09	40.4756
1106.98	38.5859
1109.87	25.0942
1112.76	21.1411
1115.66	14.9756
1118.55	48.0293
1121.44	53.1108
1124.33	64.124
1127.23	31.5195
1130.12	65.7236
1133.01	54.3213
1135.9	52.5693
1138.8	71.4287
1141.69	94.6963
1144.58	79.9736
1147.48	68.5703
1150.37	90.5464
1153.26	56.2886
1156.15	85.937
1159.05	79.2983
1161.94	59.3208
1164.83	51.228
1167.72	1.10693
1170.62	71.5405
1173.51	35.5752
1176.4	24.4204
1179.3	36.6035
1182.19	64.1689
1185.08	41.6582
1187.97	52.6636
1190.87	55.7949
1193.76	68.3877
1196.65	81.0083
1199.55	84.3613
1202.44	38.834
1205.33	55.9307
1208.22	51.7695
1211.12	50.5405
1214.01	66.6509
1216.9	17.8975
1219.79	13.4453
1222.69	43.3823
1225.58	28.02
1228.47	22.021
1231.36	29.6406
1234.26	70.7647
1237.15	87.4668
1240.04	63.8755
1242.93	8.13721
1245.83	25.5352
1248.72	54.8935
1251.61	73.293
1254.51	55.4336
1257.4	70.2393
1260.29	49.5356
1263.18	43.3403
1266.08	86.6509
1268.97	20.1709
1271.86	25.1504
1274.76	38.2866
1277.65	16.1558
