Measurement: Raman, 532 nm, unoriented, Raman Data Processed
Mineral: Crandallite
Rruff sample: R060399
Ideal chemistry: CaAl_3_(PO_4_)(PO_3_OH)(OH)_6_
Locality: Bustillos Province, Bolivia
Source: American Museum of Natural History
Description: Aggregate of tan colored spherical groups associated with wavellite and quartz
Raman shift (cm-1)	intensity
145.28	0
148.173	31.3789
151.065	518.818
153.958	982.174
156.851	1288.73
159.743	1454.94
162.636	1414.08
165.529	1250.8
168.422	1033.51
171.314	675.5
174.207	425.578
177.1	114.676
179.992	23.7695
182.885	13.4062
185.778	13.7676
188.671	36.3867
191.563	6.12695
194.456	178.424
197.349	290.06
200.241	519.232
203.134	860.969
206.027	1257.09
208.919	1447.71
211.812	1525.55
214.705	1766.44
217.597	1941.86
220.49	2154.28
223.383	2124.82
226.276	1881.34
229.168	1742.86
232.061	1570.86
234.954	1503.64
237.846	1264.24
240.739	1063.92
243.632	1062.34
246.524	894.711
249.417	655.482
252.31	556.928
255.203	468.916
258.095	299.795
260.988	198.664
263.881	91.6289
266.773	57.0254
269.666	191.389
272.559	183.975
275.452	222.363
278.344	257.533
281.237	455.424
284.13	295.047
287.022	341.478
289.915	146.348
292.808	176.49
295.7	54.8086
298.593	121.986
301.486	100.555
304.378	166.731
307.271	127.853
310.164	167.502
313.057	200.603
315.949	5.17773
318.842	58.2773
321.735	127.512
324.627	63.6328
327.52	20.334
330.413	58.4355
333.305	50.3516
336.198	9.61328
339.091	92.8164
341.984	62.4727
344.876	47.4082
347.769	108.719
350.662	57.4629
353.554	116.555
356.447	178.281
359.34	138.162
362.233	123.012
365.125	252.758
368.018	265.746
370.911	212.971
373.803	270.859
376.696	313.361
379.589	229.59
382.481	287.24
385.374	196.068
388.267	136.34
391.159	116.812
394.052	159.594
396.945	128.281
399.838	259.871
402.73	240.098
405.623	55.3809
408.516	113.043
411.408	94.1953
414.301	12.3555
417.194	146.34
420.087	286.191
422.979	428.547
425.872	391.059
428.765	538.17
431.657	680.299
434.55	681.271
437.443	1032.34
440.335	1374.67
443.228	1692.55
446.121	2056.03
449.014	2285.56
451.906	2329.74
454.799	2388.06
457.692	2395.69
460.584	2278.47
463.477	2164.45
466.37	2088.11
469.262	2084.06
472.155	2035.28
475.048	2173.74
477.941	2225.22
480.833	2450.46
483.726	2398.4
486.619	2310.72
489.511	2129.11
492.404	1964.98
495.297	1645.92
498.19	1535.21
501.082	1527.83
503.975	1342.92
506.868	1268.7
509.76	831.93
512.653	390.117
515.546	241.482
518.438	122.32
521.331	77.5488
524.224	115.432
527.116	21.7148
530.009	38.2793
532.902	17.4707
535.795	33.7461
538.687	174.766
541.58	220.035
544.473	267.404
547.365	143.834
550.258	336.16
553.151	508.885
556.043	491.666
558.936	510.926
561.829	349.66
564.722	492.922
567.614	641.594
570.507	656.5
573.4	696.857
576.292	593.912
579.185	541.965
582.078	455.918
584.971	531.627
587.863	502.758
590.756	516.106
593.649	512.066
596.541	420.338
599.434	668.816
602.327	797.039
605.219	789.652
608.112	788.219
611.005	741.75
613.898	905.139
616.79	1032.59
619.683	1331.4
622.576	1536.14
625.468	1732.83
628.361	1896.87
631.254	2039.6
634.146	2320.8
637.039	2556.11
639.932	2623.81
642.824	2434.24
645.717	2284.25
648.61	2035.85
651.503	2074.14
654.395	2068.35
657.288	1775.34
660.181	1255.19
663.073	597.898
665.966	462.428
668.859	352.266
671.752	274.986
674.644	131.336
677.537	177.678
680.43	130.293
683.322	42.248
686.215	43.9238
689.108	45.9004
692	111.018
694.893	47.9258
697.786	61.2168
700.679	76.6699
703.571	80.2832
706.464	44.5859
709.357	8.07812
712.249	185.31
715.142	213.115
718.035	296.33
720.928	160.414
723.82	33.1074
726.713	72.1152
729.606	135.182
732.498	143.269
735.391	128.992
738.284	194.42
741.176	196.457
744.069	253.639
746.962	273.133
749.855	299.359
752.747	146.156
755.64	151.935
758.533	66.3672
761.425	197.115
764.318	246.744
767.211	79.543
770.103	142.402
772.996	132.264
775.889	134.107
778.782	207.289
781.674	260.312
784.567	222.685
787.46	69.2051
790.352	83.375
793.245	152.154
796.138	96.041
799.03	204.065
801.923	25.8184
804.816	17.7051
807.708	73.3809
810.601	101.728
813.494	148.412
816.387	210.918
819.279	83.1211
822.172	70.9492
825.065	41.7793
827.957	12.4004
830.85	165.279
833.743	89.1836
836.636	87.166
839.528	36.9082
842.421	88.7519
845.314	77.5195
848.206	183.219
851.099	277.25
853.992	430.935
856.885	453.299
859.777	244.447
862.67	119.566
865.563	101.166
868.455	223.978
871.348	287.144
874.241	328.664
877.133	327.633
880.026	216.967
882.919	138.102
885.812	278.305
888.704	224.113
891.597	314.137
894.49	193.459
897.382	67.6094
900.275	178.596
903.168	187.281
906.06	290.315
908.953	198.248
911.846	227.986
914.739	231.613
917.631	254.018
920.524	110.865
923.417	112.199
926.309	20.4961
929.202	77.1914
932.095	5.24805
934.987	85.5879
937.88	86.3731
940.773	38.9688
943.665	5.97656
946.558	9.16406
949.451	28.0488
952.344	30.2324
955.236	160.812
958.129	88.8828
961.022	70.3535
963.914	9.30078
966.807	25.2168
969.7	94.8848
972.592	211.375
975.485	379.94
978.378	650.664
981.271	781.461
984.163	1157.23
987.056	1550.43
989.949	2352.17
992.841	2838.7
995.734	3527.72
998.627	4101.99
1001.52	4843.64
1004.41	5648.76
1007.3	6375.48
1010.2	7501.65
1013.09	8733.91
1015.98	9615.34
1018.88	10089
1021.77	9351.37
1024.66	7621.88
1027.55	5482.6
1030.45	3490.29
1033.34	2299.47
1036.23	1774
1039.12	1221.54
1042.02	958.297
1044.91	948.561
1047.8	931.258
1050.69	1027.64
1053.59	1279.58
1056.48	1431.27
1059.37	1472.61
1062.27	1502.19
1065.16	1167.2
1068.05	1149.01
1070.94	1054.3
1073.84	954.203
1076.73	751.078
1079.62	630.598
1082.52	250.769
1085.41	157.211
1088.3	131.519
1091.19	135.242
1094.09	51.9805
1096.98	105.219
1099.87	119.66
1102.76	69.6797
1105.66	69.8555
1108.55	193.812
1111.44	148.598
1114.34	15.9258
1117.23	136.234
1120.12	215.027
1123.01	183.312
1125.91	245.148
1128.8	260.527
1131.69	313.832
1134.58	330.293
1137.48	569.582
1140.37	583.207
1143.26	472.484
1146.15	515.496
1149.05	549.981
1151.94	534.773
1154.83	413.703
1157.72	295.754
1160.62	306.938
1163.51	254.531
1166.4	195.746
1169.3	193.695
1172.19	164.914
1175.08	314.602
1177.97	303.879
1180.87	270.242
1183.76	417.027
1186.65	414.285
1189.55	620.199
1192.44	378.812
1195.33	484.09
1198.22	299.051
1201.12	271.106
1204.01	62.0664
1206.9	63.3047
1209.79	173.918
1212.69	3.56641
1215.58	86.8164
1218.47	24.4922
1221.37	111.957
1224.26	124.078
1227.15	18.7617
1230.04	135.902
1232.94	105.07
1235.83	132.117
1238.72	6.31641
1241.61	202.59
1244.51	48.7539
1247.4	126.137
1250.29	21.2656
1253.18	129.84
1256.08	327.84
1258.97	186.281
1261.86	237.231
1264.76	258.551
1267.65	340.59
1270.54	318.188
1273.43	228.383
1276.33	177.742
1279.22	187.879
1282.11	243.336
1285	108.371
1287.9	48.1602
1290.79	2.09766
