Measurement: Raman, 532 nm, unoriented, Raman Data Processed
Mineral: Crednerite
Rruff sample: R070404
Ideal chemistry: Cu^1+^Mn^3+^O_2_
Locality: Merehead, Mendip Hills, Somerset, England, United Kingdom
Source: Michael Scott
Description: Platy iron-black striated crystals with well-defined cleavage planes
Raman shift (cm-1)	intensity
143.394	0
146.769	5.7851
150.144	62.1285
153.519	86.6569
156.894	92.0533
160.268	130.789
163.643	143.243
167.018	165.621
170.393	179.486
173.768	112.188
177.143	99.0679
180.517	99.4178
183.892	61.9614
187.267	86.9058
190.642	61.9866
194.017	58.8148
197.391	45.9387
200.766	18.9794
204.141	19.6563
207.516	24.4355
210.891	17.8785
214.266	22.3948
217.64	39.3531
221.015	33.696
224.39	37.0167
227.765	7.08929
231.14	14.4153
234.514	2.37482
237.889	19.2295
241.264	12.5321
244.639	31.1838
248.014	67.1001
251.388	73.5002
254.763	104.73
258.138	121.221
261.513	87.2257
264.888	90.2775
268.263	52.2723
271.637	51.6971
275.012	57.8778
278.387	81.3152
281.762	78.766
285.137	71.7492
288.512	57.0209
291.886	52.2236
295.261	43.6525
298.636	33.4003
302.011	33.3449
305.386	49.0294
308.76	36.0129
312.135	13.575
315.51	9.47949
318.885	13.6527
322.26	12.0704
325.635	3.30139
329.009	22.6007
332.384	0.870789
335.759	2.26721
339.134	26.4024
342.509	5.78717
345.883	9.97333
349.258	27.0278
352.633	24.2445
356.008	40.5682
359.383	13.9393
362.757	30.2422
366.132	25.775
369.507	25.9447
372.882	23.6013
376.257	40.3885
379.632	60.3605
383.006	80.26
386.381	78.1993
389.756	48.1401
393.131	62.7438
396.506	23.0849
399.88	44.1589
403.255	33.1097
406.63	51.7076
410.005	22.6493
413.38	28.764
416.755	25.4786
420.129	5.06616
423.504	16.0779
426.879	21.7087
430.254	16.1771
433.629	9.38159
437.003	12.751
440.378	37.6596
443.753	20.1791
447.128	38.609
450.503	53.1722
453.878	52.5988
457.252	56.8815
460.627	48.0644
464.002	68.7091
467.377	83.2028
470.752	91.963
474.127	62.0884
477.501	67.0941
480.876	59.8476
484.251	52.5746
487.626	73.2619
491.001	47.5996
494.375	40.5271
497.75	7.7074
501.125	3.38623
504.5	6.38861
507.875	5.70807
511.25	18.1697
514.624	10.9448
517.999	17.0278
521.374	25.3856
524.749	23.6437
528.124	18.261
531.498	14.0864
534.873	29.2773
538.248	6.04932
541.623	51.306
544.998	28.523
548.372	18.2107
551.747	51.7011
555.122	36.161
558.497	55.444
561.872	30.1335
565.247	60.741
568.621	61.6459
571.996	55.2991
575.371	92.6359
578.746	62.2653
582.121	69.386
585.495	66.471
588.87	61.7713
592.245	71.1757
595.62	107.89
598.995	118.945
602.37	151.531
605.744	181.382
609.119	220.737
612.494	233.288
615.869	253.544
619.244	311.861
622.619	372.73
625.993	398.317
629.368	491.39
632.743	556.469
636.118	596.562
639.493	632.277
642.867	631.233
646.242	604.071
649.617	539.278
652.992	484.987
656.367	406.56
659.741	326.584
663.116	265.681
666.491	215.214
669.866	171.16
673.241	128.361
676.616	89.8627
679.99	61.7136
683.365	19.8556
686.74	35.3013
690.115	13.8935
693.49	3.26092
696.865	14.3093
700.239	19.2464
703.614	2.34699
706.989	4.97064
710.364	4.87439
713.739	12.8029
717.113	3.93851
720.488	6.58557
723.863	22.5952
727.238	18.5494
730.613	12.2926
733.987	44.4709
737.362	0.324341
740.737	18.3947
744.112	43.8638
747.487	20.5453
750.862	22.2704
754.236	20.8158
757.611	41.3382
760.986	23.0706
764.361	43.8719
767.736	40.177
771.111	29.4381
774.485	32.4499
777.86	28.4594
781.235	29.8067
784.61	34.7331
787.985	14.6555
791.359	23.61
794.734	42.1177
798.109	19.6581
801.484	31.297
804.859	11.7515
808.234	15.5797
811.608	10.3671
814.983	17.9089
818.358	18.7572
821.733	1.58102
825.108	17.7148
828.482	24.0231
831.857	19.0122
835.232	25.9996
838.607	41.3483
841.982	6.38229
845.356	11.0017
848.731	34.5083
852.106	4.24936
855.481	14.0202
858.856	9.3895
862.231	15.333
865.605	27.0032
868.98	32.0591
872.355	11.471
875.73	9.99579
879.105	28.755
882.48	16.7865
885.854	35.0237
889.229	9.97299
892.604	21.136
895.979	18.261
899.354	14.9484
902.729	44.3497
906.103	18.3071
909.478	32.5669
912.853	13.6598
916.228	14.1977
919.602	34.455
922.977	11.4844
926.352	37.6138
929.727	13.7074
933.102	17.0487
936.477	38.3946
939.851	26.4667
943.226	20.4264
946.601	21.6159
949.976	23.2186
953.351	2.36218
956.726	15.0346
960.1	24.4405
963.475	0.965668
966.85	13.5598
970.225	28.7647
973.6	13.3337
976.974	22.4093
980.349	14.294
983.724	6.48086
987.099	14.5707
990.474	34.1547
993.848	22.8974
997.223	12.9901
1000.6	13.7085
1003.97	15.344
1007.35	3.6705
1010.72	21.1901
1014.1	24.7819
1017.47	38.3958
1020.85	21.2217
1024.22	32.9512
1027.6	19.9111
1030.97	30.5865
1034.35	56.3543
1037.72	36.0245
1041.1	42.2106
1044.47	24.1331
1047.85	17.0534
1051.22	28.8973
1054.6	32.7641
1057.97	17.9008
1061.35	38.8141
1064.72	10.455
1068.09	38.6457
1071.47	20.4551
1074.84	26.7126
1078.22	21.5037
1081.59	13.9078
1084.97	34.2979
1088.34	37.6411
1091.72	16.1446
1095.09	36.9996
1098.47	23.3532
1101.84	38.8002
1105.22	46.16
1108.59	15.7769
1111.97	17.7672
1115.34	27.2301
1118.72	0.424622
1122.09	14.307
1125.47	8.36627
1128.84	17.0566
1132.22	28.0031
1135.59	19.7439
1138.97	27.712
1142.34	17.2847
1145.71	4.78903
1149.09	10.7571
1152.46	26.5577
1155.84	18.0099
1159.21	40.5927
1162.59	2.23782
1165.96	2.37228
1169.34	16.5999
1172.71	7.41803
1176.09	27.1532
1179.46	6.73364
1182.84	6.25238
1186.21	2.11005
1189.59	8.31241
1192.96	18.5465
1196.34	13.9038
1199.71	16.8879
1203.09	12.1822
1206.46	1.97015
1209.84	8.27206
1213.21	12.9896
1216.59	29.053
1219.96	23.4335
1223.34	30.2165
1226.71	11.9146
1230.09	19.8913
1233.46	28.4539
1236.84	21.3563
1240.21	44.9781
1243.59	3.06497
1246.96	21.9049
1250.34	8.74088
1253.71	26.2614
1257.08	22.608
1260.46	2.84933
1263.83	20.0651
1267.21	17.4684
1270.58	23.3273
1273.96	24.3477
1277.33	25.8024
1280.71	24.061
1284.08	2.31064
1287.46	18.4213
1290.83	16.9352
1294.21	31.3307
1297.58	50.7747
1300.96	19.9282
1304.33	11.7982
