Measurement: Raman, 532 nm, unoriented, Raman Data Processed
Mineral: Crichtonite
Rruff sample: R060314
Ideal chemistry: Sr(Mn^2+^,Y^3+^,U^6+^)Fe^2+^_2_(Ti^4+^,Fe^3+^,Cr^3+^,V^5+^)_18_(O,OH)_38_
Locality: Fazenda Guariba, Minas Gerais, Brazil
Source: Michael Scott
Description: Black colored rhombohedral single crystal
Raman shift (cm-1)	intensity
174.863	0
177.755	7.03604
180.648	20.7657
183.541	28.4606
186.433	29.0451
189.326	25.8607
192.219	32.5858
195.112	41.5436
198.004	45.0265
200.897	38.7007
203.79	22.6712
206.682	12.9922
209.575	2.82816
212.468	0.205872
215.36	1.92581
218.253	1.91089
221.146	4.7446
224.038	9.88135
226.931	15.753
229.824	18.7684
232.717	18.9964
235.609	15.016
238.502	14.31
241.395	15.8944
244.287	20.0314
247.18	23.5068
250.073	19.8645
252.965	19.7928
255.858	13.6635
258.751	14.8846
261.644	5.24939
264.536	5.69092
267.429	4.47318
270.322	0.364288
273.214	3.2041
276.107	1.76694
279	0.324615
281.892	2.28732
284.785	6.548
287.678	10.6627
290.571	16.5861
293.463	10.6377
296.356	10.6789
299.249	13.7814
302.141	10.8389
305.034	9.77884
307.927	10.972
310.82	10.1899
313.712	9.88834
316.605	14.7568
319.498	17.2997
322.39	17.3873
325.283	22.4126
328.176	21.9453
331.068	26.3025
333.961	33.1736
336.854	24.025
339.747	19.4879
342.639	14.3544
345.532	8.54147
348.425	6.34683
351.317	4.12528
354.21	8.35751
357.103	8.85059
359.995	2.04752
362.888	3.52933
365.781	3.75708
368.673	1.67935
371.566	5.31222
374.459	0.567993
377.352	1.28735
380.244	0.362427
383.137	2.8862
386.03	5.82724
388.922	10.9788
391.815	15.6537
394.708	19.2054
397.601	21.3244
400.493	22.7346
403.386	32.2095
406.279	37.0259
409.171	41.8114
412.064	45.4986
414.957	52.5763
417.849	56.5601
420.742	62.3085
423.635	67.9804
426.527	67.3414
429.42	71.1477
432.313	71.369
435.206	69.1559
438.098	65.7582
440.991	61.5694
443.884	52.8638
446.776	43.9283
449.669	37.2082
452.562	25.6573
455.454	19.123
458.347	13.0284
461.24	10.3125
464.133	3.82385
467.025	5.67404
469.918	1.38119
472.811	3.57492
475.703	3.44885
478.596	1.61783
481.489	6.48962
484.382	12.2006
487.274	15.0747
490.167	18.1041
493.06	22.7526
495.952	30.3703
498.845	38.509
501.738	43.2451
504.63	48.8729
507.523	52.9082
510.416	50.4988
513.308	47.512
516.201	48.5751
519.094	42.0778
521.987	41.7194
524.879	35.626
527.772	25.7088
530.665	24.4096
533.557	17.5972
536.45	14.9743
539.343	8.95749
542.236	5.65237
545.128	3.66303
548.021	2.2161
550.914	1.38757
553.806	0.296173
556.699	0.841736
559.592	2.49817
562.484	1.12131
565.377	5.00418
568.27	5.44418
571.163	7.15433
574.055	8.48801
576.948	12.8262
579.841	12.2361
582.733	16.572
585.626	18.8345
588.519	21.139
591.411	23.8742
594.304	22.8382
597.197	19.5703
600.09	19.7425
602.982	15.0327
605.875	13.5829
608.768	9.48038
611.66	5.52359
614.553	3.90906
617.446	0.537292
620.338	0.737244
623.231	1.01355
626.124	1.01462
629.016	1.77225
631.909	3.45599
634.802	2.09915
637.695	7.35489
640.587	5.08212
643.48	5.47641
646.373	7.4516
649.265	5.64008
652.158	8.88528
655.051	11.6721
657.943	14.6708
660.836	16.9689
663.729	23.482
666.622	31.6819
669.514	37.0048
672.407	47.3554
675.3	60.2145
678.192	66.806
681.085	76.3822
683.978	85.7526
686.87	96.2578
689.763	98.707
692.656	105.768
695.549	106.572
698.441	110.209
701.334	109.792
704.227	105.319
707.119	101.02
710.012	94.5631
712.905	84.9998
715.798	78.4718
718.69	67.3601
721.583	58.2896
724.476	52.2653
727.368	42.4133
730.261	37.6574
733.154	29.7004
736.046	23.2824
738.939	19.1758
741.832	12.3844
744.725	9.09055
747.617	8.55936
750.51	2.37137
753.403	1.89829
756.295	1.42673
759.188	2.76444
762.081	0.743011
764.973	1.42314
767.866	1.52115
770.759	1.14209
773.652	3.46339
776.544	3.03078
779.437	8.16244
782.33	11.0014
785.222	14.02
788.115	18.8532
791.008	24.1416
793.9	25.0649
796.793	33.6131
799.686	35.2418
802.578	39.7204
805.471	45.2301
808.364	45.5718
811.257	43.2863
814.149	44.1779
817.042	42.3486
819.935	35.7919
822.827	31.3495
825.72	26.3397
828.613	24.2166
831.505	19.2999
834.398	15.2363
837.291	11.4334
840.184	8.19051
843.076	8.50587
845.969	6.0793
848.862	2.39273
851.754	0.031143
854.647	1.71765
857.54	0.512543
860.433	0.112076
863.325	1.84883
866.218	0.893173
869.111	0.01651
872.003	0.258423
874.896	2.12276
877.789	1.33998
880.681	2.06242
883.574	1.53941
886.467	0.493042
889.36	2.49596
892.252	2.63783
895.145	6.79825
898.038	3.70385
900.93	6.66199
903.823	5.37531
906.716	5.42706
909.608	6.6144
912.501	6.44587
915.394	7.85923
918.287	8.25719
921.179	7.0057
924.072	8.23011
926.965	5.7164
929.857	3.71732
932.75	4.9677
935.643	4.59223
938.535	5.34016
941.428	5.24692
944.321	4.20898
947.213	4.23914
950.106	1.55591
952.999	3.03947
955.892	4.58659
958.784	3.99812
961.677	4.40046
964.57	2.65077
967.462	4.0221
970.355	2.986
973.248	2.88741
976.14	3.86484
979.033	4.53951
981.926	3.55614
984.819	2.17909
987.711	3.3419
990.604	1.57491
993.497	2.6537
996.389	1.92883
999.282	1.45861
1002.17	2.84794
1005.07	1.93975
1007.96	0.361717
1010.85	2.5727
1013.75	1.35408
1016.64	1.22247
1019.53	2.23881
1022.42	1.09592
1025.32	1.22739
1028.21	1.72555
1031.1	1.15931
1033.99	1.40239
1036.89	0.684799
1039.78	0.418045
1042.67	1.95396
1045.57	2.45198
1048.46	0.452866
1051.35	1.0749
1054.24	1.03774
1057.14	1.54437
1060.03	0.619232
1062.92	0.072456
1065.81	0.224976
1068.71	0.185211
1071.6	1.0784
1074.49	2.1835
1077.38	2.71215
1080.28	0.193413
1083.17	1.01442
1086.06	1.63317
1088.96	0.823288
1091.85	0.622078
1094.74	0.577034
1097.63	0.035416
1100.53	1.40682
1103.42	2.70757
1106.31	0.473503
1109.2	2.19251
1112.1	2.93803
1114.99	1.88695
1117.88	1.05386
1120.78	0.839165
1123.67	2.24342
1126.56	1.09383
1129.45	1.73998
1132.35	4.29784
1135.24	1.30122
1138.13	1.86642
1141.02	1.89729
1143.92	1.69932
1146.81	1.81721
1149.7	3.48243
1152.6	0.832603
1155.49	1.38549
1158.38	0.893936
1161.27	1.09221
1164.17	0.751945
1167.06	0.35334
1169.95	2.77974
1172.84	0.849846
1175.74	0.951553
1178.63	0.810455
1181.52	0.889145
1184.41	1.13144
1187.31	0.03685
1190.2	1.71823
1193.09	2.82785
1195.99	1.01571
1198.88	0.812698
1201.77	1.35869
1204.66	0.871124
1207.56	2.16088
1210.45	1.82434
1213.34	1.46631
1216.23	2.36397
1219.13	3.16278
1222.02	2.16331
1224.91	1.17477
1227.81	1.1845
1230.7	2.14719
1233.59	1.53204
1236.48	1.21418
1239.38	2.58346
1242.27	1.63572
1245.16	2.02383
1248.05	1.65083
1250.95	0.499001
1253.84	3.05672
1256.73	1.83906
1259.62	2.78437
1262.52	4.13266
1265.41	0.895615
1268.3	0.321228
1271.2	0.313072
1274.09	2.701
1276.98	1.2641
1279.87	0.945862
1282.77	1.618
1285.66	1.37658
1288.55	0.40387
1291.44	0.81926
1294.34	0.890625
1297.23	0.021133
1300.12	1.70812
1303.02	0
