Measurement: Raman, 532 nm, unoriented, Raman Data Processed
Mineral: Crichtonite
Rruff sample: R090006
Ideal chemistry: Sr(Mn^2+^,Y^3+^,U^6+^)Fe^2+^_2_(Ti^4+^,Fe^3+^,Cr^3+^,V^5+^)_18_(O,OH)_38_
Locality: Presidente Kubitschek, Minas Gerias, Brazil
Source: Luiz Menezes
Description: Black poorly shaped, rounded crystals associated with quartz and rutile
Raman shift (cm-1)	intensity
225.656	0
228.548	1.72484
231.441	4.99839
234.334	1.29602
237.226	3.84341
240.119	0.22715
243.012	1.59361
245.905	3.69424
248.797	3.88904
251.69	0.652206
254.583	0.375793
257.475	5.48338
260.368	0.875069
263.261	4.21385
266.154	3.01863
269.046	4.75545
271.939	7.87573
274.832	11.0551
277.724	13.3426
280.617	11.9749
283.51	20.1989
286.402	20.3635
289.295	22.8474
292.188	21.0293
295.08	20.5435
297.973	21.5731
300.866	18.9005
303.759	21.5142
306.651	18.9595
309.544	18.0256
312.437	18.7305
315.329	14.1566
318.222	14.4041
321.115	15.5458
324.007	13.1974
326.9	13.4751
329.793	11.0676
332.686	12.6545
335.578	8.87402
338.471	8.77584
341.364	10.1226
344.256	11.4505
347.149	7.28983
350.042	7.34389
352.935	9.88978
355.827	7.13711
358.72	7.92715
361.613	6.87025
364.505	5.92899
367.398	5.55446
370.291	3.89176
373.183	5.66238
376.076	0.565178
378.969	2.43593
381.861	1.31946
384.754	1.54101
387.647	0.442795
390.54	0.686783
393.432	0.003578
396.325	0.290993
399.218	0.983688
402.11	1.18434
405.003	0.042816
407.896	1.94491
410.788	0.524529
413.681	2.29656
416.574	1.5163
419.467	1.70053
422.359	2.11746
425.252	1.79911
428.145	2.22029
431.037	3.60841
433.93	1.99938
436.823	3.13619
439.716	5.5509
442.608	1.17033
445.501	1.06096
448.394	2.78401
451.286	3.28326
454.179	1.54556
457.072	1.3592
459.964	3.3035
462.857	1.25947
465.75	1.88114
468.642	5.17303
471.535	5.33469
474.428	2.50356
477.321	0.699242
480.213	0.246498
483.106	0.702286
485.999	2.72239
488.891	0.585968
491.784	1.27521
494.677	0.737862
497.57	1.46909
500.462	3.14264
503.355	0.328812
506.248	2.86427
509.14	4.03352
512.033	2.49141
514.926	2.38602
517.818	6.3121
520.711	4.66888
523.604	5.54149
526.496	4.60999
529.389	9.05335
532.282	8.53825
535.175	8.14803
538.067	11.376
540.96	12.0245
543.853	10.2693
546.745	13.2678
549.638	13.0492
552.531	9.86266
555.423	7.6037
558.316	8.06387
561.209	9.25001
564.102	5.66625
566.994	9.89413
569.887	6.60329
572.78	6.36717
575.672	5.16486
578.565	4.5916
581.458	2.36377
584.351	3.87171
587.243	5.72198
590.136	4.59112
593.029	2.15751
595.921	3.4372
598.814	0.015251
601.707	1.11079
604.599	0.497543
607.492	0.556084
610.385	1.46917
613.278	0.677887
616.17	0.973221
619.063	0.870636
621.956	1.92542
624.848	1.73697
627.741	1.50738
630.634	2.72882
633.526	2.78919
636.419	2.73603
639.312	4.20635
642.205	4.164
645.097	3.15294
647.99	3.52232
650.883	3.07768
653.775	6.10648
656.668	3.60156
659.561	1.51889
662.453	0.48996
665.346	0.632103
668.239	2.35345
671.131	2.67171
674.024	3.74189
676.917	4.1712
679.81	4.48049
682.702	2.17071
685.595	3.34669
688.488	2.68929
691.38	4.66675
694.273	3.07352
697.166	6.79637
700.058	5.64953
702.951	5.87299
705.844	4.41519
708.737	4.76922
711.629	2.7502
714.522	4.20918
717.415	3.37798
720.307	3.0974
723.2	2.31081
726.093	2.7946
728.986	1.7017
731.878	1.53965
734.771	2.65301
737.664	1.99712
740.556	1.4352
743.449	1.07176
746.342	0.904755
749.234	0.85775
752.127	0.048317
755.02	0.865211
757.913	2.18471
760.805	1.28926
763.698	2.65802
766.591	2.84783
769.483	3.46612
772.376	2.62038
775.269	3.30756
778.161	1.72946
781.054	3.90224
783.947	3.4119
786.84	6.10864
789.732	3.19937
792.625	6.38695
795.518	8.16304
798.41	9.81314
801.303	7.47281
804.196	9.44474
807.088	11.6601
809.981	13.1326
812.874	11.1742
815.766	12.7862
818.659	10.8045
821.552	10.8424
824.445	8.92104
827.337	8.88146
830.23	8.72437
833.123	7.64078
836.015	6.63414
838.908	7.01961
841.801	5.80324
844.693	5.53886
847.586	2.55206
850.479	3.207
853.372	2.58637
856.264	2.71361
859.157	1.7752
862.05	0.756271
864.942	0.014553
867.835	1.63425
870.728	2.33074
873.62	0.305912
876.513	3.17527
879.406	0.904171
882.299	1.36511
885.191	2.12189
888.084	1.06691
890.977	0.15976
893.869	0.092472
896.762	2.29419
899.655	3.47766
902.548	1.94944
905.44	3.03875
908.333	0.561928
911.226	1.73576
914.118	1.89243
917.011	2.67321
919.904	3.03128
922.796	1.91464
925.689	3.1556
928.582	0.263138
931.475	2.2813
934.367	2.57217
937.26	3.36146
940.153	1.77853
943.045	2.8831
945.938	3.35351
948.831	1.6777
951.723	1.07302
954.616	3.21242
957.509	1.29523
960.402	2.63426
963.294	0.952232
966.187	0.106995
969.08	1.71793
971.972	4.03914
974.865	2.76684
977.758	1.76967
980.65	0.854317
983.543	1.55237
986.436	0.430058
989.329	0.04987
992.221	1.41559
995.114	1.10887
998.007	0.931316
1000.9	1.0955
1003.79	2.40322
1006.68	0.508827
1009.58	1.72182
1012.47	1.29535
1015.36	3.04223
1018.26	1.42172
1021.15	1.23569
1024.04	1.79655
1026.93	1.57441
1029.83	2.73629
1032.72	3.24828
1035.61	1.56504
1038.5	0.199142
1041.4	2.75446
1044.29	1.40891
1047.18	0.785442
1050.08	2.57772
1052.97	2.34707
1055.86	1.8787
1058.75	2.07734
1061.65	2.08652
1064.54	1.79301
1067.43	1.33463
1070.32	0.11684
1073.22	0.085136
1076.11	0.786945
1079	2.5421
1081.89	1.11332
1084.79	1.47067
1087.68	3.81876
1090.57	0.344997
1093.47	0.060677
1096.36	3.37943
1099.25	2.81085
1102.14	1.99859
1105.04	0.938934
1107.93	2.85706
1110.82	1.02395
1113.71	1.96626
1116.61	0.211052
1119.5	2.49622
1122.39	2.77141
1125.29	1.24405
1128.18	2.02607
1131.07	0.305
1133.96	1.39238
1136.86	2.02984
1139.75	2.17872
1142.64	1.70188
1145.53	1.27683
1148.43	2.80773
1151.32	2.22337
1154.21	1.80861
1157.11	0.145329
1160	0.72648
1162.89	3.22755
1165.78	0.121019
1168.68	0.218287
1171.57	3.40746
1174.46	0.710783
1177.35	2.82404
1180.25	2.25954
1183.14	1.27608
1186.03	0.341623
1188.92	3.4007
1191.82	0.498711
1194.71	1.96651
1197.6	1.96676
1200.5	1.74626
1203.39	0.653147
1206.28	0.929184
1209.17	0.472519
1212.07	2.04779
1214.96	1.91407
1217.85	0.020353
1220.74	3.41791
1223.64	2.38862
1226.53	0.609859
1229.42	2.01646
1232.32	1.48169
1235.21	2.23942
1238.1	1.99123
1240.99	2.90904
1243.89	3.41265
1246.78	1.12744
1249.67	0.05139
1252.56	2.18571
1255.46	2.32067
1258.35	3.33559
1261.24	2.14139
1264.13	0.440895
1267.03	1.09416
1269.92	1.5574
1272.81	1.54517
1275.71	1.52501
1278.6	2.61442
1281.49	1.38593
1284.38	1.46031
1287.28	0.715206
1290.17	0.431337
1293.06	0.983631
1295.95	0.439886
1298.85	0.793493
1301.74	3.3133
