Measurement: Raman, 780 nm, unoriented, Raman Data Processed
Mineral: Crichtonite
Rruff sample: R090006
Ideal chemistry: Sr(Mn^2+^,Y^3+^,U^6+^)Fe^2+^_2_(Ti^4+^,Fe^3+^,Cr^3+^,V^5+^)_18_(O,OH)_38_
Locality: Presidente Kubitschek, Minas Gerias, Brazil
Source: Luiz Menezes
Description: Black poorly shaped, rounded crystals associated with quartz and rutile
Raman shift (cm-1)	intensity
174.648	0
177.541	2.26505
180.433	2.38444
183.326	2.54551
186.219	0.823112
189.111	3.81574
192.004	0.511528
194.897	0.120888
197.79	2.68448
200.682	2.08073
203.575	0.714691
206.468	1.02264
209.36	0.512955
212.253	1.44449
215.146	2.16673
218.038	1.39759
220.931	0.498253
223.824	1.41618
226.716	0.218407
229.609	0.386162
232.502	1.77219
235.395	0.888664
238.287	1.40874
241.18	2.9087
244.073	0.448372
246.965	1.26061
249.858	0.887596
252.751	0.629608
255.643	1.31077
258.536	3.14973
261.429	0.969009
264.322	2.15926
267.214	3.60532
270.107	2.00533
273	2.85195
275.892	3.81465
278.785	4.24149
281.678	2.21799
284.57	3.72799
287.463	3.66274
290.356	5.94331
293.249	5.19726
296.141	3.25097
299.034	3.6254
301.927	2.98465
304.819	3.29175
307.712	4.65122
310.605	3.27679
313.498	2.18589
316.39	1.39232
319.283	0.392876
322.175	1.76311
325.068	2.25825
327.961	2.75058
330.854	1.66727
333.746	2.4993
336.639	1.54378
339.532	1.08225
342.424	1.38751
345.317	2.09887
348.21	1.71149
351.103	0.439926
353.995	1.35924
356.888	2.00631
359.781	1.17248
362.673	1.91488
365.566	2.46423
368.459	1.38498
371.351	2.10759
374.244	0.032135
377.137	0.907997
380.029	0.713387
382.922	0.339912
385.815	0.125145
388.708	1.55129
391.6	2.09741
394.493	0.304398
397.386	0.981567
400.278	0.953697
403.171	1.40925
406.064	1.63909
408.957	2.08999
411.849	2.6327
414.742	2.77413
417.635	2.10715
420.527	1.89562
423.42	0.863419
426.313	2.39441
429.205	1.98602
432.098	0.738914
434.991	1.99903
437.884	0.863297
440.776	2.09318
443.669	2.57828
446.562	1.48044
449.454	0.651741
452.347	2.21264
455.24	2.34929
458.132	0.441002
461.025	1.09925
463.918	1.45317
466.81	2.56292
469.703	2.63402
472.596	1.54987
475.489	2.49143
478.381	0.662575
481.274	0.849663
484.167	1.05735
487.059	0.623268
489.952	0.404259
492.845	2.01154
495.737	2.48129
498.63	4.31908
501.523	0.532372
504.416	1.88477
507.308	2.53158
510.201	2.35601
513.094	0.838478
515.986	2.1628
518.879	0.287598
521.772	2.40077
524.664	1.13139
527.557	1.00716
530.45	1.59104
533.342	0.526642
536.235	1.89694
539.128	0.732246
542.021	0.010323
544.913	2.71553
547.806	1.20215
550.699	0.193703
553.591	1.45434
556.484	2.12228
559.377	2.63242
562.269	0.578629
565.162	3.03458
568.055	3.29357
570.948	1.68311
573.84	1.88386
576.733	3.17792
579.626	1.8255
582.518	3.11697
585.411	4.19186
588.304	4.5669
591.197	3.69901
594.089	3.70283
596.982	3.09645
599.875	2.63286
602.767	3.66698
605.66	5.13757
608.553	5.36814
611.445	4.57308
614.338	5.2171
617.231	5.83402
620.124	5.07038
623.016	5.67098
625.909	5.56171
628.802	6.12718
631.694	4.58622
634.587	6.11534
637.48	6.19516
640.372	5.75121
643.265	4.82835
646.158	4.80621
649.05	3.51871
651.943	5.14307
654.836	2.95758
657.729	2.17816
660.621	1.84708
663.514	2.79037
666.407	2.04433
669.299	2.53241
672.192	2.60205
675.085	0.084328
677.977	2.0611
680.87	0.47406
683.763	0.636395
686.655	1.20538
689.548	0.385712
692.441	2.11571
695.334	0.804089
698.226	0.54266
701.119	0.092522
704.012	1.18864
706.904	1.36047
709.797	0.948872
712.69	1.81603
715.582	0.595585
718.475	2.4593
721.368	0.447544
724.261	0.191177
727.153	0.633713
730.046	1.48328
732.939	1.66235
735.831	1.23009
738.724	0.872231
741.617	0.560829
744.51	0.645779
747.402	1.30018
750.295	0.280334
753.188	3.38252
756.08	0.657349
758.973	0.112335
761.866	2.91994
764.758	1.57438
767.651	1.5143
770.544	0.746849
773.437	0.245247
776.329	2.59768
779.222	2.05628
782.115	1.76108
785.007	0.581944
787.9	2.57458
790.793	2.02086
793.685	2.34074
796.578	0.116486
799.471	2.2491
802.363	3.41856
805.256	4.07718
808.149	1.53791
811.042	3.37384
813.934	1.24292
816.827	2.34026
819.72	0.983444
822.612	2.03559
825.505	1.64714
828.398	2.65523
831.29	1.68104
834.183	0.095879
837.076	2.25759
839.968	1.39856
842.861	1.96552
845.754	1.19004
848.647	2.38804
851.539	2.87537
854.432	2.87729
857.325	1.33488
860.217	0.018578
863.11	1.87312
866.003	3.24862
868.895	1.09125
871.788	1.60074
874.681	1.16932
877.573	0.674557
880.466	1.36462
883.359	0.64151
886.252	1.29527
889.144	1.77851
892.037	2.32297
894.93	1.66088
897.822	1.79384
900.715	0.721924
903.608	1.06492
906.5	0.996929
909.393	1.46777
912.286	1.2703
915.179	1.13106
918.071	1.40165
920.964	1.88572
923.857	2.45167
926.75	2.60451
929.642	1.94767
932.535	1.81029
935.428	0.800152
938.32	2.31889
941.213	1.91493
944.106	0.659794
946.998	1.96703
949.891	0.866474
952.784	2.11314
955.676	2.61737
958.569	1.3818
961.462	0.289848
964.355	2.15459
967.247	1.07412
970.14	0.47036
973.033	0.752193
975.925	1.55518
978.818	2.32407
981.711	3.08969
984.603	1.61567
987.496	1.21287
990.389	3.1259
993.282	2.84738
996.174	0.49498
999.067	0.344624
1001.96	0.160259
1004.85	0.722069
1007.75	1.27298
1010.64	1.84327
1013.53	1.76322
1016.42	2.10337
1019.32	2.10296
1022.21	2.91087
1025.1	1.04307
1027.99	0.802803
1030.89	1.86896
1033.78	2.10481
1036.67	1.95849
1039.57	1.69211
1042.46	1.603
1045.35	1.60241
1048.24	1.37273
1051.13	1.6466
1054.03	1.14917
1056.92	0.718517
1059.81	1.84972
1062.71	1.36439
1065.6	0.046627
1068.49	1.40083
1071.38	1.80034
1074.28	1.9972
1077.17	2.30407
1080.06	1.57169
1082.95	0.975857
1085.85	0.525005
1088.74	0.030388
1091.63	1.90473
1094.53	0.11388
1097.42	0.530987
1100.31	1.74126
1103.2	2.11647
1106.1	2.01759
1108.99	0.87849
1111.88	1.65583
1114.78	2.36979
1117.67	0.736885
1120.56	2.73206
1123.45	1.50029
1126.35	1.95923
1129.24	2.80729
1132.13	1.05179
1135.02	1.39449
1137.92	1.0704
1140.81	2.16234
1143.7	0.329006
1146.59	0.31414
1149.49	2.97386
1152.38	0.49744
1155.27	1.48475
1158.16	2.52022
1161.06	0.075279
1163.95	1.41525
1166.84	0.80724
1169.74	0.029949
1172.63	2.27747
1175.52	1.32725
1178.41	1.50863
1181.31	0.1054
1184.2	0.012833
1187.09	2.51374
1189.98	2.35427
1192.88	1.5496
1195.77	1.10281
1198.66	0.12463
1201.56	0.036636
1204.45	2.22371
1207.34	1.78885
1210.23	0.889919
1213.13	1.25228
1216.02	0.189857
1218.91	1.23598
1221.81	1.10458
1224.7	2.49047
1227.59	1.90407
1230.48	0.34494
1233.38	0.066315
1236.27	2.65712
1239.16	1.09895
1242.05	2.37246
1244.95	1.11749
1247.84	0.916981
1250.73	0.529079
1253.62	0.001099
1256.52	1.17992
1259.41	2.8331
1262.3	1.12655
1265.19	0.641663
1268.09	2.18811
1270.98	1.75412
1273.87	0.589951
1276.77	1.46308
1279.66	1.82475
1282.55	1.7349
1285.44	0.096207
