Measurement: Raman, 785 nm, unoriented, Raman Data Processed
Mineral: Cronstedtite
Rruff sample: R061026
Ideal chemistry: (Fe^2+^,Fe^3+^)_3_(Si,Fe^3+^)_2_O_5_(OH)_4_
Locality: Kisbanya, Hungary
Source: Michael Scott
Description: Black elongated prismatic crystals with triangular cross-sections, polytype 3T
Measured chemistry: (Fe^2+^_2.13_Fe^3+^_0.87_)_Σ=3_(Si_1.13_Fe^3+^_0.87_)_Σ=2_O_5_(OH)_4_ ; Fe2 and Fe3 splitted by stoichiometry (sum of cations = 5) and charge balance
Raman shift (cm-1)	intensity
168.293	0
171.186	19.0232
174.078	52.1977
176.971	85.6547
179.864	178.1
182.756	316.156
185.649	471.554
188.542	643.055
191.435	793.775
194.327	916.648
197.22	883.506
200.113	685.111
203.005	516.08
205.898	335.438
208.791	198.031
211.684	85.5918
214.576	23.1547
217.469	5.30695
220.362	9.30127
223.254	12.917
226.147	22.023
229.04	78.7504
231.932	145.939
234.825	176.036
237.718	202.837
240.611	252.912
243.503	270.259
246.396	238.521
249.289	254.973
252.181	228.291
255.074	207.278
257.967	177.401
260.859	136.044
263.752	108.582
266.645	124.545
269.538	70.7205
272.43	61.5887
275.323	34.7889
278.216	26.2766
281.108	48.0834
284.001	40.361
286.894	14.7498
289.786	4.27985
292.679	47.1196
295.572	36.0411
298.464	39.6536
301.357	36.2761
304.25	38.8834
307.143	36.1672
310.035	31.8826
312.928	40.7551
315.821	15.4541
318.713	12.3085
321.606	10.746
324.499	5.05231
327.392	20.7487
330.284	41.2129
333.177	22.7582
336.07	3.323
338.962	0.63562
341.855	14.3054
344.748	14.3412
347.64	10.6538
350.533	36.3975
353.426	20.6794
356.318	4.90424
359.211	18.7354
362.104	26.7881
364.997	24.0436
367.889	8.23267
370.782	26.9257
373.675	55.5927
376.567	29.7471
379.46	38.0607
382.353	24.2609
385.245	5.39166
388.138	16.6638
391.031	21.0833
393.924	18.9164
396.816	42.2911
399.709	59.7581
402.602	19.4203
405.494	16.1426
408.387	47.2512
411.28	51.2408
414.173	30.0773
417.065	52.4183
419.958	21.8039
422.851	11.1697
425.743	9.79663
428.636	34.8138
431.529	19.4848
434.421	13.562
437.314	15.3689
440.207	0.3125
443.099	19.1506
445.992	9.14496
448.885	6.51788
451.778	30.9875
454.67	34.4794
457.563	26.4012
460.456	43.1365
463.348	40.4686
466.241	53.4152
469.134	65.5273
472.026	74.0609
474.919	80.4737
477.812	99.7278
480.704	120.383
483.597	140.846
486.49	149.719
489.383	195.837
492.275	227.014
495.168	222.892
498.061	250.757
500.953	255.139
503.846	245.413
506.739	261.269
509.632	255.047
512.524	220.003
515.417	200.416
518.31	149.776
521.202	110.096
524.095	84.0024
526.988	50.4003
529.88	30.2505
532.773	13.899
535.666	0.398773
538.558	3.83884
541.451	11.5652
544.344	3.67511
547.237	13.0799
550.129	34.0328
553.022	41.7174
555.915	73.642
558.807	99.1413
561.7	107.412
564.593	111.758
567.486	122.115
570.378	181.25
573.271	189.283
576.164	225.067
579.056	250.921
581.949	246.986
584.842	237.504
587.734	220.329
590.627	187.595
593.52	139.554
596.413	110.558
599.305	68.8748
602.198	36.7527
605.091	29.1314
607.983	14.1745
610.876	12.5204
613.769	10.6331
616.661	1.18323
619.554	1.34647
622.447	0.024567
625.34	6.46121
628.232	28.8488
631.125	29.5908
634.018	15.2165
636.91	33.0665
639.803	43.0901
642.696	14.6241
645.588	44.2198
648.481	68.8733
651.374	73.6643
654.266	71.9026
657.159	106.203
660.052	120.73
662.945	139.223
665.837	161.104
668.73	157.352
671.623	149.53
674.515	174.815
677.408	180.8
680.301	169.869
683.193	163.111
686.086	134.439
688.979	141.142
691.872	100.994
694.764	82.9909
697.657	90.6028
700.55	65.9907
703.442	44.57
706.335	37.1006
709.228	28.9787
712.12	46.3831
715.013	32.2143
717.906	11.5193
720.799	33.9542
723.691	27.0614
726.584	32.9243
729.477	9.43787
732.369	11.4629
735.262	9.95624
738.155	15.6826
741.047	36.9552
743.94	4.30215
746.833	18.8002
749.726	23.415
752.618	2.87051
755.511	23.7984
758.404	27.0097
761.296	13.5899
764.189	3.26349
767.082	12.1768
769.974	19.7666
772.867	13.2766
775.76	22.9103
778.653	17.2881
781.545	15.5424
784.438	20.4179
787.331	28.5886
790.223	27.3679
793.116	35.5027
796.009	35.6955
798.901	1.10489
801.794	7.97934
804.687	18.3398
807.58	21.9984
810.472	20.5905
813.365	8.56366
816.258	24.3552
819.15	36.549
822.043	33.3833
824.936	37.6888
827.828	10.2323
830.721	33.9847
833.614	31.3404
836.506	55.3155
839.399	54.9914
842.292	12.9588
845.185	46.6794
848.077	42.5468
850.97	38.8869
853.863	44.263
856.755	37.7786
859.648	26.2782
862.541	28.1614
865.433	1.03299
868.326	1.15546
871.219	5.71997
874.112	5.75931
877.004	0.943451
879.897	4.37241
882.79	19.5996
885.682	5.32578
888.575	20.5116
891.468	19.3693
894.361	22.576
897.253	18.3491
900.146	11.5704
903.039	36.2569
905.931	42.2417
908.824	43.4659
911.717	32.7702
914.609	53.6375
917.502	29.2627
920.395	55.3434
923.288	64.6201
926.18	67.1444
929.073	59.1432
931.966	56.4889
934.858	52.677
937.751	38.6231
940.644	40.1901
943.536	74.6868
946.429	40.2594
949.322	39.2063
952.215	32.7864
955.107	39.1069
958	41.9557
960.893	33.0757
963.785	42.3984
966.678	66.4591
969.571	29.4161
972.463	32.5194
975.356	39.8908
978.249	35.7643
981.141	33.6968
984.034	36.9045
986.927	23.4749
989.82	9.45078
992.712	3.60187
995.605	37.8093
998.498	57.0727
1001.39	35.7894
1004.28	49.8108
1007.18	47.6564
1010.07	52.7517
1012.96	27.3752
1015.85	29.7271
1018.75	32.2201
1021.64	29.9819
1024.53	9.64499
1027.42	18.4381
1030.32	22.8197
1033.21	28.2948
1036.1	30.6697
1038.99	31.1653
1041.89	25.5277
1044.78	27.5288
1047.67	7.12637
1050.57	25.8911
1053.46	24.2418
1056.35	26.6273
1059.24	8.87561
1062.14	21.0126
1065.03	19.8822
1067.92	13.3963
1070.82	10.2512
1073.71	24.5127
1076.6	24.3996
1079.49	18.0411
1082.39	29.9932
1085.28	31.9217
1088.17	27.6649
1091.06	9.42999
1093.96	14.7197
1096.85	27.0926
1099.74	20.953
1102.63	22.3219
1105.53	19.4223
1108.42	13.0325
1111.31	6.6467
1114.21	16.0679
1117.1	21.5249
1119.99	24.275
1122.88	54.4272
1125.78	7.73996
1128.67	19.0505
1131.56	22.4566
1134.45	3.77542
1137.35	35.995
1140.24	20.3662
1143.13	42.2375
1146.03	32.6802
1148.92	28.658
1151.81	34.0531
1154.7	32.7554
1157.6	28.2531
1160.49	22.1766
1163.38	9.02579
1166.27	32.6891
1169.17	37.7125
1172.06	26.9093
1174.95	15.2647
1177.85	34.3406
1180.74	10.6489
1183.63	29.6125
1186.52	46.4264
1189.42	38.8235
1192.31	12.6175
1195.2	27.6815
1198.09	35.0014
1200.99	38.5236
1203.88	49.1356
1206.77	61.4848
1209.66	55.383
1212.56	62.2933
1215.45	34.7961
1218.34	37.1905
1221.23	45.1516
1224.13	33.9217
1227.02	47.9471
1229.91	10.1701
1232.81	35.3516
1235.7	35.0157
1238.59	7.96069
1241.48	23.3424
1244.38	63.821
1247.27	49.4246
1250.16	47.5943
1253.06	29.8571
1255.95	0.971771
1258.84	24.5527
1261.73	19.9279
