Measurement: Raman, 532 nm, unoriented, Raman Data Processed
Mineral: Cronstedtite
Rruff sample: R061026
Ideal chemistry: (Fe^2+^,Fe^3+^)_3_(Si,Fe^3+^)_2_O_5_(OH)_4_
Locality: Kisbanya, Hungary
Source: Michael Scott
Description: Black elongated prismatic crystals with triangular cross-sections, polytype 3T
Measured chemistry: (Fe^2+^_2.13_Fe^3+^_0.87_)_Σ=3_(Si_1.13_Fe^3+^_0.87_)_Σ=2_O_5_(OH)_4_ ; Fe2 and Fe3 splitted by stoichiometry (sum of cations = 5) and charge balance
Raman shift (cm-1)	intensity
137.914	0
140.807	0.033142
143.7	0.583069
146.592	26.9875
149.485	4.24042
152.378	28.7814
155.27	4.64032
158.163	9.51605
161.056	24.7883
163.948	29.7411
166.841	28.5484
169.734	57.4274
172.626	19.7944
175.519	65.1382
178.412	106.501
181.305	114.335
184.197	170.618
187.09	188.656
189.983	236.036
192.875	282.654
195.768	260.252
198.661	268.823
201.554	164.034
204.446	151.177
207.339	114.821
210.232	100.398
213.124	74.6509
216.017	48.4076
218.91	29.8003
221.802	27.1542
224.695	44.9919
227.588	55.3391
230.481	88.7403
233.373	111.401
236.266	76.762
239.159	112.986
242.051	102.833
244.944	113.809
247.837	106.999
250.729	93.111
253.622	94.8427
256.515	96.3245
259.407	82.79
262.3	78.934
265.193	79.0486
268.086	76.9912
270.978	71.1646
273.871	57.5264
276.764	53.5067
279.656	24.1644
282.549	39.5251
285.442	9.75476
288.334	24.561
291.227	12.9253
294.12	28.4402
297.012	38.0425
299.905	12.6715
302.798	9.30438
305.691	10.8072
308.583	9.90393
311.476	15.3748
314.369	21.8431
317.261	0.812866
320.154	3.61609
323.047	5.52789
325.94	7.94031
328.832	0.146729
331.725	26.5052
334.618	0.575317
337.51	2.6828
340.403	13.1638
343.296	6.94696
346.188	14.8163
349.081	39.891
351.974	30.4622
354.866	12.6126
357.759	3.10095
360.652	27.5566
363.545	16.1901
366.437	38.0328
369.33	20.9834
372.223	37.9043
375.115	15.9905
378.008	36.8588
380.901	21.7599
383.793	24.1442
386.686	24.1746
389.579	15.3126
392.472	29.7405
395.364	43.3696
398.257	25.2291
401.15	3.328
404.042	22.6803
406.935	25.6173
409.828	38.4818
412.721	14.8675
415.613	10.9439
418.506	6.12274
421.399	35.6396
424.291	14.314
427.184	43.8926
430.077	21.8938
432.969	12.912
435.862	27.1074
438.755	46.3325
441.647	53.307
444.54	52.5305
447.433	25.3085
450.326	17.7888
453.218	38.2129
456.111	38.8314
459.004	48.0903
461.896	59.8367
464.789	65.7416
467.682	83.6191
470.575	60.9227
473.467	77.0967
476.36	63.6441
479.253	103.083
482.145	112.099
485.038	129.904
487.931	115.812
490.823	136.377
493.716	149.026
496.609	143.408
499.501	146.428
502.394	168.008
505.287	146.312
508.18	148.018
511.072	134.336
513.965	84.3438
516.858	87.466
519.75	61.7549
522.643	39.2899
525.536	65.6449
528.428	36.4602
531.321	30.4963
534.214	30.2972
537.106	5.57288
539.999	9.22955
542.892	20.5563
545.785	13.0491
548.677	31.9745
551.57	20.1715
554.463	23.5139
557.355	31.0862
560.248	25.6382
563.141	43.3025
566.034	59.2545
568.926	51.4194
571.819	70.9403
574.712	93.4898
577.604	82.3225
580.497	80.6111
583.39	92.8088
586.282	69.6843
589.175	66.2227
592.068	71.0082
594.961	46.1357
597.853	24.0196
600.746	1.64612
603.639	9.1496
606.531	8.55475
609.424	8.09534
612.317	13.0204
615.209	16.1337
618.102	25.9256
620.995	22.4345
623.888	35.0851
626.78	30.8694
629.673	32.2629
632.566	43.2586
635.458	48.9221
638.351	52.4611
641.244	66.9252
644.136	82.7755
647.029	100.516
649.922	91.0221
652.814	114.906
655.707	151.704
658.6	150.59
661.493	185.747
664.385	180.58
667.278	186.838
670.171	178.991
673.063	186.318
675.956	173.125
678.849	140.465
681.741	128.403
684.634	126.784
687.527	132.803
690.42	93.4861
693.312	99.2956
696.205	79.0079
699.098	61.4257
701.99	47.1208
704.883	51.6216
707.776	26.1076
710.668	4.07605
713.561	16.1865
716.454	17.9017
719.347	2.84265
722.239	30.7191
725.132	6.09314
728.025	33.1195
730.917	10.9297
733.81	4.8562
736.703	22.6315
739.596	3.72199
742.488	8.69867
745.381	17.2324
748.274	12.0961
751.166	4.82135
754.059	26.3691
756.952	29.1603
759.844	5.56268
762.737	15.0264
765.63	1.91913
768.522	9.14734
771.415	31.033
774.308	4.60669
777.201	8.24164
780.093	21.8151
782.986	33.391
785.879	5.20642
788.771	24.5598
791.664	28.52
794.557	10.5487
797.449	44.0284
800.342	1.05115
803.235	46.7655
806.128	8.84418
809.02	31.5385
811.913	30.501
814.806	43.0623
817.698	37.6636
820.591	33.1691
823.484	27.0465
826.376	46.2156
829.269	49.3606
832.162	69.01
835.054	37.3327
837.947	32.7679
840.84	44.3497
843.733	43.2563
846.625	32.8491
849.518	59.0267
852.411	28.4672
855.303	8.229
858.196	3.07428
861.089	21.9871
863.981	2.86853
866.874	28.9135
869.767	11.567
872.66	11.2151
875.552	1.1676
878.445	11.9098
881.338	10.0758
884.23	31.6982
887.123	35.8887
890.016	57.317
892.908	44.3597
895.801	82.7647
898.694	51.9414
901.587	66.2161
904.479	74.6176
907.372	67.3669
910.265	55.4247
913.157	94.9676
916.05	80.2995
918.943	72.2815
921.835	78.0172
924.728	75.4291
927.621	83.4029
930.514	83.2219
933.406	45.2346
936.299	5.25952
939.192	32.7197
942.084	17.9012
944.977	7.20856
947.87	7.61322
950.763	10.4821
953.655	50.6414
956.548	10.0303
959.441	18.3846
962.333	4.0332
965.226	41.723
968.119	4.54114
971.011	5.94208
973.904	22.0118
976.797	20.3151
979.689	20.7056
982.582	32.9824
985.475	11.6625
988.368	25.625
991.26	45.9657
994.153	28.9421
997.046	35.1598
999.938	39.1288
1002.83	22.7244
1005.72	33.1451
1008.62	40.9653
1011.51	24.1777
1014.4	33.7227
1017.29	30.1422
1020.19	43.2169
1023.08	28.1701
1025.97	59.9988
1028.87	45.5546
1031.76	47.8824
1034.65	31.2831
1037.54	11.0959
1040.44	16.5212
1043.33	22.885
1046.22	9.52618
1049.11	11.0097
1052.01	6.86389
1054.9	23.2522
1057.79	5.56683
1060.68	18.4324
1063.58	2.59003
1066.47	1.16107
1069.36	4.16156
1072.26	12.6597
1075.15	10.6399
1078.04	11.4794
1080.93	10.8981
1083.83	19.2667
1086.72	9.18683
1089.61	27.2322
1092.51	52.3131
1095.4	33.9637
1098.29	39.8843
1101.18	47.0113
1104.08	28.3716
1106.97	18.4161
1109.86	60.0618
1112.75	49.4936
1115.65	10.9298
1118.54	39.763
1121.43	39.0224
1124.32	7.09467
1127.22	57.4918
1130.11	23.6575
1133	24.2531
1135.89	25.6197
1138.79	22.5399
1141.68	18.9415
1144.57	45.8392
1147.47	7.36371
1150.36	31.4371
1153.25	28.1121
1156.14	2.28577
1159.04	12.3366
1161.93	6.41278
1164.82	16.063
1167.71	31.3754
1170.61	30.53
1173.5	24.8855
1176.39	37.8738
1179.29	14.3533
1182.18	4.63684
1185.07	26.67
1187.96	12.3502
1190.86	24.0642
1193.75	13.7247
1196.64	7.75043
1199.54	0.232605
1202.43	18.0958
1205.32	9.12207
1208.21	36.7941
1211.11	22.3425
1214	24.7958
1216.89	21.3883
1219.78	3.09045
1222.68	32.8823
1225.57	36.1432
1228.46	2.42261
1231.35	0.71582
1234.25	17.1711
1237.14	53.4548
1240.03	12.1303
1242.92	45.6829
1245.82	55.3246
1248.71	26.2549
1251.6	3.24817
1254.5	33.8552
1257.39	11.2068
1260.28	22.5958
1263.17	18.2894
1266.07	0.670959
1268.96	48.1703
1271.85	63.7484
1274.74	20.4562
1277.64	10.2697
1280.53	42.9843
1283.42	0.894836
1286.32	39.5406
1289.21	25.3726
1292.1	8.53265
