Measurement: Raman, 785 nm, unoriented, Raman Data Processed
Mineral: Cubanite
Rruff sample: R061068
Ideal chemistry: Cu^1+^Fe^2+^Fe^3+^S^2-^_3_
Locality: Henderson #2 mine, Chibougamau, Quebec, Canada
Source: Lloyd Twaites
Description: Bronze metallic prismatic crystals
Measured chemistry: Cu_1.00_Fe_2.00_S_3.00_
Raman shift (cm-1)	intensity
137.057	0
139.95	40.2812
142.843	159.451
145.735	292.59
148.628	236.958
151.521	192.58
154.413	98.7507
157.306	40.171
160.199	8.14832
163.091	57.9963
165.984	26.1714
168.877	52.6418
171.769	74.526
174.662	127.924
177.555	121.103
180.448	188.119
183.34	153.359
186.233	109.21
189.126	76.4071
192.018	60.241
194.911	48.2721
197.804	40.2991
200.696	16.181
203.589	14.3014
206.482	1.00366
209.375	5.89722
212.267	0.749512
215.16	11.4899
218.053	25.7942
220.945	8.28638
223.838	12.0632
226.731	9.466
229.624	31.3232
232.516	64.8284
235.409	53.5295
238.302	59.5399
241.194	44.6852
244.087	55.2181
246.98	73.9212
249.872	99.4046
252.765	170.656
255.658	216.271
258.55	297.807
261.443	337.155
264.336	395.911
267.228	480.418
270.121	503.6
273.014	532.052
275.907	552.849
278.799	607.136
281.692	602.043
284.585	548.599
287.477	516.17
290.37	459.788
293.263	240.5
296.156	77.5392
299.048	34.2899
301.941	36.5974
304.834	28.7387
307.726	45.5726
310.619	87.6749
313.512	75.2853
316.404	25.5045
319.297	20.6428
322.19	77.9971
325.083	186.713
327.975	332.996
330.868	493.589
333.761	460.655
336.653	199.537
339.546	82.2805
342.439	66.2234
345.331	41.4177
348.224	1.6106
351.117	35.8541
354.01	27.7252
356.902	23.2648
359.795	72.3909
362.688	123.832
365.58	231.253
368.473	343.026
371.366	440.784
374.258	385.227
377.151	143.432
380.044	100.377
382.937	107.96
385.829	137.541
388.722	157.021
391.615	107.168
394.507	43.4707
397.4	8.88238
400.293	24.287
403.185	13.6079
406.078	7.58966
408.971	1.1073
411.863	6.72205
414.756	12.0594
417.649	6.92999
420.542	15.2013
423.434	25.0895
426.327	32.2888
429.22	21.7093
432.112	26.2853
435.005	43.9615
437.898	28.4885
440.791	26.9225
443.683	47.368
446.576	32.6558
449.469	42.9979
452.361	37.3087
455.254	49.8167
458.147	65.3252
461.039	76.5541
463.932	85.3493
466.825	147.72
469.717	116.891
472.61	108.19
475.503	79.6963
478.396	56.2106
481.288	46.0509
484.181	31.2113
487.074	39.2141
489.966	14.7236
492.859	15.0557
495.752	32.1927
498.644	18.123
501.537	14.1057
504.43	15.3833
507.323	20.842
510.215	16.2124
513.108	12.5122
516.001	7.36267
518.893	23.3026
521.786	18.9865
524.679	16.6332
527.572	40.421
530.464	7.31128
533.357	35.9056
536.25	36.2492
539.142	36.0239
542.035	23.3807
544.928	9.39612
547.82	30.0176
550.713	16.6243
553.606	27.9103
556.499	16.5336
559.391	44.002
562.284	23.8088
565.177	8.32275
568.069	8.25226
570.962	37.007
573.855	20.4852
576.747	44.9437
579.64	23.7402
582.533	6.0993
585.425	30.0369
588.318	13.9905
591.211	19.5242
594.104	30.7537
596.996	23.1522
599.889	38.4876
602.782	15.3055
605.674	27.0296
608.567	30.8671
611.46	16.9133
614.352	45.9437
617.245	50.5707
620.138	28.3264
623.03	34.908
625.923	37.9938
628.816	19.1338
631.709	19.4374
634.601	21.8406
637.494	37.1074
640.387	38.9668
643.279	10.3213
646.172	50.2918
649.065	7.02112
651.957	31.7545
654.85	20.7726
657.743	33.4083
660.636	40.8676
663.528	2.58545
666.421	27.1716
669.314	23.4323
672.206	11.4333
675.099	23.686
677.992	29.1502
680.885	40.6668
683.777	32.6444
686.67	34.671
689.563	26.7506
692.455	9.87732
695.348	15.5801
698.241	44.4179
701.133	21.0592
704.026	15.157
706.919	23.6573
709.812	26.5977
712.704	34.5587
715.597	37.2855
718.49	24.0541
721.382	16.549
724.275	17.9639
727.168	71.0786
730.06	41.7959
732.953	38.0442
735.846	22.485
738.739	34.2397
741.631	49.6386
744.524	55.5968
747.417	55.5353
750.309	46.6137
753.202	58.0781
756.095	38.7174
758.987	48.3718
761.88	17.1569
764.773	0.294067
767.665	16.6662
770.558	19.9434
773.451	38.5458
776.344	29.878
779.236	6.6413
782.129	5.24945
785.022	18.3915
787.914	9.53723
790.807	31.3799
793.7	17.6343
796.592	29.1932
799.485	44.3846
802.378	50.1271
805.271	25.387
808.163	15.6976
811.056	17.4806
813.949	27.4725
816.841	28.4703
819.734	36.3254
822.627	35.6931
825.519	18.0521
828.412	64.7339
831.305	54.5565
834.198	41.2683
837.09	33.5567
839.983	44.8306
842.876	32.0454
845.768	22.9822
848.661	7.88489
851.554	28.836
854.447	25.0894
857.339	25.5881
860.232	49.1823
863.125	5.84387
866.017	6.47858
868.91	14.0549
871.803	18.6844
874.695	13.5988
877.588	12.2794
880.481	44.8914
883.373	52.9033
886.266	6.67236
889.159	36.1238
892.052	34.9496
894.944	31.8969
897.837	26.7542
900.73	21.159
903.622	28.6909
906.515	36.4559
909.408	25.0678
912.3	15.9911
915.193	21.7356
918.086	13.8673
920.979	24.0345
923.871	23.0971
926.764	23.6764
929.657	29.9351
932.549	17.5265
935.442	41.8381
938.335	32.1685
941.227	22.4929
944.12	0.80957
947.013	25.0265
949.905	6.40881
952.798	38.9291
955.691	21.941
958.584	18.3538
961.476	17.3137
964.369	47.1438
967.262	55.9276
970.154	29.2655
973.047	38.3765
975.94	25.8915
978.832	47.3889
981.725	38.2812
984.618	23.0138
987.511	10.3215
990.403	20.4322
993.296	34.1915
996.189	38.5236
999.081	36.833
1001.97	1.12555
1004.87	23.832
1007.76	24.4638
1010.65	44.838
1013.54	31.9021
1016.44	23.4264
1019.33	9.04968
1022.22	0.001526
1025.12	30.2151
1028.01	2.77472
1030.9	35.5908
1033.79	19.3341
1036.69	23.2855
1039.58	41.8758
1042.47	46.0114
1045.37	52.7341
1048.26	30.5771
1051.15	31.3084
1054.04	25.9741
1056.93	31.2678
1059.83	48.627
1062.72	42.6934
1065.61	48.0734
1068.51	18.5862
1071.4	18.0431
1074.29	25.7019
1077.18	38.9113
1080.08	29.0682
1082.97	27.4643
1085.86	10.6701
1088.76	15.2435
1091.65	25.4399
1094.54	23.8221
1097.43	30.8257
1100.33	19.4447
1103.22	16.2866
1106.11	24.1567
1109	23.0169
1111.9	20.0306
1114.79	47.1946
1117.68	33.3935
1120.58	24.6352
1123.47	6.30572
1126.36	29.0046
1129.25	2.26892
1132.15	19.8717
1135.04	33.346
1137.93	41.4199
1140.82	21.2381
1143.72	28.951
1146.61	43.3011
1149.5	13.9341
1152.39	28.9395
1155.29	59.6075
1158.18	30.2348
1161.07	52.2681
1163.96	42.7325
1166.86	44.7353
1169.75	17.0809
1172.64	32.1319
1175.54	47.0735
1178.43	29.6285
1181.32	13.8646
1184.21	32.8867
1187.11	22.8652
1190	44.9161
1192.89	35.4069
1195.79	25.2526
1198.68	20.3286
1201.57	20.9943
1204.46	1.12378
1207.36	59.589
1210.25	43.3319
1213.14	21.137
1216.03	28.0845
1218.93	28.111
1221.82	31.4164
1224.71	60.5463
1227.61	24.3766
1230.5	46.7275
1233.39	28.1082
1236.28	40.9554
1239.17	9.67218
1242.07	6.58807
1244.96	25.1699
1247.85	11.0443
1250.75	69.4493
1253.64	60.0222
1256.53	39.4507
1259.42	44.3611
1262.32	62.2949
1265.21	52.1838
1268.1	6.88684
