Measurement: Raman, 514 nm, unoriented, Raman Data Processed
Mineral: Cubic zirconia
Rruff sample: R040142
Ideal chemistry: ZrO_2_
Locality: synthetic
Source: Bob Downs
Description: Fragment of a colorless single crystal
Measured chemistry: (Zr_0.86_Y_0.17_Hf_0.01_)O_2_
Raman shift (cm-1)	intensity
93.375	0
97.554	112.758
101.732	162.002
105.908	125.641
110.082	6.859
114.254	8.334
118.424	305.607
122.592	680.146
126.758	873.641
130.922	923.402
135.083	1766.72
139.243	1886.15
143.401	2637.47
147.557	2813.39
151.711	2825.86
155.863	2793.01
160.013	2583.73
164.161	1940.97
168.308	1658.69
172.452	1218.88
176.594	1227.46
180.734	1382.08
184.872	1119.49
189.008	1372.03
193.143	1433.24
197.275	1964.53
201.405	1957.99
205.534	1742.68
209.66	1455.52
213.784	1358.45
217.907	1622.27
222.027	1723.01
226.146	1824.74
230.263	1899.47
234.377	2102.21
238.49	1811.97
242.601	1885.77
246.709	1864.64
250.816	2068.58
254.921	1657.6
259.024	1477.89
263.125	1642.73
267.224	1795.68
271.321	1682.31
275.416	2178.59
279.51	2286.71
283.601	2104.58
287.69	1656.9
291.778	1088.13
295.863	717.279
299.947	48.25
304.029	365.105
308.108	319.092
312.186	35.283
316.262	337.17
320.336	491.545
324.408	672.396
328.478	1077.7
332.546	1393.44
336.612	2243.6
340.677	2764.15
344.739	3587.08
348.799	4094.39
352.858	4332.07
356.915	4196.11
360.969	3705.49
365.022	3833.66
369.073	3697.77
373.122	3766.23
377.169	3841.03
381.215	3062.12
385.258	2832.51
389.299	2735.17
393.339	2156.06
397.376	1832.17
401.412	1396.46
405.446	977.912
409.478	641.494
413.508	533.174
417.536	281.922
421.562	146.723
425.586	50.068
429.609	134.508
433.629	189
437.648	130.732
441.665	161.342
445.68	41.664
449.693	176.736
453.704	363.426
457.713	848.592
461.721	1292.27
465.726	1829.82
469.73	2575.42
473.731	3069.84
477.731	3764.72
481.729	4622.36
485.725	4866.59
489.72	5500.11
493.712	5709.6
497.703	5915.79
501.691	6337.51
505.678	6612.61
509.663	6997.71
513.646	7691.65
517.627	8092.34
521.607	8376.67
525.584	8995.55
529.56	9634.9
533.534	10292.7
537.506	10796.8
541.476	11470.2
545.444	12059.9
549.41	12454.5
553.375	13315.3
557.337	13973.6
561.298	14329.9
565.257	14939.5
569.214	15568.9
573.17	16408
577.123	17617.9
581.075	18563.1
585.024	20390.9
588.972	21645.5
592.918	23692
596.863	26076.1
600.805	28005.1
604.746	30480.6
608.685	32904.3
612.621	34539.4
616.557	36101.2
620.49	36423.4
624.421	35493.4
628.351	31178.1
632.279	26290.2
636.205	20949
640.129	15865.5
644.051	12353.1
647.972	9716.96
651.89	8109.14
655.807	6990.77
659.722	6251.73
663.636	5899.76
667.547	5600.91
671.457	5800.9
675.365	5517.41
679.271	5421.63
683.175	5194.31
687.077	5257.14
690.978	5109.62
694.877	4653.31
698.774	4675.29
702.669	4291.27
706.562	4138.67
710.454	3459.36
714.344	3327.97
718.232	2724.3
722.118	2354.19
726.002	2060.67
729.885	1521.92
733.766	1295.91
737.645	1084.62
741.522	875.018
745.397	601.523
749.271	361.134
753.143	323.757
757.013	59.659
760.881	64.774
764.748	77.393
768.613	138.859
772.476	251.453
776.337	348.441
780.196	351.971
784.054	346.042
787.91	298.721
791.764	244.008
795.616	265.701
799.467	237.379
803.316	188.899
807.163	126.693
811.008	155.595
814.851	50.199
818.693	103.532
822.533	134.164
826.371	125.849
830.208	294.688
834.042	278.842
837.875	254.388
841.706	402.398
845.536	470.96
849.363	571.135
853.189	538.987
857.013	497.628
860.836	581.933
864.656	635.159
868.475	687.329
872.292	694.513
876.108	784.778
879.922	869.183
883.733	895.775
887.544	981.602
891.352	993.709
895.159	1128.15
898.964	1165.04
902.767	1373.25
906.568	1316.12
910.368	1587.66
914.166	1565.58
917.962	1628.43
921.757	1803.88
925.55	1952.29
929.341	2183.39
933.13	2597.3
936.918	3399.49
940.703	4534.83
944.488	6263.92
948.27	8009.3
952.051	9651.46
955.83	10705.5
959.607	10988.9
963.383	9728.9
967.156	7982.76
970.928	5907.73
974.699	4378.37
978.468	3206.11
982.234	2317.2
986	2061.25
989.763	2526.81
993.525	3553.38
997.285	4866.95
1001.04	6076.75
1004.8	7636.07
1008.55	8988.71
1012.31	10515.8
1016.06	11319.8
1019.81	11681.1
1023.56	11555.6
1027.31	10714.9
1031.05	10330.4
1034.79	9652.96
1038.53	9323.73
1042.27	8601.71
1046.01	7796.8
1049.75	7241.1
1053.48	7440.19
1057.22	8062.29
1060.95	8794.44
1064.68	9386.32
1068.4	9724.28
1072.13	9911.58
1075.86	10123.3
1079.58	10400.6
1083.3	10457.5
1087.02	10069
1090.74	9860.16
1094.45	9591.93
1098.17	9127.15
1101.88	8919.61
1105.59	8106.28
1109.3	7808.02
1113.01	7133.52
1116.71	6465.02
1120.42	5928.52
1124.12	5475.52
1127.82	4690.2
1131.52	4198.45
1135.22	3533.07
1138.91	3146.95
1142.61	2935.52
1146.3	2915.19
1149.99	2820.47
1153.68	2745.15
1157.37	2654.87
1161.06	2610.81
1164.74	2575.82
1168.42	2613.67
1172.1	2666.52
1175.78	2671.17
1179.46	2640.56
1183.14	2816.66
1186.81	2897.69
1190.48	2875.19
1194.15	2952.38
1197.83	2884.17
1201.49	2880.52
1205.16	2927.63
1208.82	2821.28
1212.49	2621.62
1216.15	2502.69
1219.81	2393.38
1223.46	2048.35
1227.12	1928.55
1230.78	1707.94
1234.43	1416.67
1238.08	1282.19
1241.73	1116.48
1245.38	834.739
1249.03	751.235
1252.67	477.012
1256.31	377.566
1259.95	288.58
1263.6	77.277
1267.23	56.312
1270.87	21.752
1274.51	105.886
1278.14	114.247
1281.77	181.015
1285.4	242.978
1289.03	258.43
1292.66	162.614
1296.28	316.123
1299.91	242.783
1303.53	229.146
1307.15	154.2
1310.77	226.805
1314.38	148.179
1318	115.325
1321.61	14.753
1325.23	34.147
1328.84	12.886
1332.45	85.994
1336.06	133.579
1339.66	35.757
1343.27	192.473
1346.87	190.893
1350.47	233.022
1354.07	251.881
1357.67	242.521
1361.26	285.163
1364.86	317.329
1368.45	311.557
1372.04	339.752
1375.63	302.881
1379.22	312.047
1382.81	351.747
1386.39	397.086
1389.98	484.784
1393.56	502.115
1397.14	574.445
1400.72	667.778
1404.3	730.812
1407.87	774.884
1411.45	685.836
1415.02	627.75
1418.59	732.343
1422.16	542.211
1425.73	648.585
1429.29	576.617
1432.86	519.877
1436.42	601.43
1439.98	663.08
1443.54	647.792
1447.1	703.775
1450.66	676.144
1454.21	754.295
1457.77	692.455
1461.32	712.254
1464.87	767.307
1468.42	790.518
1471.96	611.64
1475.51	637.619
1479.06	617.693
1482.6	682.033
1486.14	638.132
1489.68	599.327
1493.22	456.557
1496.75	388.841
1500.29	347.343
1503.82	16.817
1507.35	189.186
1510.88	237.477
1514.41	221.587
1517.94	142.727
1521.46	5.449
1524.99	0
