Measurement: Raman, 785 nm, unoriented, Raman Data Processed
Mineral: Cubic zirconia
Rruff sample: R040142
Ideal chemistry: ZrO_2_
Locality: synthetic
Source: Bob Downs
Description: Fragment of a colorless single crystal
Measured chemistry: (Zr_0.86_Y_0.17_Hf_0.01_)O_2_
Raman shift (cm-1)	intensity
168.749	0
171.642	51.3994
174.534	35.584
177.427	23.5884
180.32	11.5981
183.212	25.9087
186.105	26.6431
188.998	60.9883
191.891	156.455
194.783	137.838
197.676	232.657
200.569	188.39
203.461	208.692
206.354	237.906
209.247	213.038
212.139	176.578
215.032	186.202
217.925	240.079
220.818	286.709
223.71	303.158
226.603	314.039
229.496	288.035
232.388	373.688
235.281	317.017
238.174	345.218
241.066	374.326
243.959	383.519
246.852	423.233
249.745	415.179
252.637	377.798
255.53	362.677
258.423	373.255
261.315	348.096
264.208	305.41
267.101	274.783
269.993	214.662
272.886	145.461
275.779	120.37
278.672	45.0981
281.564	33.082
284.457	93.6748
287.35	78.3979
290.242	6.44531
293.135	82.7363
296.028	32.1133
298.921	52.727
301.813	22.1489
304.706	12.8023
307.599	48.6089
310.491	51.8599
313.384	47.6421
316.277	62.6162
319.169	77.1977
322.062	141.17
324.955	144.851
327.847	190.693
330.74	236.878
333.633	264.768
336.526	383.51
339.418	337.904
342.311	352.249
345.204	438.49
348.096	396.915
350.989	439.557
353.882	463.492
356.774	441.756
359.667	404.33
362.56	403.718
365.452	348.499
368.345	408.624
371.238	431.21
374.131	509.575
377.023	507.818
379.916	624.455
382.809	669.225
385.701	689.428
388.594	771.133
391.487	747.906
394.38	759.135
397.272	765.845
400.165	728.334
403.058	704.292
405.95	614.078
408.843	431.312
411.736	380.217
414.628	313.796
417.521	227.681
420.414	197.887
423.307	126.104
426.199	53.644
429.092	61.666
431.985	18.4062
434.877	18.0054
437.77	52.0674
440.663	28.2871
443.555	45.436
446.448	36.5923
449.341	42.2241
452.234	56.1685
455.126	140.32
458.019	89.5098
460.912	140.685
463.804	122.094
466.697	122.904
469.59	123.141
472.483	169.448
475.375	214.327
478.268	127.978
481.161	164.869
484.053	95.5195
486.946	92.3018
489.839	99.5361
492.731	108.719
495.624	64.7642
498.517	44.8857
501.409	7.18262
504.302	30.6328
507.195	29.4517
510.088	4.47803
512.98	3.98193
515.873	0.53418
518.766	20.5005
521.658	111.152
524.551	138.918
527.444	194.727
530.337	191.685
533.229	250.032
536.122	342.896
539.015	361.457
541.907	409.315
544.8	415.973
547.693	492.177
550.585	489.202
553.478	568.218
556.371	514.158
559.263	613.483
562.156	608.029
565.049	708.584
567.942	718.665
570.834	775.719
573.727	857.492
576.62	971.716
579.512	1094.42
582.405	1207.37
585.298	1306.19
588.19	1471.84
591.083	1654.67
593.976	1765.8
596.869	1950.35
599.761	2091.79
602.654	2359.8
605.547	2492.26
608.439	2714.65
611.332	2814.7
614.225	2872.07
617.117	2817.98
620.01	2822.23
622.903	2620.8
625.795	2435.34
628.688	2169.64
631.581	1743.46
634.474	1356.46
637.366	970.102
640.259	667.382
643.152	398.198
646.044	245.438
648.937	126.597
651.83	63.1562
654.722	47.9766
657.615	35.6802
660.508	6.13916
663.401	23.0972
666.293	42.6431
669.186	15.9663
672.079	15.7612
674.971	29.1631
677.864	27.5523
680.757	59.4985
683.649	97.2336
686.542	125.342
689.435	86.5727
692.328	112.842
695.22	161.899
698.113	126.439
701.006	165.345
703.898	179.306
706.791	132.982
709.684	162.941
712.577	129.831
715.469	131.835
718.362	138.109
721.255	44.9138
724.147	78.2271
727.04	39.1326
729.933	39.1255
732.825	34.1868
735.718	31.9451
738.611	13.7244
741.504	25.001
744.396	6.21069
747.289	37.4919
750.182	23.4441
753.074	32.8296
755.967	17.248
758.86	28.2117
761.752	23.3689
764.645	11.9856
767.538	20.0452
770.431	27.1287
773.323	11.5869
776.216	11.7964
779.109	13.9377
782.001	24.634
784.894	11.2544
787.787	38.6372
790.679	43.6138
793.572	37.2082
796.465	29.8318
799.357	40.5364
802.25	18.1157
805.143	9.36377
808.036	32.7046
810.928	45.2468
813.821	57.6841
816.714	73.1765
819.606	36.8823
822.499	43.0855
825.392	63.4487
828.284	52.8523
831.177	45.8787
834.07	36.1292
836.963	19.2163
839.855	53.9321
842.748	16.9978
845.641	68.5071
848.533	30.7771
851.426	17.1081
854.319	16.4121
857.212	27.1428
860.104	23.3347
862.997	23.738
865.89	44.2437
868.782	28.834
871.675	36.1475
874.568	28.6062
877.46	17.27
880.353	29.0281
883.246	66.2698
886.139	8.83594
889.031	11.0232
891.924	5.78394
894.817	27.3294
897.709	41.147
900.602	11.5686
903.495	19.084
906.388	15.137
909.28	38.971
912.173	40.5034
915.066	34.2488
917.958	42.6938
920.851	3.96875
923.744	17.8362
926.636	1.63135
929.529	39.6406
932.422	26.5686
935.314	24.5498
938.207	35.6443
941.1	10.9582
943.993	52.1921
946.885	34.5227
949.778	9.52759
952.671	31.8543
955.563	23.2205
958.456	15.6274
961.349	24.8748
964.241	49.5818
967.134	21.9924
970.027	0.526611
972.92	16.9314
975.812	4.01318
978.705	30.1345
981.598	29.7248
984.49	14.7773
987.383	7.90674
990.276	50.7891
993.168	5.19849
996.061	18.793
998.954	9.46948
1001.85	20.4831
1004.74	35.4773
1007.63	35.967
1010.52	6.20312
1013.42	13.2983
1016.31	11.1047
1019.2	33.5452
1022.1	27.02
1024.99	5.75122
1027.88	42.5701
1030.77	4.51661
1033.67	21.4238
1036.56	41.2494
1039.45	25.6513
1042.34	9.28296
1045.24	31.8933
1048.13	15.591
1051.02	4.62999
1053.91	22.2934
1056.81	41.1372
1059.7	-0.637414
1062.59	17.2045
1065.49	13.6663
1068.38	35.597
1071.27	7.52455
1074.16	8.23196
1077.06	2.79772
1079.95	29.4238
1082.84	21.9649
1085.73	26.2173
1088.63	33.5264
1091.52	20.1956
1094.41	37.526
1097.31	19.1737
1100.2	18.9077
1103.09	39.9001
1105.98	-1.51687
1108.88	-1.74948
1111.77	20.3125
1114.66	10.4114
1117.56	39.4162
1120.45	-1.29509
1123.34	6.23062
1126.23	30.3446
1129.12	33.8134
1132.02	21.7856
1134.91	17.1256
1137.8	23.7856
1140.7	26.4689
1143.59	17.4454
1146.48	27.8146
1149.37	4.6969
1152.27	13.7205
1155.16	16.996
1158.05	-14.6562
1160.94	0.327026
1163.84	19.806
1166.73	27.6781
1169.62	28.157
1172.52	3.92761
1175.41	10.5496
1178.3	24.9708
1181.19	22.7371
1184.09	2.18578
1186.98	-3.95397
1189.87	-2.75998
1192.77	20.7335
1195.66	-1.75529
1198.55	22.0877
1201.44	19.1679
1204.34	-2.79167
1207.23	36.8152
1210.12	15.4826
1213.01	22.5353
1215.91	33.958
1218.8	0
