Measurement: Raman, 532 nm, unoriented, Raman Data Processed
Mineral: Cubic zirconia
Rruff sample: R040142
Ideal chemistry: ZrO_2_
Locality: synthetic
Source: Bob Downs
Description: Fragment of a colorless single crystal
Measured chemistry: (Zr_0.86_Y_0.17_Hf_0.01_)O_2_
Raman shift (cm-1)	intensity
154.483	0
157.376	145.007
160.268	148.67
163.161	10.2725
166.054	71.126
168.946	119.241
171.839	200.103
174.732	82.1807
177.625	131.502
180.517	79.1514
183.41	28.1504
186.303	77.9062
189.195	40.9043
192.088	2.48144
194.981	65.1387
197.874	91.6836
200.766	42.5185
203.659	79.4736
206.552	109.693
209.444	118.869
212.337	65.7236
215.23	62.1797
218.122	150.722
221.015	200.494
223.908	216.677
226.8	374.647
229.693	264.269
232.586	326.534
235.479	245.464
238.371	364.489
241.264	403.735
244.157	340.609
247.049	377.766
249.942	327.295
252.835	282.361
255.727	185.574
258.62	292.319
261.513	238.024
264.406	187.365
267.298	108.925
270.191	223.035
273.084	96.085
275.976	120.068
278.869	80.0019
281.762	48.085
284.655	5.4668
287.547	77.3242
290.44	33.4326
293.333	66.3584
296.225	42.6602
299.118	47.5273
302.011	139.463
304.904	253.468
307.796	335.108
310.689	381.989
313.582	483.315
316.474	534.831
319.367	485.625
322.26	472.902
325.152	441.452
328.045	315.303
330.938	191.593
333.83	282.442
336.723	196.395
339.616	228.791
342.509	277.225
345.401	266.067
348.294	347.716
351.187	480.433
354.079	469.341
356.972	634.992
359.865	634.106
362.757	676.82
365.65	819.311
368.543	800.451
371.436	819.253
374.328	866.151
377.221	866.775
380.114	767.731
383.006	706.045
385.899	563.054
388.792	597.935
391.685	488.043
394.577	508.234
397.47	401.815
400.363	317.429
403.255	367.142
406.148	254.019
409.041	154.162
411.933	143.238
414.826	173.357
417.719	145.844
420.611	132.899
423.504	209.485
426.397	186.022
429.29	90.249
432.182	79.3877
435.075	105.43
437.968	56.1553
440.86	1.92969
443.753	6.59766
446.646	65.2988
449.538	63.7617
452.431	56.8262
455.324	18.9326
458.217	71.9121
461.109	65.6162
464.002	49.9336
466.895	95.7236
469.787	109.301
472.68	176.194
475.573	290.799
478.466	247.034
481.358	236.872
484.251	217.486
487.144	100.506
490.036	136.408
492.929	52.9648
495.822	78.3115
498.714	43.6592
501.607	100.097
504.5	23.2031
507.393	14.9961
510.285	29.3984
513.178	10.3369
516.071	21.8096
518.963	142.865
521.856	94.7725
524.749	263.066
527.641	399.805
530.534	461.196
533.427	609.364
536.32	786.311
539.212	877.994
542.105	1085.51
544.998	1212.43
547.89	1390.91
550.783	1552.96
553.676	1698.33
556.568	1804.08
559.461	2011.81
562.354	2133.11
565.247	2424
568.139	2564
571.032	2745.11
573.925	2959.98
576.817	3307.77
579.71	3577.05
582.603	3966.09
585.495	4275.98
588.388	4777.39
591.281	5250.11
594.174	5807.58
597.066	6313.86
599.959	6990.9
602.852	7650.34
605.744	8289.07
608.637	8994.98
611.53	9541.99
614.423	9796.93
617.315	9833.82
620.208	9658.6
623.101	9309.11
625.993	8385.1
628.886	7248.67
631.779	5997.23
634.671	4522.68
637.564	3179.99
640.457	2086.73
643.35	1288.97
646.242	765.597
649.135	296.883
652.028	82.7153
654.92	-26.9921
657.813	13.0734
660.706	60.2458
663.598	21.1539
666.491	-19.8134
669.384	34.1403
672.277	106.521
675.169	130.377
678.062	201.399
680.955	294.294
683.847	365.011
686.74	479.103
689.633	550.081
692.525	598.942
695.418	593.13
698.311	645.71
701.204	678.843
704.096	659.866
706.989	664.157
709.882	622.7
712.774	583.699
715.667	573.332
718.56	432.745
721.452	329.62
724.345	296.41
727.238	202.359
730.131	129.802
733.023	111.601
735.916	102.346
738.809	38.0444
741.701	104.448
744.594	21.7661
747.487	50.0676
750.38	76.5872
753.272	69.6492
756.165	23.4048
759.058	30.1416
761.95	30.061
764.843	69.9868
767.736	113.27
770.628	108.249
773.521	95.1155
776.414	115.803
779.307	109.743
782.199	137.156
785.092	138.067
787.985	131.951
790.877	127.728
793.77	156.835
796.663	105.978
799.555	127.233
802.448	119.159
805.341	65.926
808.234	119.245
811.126	99.23
814.019	78.2058
816.912	77.4246
819.804	78.2356
822.697	12.6426
825.59	49.8337
828.482	55.1714
831.375	2.89551
834.268	1.42993
837.16	1.84399
840.053	27.2183
842.946	15.7173
845.839	15.6787
848.731	16.8079
851.624	19.8132
854.517	38.3982
857.409	31.8735
860.302	33.7773
863.195	6.9939
866.087	38.9014
868.98	46.0478
871.873	21.552
874.766	36.0024
877.658	48.1497
880.551	31.7363
883.444	29.6711
886.337	22.769
889.229	38.6819
892.122	13.0088
895.015	12.5127
897.907	17.9817
900.8	7.65454
903.693	13.3357
906.585	17.3369
909.478	1.4353
912.371	14.3408
915.264	9.02173
918.156	6.54297
921.049	34.1113
923.942	37.5488
926.834	14.5645
929.727	67.5234
932.62	68.8303
935.512	74.8833
938.405	108.396
941.298	117.101
944.191	83.272
947.083	100.596
949.976	101.549
952.869	110.065
955.761	138.65
958.654	122.011
961.547	114.043
964.439	99.4338
967.332	94.1052
970.225	105.109
973.117	110.375
976.01	97.3875
978.903	167.408
981.796	124.691
984.688	128.097
987.581	134.64
990.474	94.4534
993.366	87.4585
996.259	130.636
999.152	109.238
1002.04	62.3415
1004.94	68.6694
1007.83	56.8835
1010.72	18.7405
1013.62	42.3787
1016.51	31.2341
1019.4	2.7771
1022.29	33.6528
1025.19	0.083984
1028.08	9.81323
1030.97	3.61694
1033.86	48.3269
1036.76	27.3635
1039.65	19.6641
1042.54	31.8555
1045.43	57.2942
1048.33	36.7456
1051.22	6.42261
1054.11	52.3997
1057.01	44.0896
1059.9	84.3005
1062.79	82.3347
1065.68	71.9617
1068.58	73.8835
1071.47	103.821
1074.36	109.349
1077.26	161.498
1080.15	127.065
1083.04	202.201
1085.93	186.773
1088.83	219.705
1091.72	182.686
1094.61	166.784
1097.5	189.675
1100.4	147.007
1103.29	152.191
1106.18	156.786
1109.07	147.494
1111.97	139.83
1114.86	137.843
1117.75	89.3113
1120.64	107.398
1123.54	67.0027
1126.43	81.613
1129.32	51.52
1132.22	37.9597
1135.11	10.0977
1138	13.9521
1140.89	25.3193
1143.79	14.0024
1146.68	32.2727
1149.57	7.57275
1152.46	25.2673
1155.36	16.0645
1158.25	17.7327
1161.14	17.9934
1164.04	0.732666
1166.93	17.2681
1169.82	39.4495
1172.71	2.69727
1175.61	11.4285
1178.5	18.3486
1181.39	32.5829
1184.29	30.7694
1187.18	17.0686
1190.07	56.7374
1192.96	17.3975
1195.86	2.57703
1198.75	65.0135
1201.64	35.5077
1204.53	40.2941
1207.43	7.55591
1210.32	47.8179
1213.21	69.1111
1216.1	49.6854
1219	47.3726
1221.89	11.6315
1224.78	5.90112
1227.67	22.6487
1230.57	74.9862
1233.46	25.733
1236.35	23.834
1239.25	39.7349
1242.14	42.1218
1245.03	19.762
1247.92	28.2883
1250.82	33.8119
1253.71	76.265
1256.6	35.0454
1259.49	24.6024
1262.39	20.2925
1265.28	31.2105
1268.17	34.0194
1271.07	31.1102
1273.96	32.516
1276.85	32.538
1279.74	22.9615
1282.64	5.3092
1285.53	25.0697
1288.42	34.3605
1291.32	13.0582
1294.21	9.64441
1297.1	15.5403
1299.99	11.5803
1302.88	0.19397
