Measurement: Raman, 780 nm, unoriented, Raman Data Processed
Mineral: Cumengeite
Rruff sample: R060079
Ideal chemistry: Pb^2+^_21_Cu^2+^_20_Cl_42_(OH)_40_6H_2_O
Locality: Amelia mine, Santa Rosalia, Baja California, Mexico
Source: Marcus Origlieri
Description: Blue pseudocubo-octahedral crystal
Raman shift (cm-1)	intensity
173.498	0
176.391	0.056881
179.284	0.22287
182.176	0.847895
185.069	1.03416
187.962	1.3823
190.854	1.72852
193.747	2.69811
196.64	1.83884
199.532	1.81507
202.425	2.20714
205.318	1.2043
208.211	0.985416
211.103	0.641369
213.996	0.323129
216.889	0.726399
219.781	0.016168
222.674	0.066217
225.567	0.109426
228.459	0.0394137
231.352	0.135242
234.245	0.805128
237.137	0.545969
240.03	0.884388
242.923	0.717362
245.816	0.752427
248.708	0.700036
251.601	0.767227
254.494	0.86692
257.386	0.660961
260.279	0.712215
263.172	0.766061
266.065	1.04887
268.957	0.79728
271.85	0.563736
274.743	0.286706
277.635	0.545024
280.528	0.429152
283.421	0.528433
286.313	0.209013
289.206	0.304516
292.099	0.473873
294.991	0.284078
297.884	0.317526
300.777	0.391731
303.67	0.304611
306.562	0.194725
309.455	0.124589
312.348	0.195242
315.24	0.225954
318.133	0.0719
321.026	0.076003
323.918	0.163481
326.811	0.047376
329.704	0.172613
332.597	0.411315
335.489	0.482039
338.382	0.519171
341.275	0.386241
344.167	0.602117
347.06	0.588517
349.953	0.743593
352.846	0.885227
355.738	1.0223
358.631	0.781857
361.524	0.844423
364.416	1.17348
367.309	0.881707
370.202	1.17976
373.094	0.874062
375.987	0.792922
378.88	0.405331
381.772	0.688981
384.665	0.365564
387.558	0.327188
390.451	0.025452
393.343	0.0699172
396.236	0.00913271
399.129	0.0943798
402.021	0.0581853
404.914	0.0507015
407.807	0.0655538
410.7	0.0964847
413.592	0.119788
416.485	0.122624
419.378	0.278433
422.27	0.183397
425.163	0.363732
428.056	0.534511
430.948	0.725874
433.841	0.996477
436.734	1.11622
439.627	1.2765
442.519	1.77297
445.412	1.71287
448.305	1.86459
451.197	1.73961
454.09	1.56074
456.983	1.2759
459.875	1.08158
462.768	0.872768
465.661	0.759976
468.553	0.868401
471.446	0.689075
474.339	0.455825
477.232	0.518819
480.124	0.666312
483.017	0.718201
485.91	0.891853
488.802	0.662452
491.695	0.770473
494.588	0.695542
497.481	0.716403
500.373	0.528371
503.266	0.431159
506.159	0.541173
509.051	0.223331
511.944	0.518792
514.837	0.267403
517.729	0.123001
520.622	0.005002
523.515	0.07024
526.408	0.331456
529.3	0.249222
532.193	0.106425
535.086	0.005785
537.978	0.106465
540.871	0.128337
543.764	0.097493
546.656	0.011311
549.549	0.081782
552.442	0.215674
555.335	0.314229
558.227	0.031195
561.12	0.164182
564.013	0.204942
566.905	0.296489
569.798	0.097673
572.691	0.015318
575.583	0.21268
578.476	0.307792
581.369	0.365528
584.261	0.078832
587.154	0.223417
590.047	0.20098
592.94	0.347522
595.832	0.071101
598.725	0.382946
601.618	0.179431
604.51	0.269228
607.403	0.112434
610.296	0.089478
613.188	0.293014
616.081	0.119134
618.974	0.25163
621.867	0.188012
624.759	0.331665
627.652	0.236973
630.545	0.051384
633.437	0.290178
636.33	0.19862
639.223	0.152265
642.115	0.07852
645.008	0.180575
647.901	0.435274
650.794	0.325004
653.686	0.336484
656.579	0.311208
659.472	0.524338
662.364	0.498012
665.257	0.097895
668.15	0.348284
671.043	0.232773
673.935	0.423505
676.828	0.428557
679.721	0.309387
682.613	0.553349
685.506	0.3253
688.399	0.219327
691.291	0.174962
694.184	0.360717
697.077	0.150443
699.97	0.383517
702.862	0.222384
705.755	0.149584
708.648	0.206659
711.54	0.294623
714.433	0.025555
717.326	0.078183
720.218	0.006307
723.111	0.074186
726.004	0.302893
728.896	0.192134
731.789	0.273419
734.682	0.167833
737.575	0.227236
740.467	0.005807
743.36	0.065035
746.253	0.207162
749.145	0.183535
752.038	0.250469
754.931	0.078321
757.823	0.049408
760.716	0.184242
763.609	0.272317
766.502	0.437921
769.394	0.174619
772.287	0.163615
775.18	0.15528
778.072	0.296859
780.965	0.150815
783.858	0.40213
786.75	0.267536
789.643	0.104825
792.536	0.257234
795.429	0.13076
798.321	0.327176
801.214	0.414057
804.107	0.342195
806.999	0.234623
809.892	0.597891
812.785	0.442565
815.678	0.164254
818.57	0.461464
821.463	0.436997
824.356	0.233879
827.248	0.348105
830.141	0.266254
833.034	0.374834
835.926	0.687805
838.819	0.73272
841.712	0.58853
844.605	0.307399
847.497	0.27887
850.39	0.297167
853.283	0.572161
856.175	0.26521
859.068	0.364332
861.961	0.203672
864.853	0.148459
867.746	0.510131
870.639	0.327346
873.532	0.4646
876.424	0.137738
879.317	0.150023
882.21	0.146357
885.102	0.091741
887.995	0.265795
890.888	0.176466
893.78	0.381273
896.673	0.061834
899.566	0.222542
902.458	0.171481
905.351	0.110115
908.244	0.08762
911.137	0.008591
914.029	0.051988
916.922	0.338797
919.815	0.005088
922.707	0.242033
925.6	-0.0461768
928.493	0.001576
931.385	0.251662
934.278	0.208317
937.171	0.382159
940.063	0.001561
942.956	0.236574
945.849	0.228533
948.742	0.250079
951.634	0.339402
954.527	0.208778
957.42	0.265658
960.312	0.39371
963.205	0.280771
966.098	0.067098
968.99	0.273695
971.883	0.364872
974.776	0.39554
977.669	0.497433
980.561	0.301266
983.454	0.32063
986.347	0.290743
989.239	0.260916
992.132	0.264791
995.025	0.194965
997.918	0.287216
1000.81	0.247244
1003.7	0.188138
1006.6	0.288179
1009.49	0.425642
1012.38	0.019432
1015.27	0.362337
1018.17	0.242913
1021.06	0.220088
1023.95	0.191251
1026.85	0.116692
1029.74	0.000547
1032.63	0.116544
1035.52	0.177105
1038.41	0.055556
1041.31	0.294389
1044.2	0.143513
1047.09	0.148618
1049.99	0.273404
1052.88	0.063584
1055.77	0.365185
1058.66	0.141767
1061.56	0.1166
1064.45	0.290673
1067.34	0.158538
1070.23	0.144255
1073.13	0.075861
1076.02	0.11406
1078.91	0.273873
1081.81	0.164513
1084.7	0.243248
1087.59	0.283545
1090.48	0.141083
1093.38	0.144232
1096.27	0.106886
1099.16	0.35096
1102.06	0.234022
1104.95	0.248449
1107.84	0.036499
1110.73	0.032362
1113.62	0.345546
1116.52	0.062626
1119.41	0.162867
1122.3	0.275366
1125.2	0.080062
1128.09	0.096153
1130.98	0.011155
1133.87	0.018151
1136.77	0.262738
1139.66	0.183242
1142.55	0.309569
1145.44	0.279258
1148.34	0.23274
1151.23	0.235717
1154.12	0.291654
1157.02	0.052812
1159.91	0.127691
1162.8	0.187147
1165.69	0.464471
1168.59	0.236049
1171.48	0.093238
1174.37	0.183706
1177.27	0.497307
1180.16	0.151944
1183.05	0.238505
1185.94	0.084412
1188.84	0.112337
1191.73	0.302871
1194.62	0.030059
1197.51	0.352383
1200.41	0.310201
1203.3	0.172977
1206.19	0.283575
1209.09	0.368882
1211.98	0.14268
1214.87	0.138249
1217.76	0.061922
1220.65	0.291321
1223.55	0.027935
1226.44	0.353929
1229.33	0.444504
1232.23	0.405418
1235.12	0.395829
1238.01	0.319221
1240.9	0.449409
1243.8	0.182889
1246.69	0.455236
1249.58	0.279692
1252.47	0.20838
1255.37	0.393876
1258.26	0.104182
1261.15	0.029995
1264.05	0.416875
1266.94	0.287698
1269.83	0.392184
1272.72	0.074952
1275.62	0.24205
1278.51	0.092699
1281.4	0.047699
