Measurement: Raman, 532 nm, unoriented, Raman Data Processed
Mineral: Cuprostibite
Rruff sample: R060838
Ideal chemistry: Cu_2_(Sb,Tl)
Locality: Mount Nakalak, Ilimaussaq, Greenland
Source: Michael Scott
Description: Gray metallic with purple-red tint, massive
Measured chemistry: Cu_2.00_Sb_1.00_; trace amounts of S
Raman shift (cm-1)	intensity
142.736	0
145.629	15.1392
148.522	59.8962
151.414	68.5299
154.307	113.37
157.2	111.832
160.092	213.925
162.985	401.897
165.878	668.98
168.77	1080.02
171.663	1475.29
174.556	1866.64
177.448	1876.32
180.341	1211.54
183.234	566.523
186.127	288.14
189.019	174.093
191.912	119.222
194.805	47.7792
197.697	68.2269
200.59	8.17297
203.483	45.193
206.375	29.9216
209.268	48.0201
212.161	64.8149
215.054	27.4383
217.946	26.9916
220.839	35.069
223.732	11.2479
226.624	21.7399
229.517	26.6768
232.41	30.5879
235.303	5.19592
238.195	25.5494
241.088	24.046
243.981	11.6663
246.873	42.6023
249.766	15.7163
252.659	43.4569
255.551	18.8361
258.444	50.9586
261.337	8.69629
264.229	31.7446
267.122	42.4926
270.015	71.7235
272.908	4.31506
275.8	45.6071
278.693	58.0846
281.586	54.6841
284.478	56.6416
287.371	39.176
290.264	39.9846
293.156	37.4315
296.049	8.45032
298.942	13.7445
301.834	8.21411
304.727	34.6622
307.62	29.0571
310.513	40.2402
313.405	31.9125
316.298	34.1554
319.191	29.3023
322.083	37.3529
324.976	20.9128
327.869	46.2476
330.762	39.9567
333.654	19.1826
336.547	45.9096
339.44	3.9397
342.332	15.4019
345.225	7.95764
348.118	21.8298
351.01	2.45093
353.903	28.8031
356.796	40.6638
359.688	83.3898
362.581	20.6995
365.474	12.7033
368.366	4.76001
371.259	22.7113
374.152	16.7655
377.045	38.5076
379.937	32.9197
382.83	10.7788
385.723	16.9216
388.615	21.7577
391.508	19.7935
394.401	34.5836
397.293	4.12354
400.186	34.1977
403.079	1.49353
405.972	19.7174
408.864	31.2002
411.757	44.9253
414.65	72.6018
417.542	36.2915
420.435	18.7175
423.328	57.094
426.221	44.8225
429.113	40.0361
432.006	33.2454
434.899	39.5232
437.791	37.7478
440.684	56.9231
443.577	0.748291
446.469	72.5266
449.362	19.6992
452.255	30.8213
455.147	44.9597
458.04	48.1379
460.933	13.3518
463.826	52.3398
466.718	51.5945
469.611	43.3425
472.504	17.6106
475.396	37.1509
478.289	35.0044
481.182	10.7493
484.074	47.1645
486.967	41.4656
489.86	18.9775
492.752	14.21
495.645	5.56128
498.538	13.8057
501.431	34.2588
504.323	48.9385
507.216	52.3332
510.109	23.2109
513.001	14.2505
515.894	21.5459
518.787	9.69238
521.679	40.6985
524.572	17.6453
527.465	23.7358
530.358	11.9954
533.25	32.2695
536.143	13.6909
539.036	13.7881
541.928	18.8137
544.821	29.2024
547.714	29.9009
550.606	22.3135
553.499	11.6248
556.392	20.3743
559.284	12.8772
562.177	21.7549
565.07	6.39185
567.963	17.9973
570.855	27.7761
573.748	61.3667
576.641	18.23
579.533	32.552
582.426	45.1394
585.319	47.7685
588.212	63.4971
591.104	57.8699
593.997	38.1409
596.89	34.678
599.782	51.2048
602.675	55.7402
605.568	30.0503
608.46	65.8027
611.353	42.6936
614.246	69.5586
617.139	38.9958
620.031	57.9048
622.924	68.2966
625.817	35.9746
628.709	26.554
631.602	45.21
634.495	23.0305
637.387	28.0664
640.28	38.083
643.173	53.0012
646.066	12.9499
648.958	47.5911
651.851	16.3389
654.744	44.6592
657.636	21.0947
660.529	1.50024
663.422	7.3811
666.314	11.1731
669.207	12.0007
672.1	32.8506
674.992	37.1997
677.885	0.708496
680.778	31.8174
683.67	30.666
686.563	39.0588
689.456	10.5447
692.349	3.61646
695.241	27.4531
698.134	11.5252
701.027	41.8833
703.919	28.7117
706.812	0.661621
709.705	63.7568
712.597	6.04858
715.49	46.074
718.383	13.2705
721.276	42.9287
724.168	80.1167
727.061	30.0642
729.954	36.0247
732.846	26.7436
735.739	38.1033
738.632	38.0857
741.524	36.0876
744.417	15.7922
747.31	10.3152
750.203	3.54932
753.095	10.3162
755.988	27.6809
758.881	12.2122
761.773	28.1748
764.666	48.2073
767.559	35.7288
770.452	21.3328
773.344	0.428223
776.237	34.4631
779.13	40.5132
782.022	5.94482
784.915	45.8201
787.808	37.176
790.7	14.1306
793.593	37.2725
796.486	11.1438
799.378	52.7109
802.271	45.3193
805.164	26.1177
808.057	4.95312
810.949	7.68066
813.842	37.0894
816.735	65.8613
819.627	49.585
822.52	15.9131
825.413	36.5876
828.305	27.7852
831.198	21.0098
834.091	29.0129
836.984	64.0278
839.876	73.969
842.769	38.7744
845.662	14.4248
848.554	35.2122
851.447	24.9519
854.34	15.9495
857.232	0.87915
860.125	16.1206
863.018	62.6235
865.91	57.1213
868.803	45.1885
871.696	21.624
874.589	46.0056
877.481	20.6831
880.374	58.7947
883.267	43.9365
886.159	17.2119
889.052	42.4221
891.945	42.5308
894.837	34.2388
897.73	95.6367
900.623	44.9878
903.516	53.9609
906.408	42.2048
909.301	5.95166
912.194	52.6917
915.086	35.562
917.979	39.1965
920.872	48.9363
923.764	71.8865
926.657	77.751
929.55	81.9077
932.442	57.4492
935.335	39.1218
938.228	64.3709
941.121	70.5808
944.013	10.1328
946.906	27.6001
949.799	21.6802
952.691	32.7231
955.584	20.5525
958.477	78.6836
961.37	33.9006
964.262	13.9836
967.155	84.1294
970.048	64.6692
972.94	41.4665
975.833	91.8144
978.726	82.6216
981.618	51.3069
984.511	68.4988
987.404	58.0147
990.296	44.365
993.189	46.3806
996.082	90.2805
998.975	47.7449
1001.87	80.2136
1004.76	12.5007
1007.65	66.6831
1010.54	5.64868
1013.44	10.5774
1016.33	36.2417
1019.22	34.8699
1022.12	37.1167
1025.01	40.3621
1027.9	32.6162
1030.79	26.9915
1033.69	48.1836
1036.58	43.3442
1039.47	47.8167
1042.37	81.7627
1045.26	68.7275
1048.15	18.9915
1051.04	47.4536
1053.94	37.5305
1056.83	77.4294
1059.72	78.1099
1062.61	38.1658
1065.51	57.0349
1068.4	60.8027
1071.29	8.08472
1074.18	5.15234
1077.08	69.8852
1079.97	0.449463
1082.86	24.5322
1085.76	51.4951
1088.65	53.3223
1091.54	61.2585
1094.43	29.1953
1097.33	71.8369
1100.22	39.5469
1103.11	28.1982
1106	79.0474
1108.9	30.4719
1111.79	25.551
1114.68	56.8428
1117.58	36.7022
1120.47	0.104492
1123.36	32.7915
1126.25	45.0205
1129.15	60.1785
1132.04	49.8652
1134.93	60.6943
1137.82	3.7063
1140.72	19.6148
1143.61	15.3713
1146.5	47.2105
1149.39	55.9062
1152.29	19.2942
1155.18	52.4878
1158.07	29.98
1160.97	38.5564
1163.86	2.60229
1166.75	51.2087
1169.64	21.1074
1172.54	84.9902
1175.43	42.1814
1178.32	46.4529
1181.21	61.271
1184.11	62.2207
1187	46.1416
1189.89	66.3992
1192.79	50.4165
1195.68	57.8569
1198.57	42.7036
1201.46	29.6248
1204.36	41.8386
1207.25	67.2954
1210.14	10.6943
1213.03	66.217
1215.93	75.396
1218.82	35.3801
1221.71	49.3047
1224.61	21.5879
1227.5	36.6904
1230.39	33.8464
1233.28	35.6594
1236.18	47.0915
1239.07	30.6587
1241.96	67.1096
1244.85	98.4297
1247.75	51.8201
1250.64	52.314
1253.53	58.6013
1256.42	54.9038
1259.32	39.7812
1262.21	62.74
1265.1	53.9475
1267.99	12.8884
1270.89	68.7495
1273.78	32.0708
1276.67	44.5727
1279.57	20.1926
