Measurement: Raman, 785 nm, unoriented, Raman Data Processed
Mineral: Cuprostibite
Rruff sample: R060838
Ideal chemistry: Cu_2_(Sb,Tl)
Locality: Mount Nakalak, Ilimaussaq, Greenland
Source: Michael Scott
Description: Gray metallic with purple-red tint, massive
Measured chemistry: Cu_2.00_Sb_1.00_; trace amounts of S
Raman shift (cm-1)	intensity
157.204	0
160.097	27.6148
162.989	206.317
165.882	380.332
168.775	832.005
171.668	1381.69
174.56	1950.21
177.453	2009.55
180.346	1133.93
183.238	498.436
186.131	240.802
189.024	70.3157
191.917	23.4872
194.809	10.1002
197.702	27.7983
200.595	60.3158
203.487	68.4335
206.38	44.861
209.273	8.3053
212.165	45.8774
215.058	9.84863
217.951	6.56287
220.844	27.4041
223.736	61.1438
226.629	77.0466
229.522	78.464
232.414	109.839
235.307	129.044
238.2	132.318
241.092	208.18
243.985	189.573
246.878	155.729
249.77	202.821
252.663	154.646
255.556	178.665
258.449	162.195
261.341	180.592
264.234	152.275
267.127	190.343
270.019	142.958
272.912	141.719
275.805	104.66
278.697	148.796
281.59	108.816
284.483	121.013
287.376	87.8447
290.268	62.8085
293.161	70.2801
296.054	81.8637
298.946	66.7899
301.839	65.6091
304.732	94.9838
307.625	97.4403
310.517	61.8516
313.41	44.8047
316.303	43.519
319.195	49.3301
322.088	20.2964
324.981	7.07361
327.873	24.9828
330.766	43.248
333.659	45.3174
336.551	15.1054
339.444	6.88153
342.337	20.6359
345.23	10.5282
348.122	22.7656
351.015	29.4266
353.908	22.3165
356.8	25.4846
359.693	3.64459
362.586	25.2007
365.478	11.5644
368.371	35.7795
371.264	14.8981
374.157	5.21875
377.049	34.0467
379.942	10.5815
382.835	23.5085
385.727	34.0101
388.62	36.5693
391.513	7.07001
394.406	45.6373
397.298	28.7651
400.191	39.7898
403.084	5.71881
405.976	24.7039
408.869	11.1617
411.762	52.0502
414.654	34.5241
417.547	65.5354
420.44	21.8186
423.332	49.5969
426.225	33.5016
429.118	47.2857
432.011	50.4822
434.903	33.5692
437.796	27.4357
440.689	31.8635
443.581	12.2965
446.474	63.1688
449.367	13.094
452.26	7.12183
455.152	35.747
458.045	54.5769
460.938	55.4565
463.83	34.3779
466.723	54.0808
469.616	68.0651
472.508	24.7596
475.401	69.1033
478.294	55.5161
481.187	22.4874
484.079	42.8605
486.972	30.4496
489.865	50.6402
492.757	28.455
495.65	13.0367
498.543	35.7668
501.435	3.98938
504.328	51.96
507.221	42.982
510.114	29.1624
513.006	50.3998
515.899	23.9348
518.792	27.3052
521.684	30.8834
524.577	46.071
527.47	18.6864
530.362	60.5583
533.255	13.5889
536.148	6.69568
539.04	0.176208
541.933	38.221
544.826	34.4534
547.719	26.0343
550.611	13.0565
553.504	41.9019
556.397	60.7878
559.289	34.4801
562.182	10.7416
565.075	28.1829
567.967	30.0545
570.86	25.8592
573.753	62.4343
576.646	36.946
579.538	32.7824
582.431	44.2438
585.324	48.0881
588.216	69.5508
591.109	80.187
594.002	20.4643
596.895	58.5282
599.787	78.1981
602.68	65.911
605.573	62.0698
608.465	56.9562
611.358	53.6158
614.251	49.5583
617.144	70.0913
620.036	74.701
622.929	57.147
625.822	50.0998
628.714	40.1107
631.607	43.961
634.5	37.7687
637.392	29.498
640.285	24.0234
643.178	29.781
646.071	14.0335
648.963	12.8301
651.856	31.4889
654.749	39.0951
657.641	34.3608
660.534	14.2761
663.427	26.0788
666.319	8.72461
669.212	14.2518
672.105	27.8771
674.997	18.8532
677.89	26.3505
680.783	29.9185
683.676	9.16248
686.568	15.4924
689.461	9.38177
692.354	37.9635
695.246	48.3536
698.139	53.5964
701.032	22.8528
703.924	31.9197
706.817	29.7898
709.71	52.4302
712.603	28.933
715.495	38.651
718.388	45.1094
721.281	64.5701
724.173	54.5997
727.066	28.1559
729.959	34.0158
732.851	28.4993
735.744	8.01093
738.637	47.5757
741.53	10.6342
744.422	9.17896
747.315	7.05737
750.208	48.725
753.1	74.5373
755.993	36.7667
758.886	63.1596
761.779	28.3398
764.671	28.2213
767.564	10.1465
770.457	25.682
773.349	32.9047
776.242	19.3982
779.135	11.0901
782.027	31.45
784.92	52.0224
787.813	39.5009
790.706	36.1202
793.598	32.6803
796.491	31.3539
799.384	21.6976
802.276	9.29163
805.169	11.3994
808.062	20.2556
810.954	13.5592
813.847	35.0943
816.74	1.89313
819.633	54.2369
822.525	30.5263
825.418	20.8375
828.311	29.0008
831.203	23.8902
834.096	87.2894
836.989	18.7586
839.881	21.94
842.774	46.8513
845.667	53.087
848.559	58.7161
851.452	63.8148
854.345	52.0751
857.238	34.0436
860.13	41.6307
863.023	21.0859
865.916	12.0712
868.808	50.7849
871.701	26.5447
874.594	18.7565
877.486	34.2869
880.379	45.7418
883.272	43.4805
886.165	30.9042
889.057	40.4735
891.95	24.6956
894.843	9.75677
897.735	3.11536
900.628	34.234
903.521	35.3434
906.413	2.34283
909.306	51.5049
912.199	34.71
915.092	5.95392
917.984	36.0861
920.877	30.4249
923.77	0.46051
926.663	40.093
929.555	49.2363
932.448	7.82172
935.341	29.0169
938.233	40.6497
941.126	47.2949
944.019	60.179
946.911	54.1339
949.804	42.481
952.697	64.4781
955.59	69.2346
958.482	52.6923
961.375	47.5797
964.268	50.4308
967.16	19.3894
970.053	63.0452
972.946	39.0605
975.838	13.269
978.731	47.9521
981.624	51.043
984.516	82.3668
987.409	65.0551
990.302	25.1703
993.195	18.2329
996.087	39.0474
998.98	73.5602
1001.87	31.1141
1004.76	51.3459
1007.66	70.7568
1010.55	29.0782
1013.44	19.7651
1016.34	50.0636
1019.23	43.7013
1022.12	15.1087
1025.01	9.79248
1027.91	17.8544
1030.8	12.1182
1033.69	11.0789
1036.59	51.9263
1039.48	20.3696
1042.37	56.5853
1045.26	53.6018
1048.16	36.3035
1051.05	39.7559
1053.94	2.34265
1056.83	19.304
1059.73	41.5772
1062.62	69.8031
1065.51	5.39978
1068.4	40.5649
1071.3	44.518
1074.19	20.4265
1077.08	8.52081
1079.98	30.3264
1082.87	32.8058
1085.76	30.6643
1088.65	31.4805
1091.55	1.95886
1094.44	21.5092
1097.33	29.4282
1100.22	13.9999
1103.12	3.63629
1106.01	39.5997
1108.9	33.3013
1111.8	53.1365
1114.69	72.9425
1117.58	16.3019
1120.47	37.9744
1123.37	20.182
1126.26	23.7466
1129.15	19.8002
1132.04	26.8758
1134.94	31.5201
1137.83	38.051
1140.72	28.757
1143.62	50.9792
1146.51	50.9299
1149.4	38.4558
1152.29	35.0478
1155.19	71.7643
1158.08	81.55
1160.97	76.6154
1163.86	62.297
1166.76	79.6624
1169.65	43.2737
1172.54	51.231
1175.43	62.2543
1178.33	39.8572
1181.22	75.0131
1184.11	67.4951
1187.01	83.2118
1189.9	87.6677
1192.79	59.2626
1195.68	83.3586
1198.58	39.9933
1201.47	67.4665
1204.36	55.321
1207.25	22.7506
1210.15	70.0264
1213.04	45.9094
1215.93	46.4417
1218.83	102.663
1221.72	114.426
1224.61	93.4116
1227.5	99.8863
1230.4	82.7694
1233.29	43.2679
1236.18	45.4678
1239.07	5.86243
1241.97	45.8397
1244.86	73.6558
1247.75	86.3324
1250.64	84.4921
1253.54	22.9591
1256.43	37.2286
1259.32	1.75659
1262.22	15.9647
