Measurement: Raman, 532 nm, unoriented, Raman Data Processed
Mineral: Cuspidine
Rruff sample: R060049
Ideal chemistry: Ca_4_(Si_2_O_7_)F_2_
Locality: Ariccia, Rome, Italy
Source: University of Arizona Mineral Museum
Description: White and colorless spear-shaped single crystal
Measured chemistry: Ca_4.00_Si_2.00_O_7_F_2.00_
Raman shift (cm-1)	intensity
141.34	0
144.233	99.8887
147.126	374.6
150.018	43.4414
152.911	119.143
155.804	247.228
158.697	558.305
161.589	438.553
164.482	320.715
167.375	276.144
170.267	146.922
173.16	46.7109
176.053	291.332
178.946	292.566
181.838	350.613
184.731	383.891
187.624	348.672
190.516	270.607
193.409	296.502
196.302	251.389
199.194	139.736
202.087	187.344
204.98	245.182
207.873	295.836
210.765	144.092
213.658	145.934
216.551	52.7754
219.443	11.2793
222.336	82.0391
225.229	61.7324
228.121	166.295
231.014	165.701
233.907	170.184
236.799	113.424
239.692	190.955
242.585	83.2734
245.478	205.492
248.37	262.475
251.263	321.6
254.156	249.977
257.048	538.406
259.941	497.004
262.834	543.92
265.726	704.129
268.619	765.697
271.512	473.746
274.405	446.728
277.297	165.902
280.19	170.889
283.083	67.3301
285.975	139.912
288.868	234.209
291.761	332.93
294.654	377.744
297.546	206.143
300.439	306.529
303.332	378.522
306.224	140.33
309.117	279.875
312.01	162.219
314.902	118.6
317.795	2.83203
320.688	177.207
323.58	59.1934
326.473	130.92
329.366	294.586
332.259	436.816
335.151	495.484
338.044	604.779
340.937	663.709
343.829	721.295
346.722	739.035
349.615	912.117
352.507	1000.59
355.4	913.705
358.293	987.574
361.186	770.318
364.078	745.037
366.971	626.283
369.864	391.299
372.756	382.539
375.649	418.918
378.542	442.889
381.434	412.127
384.327	334.781
387.22	207.055
390.113	26.582
393.005	308.668
395.898	4.33008
398.791	17.041
401.683	14.3047
404.576	95.4043
407.469	296.779
410.361	343.637
413.254	446.838
416.147	522.768
419.04	284.117
421.932	190.469
424.825	125.311
427.718	230.537
430.61	396.711
433.503	500.926
436.396	415.205
439.288	308.891
442.181	307.281
445.074	196.475
447.967	130.221
450.859	159.082
453.752	38.0098
456.645	27.8789
459.537	6.58008
462.43	23.1758
465.323	94.5234
468.215	96.125
471.108	52.1758
474.001	49.0762
476.894	49.3242
479.786	249.324
482.679	176.082
485.572	635.648
488.464	553.691
491.357	711.676
494.25	318.838
497.142	529.019
500.035	578.754
502.928	806.234
505.82	640.098
508.713	685.059
511.606	371.289
514.499	264.109
517.391	277.195
520.284	5.34375
523.177	2.14844
526.069	198.203
528.962	316.762
531.855	529.789
534.747	881.414
537.64	1182.92
540.533	1240.71
543.426	1118.49
546.318	675.266
549.211	553.773
552.104	416.199
554.996	561.852
557.889	350.84
560.782	431.293
563.674	280.457
566.567	289.387
569.46	25.2695
572.353	48.8672
575.245	94.7031
578.138	22.0977
581.031	270.008
583.923	151.289
586.816	60.1758
589.709	178.914
592.601	157.141
595.494	302.977
598.387	282.84
601.28	433.34
604.172	4.67969
607.065	223.543
609.958	41.1836
612.85	162.801
615.743	334.668
618.636	261.676
621.529	217.406
624.421	202.414
627.314	253.797
630.207	299.488
633.099	217.039
635.992	465.16
638.885	497.07
641.777	865.301
644.67	1410.35
647.563	1952.77
650.456	2585.18
653.348	3032.39
656.241	2576.49
659.134	1689.8
662.026	899.113
664.919	715.629
667.812	496.766
670.704	286.215
673.597	222.106
676.49	138.949
679.382	269.406
682.275	376.992
685.168	149.625
688.061	365.609
690.953	76.6133
693.846	69.7266
696.739	60.5898
699.631	178.731
702.524	190.113
705.417	275.621
708.309	182.102
711.202	217.383
714.095	177.852
716.987	214.023
719.88	222.691
722.773	309.148
725.666	220.731
728.558	135.258
731.451	242.981
734.344	97.7344
737.236	69.3125
740.129	120.309
743.022	26.2305
745.915	120.406
748.807	59.3008
751.7	88.9805
754.593	112.312
757.485	43.8711
760.378	61.6758
763.271	168.586
766.163	254.582
769.056	259.676
771.949	283.734
774.842	140.106
777.734	265.102
780.627	339.672
783.52	98.3594
786.412	245.887
789.305	278.945
792.198	215.894
795.091	175.867
797.983	258.223
800.876	372.691
803.769	229.973
806.661	150.961
809.554	203.434
812.447	169.691
815.339	54.9023
818.232	179.266
821.125	191.492
824.017	353.637
826.91	400.203
829.803	177.852
832.696	272.859
835.588	154.606
838.481	134.867
841.374	108.41
844.266	381.742
847.159	481.215
850.052	444
852.944	691.66
855.837	628.699
858.73	702.125
861.622	739.344
864.515	344.82
867.408	306.137
870.301	25.332
873.193	76.4531
876.086	12.9141
878.979	203.41
881.871	178.758
884.764	187.402
887.657	232.856
890.549	275.539
893.442	457.062
896.335	999.297
899.228	1765.86
902.12	3137.97
905.013	4971.69
907.906	7636.12
910.798	9274.01
913.691	6249.03
916.584	3088.87
919.476	1665.57
922.369	919.441
925.262	526.477
928.155	195.996
931.047	175.801
933.94	41.9414
936.833	139.316
939.725	177.879
942.618	72.9492
945.511	208.242
948.404	200.234
951.296	202.305
954.189	135.309
957.082	9.08594
959.974	71.5977
962.867	90.6328
965.76	304.504
968.652	616.488
971.545	676.375
974.438	637.609
977.331	567.648
980.223	479.906
983.116	332.383
986.009	350.981
988.901	264.293
991.794	209.383
994.687	326.652
997.579	299.891
1000.47	378.906
1003.37	454.844
1006.26	217.418
1009.15	197.262
1012.04	160.922
1014.94	244.062
1017.83	255.547
1020.72	176.883
1023.61	66.9062
1026.51	72.5039
1029.4	392.129
1032.29	381.781
1035.18	466.043
1038.08	441.144
1040.97	396.938
1043.86	277.754
1046.76	143.57
1049.65	31.6836
1052.54	150.648
1055.43	13.8633
1058.33	4.51953
1061.22	247.66
1064.11	105.32
1067	126.273
1069.9	45.5469
1072.79	32.5859
1075.68	399.523
1078.58	323.277
1081.47	125.137
1084.36	191.668
1087.25	115.277
1090.15	76.1289
1093.04	269.543
1095.93	122.168
1098.82	202.457
1101.72	288.738
1104.61	290.648
1107.5	442.418
1110.39	561.531
1113.29	656.344
1116.18	631.273
1119.07	426.512
1121.96	238.172
1124.86	307.602
1127.75	367.211
1130.64	321.691
1133.54	381.559
1136.43	313.68
1139.32	323.285
1142.21	96.5938
1145.11	132.438
1148	279
1150.89	390.039
1153.79	163.434
1156.68	229.394
1159.57	221.312
1162.46	230.059
1165.36	69.0508
1168.25	48.3008
1171.14	188.164
1174.03	205.57
1176.93	128.824
1179.82	142.797
1182.71	69.9805
1185.61	171.801
1188.5	338.074
1191.39	290.488
1194.28	142.031
1197.18	88.3125
1200.07	36.5703
1202.96	123.762
1205.85	70.1797
1208.75	2.07422
1211.64	87.418
1214.53	53.4258
1217.42	114.004
1220.32	73.6562
1223.21	143.496
1226.1	137.844
1228.99	121.438
1231.89	63.0977
1234.78	48.8945
1237.67	10.1602
1240.57	259.523
1243.46	185.59
1246.35	65.1406
1249.24	130.707
1252.14	364.695
1255.03	298.234
1257.92	186.703
1260.82	412.125
1263.71	41.1562
1266.6	287.301
1269.49	119.633
1272.39	51.5742
1275.28	268.113
1278.17	143.617
1281.06	134.09
1283.96	189.008
1286.85	174.305
1289.74	0
