Measurement: Raman, 532 nm, unoriented, Raman Data Processed
Mineral: Cuspidine
Rruff sample: R130002
Ideal chemistry: Ca_4_(Si_2_O_7_)F_2_
Locality: Huanggang(?), Inner Mongolia, China
Source: Robert Lavinsky
Description: Colorless, striated, prismatic crystals associated with black vesuvianite
Raman shift (cm-1)	intensity
206.034	0
208.927	0.168823
211.819	6.43848
214.712	19.1556
217.605	33.4916
220.497	34.9036
223.39	32.615
226.283	30.1888
229.175	25.4838
232.068	19.9467
234.961	22.7164
237.854	19.7583
240.746	25.594
243.639	24.0942
246.532	18.7665
249.424	8.78271
252.317	13.9658
255.21	16.2595
258.103	18.8217
260.995	23.0516
263.888	31.0411
266.781	37.9678
269.673	24.0695
272.566	3.32178
275.459	3.22205
278.351	5.34961
281.244	6.33337
284.137	9.34082
287.029	20.8296
289.922	34.0045
292.815	50.1097
295.708	66.7463
298.6	80.1746
301.493	63.7214
304.386	37.8789
307.278	12.9609
310.171	21.2139
313.064	37.3678
315.957	27.413
318.849	12.6946
321.742	0.694092
324.635	11.7261
327.527	34.8486
330.42	70.0011
333.313	123.359
336.205	153.028
339.098	145.61
341.991	139.452
344.884	165.664
347.776	208.121
350.669	241.033
353.562	199.854
356.454	193
359.347	198.257
362.24	163.543
365.132	116.741
368.025	84.3398
370.918	60.3165
373.81	43.96
376.703	52.8989
379.596	53.7705
382.489	41.0022
385.381	24.7788
388.274	13.7129
391.167	2.24072
394.059	2.44653
396.952	1.16064
399.845	2.271
402.738	8.97754
405.63	19.9619
408.523	24.875
411.416	33.7588
414.308	24.6968
417.201	13.6113
420.094	4.33984
422.986	0.879395
425.879	5.95898
428.772	1.40747
431.664	4.36328
434.557	4.46167
437.45	3.56348
440.343	7.09277
443.235	4.79053
446.128	5.69287
449.021	12.6453
451.913	5.77173
454.806	3.69922
457.699	0.066406
460.591	3.29028
463.484	0.974121
466.377	5.5686
469.27	7.21948
472.162	13.5747
475.055	23.1038
477.948	25.6863
480.84	27.0916
483.733	25.3518
486.626	33.8633
489.519	40.198
492.411	34.02
495.304	29.8315
498.197	33.9712
501.089	45.6155
503.982	48.9719
506.875	50.2861
509.767	33.7651
512.66	22.1599
515.553	12.7566
518.446	1.77686
521.338	4.27417
524.231	13.8874
527.124	10.7571
530.016	12.2231
532.909	26.5425
535.802	35.4595
538.694	41.6956
541.587	36.7524
544.48	30.8528
547.372	31.8416
550.265	39.803
553.158	38.4853
556.051	31.5252
558.943	20.2209
561.836	9.74292
564.729	7.84912
567.621	6.35132
570.514	6.5437
573.407	1.24487
576.299	0.636719
579.192	3.30664
582.085	0.645264
584.978	2.06274
587.87	10.7898
590.763	5.88159
593.656	10.1699
596.548	3.8374
599.441	9.6272
602.334	0.294434
605.226	0.136963
608.119	4.11816
611.012	3.10229
613.905	1.74658
616.797	5.22998
619.69	12.5156
622.583	11.9219
625.475	0.690918
628.368	0.464111
631.261	6.56152
634.154	13.9805
637.046	23.8347
639.939	33.6335
642.832	62.4321
645.724	104.742
648.617	174.517
651.51	256.736
654.402	288.11
657.295	176.537
660.188	86.2097
663.081	44.2815
665.973	19.6277
668.866	11.031
671.759	12.6985
674.651	4.72436
677.544	4.91406
680.437	3.61768
683.329	4.38843
686.222	2.00928
689.115	7.72485
692.008	18.5408
694.9	9.49316
697.793	3.24438
700.686	2.8081
703.578	0.681885
706.471	9.51392
709.364	1.87671
712.256	2.35596
715.149	0.866699
718.042	0.512939
720.934	10.5354
723.827	7.71582
726.72	9.44849
729.613	4.73193
732.505	5.36133
735.398	8.50415
738.291	7.46997
741.183	5.18335
744.076	9.3313
746.969	16.3852
749.861	15.5581
752.754	5.94189
755.647	1.66016
758.54	2.04932
761.432	1.72656
764.325	9.23926
767.218	9.52759
770.11	6.25879
773.003	11.6758
775.896	15.0413
778.788	13.5015
781.681	1.02881
784.574	2.4458
787.467	0.499512
790.359	8.60596
793.252	14.4382
796.145	13.5464
799.037	6.29272
801.93	1.37305
804.823	4.50757
807.716	5.67554
810.608	4.96948
813.501	5.84863
816.394	5.31934
819.286	4.19043
822.179	16.3108
825.072	11.5584
827.964	6.4646
830.857	3.61572
833.75	0.040039
836.643	9.59253
839.535	16.7473
842.428	26.7341
845.321	22.6094
848.213	16.1982
851.106	10.668
853.999	11.2112
856.891	16.4048
859.784	8.98023
862.677	9.84815
865.569	10.5877
868.462	3.4707
871.355	0.837158
874.248	2.04492
877.14	3.80835
880.033	4.45776
882.926	2.9165
885.818	6.33447
888.711	18.8904
891.604	28.4831
894.496	42.8708
897.389	85.4959
900.282	154.88
903.175	262.544
906.067	463.729
908.96	818.849
911.853	887.89
914.745	390.863
917.638	159.633
920.531	86.4404
923.423	53.053
926.316	34.6062
929.209	32.0908
932.102	19.8879
934.994	24.6189
937.887	29.3237
940.78	26.6672
943.672	18.7263
946.565	38.7415
949.458	29.4285
952.351	8.49219
955.243	8.84668
958.136	5.7207
961.029	7.80029
963.921	19.0596
966.814	41.6438
969.707	61.0322
972.599	84.2837
975.492	107.854
978.385	95.7095
981.278	52.4148
984.17	33.2122
987.063	35.4985
989.956	36.5784
992.848	49.3447
995.741	54.498
998.634	21.7839
1001.53	17.9194
1004.42	7.41553
1007.31	8.80371
1010.21	15.3535
1013.1	18.5642
1015.99	16.1497
1018.88	14.5698
1021.77	17.1206
1024.67	9.91553
1027.56	19.7234
1030.45	15.6865
1033.35	23.2393
1036.24	28.5188
1039.13	24.3325
1042.02	13.3276
1044.92	13.9207
1047.81	12.0034
1050.7	8.97485
1053.6	8.46265
1056.49	3.97266
1059.38	1.82593
1062.27	3.77246
1065.17	2.75781
1068.06	6.22607
1070.95	11.0508
1073.84	1.20239
1076.74	7.33276
1079.63	9.94116
1082.52	16.7459
1085.41	25.8762
1088.31	18.1758
1091.2	17.3047
1094.09	14.7429
1096.99	19.7925
1099.88	24.1897
1102.77	14.9473
1105.66	18.394
1108.56	10.519
1111.45	26.6809
1114.34	30.1582
1117.23	27.3562
1120.13	32.5947
1123.02	28.969
1125.91	13.335
1128.81	14.1831
1131.7	11.1248
1134.59	20.197
1137.48	19.0291
1140.38	3.97754
1143.27	7.35205
1146.16	13.1909
1149.05	22.9175
1151.95	9.27222
1154.84	9.40918
1157.73	6.50513
1160.62	3.70044
1163.52	6.23755
1166.41	2.51758
1169.3	0.439941
1172.2	13.2671
1175.09	10.9727
1177.98	13.3069
1180.87	8.77319
1183.77	14.5286
1186.66	3.76709
1189.55	8.78809
1192.44	1.26392
1195.34	3.78662
1198.23	18.7493
1201.12	14.6213
1204.02	17.5115
1206.91	12.1941
1209.8	20.3198
1212.69	21.3643
1215.59	18.1985
1218.48	3.16382
1221.37	14.7129
1224.26	10.0139
1227.16	9.79492
1230.05	9.65894
1232.94	18.4114
1235.84	2.13843
1238.73	1.02808
1241.62	10.564
1244.51	13.1936
1247.41	15.554
1250.3	7.15576
1253.19	3.8313
1256.08	1.7207
1258.98	16.5828
1261.87	25.4358
1264.76	16.2776
1267.65	13.0391
1270.55	14.1221
1273.44	5.31445
1276.33	0.569336
1279.23	6.53589
1282.12	10.5488
1285.01	5.4375
1287.9	3.79077
1290.8	8.14136
1293.69	10.864
1296.58	0.854248
1299.47	2.86719
