Measurement: Raman, 532 nm, unoriented, Raman Data Processed
Mineral: Cyanotrichite
Rruff sample: R070500
Ideal chemistry: Cu^2+^_4_Al_2_S^6+^O_4_(OH)_12_2H_2_O
Locality: Vieja mine, Portrerillos, Chanaral Province, Atacama Region, Chile
Source: James Shigley
Description: Radial aggregates of sky-blue fibers associated with green brochantite
Raman shift (cm-1)	intensity
154.976	0
157.869	9.36154
160.762	9.96921
163.655	53.8905
166.547	48.767
169.44	37.2132
172.333	3.55786
175.225	33.8502
178.118	12.1057
181.011	78.6913
183.904	90.7735
186.796	80.9439
189.689	80.583
192.582	60.3233
195.474	70.5402
198.367	55.7761
201.26	27.2346
204.153	35.6
207.045	30.0435
209.938	49.9168
212.831	43.2476
215.723	70.0282
218.616	99.9561
221.509	130.293
224.401	133.881
227.294	154.562
230.187	142.218
233.079	141.303
235.972	94.6288
238.865	88.5767
241.758	57.9062
244.65	41.5245
247.543	11.0197
250.436	27.936
253.328	11.6994
256.221	2.77396
259.114	3.18231
262.007	13.6684
264.899	14.6954
267.792	35.0862
270.685	44.7745
273.577	52.8212
276.47	64.4878
279.363	51.8391
282.255	54.7713
285.148	28.0874
288.041	36.6219
290.933	15.5037
293.826	8.00937
296.719	5.76526
299.612	5.0065
302.504	3.53943
305.397	7.89166
308.29	2.44421
311.182	2.65894
314.075	30.4857
316.968	44.3797
319.861	40.4542
322.753	49.7467
325.646	43.981
328.539	51.866
331.431	56.2318
334.324	40.3568
337.217	38.1597
340.109	35.9567
343.002	33.4819
345.895	42.0115
348.788	54.6523
351.68	56.1751
354.573	38.638
357.466	53.724
360.358	56.9783
363.251	30.605
366.144	44.6015
369.036	36.3722
371.929	21.9418
374.822	28.5192
377.714	21.5154
380.607	23.6252
383.5	17.2974
386.393	10.8868
389.285	3.39478
392.178	8.08972
395.071	5.99716
397.963	21.4829
400.856	7.75092
403.749	6.18597
406.642	17.3691
409.534	12.7648
412.427	31.4363
415.32	29.132
418.212	52.3879
421.105	69.0596
423.998	77.9544
426.89	81.1053
429.783	111.823
432.676	109.306
435.568	123.388
438.461	125.133
441.354	154.259
444.247	159.62
447.139	175.701
450.032	133.953
452.925	107.043
455.817	96.9494
458.71	70.8609
461.603	45.4243
464.496	18.828
467.388	18.9168
470.281	15.5916
473.174	2.46686
476.066	20.9177
478.959	44.8034
481.852	58.5431
484.745	102.64
487.637	105.824
490.53	161.007
493.423	198.397
496.315	271.779
499.208	345.546
502.101	386.622
504.993	493.841
507.886	531.085
510.779	613.222
513.672	678.323
516.564	718.426
519.457	787.344
522.35	867.715
525.242	907.976
528.135	925.878
531.028	878.701
533.92	721.253
536.813	588.72
539.706	393.869
542.598	262.081
545.491	177.715
548.384	115.25
551.277	92.5498
554.169	43.3792
557.062	29.0115
559.955	10.651
562.847	4.67508
565.74	15.861
568.633	9.80655
571.525	2.34061
574.418	1.43527
577.311	30.9714
580.204	30.0441
583.096	59.747
585.989	114.199
588.882	166.118
591.774	176.292
594.667	181.614
597.56	136.064
600.452	104.719
603.345	72.5077
606.238	65.9815
609.131	75.9441
612.023	51.495
614.916	39.9694
617.809	28.9071
620.701	17.293
623.594	19.635
626.487	8.52853
629.38	5.95786
632.272	20.9034
635.165	5.07809
638.058	6.84424
640.95	8.06384
643.843	19.7031
646.736	12.6288
649.628	22.8122
652.521	17.2843
655.414	7.72833
658.307	24.3318
661.199	20.3259
664.092	17.3017
666.985	24.6804
669.877	31.9429
672.77	7.72897
675.663	15.2692
678.556	38.7655
681.448	46.0808
684.341	29.3965
687.234	11.2564
690.126	13.3779
693.019	15.3738
695.912	36.3382
698.804	8.32892
701.697	25.256
704.59	21.0908
707.482	19.3735
710.375	16.7859
713.268	1.75494
716.161	6.83347
719.053	14.3992
721.946	10.7541
724.839	2.51569
727.731	0.205017
730.624	0.230011
733.517	2.92371
736.409	5.29129
739.302	19.0164
742.195	0.856934
745.088	8.35846
747.98	13.4401
750.873	10.7842
753.766	21.4304
756.658	7.59964
759.551	12.8582
762.444	4.56482
765.337	8.5246
768.229	26.8559
771.122	5.47885
774.015	14.7457
776.907	20.0018
779.8	35.8552
782.693	22.9145
785.585	28.0902
788.478	32.8308
791.371	41.1458
794.264	42.868
797.156	31.8966
800.049	42.4475
802.942	45.8017
805.834	46.6938
808.727	34.3263
811.62	40.7782
814.512	37.498
817.405	31.4553
820.298	25.6793
823.191	34.6865
826.083	23.4456
828.976	28.8368
831.869	21.5097
834.761	24.5117
837.654	15.0031
840.547	26.1831
843.439	22.8424
846.332	2.70694
849.225	0.535858
852.118	11.1605
855.01	6.46185
857.903	5.19028
860.796	4.37213
863.688	28.7949
866.581	6.9765
869.474	11.8985
872.366	1.94205
875.259	8.13879
878.152	5.54465
881.045	13.1057
883.937	4.93042
886.83	7.82529
889.723	17.0517
892.615	10.7738
895.508	12.1946
898.401	12.461
901.293	9.20233
904.186	8.24158
907.079	11.9672
909.972	6.08258
912.864	0.896027
915.757	18.2569
918.65	30.5592
921.542	13.1023
924.435	24.1145
927.328	5.58893
930.221	11.2304
933.113	23.208
936.006	0.829987
938.899	26.4118
941.791	5.47842
944.684	23.9675
947.577	9.91284
950.469	5.50409
953.362	17.7115
956.255	16.9495
959.148	43.4059
962.04	54.7806
964.933	110.184
967.826	308.212
970.718	508.373
973.611	809.642
976.504	952.237
979.396	548.845
982.289	184.753
985.182	55.52
988.074	28.6188
990.967	21.3554
993.86	11.7654
996.753	14.167
999.645	22.7936
1002.54	8.5509
1005.43	5.12494
1008.32	12.5385
1011.22	5.57312
1014.11	5.53546
1017	2.83786
1019.89	9.45465
1022.79	3.16986
1025.68	11.0714
1028.57	21.2299
1031.46	14.0806
1034.36	24.2573
1037.25	13.6418
1040.14	31.2491
1043.04	18.8692
1045.93	23.3863
1048.82	23.5643
1051.71	14.006
1054.61	18.1625
1057.5	22.3966
1060.39	19.4972
1063.29	19.9131
1066.18	20.4367
1069.07	17.7058
1071.96	29.5155
1074.86	24.2518
1077.75	11.644
1080.64	28.4555
1083.53	26.5588
1086.43	4.29144
1089.32	16.589
1092.21	15.842
1095.1	18.3807
1098	37.8844
1100.89	29.1858
1103.78	22.8008
1106.67	9.76337
1109.57	25.6219
1112.46	10.3913
1115.35	28.3242
1118.25	2.58765
1121.14	11.8951
1124.03	28.5401
1126.92	30.1837
1129.82	39.0964
1132.71	53.8187
1135.6	57.2934
1138.49	54.3215
1141.39	67.445
1144.28	59.3352
1147.17	32.1301
1150.07	44.0996
1152.96	24.9393
1155.85	20.4966
1158.74	21.0693
1161.64	21.4684
1164.53	16.4901
1167.42	0.364685
1170.32	24.3478
1173.21	13.1919
1176.1	5.01378
1178.99	18.2312
1181.88	22.06
1184.78	6.35002
1187.67	9.20244
1190.56	10.424
1193.46	3.59616
1196.35	21.5481
1199.24	32.9453
1202.13	36.1773
1205.03	27.2274
1207.92	22.8642
1210.81	17.853
1213.7	7.33403
1216.6	32.4199
1219.49	22.7201
1222.38	19.8928
1225.28	6.92517
1228.17	23.9429
1231.06	19.636
1233.95	18.2702
1236.85	12.1877
1239.74	6.23164
1242.63	16.7677
1245.53	25.1945
1248.42	7.31262
1251.31	10.7797
1254.2	7.03975
1257.1	0.536514
1259.99	21.9373
1262.88	0.513351
1265.77	8.63471
1268.67	22.2492
1271.56	9.99635
1274.45	21.8213
1277.35	10.5615
1280.24	5.96027
1283.13	14.2003
1286.02	7.03114
