Measurement: Raman, 785 nm, unoriented, Raman Data Processed
Mineral: Cyanotrichite
Rruff sample: R070405
Ideal chemistry: Cu^2+^_4_Al_2_S^6+^O_4_(OH)_12_2H_2_O
Locality: Springbok mine, Okiep Copper District, Namaqualand, Northern Cape Province, South Africa
Source: Michael Scott
Description: Matted aggregates of sky blue fibers
Raman shift (cm-1)	intensity
148.018	0
150.911	16.3657
153.803	4.232
156.696	16.3057
159.589	5.90699
162.481	35.0402
165.374	3.75344
168.267	19.5893
171.16	18.2823
174.052	35.6095
176.945	15.5195
179.838	31.2954
182.73	16.2232
185.623	17.431
188.516	22.053
191.408	20.1335
194.301	9.24407
197.194	15.8586
200.087	28.9162
202.979	17.9384
205.872	13.8199
208.765	23.2802
211.657	8.92032
214.55	34.3435
217.443	12.526
220.335	44.7664
223.228	32.2784
226.121	42.8574
229.013	59.6101
231.906	49.1551
234.799	42.0942
237.692	45.1648
240.584	16.9814
243.477	22.3735
246.37	4.36783
249.262	12.5344
252.155	1.73941
255.048	19.8658
257.941	20.1441
260.833	19.2815
263.726	42.3842
266.619	37.7063
269.511	51.9969
272.404	39.0833
275.297	46.7632
278.19	31.8942
281.082	37.581
283.975	28.6224
286.868	16.2818
289.76	24.477
292.653	8.75006
295.546	1.23811
298.438	20.7656
301.331	3.23395
304.224	23.5103
307.116	14.827
310.009	12.2452
312.902	18.8118
315.795	12.2696
318.687	7.67478
321.58	9.09705
324.473	19.1837
327.365	6.05242
330.258	15.3543
333.151	12.0105
336.043	20.4724
338.936	6.33089
341.829	22.3612
344.721	15.3978
347.614	13.1634
350.507	12.9037
353.4	29.5751
356.292	22.1916
359.185	11.3016
362.078	31.318
364.97	17.696
367.863	23.7592
370.756	1.37199
373.649	15.8808
376.541	17.3274
379.434	27.8141
382.327	5.47647
385.219	11.7275
388.112	6.82422
391.005	0.994736
393.897	16.9661
396.79	17.0111
399.683	8.62202
402.575	3.6195
405.468	4.02952
408.361	3.3926
411.254	5.72526
414.146	4.39698
417.039	2.45556
419.932	14.6351
422.824	18.8693
425.717	36.464
428.61	30.3144
431.502	57.6187
434.395	57.0294
437.288	63.5581
440.181	82.847
443.073	63.0409
445.966	46.2273
448.859	36.2071
451.751	41.9905
454.644	33.7045
457.537	6.61363
460.43	19.8192
463.322	1.36926
466.215	2.81282
469.108	1.01376
472	2.2858
474.893	7.25186
477.786	6.40918
480.678	21.195
483.571	17.6975
486.464	18.0307
489.356	37.887
492.249	34.8944
495.142	42.9694
498.035	35.5699
500.927	33.4643
503.82	67.2186
506.713	61.2317
509.605	85.0938
512.498	77.3065
515.391	108.759
518.284	121.744
521.176	112.109
524.069	141.542
526.962	140.428
529.854	115.365
532.747	109.053
535.64	67.5624
538.533	53.1354
541.425	50.6046
544.318	26.488
547.211	27.4382
550.103	28.5463
552.996	9.22938
555.889	12.2335
558.781	7.78755
561.674	5.62727
564.567	5.96461
567.459	9.54589
570.352	0.519455
573.245	4.77522
576.138	18.7165
579.03	22.976
581.923	37.0272
584.816	33.8713
587.708	61.5356
590.601	73.7613
593.494	42.6562
596.386	53.5874
599.279	43.3435
602.172	33.5094
605.064	46.3465
607.957	32.7005
610.85	50.4372
613.743	49.9511
616.635	29.999
619.528	33.7155
622.421	18.7882
625.313	14.1992
628.206	18.4909
631.099	18.1972
633.991	31.4251
636.884	23.8963
639.777	38.9299
642.67	2.30298
645.562	2.12755
648.455	10.3712
651.348	18.4328
654.24	8.90215
657.133	28.4635
660.026	17.9242
662.918	10.6243
665.811	7.99636
668.704	30.5558
671.597	19.2676
674.489	10.2059
677.382	34.2815
680.275	24.2804
683.167	28.6681
686.06	5.31471
688.953	27.0694
691.846	17.8467
694.738	1.74237
697.631	3.37283
700.524	38.6957
703.416	23.2179
706.309	19.4109
709.202	7.67123
712.094	16.5486
714.987	14.0937
717.88	18.8184
720.773	11.7802
723.665	32.0869
726.558	28.0613
729.451	2.73127
732.343	8.4407
735.236	15.0633
738.129	21.0194
741.021	17.8641
743.914	10.2158
746.807	8.38228
749.699	5.7026
752.592	4.96934
755.485	14.3667
758.378	25.1752
761.27	15.6756
764.163	4.15444
767.056	15.3605
769.948	28.4032
772.841	23.8226
775.734	16.4638
778.626	13.5639
781.519	9.10664
784.412	13.951
787.305	8.74365
790.197	19.9742
793.09	8.82922
795.983	18.5869
798.875	25.4428
801.768	17.515
804.661	12.9386
807.553	5.13699
810.446	26.6616
813.339	12.0807
816.232	8.54068
819.124	9.00365
822.017	16.4603
824.91	15.8116
827.802	18.5109
830.695	3.67339
833.588	11.6878
836.481	23.1654
839.373	2.17116
842.266	33.5171
845.159	12.1538
848.051	25.2115
850.944	20.5201
853.837	20.1748
856.729	17.5183
859.622	45.9024
862.515	15.3655
865.408	29.1282
868.3	19.8068
871.193	10.1252
874.086	28.6622
876.978	5.86061
879.871	36.9989
882.764	36.6325
885.656	20.8447
888.549	20.793
891.442	36.8903
894.335	7.77151
897.227	17.7526
900.12	21.1366
903.013	2.80899
905.905	3.23805
908.798	17.9024
911.691	23.4692
914.583	32.1703
917.476	22.2424
920.369	19.2892
923.261	20.0581
926.154	1.00049
929.047	5.9495
931.94	20.2497
934.832	3.80875
937.725	38.0829
940.618	6.35826
943.51	16.3627
946.403	2.508
949.296	20.6056
952.188	35.9711
955.081	36.3826
957.974	54.9142
960.867	66.1712
963.759	99.5409
966.652	120.324
969.545	177.235
972.437	219.127
975.33	259.825
978.223	248.484
981.115	146.163
984.008	74.6441
986.901	56.4432
989.794	36.0155
992.686	37.1881
995.579	50.2627
998.472	10.1094
1001.36	1.47009
1004.26	25.9771
1007.15	9.24783
1010.04	8.26891
1012.93	23.7248
1015.83	3.33635
1018.72	13.7641
1021.61	10.3207
1024.51	3.00911
1027.4	1.33431
1030.29	28.3926
1033.18	10.8324
1036.08	26.0776
1038.97	17.6493
1041.86	23.1336
1044.76	1.65861
1047.65	31.957
1050.54	7.5254
1053.43	10.5892
1056.33	25.7609
1059.22	15.9156
1062.11	19.499
1065	1.99435
1067.9	17.8338
1070.79	2.95485
1073.68	25.3786
1076.58	15.1482
1079.47	2.23743
1082.36	20.3082
1085.25	19.0488
1088.14	28.8631
1091.04	0.859375
1093.93	28.1052
1096.82	38.2621
1099.72	6.00028
1102.61	14.997
1105.5	32.6613
1108.39	37.0902
1111.29	21.9199
1114.18	7.74697
1117.07	18.5261
1119.96	17.3218
1122.86	10.888
1125.75	5.16726
1128.64	22.3607
1131.54	29.5534
1134.43	38.9705
1137.32	1.08787
1140.21	16.331
1143.11	22.826
1146	19.1581
1148.89	24.9853
1151.79	25.0788
1154.68	16.4813
1157.57	8.39439
1160.46	16.3715
1163.36	15.1103
1166.25	9.22905
1169.14	9.40337
1172.03	14.5712
1174.93	14.775
1177.82	16.7475
1180.71	5.29656
1183.6	15.0651
1186.5	8.38668
1189.39	1.19224
1192.28	19.9585
1195.17	26.0238
1198.07	10.9993
1200.96	10.003
1203.85	2.34834
1206.75	7.21347
1209.64	20.7241
1212.53	0.779736
1215.42	6.07824
1218.32	0.291557
1221.21	17.5454
1224.1	3.49985
1226.99	10.423
