Measurement: Raman, 785 nm, unoriented, Raman Data Processed
Mineral: Cyanochroite
Rruff sample: R061035
Ideal chemistry: K_2_Cu^2+^(S^6+^O_4_)_2_6H_2_O
Locality: Tolbachik Volcano, Main Fracture, N. Breakthrough, Kamchatka, Russia
Source: Michael Scott
Description: Blue-green grainy crust
Raman shift (cm-1)	intensity
181.31	0
184.203	0.375122
187.096	10.7577
189.989	16.2201
192.881	23.4695
195.774	58.979
198.667	51.873
201.559	44.2332
204.452	61.0841
207.345	30.6868
210.238	29.1615
213.13	33.6726
216.023	61.3257
218.916	60.4716
221.808	98.074
224.701	72.8317
227.594	36.7561
230.486	36.9158
233.379	23.7191
236.272	45.7333
239.164	58.427
242.057	28.9369
244.95	21.3344
247.843	33.6912
250.735	46.926
253.628	19.1916
256.521	51.908
259.413	50.0326
262.306	23.7862
265.199	30.493
268.091	26.2012
270.984	52.2388
273.877	20.4368
276.769	24.6072
279.662	71.125
282.555	55.4031
285.448	23.8414
288.34	33.0182
291.233	48.6013
294.126	9.74841
297.018	3.33435
299.911	16.0928
302.804	11.2534
305.697	38.157
308.589	61.3721
311.482	34.5901
314.375	15.3909
317.267	19.0039
320.16	4.56494
323.053	25.5427
325.945	31.3743
328.838	38.4092
331.731	16.1743
334.623	14.0396
337.516	10.8484
340.409	5.71729
343.302	8.62109
346.194	54.158
349.087	48.0772
351.98	42.9363
354.872	54.5918
357.765	28.3574
360.658	64.5054
363.55	51.592
366.443	0.596191
369.336	31.4778
372.229	9.91235
375.121	37.7839
378.014	22.8088
380.907	31.2456
383.799	60.9849
386.692	2.62109
389.585	16.4644
392.477	33.8667
395.37	7.92871
398.263	33.6038
401.156	42.2483
404.048	19.7393
406.941	0.857666
409.834	21.844
412.726	5.05884
415.619	28.8484
418.512	33.2534
421.404	49.6128
424.297	41.5293
427.19	14.5627
430.082	32.5115
432.975	45.4868
435.868	82.4548
438.761	119.356
441.653	136.939
444.546	143.325
447.439	137.718
450.331	151.185
453.224	185.739
456.117	74.26
459.01	71.6231
461.902	91.0837
464.795	66.1155
467.688	65.939
470.58	44.7693
473.473	50.6133
476.366	67.2996
479.258	58.8748
482.151	38.9656
485.044	75.7754
487.937	81.3149
490.829	82.8699
493.722	77.6572
496.615	66.2423
499.507	50.7297
502.4	33.9054
505.293	1.51001
508.185	41.3062
511.078	41.042
513.971	46.2242
516.864	62.1883
519.756	3.43994
522.649	48.2412
525.542	58.5106
528.434	28.2297
531.327	20.2926
534.22	13.3226
537.112	28.9293
540.005	29.4678
542.898	18.5745
545.79	21.4811
548.683	1.54394
551.576	42.3379
554.469	10.6067
557.361	32.4721
560.254	22.9259
563.147	33.7479
566.039	16.0727
568.932	10.8538
571.825	9.49329
574.717	2.48669
577.61	36.8105
580.503	33.3563
583.395	47.6686
586.288	19.0919
589.181	12.2034
592.074	40.5253
594.966	37.953
597.859	60.0346
600.752	61.7488
603.644	64.8881
606.537	86.884
609.43	100.244
612.322	80.1372
615.215	113.706
618.108	129.12
621.001	123.069
623.893	126.29
626.786	111.041
629.679	85.7738
632.571	53.6187
635.464	42.8347
638.357	41.0902
641.25	60.4851
644.142	68.7383
647.035	75.1967
649.928	50.364
652.82	39.4804
655.713	38.0817
658.606	33.5222
661.498	21.7266
664.391	31.0922
667.284	27.4751
670.177	23.4449
673.069	5.34692
675.962	19.6197
678.855	39.5709
681.747	24.3551
684.64	13.2421
687.533	39.8466
690.425	39.2694
693.318	29.3783
696.211	34.0527
699.104	26.2719
701.996	21.4796
704.889	3.22022
707.782	1.8092
710.674	2.34277
713.567	9.93469
716.46	35.6865
719.352	22.8232
722.245	11.8431
725.138	24.8391
728.03	21.697
730.923	9.88037
733.816	37.1536
736.709	58.0925
739.601	39.544
742.494	49.8121
745.387	13.9387
748.279	11.3551
751.172	41.5226
754.065	31.0698
756.957	13.8785
759.85	20.9136
762.743	1.63452
765.635	27.4888
768.528	7.58508
771.421	30.5034
774.314	27.4601
777.206	12.8208
780.099	28.354
782.992	17.2457
785.884	36.5845
788.777	42.6733
791.67	9.83728
794.562	31.478
797.455	6.98035
800.348	30.166
803.241	54.5889
806.133	33.6676
809.026	41.7123
811.919	50.3489
814.811	41.5685
817.704	45.0193
820.597	39.6116
823.49	56.1802
826.382	36.7653
829.275	21.636
832.168	17.9847
835.06	60.21
837.953	21.5435
840.846	45.7755
843.738	8.79517
846.631	10.4021
849.524	27.0698
852.416	21.8241
855.309	12.1289
858.202	1.20764
861.095	36.0821
863.987	13.9712
866.88	19.7529
869.773	35.8261
872.665	9.24194
875.558	38.1637
878.451	41.2343
881.343	23.433
884.236	44.078
887.129	46.4708
890.021	50.5668
892.914	5.20068
895.807	12.1558
898.7	56.9913
901.592	52.1089
904.485	28.4911
907.378	30.376
910.27	35.4558
913.163	34.7963
916.056	13.8099
918.948	9.58154
921.841	11.9137
924.734	14.1696
927.627	16.7429
930.519	33.7527
933.412	7.43909
936.305	22.0518
939.197	21.0404
942.09	22.1182
944.983	20.9014
947.875	1.15076
950.768	13.5542
953.661	32.3131
956.554	23.7534
959.446	48.0931
962.339	37.335
965.232	96.7709
968.124	93.3743
971.017	170.45
973.91	206.966
976.803	262.94
979.695	274.296
982.588	298.98
985.481	349.381
988.373	504.204
991.266	566.323
994.159	423.754
997.051	257.029
999.944	209.177
1002.84	181.359
1005.73	115.207
1008.62	76.684
1011.51	43.0715
1014.41	20.7333
1017.3	53.6732
1020.19	9.33508
1023.09	5.88782
1025.98	5.55115
1028.87	15.0675
1031.76	41.5647
1034.66	18.4629
1037.55	45.7758
1040.44	57.1909
1043.34	97.3663
1046.23	95.5028
1049.12	111.04
1052.01	107.069
1054.9	85.5586
1057.8	45.6118
1060.69	19.6694
1063.58	2.55981
1066.48	4.7052
1069.37	1.73462
1072.26	10.7142
1075.15	5.65649
1078.05	6.60791
1080.94	21.9697
1083.83	4.11182
1086.72	10.7754
1089.62	9.24512
1092.51	4.28406
1095.4	6.67285
1098.3	18.7522
1101.19	8.84692
1104.08	17.6705
1106.97	11.2767
1109.87	2.03357
1112.76	21.8245
1115.65	35.6718
1118.55	13.4507
1121.44	17.4946
1124.33	40.3906
1127.22	33.4926
1130.12	39.352
1133.01	25.3682
1135.9	29.6304
1138.79	13.2482
1141.69	13.3859
1144.58	8.87622
1147.47	19.1185
1150.36	13.8661
1153.26	10.5858
1156.15	15.3377
1159.04	33.6993
1161.93	6.03748
1164.83	33.6908
1167.72	44.894
1170.61	30.2229
1173.51	23.9938
1176.4	28.9793
1179.29	19.8579
1182.18	51.8113
1185.08	34.4315
1187.97	37.5388
1190.86	29.9717
1193.76	34.8221
1196.65	27.9694
1199.54	62.928
1202.43	57.2133
1205.33	36.277
1208.22	22.1123
1211.11	44.59
1214	38.1655
1216.9	48.7872
1219.79	18.0164
1222.68	21.1572
1225.58	23.0476
1228.47	33.6256
1231.36	9.59119
1234.25	13.5341
1237.14	3.87952
1240.04	9.6582
1242.93	6.04394
1245.82	21.2795
1248.72	0.625854
1251.61	21.8584
1254.5	19.1366
1257.39	33.4164
1260.29	5.93896
