Measurement: Raman, 532 nm, unoriented, Raman Data Processed
Mineral: Cyanotrichite
Rruff sample: R070405
Ideal chemistry: Cu^2+^_4_Al_2_S^6+^O_4_(OH)_12_2H_2_O
Locality: Springbok mine, Okiep Copper District, Namaqualand, Northern Cape Province, South Africa
Source: Michael Scott
Description: Matted aggregates of sky blue fibers
Raman shift (cm-1)	intensity
167.5	0
170.393	22.8027
173.286	0.80957
176.178	61.081
179.071	85.2202
181.964	55.5254
184.856	48.6794
187.749	85.2649
190.642	141.451
193.535	103.254
196.427	136.83
199.32	116.142
202.213	135.929
205.105	118.222
207.998	131.253
210.891	127.171
213.783	116.671
216.676	208.54
219.569	233.031
222.462	309.536
225.354	360.893
228.247	377.594
231.14	455.643
234.032	412.162
236.925	350.613
239.818	312.256
242.71	247.469
245.603	182.323
248.496	154.841
251.388	149.453
254.281	151.065
257.174	198.951
260.067	181.525
262.959	223.508
265.852	264.717
268.745	315.009
271.637	368.861
274.53	355.633
277.423	352
280.315	243.43
283.208	187.173
286.101	117.734
288.994	68.3398
291.886	57.0825
294.779	16.6936
297.672	30.5164
300.564	18.2127
303.457	8.31128
306.35	51.8369
309.243	6.15503
312.135	7.11157
315.028	18.9485
317.921	49.0601
320.813	55.9373
323.706	66.3855
326.599	62.8816
329.491	44.6421
332.384	70.7104
335.277	22.3103
338.17	70.9438
341.062	69.2368
343.955	75.7478
346.848	66.2842
349.74	96.23
352.633	80.0456
355.526	79.0015
358.418	64.0508
361.311	71.8557
364.204	41.3643
367.097	42.3982
369.989	29.6939
372.882	57.3376
375.775	23.0159
378.667	67.9446
381.56	8.51758
384.453	8.01929
387.346	14.1235
390.238	1.61353
393.131	13.6443
396.024	16.5347
398.916	19.1199
401.809	4.62036
404.702	35.551
407.594	16.481
410.487	25.8125
413.38	24.2307
416.272	26.3711
419.165	85.7178
422.058	138.716
424.951	160.955
427.843	215.671
430.736	200.475
433.629	325.633
436.521	347.279
439.414	430.707
442.307	441.056
445.2	391.676
448.092	405.689
450.985	350.507
453.878	262.118
456.77	157.953
459.663	167.669
462.556	62.6086
465.448	35.8059
468.341	45.5681
471.234	81.8828
474.127	127.294
477.019	213.998
479.912	198.335
482.805	314.641
485.697	291.389
488.59	377.734
491.483	430.755
494.375	480.482
497.268	507.281
500.161	545.517
503.053	735.013
505.946	784.696
508.839	977.256
511.732	1141.03
514.624	1289.23
517.517	1376.9
520.41	1535.2
523.302	1536.43
526.195	1460.74
529.088	1329.41
531.981	1161.54
534.873	961.905
537.766	682.291
540.659	538.932
543.551	326.628
546.444	202.705
549.337	94.1553
552.229	82.5825
555.122	47.5122
558.015	18.7642
560.908	13.4038
563.8	41.1733
566.693	5.26904
569.586	68.9639
572.478	21.7646
575.371	88.3618
578.264	102.548
581.156	233.099
584.049	284.196
586.942	313.662
589.835	362.771
592.727	376.491
595.62	281.589
598.513	230.481
601.405	216.959
604.298	257.526
607.191	209.959
610.083	238.297
612.976	192.517
615.869	138.574
618.762	118.802
621.654	119.761
624.547	61.4644
627.44	64.5147
630.332	54.7202
633.225	55.1675
636.118	53.228
639.01	0.438965
641.903	31.8638
644.796	9.5957
647.689	48.6611
650.581	16.3857
653.474	11.9815
656.367	12.6367
659.259	24.2988
662.152	7.26172
665.045	19.2983
667.938	14.7568
670.83	65.1626
673.723	56.3081
676.616	37.5005
679.508	4.41455
682.401	47.7534
685.294	51.7705
688.186	52.938
691.079	22.4688
693.972	28.9082
696.865	57.749
699.757	7.74756
702.65	30.9482
705.543	18.1958
708.435	22.8247
711.328	36.3774
714.221	45.2007
717.113	28.1968
720.006	34.4702
722.899	11.7261
725.792	37.3408
728.684	45.2095
731.577	56.2046
734.47	92.7432
737.362	59.9648
740.255	48.3701
743.148	18.8355
746.04	35.418
748.933	53.2969
751.826	49.4165
754.719	74.0659
757.611	51.481
760.504	80.3999
763.397	9.50488
766.289	44.0454
769.182	111.911
772.075	48.8159
774.967	77.0381
777.86	21.5391
780.753	44.7051
783.646	64.1411
786.538	33.5459
789.431	21.2944
792.324	71.3013
795.216	56.4473
798.109	13.4736
801.002	27.9023
803.894	0.398926
806.787	41.8882
809.68	68.5752
812.573	53.6274
815.465	62.876
818.358	25.1792
821.251	20.3237
824.143	29.5122
827.036	51.4849
829.929	28.4229
832.822	49.0981
835.714	78.5864
838.607	24.5327
841.5	48.5879
844.392	11.2461
847.285	33.2632
850.178	84.542
853.07	11.4565
855.963	70.7515
858.856	52.9668
861.749	2.54248
864.641	88.6001
867.534	13.0205
870.427	20.0693
873.319	55.3403
876.212	42.2373
879.105	61.3169
881.997	4.09229
884.89	39.6626
887.783	21.5508
890.676	46.4629
893.568	43.4648
896.461	10.9595
899.354	35.5928
902.246	11.2534
905.139	24.7105
908.032	29.9199
910.924	20.5088
913.817	0.101563
916.71	29.6636
919.602	73.6382
922.495	35.3027
925.388	5.71924
928.281	26.5806
931.173	83.1875
934.066	65.7959
936.959	7.4585
939.851	76.853
942.744	15.6338
945.637	61.7788
948.529	82.2861
951.422	136.298
954.315	155.495
957.208	246.597
960.1	400.623
962.993	599.689
965.886	921.295
968.778	1466.52
971.671	1824.25
974.564	1961.6
977.457	1744.74
980.349	1085.74
983.242	525.013
986.135	327.768
989.027	217.998
991.92	143.978
994.813	121.102
997.705	68.9268
1000.6	49.3843
1003.49	30.2266
1006.38	13.958
1009.28	64.2769
1012.17	8.36572
1015.06	14.2393
1017.95	35.0649
1020.85	72.3276
1023.74	39.7148
1026.63	35.2378
1029.53	30.1309
1032.42	54.7163
1035.31	3.47363
1038.2	82.4853
1041.1	44.4409
1043.99	75.5044
1046.88	41.0332
1049.77	113.472
1052.67	109.007
1055.56	216.769
1058.45	158.052
1061.35	114.054
1064.24	90.063
1067.13	58.9434
1070.02	52.1704
1072.92	11.5942
1075.81	20.8057
1078.7	7.38916
1081.59	30.5771
1084.49	61.2056
1087.38	61.0337
1090.27	20.4858
1093.16	56.2837
1096.06	78.5176
1098.95	39.0542
1101.84	80.5361
1104.73	52.9243
1107.63	31.2935
1110.52	8
1113.41	74.3179
1116.31	18.9663
1119.2	62.1807
1122.09	48.5698
1124.98	82.2622
1127.88	111.201
1130.77	96.0259
1133.66	102.34
1136.56	117.928
1139.45	101.108
1142.34	85.3325
1145.23	71.8975
1148.13	87.4297
1151.02	92.583
1153.91	36.582
1156.8	61.6367
1159.7	85.5542
1162.59	15.3706
1165.48	32.4731
1168.38	81.6646
1171.27	3.16846
1174.16	45.9014
1177.05	68.9399
1179.95	53.2891
1182.84	34.4477
1185.73	35.2993
1188.62	33.437
1191.52	31.8042
1194.41	40.1558
1197.3	22.3438
1200.19	25.7446
1203.09	45.061
1205.98	18.1084
1208.87	60.7432
1211.77	41.7202
1214.66	57.8599
1217.55	40
1220.44	50.7461
1223.34	57.1182
1226.23	11.0137
1229.12	83.25
1232.01	30.8852
1234.91	28.1396
1237.8	50.2808
1240.69	58.3272
1243.59	54.3794
1246.48	7.66113
1249.37	43.0137
1252.26	25.8936
1255.16	71.2485
1258.05	49.3789
1260.94	50.3789
1263.83	47.8184
1266.73	54.7417
1269.62	44.9302
1272.51	41.0166
1275.4	37.5093
1278.3	48.7109
1281.19	11.0928
1284.08	0.130859
1286.98	11.2598
1289.87	13.3667
1292.76	17.749
1295.65	0
