Measurement: Raman, 532 nm, unoriented, Raman Data Processed
Mineral: Dachiardite-Ca
Rruff sample: R061125
Ideal chemistry: Ca_2_(Si_20_Al_4_)O_48_13H_2_O
Locality: San Piero in Campo, Isle of Elba, Livorno, Toscana, Italy
Source: Michael Scott
Description: Colorless cyclical eightling twinned crystals with quartz, tourmaline, and eucryptite
Measured chemistry: (Ca_2.80_Na_0.55_K_0.08_)_Σ=3.43_(Si_17.77_Al_6.23_)O_48_·12H_2_O; H_2_O estimated by difference
Raman shift (cm-1)	intensity
175.252	0
178.144	87.7617
181.037	118.984
183.93	166.07
186.822	271.258
189.715	476.656
192.608	473.242
195.501	445.715
198.393	572.258
201.286	513.344
204.179	303.535
207.071	345.176
209.964	460.762
212.857	249.66
215.75	215.066
218.642	209.699
221.535	188.496
224.428	190.273
227.32	174.336
230.213	118.207
233.106	120.812
235.999	193.25
238.891	100.906
241.784	170.289
244.677	232.508
247.569	213.445
250.462	238.418
253.355	49.3594
256.247	4.46094
259.14	169.269
262.033	35.0508
264.925	190.812
267.818	156.199
270.711	129.062
273.604	148.391
276.496	207.055
279.389	87.2578
282.282	219.996
285.174	174.457
288.067	252.465
290.96	191.516
293.853	223.926
296.745	121.383
299.638	270.57
302.531	157.672
305.423	44.1211
308.316	30.0078
311.209	113.754
314.101	50.3906
316.994	59.9141
319.887	70.8789
322.779	27.8516
325.672	34.4219
328.565	94.1211
331.458	72.9414
334.35	125.812
337.243	26.3477
340.136	184.031
343.028	167.371
345.921	157.742
348.814	284.316
351.707	416.715
354.599	464.777
357.492	522.356
360.385	619.898
363.277	855.57
366.17	993.777
369.063	1080.36
371.955	1163.27
374.848	1548.3
377.741	1810.47
380.634	2053.48
383.526	2343.89
386.419	2722.86
389.312	3173.73
392.204	3576.1
395.097	4181.7
397.99	4643.12
400.882	4822.76
403.775	5188.51
406.668	5542.77
409.56	5261.67
412.453	5529.66
415.346	5523.27
418.239	5221.43
421.131	5299.74
424.024	5052.41
426.917	4867.48
429.81	4589.81
432.702	4182.8
435.595	3826.65
438.488	3558.63
441.38	3209.5
444.273	3012.79
447.166	2404.76
450.058	2276.53
452.951	1894.12
455.844	1621.82
458.736	1406.36
461.629	1095.3
464.522	840.246
467.415	645.742
470.307	402.242
473.2	171.766
476.093	76.2695
478.985	147.926
481.878	69.3516
484.771	76.4805
487.663	155.981
490.556	6.51172
493.449	104.867
496.342	71.2031
499.234	145.934
502.127	8.77344
505.02	242.125
507.912	306.176
510.805	283.324
513.698	345.727
516.591	278.098
519.483	464.719
522.376	392.606
525.269	412.848
528.161	123.75
531.054	203.922
533.947	259.004
536.839	357.176
539.732	306.445
542.625	192.195
545.518	216.875
548.41	158.891
551.303	196.945
554.196	45.2812
557.088	90.9062
559.981	44.8516
562.874	164.414
565.766	173.039
568.659	47.0156
571.552	74.4922
574.444	33.2891
577.337	145.016
580.23	145.484
583.123	59.1797
586.015	20.7344
588.908	71.2031
591.801	168.688
594.693	259.945
597.586	140.422
600.479	276.789
603.372	42
606.264	171.539
609.157	343.508
612.05	183.766
614.942	212.141
617.835	206.258
620.728	328.203
623.62	451.242
626.513	264.078
629.406	639.656
632.299	500.211
635.191	658.328
638.084	375.547
640.977	589.055
643.869	585.758
646.762	651.25
649.655	593.008
652.548	751.961
655.44	784.156
658.333	593.836
661.226	574.594
664.118	586.867
667.011	589.547
669.904	604.164
672.796	459.805
675.689	496
678.582	408.984
681.475	359.156
684.367	361.625
687.26	11.9531
690.153	200.578
693.045	258.156
695.938	377.109
698.831	176.844
701.723	133.469
704.616	235
707.509	335.82
710.402	20.1953
713.294	279.859
716.187	37.1406
719.08	77.3984
721.972	33.7188
724.865	206.969
727.758	52.1484
730.65	182.211
733.543	9.97656
736.436	3.20312
739.329	91.1328
742.221	296.125
745.114	209.469
748.007	39.9453
750.899	315.508
753.792	143.117
756.685	210.148
759.577	222.078
762.47	307.875
765.363	159.453
768.256	150.227
771.148	352.531
774.041	584.984
776.934	647.336
779.826	692.438
782.719	697.742
785.612	741.375
788.505	793.5
791.397	739.898
794.29	637.82
797.183	645.227
800.075	1046.43
802.968	642.789
805.861	887.938
808.753	1200.92
811.646	914.703
814.539	764.117
817.432	515.141
820.324	299.625
823.217	285.898
826.11	178.719
829.002	180.25
831.895	53.3516
834.788	73.3594
837.68	224.633
840.573	166.938
843.466	194.914
846.359	160.547
849.251	362.328
852.144	93.5547
855.037	58.1719
857.929	187.492
860.822	99.8828
863.715	119.617
866.607	275.359
869.5	395.188
872.393	404.172
875.285	166.977
878.178	112.359
881.071	102.125
883.964	129.07
886.856	258.289
889.749	145.078
892.642	284.227
895.534	372.992
898.427	258.18
901.32	261.32
904.212	161.602
907.105	325.789
909.998	287.445
912.891	266.883
915.783	350.625
918.676	121.648
921.569	338.586
924.461	94.9531
927.354	20.6094
930.247	147.586
933.139	62.7812
936.032	219.656
938.925	16.4141
941.818	152.656
944.71	23.0547
947.603	422.32
950.496	367.609
953.388	366.242
956.281	324.953
959.174	120.492
962.067	280.633
964.959	262.312
967.852	91.4844
970.745	74.375
973.637	82.1562
976.53	76.2578
979.423	144.234
982.315	265.602
985.208	243.836
988.101	278.977
990.994	151.883
993.886	209.539
996.779	306.773
999.672	125.664
1002.56	453.266
1005.46	215.195
1008.35	272.648
1011.24	262.75
1014.13	96.0078
1017.03	254.609
1019.92	307.734
1022.81	103.758
1025.71	35.3047
1028.6	103.984
1031.49	150.516
1034.38	99.3125
1037.28	91.8984
1040.17	261.047
1043.06	72.9297
1045.95	186.461
1048.85	451.195
1051.74	55.3438
1054.63	12.0938
1057.53	99.5391
1060.42	31.1562
1063.31	110.633
1066.2	234.414
1069.1	181.414
1071.99	19.4141
1074.88	143.922
1077.78	42.2656
1080.67	194.289
1083.56	165.836
1086.45	20.6484
1089.35	336.938
1092.24	157.102
1095.13	107.922
1098.02	82.7422
1100.92	10.3359
1103.81	15.4531
1106.7	373.281
1109.59	294.578
1112.49	454.398
1115.38	400.984
1118.27	274.742
1121.16	354.156
1124.06	521.641
1126.95	609.016
1129.84	608.07
1132.74	747.539
1135.63	710.977
1138.52	442.547
1141.41	585.516
1144.31	659.43
1147.2	646.789
1150.09	576.867
1152.98	724.25
1155.88	374.094
1158.77	628.422
1161.66	487.273
1164.56	326.773
1167.45	589.547
1170.34	647.523
1173.23	391.281
1176.13	508.719
1179.02	551.766
1181.91	304.344
1184.81	389.961
1187.7	484.617
1190.59	214.953
1193.48	429.508
1196.38	494.297
1199.27	183.945
1202.16	320.188
1205.05	221.016
1207.95	357.07
1210.84	125.242
1213.73	20.3906
1216.62	1.51562
1219.52	126.156
1222.41	101.547
1225.3	212.641
1228.19	20.1328
1231.09	273.023
1233.98	22.2266
1236.87	274.797
1239.77	129.656
1242.66	420.641
1245.55	185.977
1248.44	218.734
1251.34	68.7109
1254.23	418.875
1257.12	235.039
1260.02	388.586
1262.91	44.9844
1265.8	335.484
1268.69	329.875
1271.59	69.1016
1274.48	331.172
1277.37	521.688
1280.26	285.469
1283.16	25.0547
1286.05	444.695
1288.94	257.922
1291.83	125.211
1294.73	189.445
1297.62	10.5
