Measurement: Raman, 785 nm, unoriented, Raman Data Processed
Mineral: Dachiardite-Ca
Rruff sample: R061125
Ideal chemistry: Ca_2_(Si_20_Al_4_)O_48_13H_2_O
Locality: San Piero in Campo, Isle of Elba, Livorno, Toscana, Italy
Source: Michael Scott
Description: Colorless cyclical eightling twinned crystals with quartz, tourmaline, and eucryptite
Measured chemistry: (Ca_2.80_Na_0.55_K_0.08_)_Σ=3.43_(Si_17.77_Al_6.23_)O_48_·12H_2_O; H_2_O estimated by difference
Raman shift (cm-1)	intensity
206.482	0
209.375	70.3301
212.267	8.1582
215.16	40.7891
218.053	156.58
220.945	238.363
223.838	307.24
226.731	128.853
229.624	290.508
232.516	370.201
235.409	304.053
238.302	311.398
241.194	292.619
244.087	161.492
246.98	92.2266
249.872	219.199
252.765	208.342
255.658	79.4727
258.55	17.334
261.443	6.28125
264.336	2.4375
267.229	46.2754
270.121	107.383
273.014	386.394
275.907	294.426
278.799	352.576
281.692	272.344
284.585	336.137
287.478	241.941
290.37	271.863
293.263	277.051
296.156	276.688
299.048	188.578
301.941	228.398
304.834	219.352
307.726	118.414
310.619	86.8906
313.512	60.3379
316.404	6.84766
319.297	22.9453
322.19	108.713
325.083	127.102
327.975	33.9082
330.868	52.7852
333.761	51.4473
336.653	47.2656
339.546	213.924
342.439	265.053
345.332	290.457
348.224	584.25
351.117	646.867
354.01	768.844
356.902	911.494
359.795	1144.35
362.688	1397.11
365.58	1687.94
368.473	1942.21
371.366	2211.04
374.259	2361.1
377.151	2792.12
380.044	3132.03
382.937	3617.09
385.829	4089.83
388.722	4844.77
391.615	5643.33
394.507	6395.59
397.4	7182.61
400.293	7604.69
403.185	8181.8
406.078	8307.74
408.971	8474.12
411.863	8587.21
414.756	8576.74
417.649	8474.11
420.542	8107.59
423.434	7978.9
426.327	7547.89
429.22	7075.49
432.112	6646.11
435.005	6359.84
437.898	5594.78
440.791	4876.55
443.683	4280.5
446.576	3709.82
449.469	3182.01
452.361	2740.62
455.254	2302.59
458.147	1900.93
461.039	1646.43
463.932	1306.05
466.825	895.947
469.717	507.775
472.61	360.951
475.503	175.208
478.396	43.9531
481.288	186.605
484.181	120.383
487.074	97.4531
489.966	78.0039
492.859	7.24707
495.752	150.462
498.644	235.685
501.537	490.476
504.43	793.128
507.323	1092.01
510.215	1394.3
513.108	1486.75
516.001	1449.63
518.893	1263.45
521.786	960.219
524.679	905.538
527.572	652.383
530.464	567.436
533.357	435.741
536.25	417.323
539.142	294.962
542.035	177.331
544.928	158.59
547.82	79.6934
550.713	47.2773
553.606	44.7178
556.499	16.5352
559.391	32.0303
562.284	91.9228
565.177	32.4512
568.069	77.9961
570.962	66.3613
573.855	72.5391
576.747	147.735
579.64	118.965
582.533	59.5869
585.426	191.587
588.318	140.116
591.211	134.426
594.104	118.877
596.996	200.503
599.889	158.778
602.782	119.575
605.674	129.815
608.567	128.14
611.46	128.556
614.352	76.5234
617.245	123.474
620.138	90.5518
623.031	90.0928
625.923	139.482
628.816	52.6465
631.709	79.1699
634.601	17.9277
637.494	7.10547
640.387	38.4775
643.279	26.7695
646.172	4.44629
649.065	61.8779
651.958	69.8272
654.85	65.167
657.743	30.2256
660.636	21.0908
663.528	23.127
666.421	101.675
669.314	153.721
672.207	10.4453
675.099	132.154
677.992	94.7373
680.885	5.44238
683.777	5.56543
686.67	24.376
689.563	36.2315
692.455	40.25
695.348	6.89453
698.241	53.3672
701.133	6.62012
704.026	3.92969
706.919	97.4502
709.812	54.3779
712.704	44.7676
715.597	19.3418
718.49	79.7402
721.382	100.873
724.275	21.4043
727.168	102.977
730.06	110.301
732.953	111.268
735.846	124.66
738.739	209.239
741.631	182.657
744.524	171.01
747.417	136.327
750.309	235.716
753.202	325.781
756.095	338.644
758.987	454.013
761.88	455.245
764.773	513.182
767.665	633.017
770.558	764.928
773.451	936.801
776.344	1044.53
779.236	1237.35
782.129	1312.36
785.022	1472.91
787.914	1429.48
790.807	1479.07
793.7	1405.61
796.592	1403.41
799.485	1409.12
802.378	1412.54
805.271	1522.43
808.163	1635.67
811.056	1553.27
813.949	1391.78
816.841	1113.32
819.734	621.222
822.627	469.283
825.519	343.862
828.412	156.588
831.305	95.2881
834.198	1.99219
837.09	83.9639
839.983	2.90918
842.876	62.9355
845.768	52.9287
848.661	18.7344
851.554	6.43652
854.447	68.9844
857.339	17.8496
860.232	104.507
863.125	88.4522
866.017	68.6826
868.91	39.3467
871.803	43.8262
874.695	87.2285
877.588	9.08105
880.481	80.6416
883.374	62.4023
886.266	58.0869
889.159	111.082
892.052	168.545
894.944	91.1826
897.837	132.879
900.73	110.948
903.622	108.633
906.515	201.239
909.408	213.233
912.301	93.4424
915.193	195.645
918.086	118.355
920.979	71.2783
923.871	71.0557
926.764	86.6768
929.657	113.811
932.549	35.877
935.442	54.2861
938.335	84.542
941.227	88.5752
944.12	51.1045
947.013	13.0742
949.906	62.1738
952.798	62.3018
955.691	13.8857
958.584	7.08984
961.476	68.9619
964.369	11.7891
967.262	79.3301
970.154	62.0078
973.047	39.458
975.94	47.3164
978.833	25.3359
981.725	60.5264
984.618	100.44
987.511	44.1934
990.403	74.9805
993.296	99.793
996.189	68.5996
999.082	17.0508
1001.97	68.6797
1004.87	73.8877
1007.76	78.5723
1010.65	109.118
1013.54	118.239
1016.44	8.69238
1019.33	61.2598
1022.22	5.72559
1025.12	76.1357
1028.01	90.8809
1030.9	80.6777
1033.79	62.0576
1036.69	48.1885
1039.58	8.53223
1042.47	30.3555
1045.37	31.4814
1048.26	69.8311
1051.15	48.0908
1054.04	3.62305
1056.93	35.8027
1059.83	14.4815
1062.72	55.8721
1065.61	78.4648
1068.51	32.707
1071.4	22.7822
1074.29	54.167
1077.18	52.4033
1080.08	73.3115
1082.97	18.8701
1085.86	52.9961
1088.76	35.7266
1091.65	20.3105
1094.54	88.3867
1097.43	42.9551
1100.33	6.18848
1103.22	86.1162
1106.11	141.577
1109	199.436
1111.9	274.162
1114.79	347.781
1117.68	352.038
1120.58	326.737
1123.47	312.065
1126.36	403.948
1129.25	395.275
1132.15	479.099
1135.04	483.112
1137.93	489.029
1140.82	462.687
1143.72	476.747
1146.61	420.644
1149.5	419.694
1152.39	486.452
1155.29	428.062
1158.18	397.942
1161.07	376.808
1163.96	407.001
1166.86	387.231
1169.75	388.813
1172.64	376.415
1175.54	315.831
1178.43	352.896
1181.32	287.45
1184.21	228.61
1187.11	261.378
1190	256.478
1192.89	188.367
1195.79	176.373
1198.68	129.472
1201.57	123.47
1204.46	77.9893
1207.36	73.5225
1210.25	61.0371
1213.14	1.75293
1216.03	26.4346
1218.93	31.0059
1221.82	8.79785
1224.71	25.5859
1227.61	12.5596
1230.5	1.58496
1233.39	8.96973
1236.28	16.9893
1239.18	25.8818
1242.07	56.0547
1244.96	63.3364
1247.85	101.9
1250.75	88.9849
1253.64	142.224
1256.53	39.3125
1259.42	83.8862
1262.32	13.8296
1265.21	0.372559
1268.1	0.170898
