Measurement: Raman, 780 nm, unoriented, Raman Data Processed
Mineral: Dadsonite
Rruff sample: R060246
Ideal chemistry: Pb^2+^_23_Sb^3+^_25_S^2-^_60_Cl
Locality: St. Pons, Barconlette, Haute Alpes, France
Source: William W. Pinch
Description: Black fibers, resembling steel wool, known as the 4-angstrom structure
Raman shift (cm-1)	intensity
108.407	0
111.782	3.7514
115.157	1.22261
118.532	2.69672
121.907	2.28749
125.281	3.45521
128.656	9.55167
132.031	11.095
135.406	13.9378
138.781	18.7888
142.155	26.1267
145.53	27.4456
148.905	26.6743
152.28	23.6166
155.655	23.493
159.03	19.0717
162.404	18.4207
165.779	14.2575
169.154	14.4606
172.529	12.4589
175.904	9.47295
179.278	7.70746
182.653	9.07564
186.028	3.98077
189.403	3.17012
192.778	7.10996
196.153	10.0764
199.527	9.73386
202.902	12.6357
206.277	14.4954
209.652	19.8819
213.027	15.5618
216.401	14.1331
219.776	14.6349
223.151	20.5405
226.526	24.2664
229.901	25.3925
233.275	30.741
236.65	26.677
240.025	27.892
243.4	28.126
246.775	28.3771
250.15	32.1806
253.524	27.0238
256.899	26.3431
260.274	21.0092
263.649	14.5106
267.024	10.5435
270.399	9.39596
273.773	3.01466
277.148	1.11481
280.523	1.28069
283.898	0.793907
287.273	3.37472
290.647	1.97098
294.022	3.2593
297.397	13.2012
300.772	12.353
304.147	21.4077
307.522	30.0919
310.896	34.1439
314.271	38.4007
317.646	44.0132
321.021	49.2966
324.396	49.4925
327.77	49.719
331.145	48.8808
334.52	41.4111
337.895	30.9113
341.27	22.0644
344.644	13.9209
348.019	4.78552
351.394	6.02886
354.769	0.394714
358.144	3.48731
361.519	3.08328
364.893	0.881237
368.268	1.68047
371.643	1.21688
375.018	0.207989
378.393	5.28545
381.767	1.5638
385.142	3.00744
388.517	1.62695
391.892	1.23133
395.267	3.5454
398.642	5.24361
402.016	2.06121
405.391	2.93578
408.766	1.12522
412.141	1.21101
415.516	3.5746
418.89	5.69599
422.265	3.58624
425.64	1.66914
429.015	2.84826
432.39	6.60682
435.765	2.71529
439.139	5.44081
442.514	2.20644
445.889	3.33224
449.264	5.73782
452.639	1.25277
456.014	1.5264
459.388	0.16877
462.763	5.26051
466.138	1.01493
469.513	1.44595
472.887	4.89029
476.262	4.2938
479.637	2.28011
483.012	3.83606
486.387	4.19461
489.762	5.38406
493.136	3.1642
496.511	1.19687
499.886	3.34656
503.261	3.14102
506.636	1.76889
510.01	3.10814
513.385	1.94701
516.76	4.07641
520.135	1.45736
523.51	2.04045
526.885	3.1289
530.259	0.213573
533.634	1.16896
537.009	2.24552
540.384	1.27538
543.759	2.47207
547.134	3.25034
550.508	3.52579
553.883	0.510628
557.258	2.83015
560.633	2.46068
564.008	3.80156
567.382	2.57342
570.757	3.06032
574.132	2.614
577.507	2.37607
580.882	0.990925
584.256	1.63433
587.631	2.54784
591.006	3.987
594.381	2.21296
597.756	2.78097
601.131	3.34565
604.505	0.810764
607.88	0.524223
611.255	2.38997
614.63	2.7659
618.005	3.71144
621.38	4.29149
624.754	1.743
628.129	2.8826
631.504	3.00568
634.879	3.95686
638.254	1.05634
641.628	2.96165
645.003	1.12102
648.378	0.124504
651.753	2.84277
655.128	2.68336
658.503	2.05455
661.877	3.98439
665.252	0.44508
668.627	2.78401
672.002	2.88795
675.377	4.79024
678.751	5.33099
682.126	6.35546
685.501	3.71968
688.876	2.85213
692.251	3.70142
695.625	4.06361
699	2.92408
702.375	3.61876
705.75	4.46949
709.125	0.766403
712.5	3.1623
715.874	4.78793
719.249	5.60264
722.624	4.27317
725.999	4.08523
729.374	0.011772
732.749	5.597
736.123	2.76152
739.498	3.45717
742.873	3.51997
746.248	3.14651
749.623	3.41
752.997	2.03096
756.372	4.05063
759.747	1.78416
763.122	3.01497
766.497	1.26362
769.871	4.81897
773.246	1.47943
776.621	3.14791
779.996	3.77116
783.371	3.31295
786.745	0.475182
790.12	4.24382
793.495	0.315353
796.87	3.21715
800.245	2.47553
803.62	2.71266
806.994	2.26745
810.369	0.72541
813.744	3.52716
817.119	5.44527
820.494	0.993698
823.869	1.06309
827.243	1.20271
830.618	2.73835
833.993	5.909
837.368	0.694847
840.743	1.86578
844.117	1.3478
847.492	1.82963
850.867	5.20496
854.242	4.2739
857.617	4.63192
860.991	3.23608
864.366	4.26336
867.741	2.06535
871.116	0.502121
874.491	1.20704
877.866	1.65804
881.24	5.32636
884.615	4.51001
887.99	1.4266
891.365	2.18574
894.74	0.222382
898.115	0.055511
901.489	2.39111
904.864	2.30106
908.239	0.011307
911.614	4.65648
914.989	2.21712
918.363	0.337708
921.738	1.70411
925.113	2.33279
928.488	1.90088
931.863	0.238525
935.237	1.34456
938.612	4.27532
941.987	1.90285
945.362	0.361893
948.737	3.60914
952.112	1.31682
955.486	3.24667
958.861	2.41248
962.236	1.38234
965.611	3.13369
968.986	3.3496
972.361	3.93633
975.735	3.67238
979.11	2.81546
982.485	0.872421
985.86	3.19447
989.235	3.0333
992.609	1.33839
995.984	2.31994
999.359	0.547836
1002.73	2.1919
1006.11	4.24574
1009.48	1.39742
1012.86	2.9716
1016.23	1.78405
1019.61	5.03751
1022.98	3.41068
1026.36	1.28666
1029.73	2.07462
1033.11	2.96732
1036.48	2.38115
1039.86	4.82099
1043.23	1.20631
1046.61	0.080269
1049.98	0.778297
1053.36	3.09608
1056.73	3.48196
1060.11	3.0988
1063.48	3.45078
1066.86	3.7503
1070.23	4.37764
1073.61	-0.0226991
1076.98	3.90387
1080.36	2.18587
1083.73	1.72194
1087.1	1.22907
1090.48	1.15621
1093.85	0.255966
1097.23	1.68778
1100.6	2.33756
1103.98	2.23801
1107.35	2.66287
1110.73	3.09426
1114.1	3.03285
1117.48	0.157349
1120.85	4.27656
1124.23	0.184425
1127.6	0.288528
1130.98	1.93802
1134.35	1.66384
1137.73	2.7067
1141.1	1.90017
1144.48	4.83899
1147.85	3.51331
1151.23	1.45509
1154.6	1.21159
1157.97	0.92202
1161.35	0.73233
1164.72	0.739136
1168.1	4.85917
1171.47	3.59846
1174.85	2.07654
1178.22	3.84683
1181.6	6.34328
1184.97	2.20812
1188.35	4.3761
1191.72	3.06799
1195.1	3.88138
1198.47	1.66434
1201.85	3.46337
1205.22	3.61906
1208.6	3.01035
1211.97	2.98814
1215.35	3.15042
1218.72	2.15148
1222.1	3.25558
1225.47	5.49972
1228.85	2.20561
1232.22	0.89608
1235.6	5.11637
1238.97	4.95402
1242.35	0.406647
1245.72	7.31736
1249.1	3.21765
1252.47	3.96027
1255.85	0.567993
1259.22	4.24185
1262.6	3.87988
1265.97	3.45431
1269.34	3.39282
1272.72	0.531937
1276.09	1.39294
1279.47	3.32433
1282.84	2.49728
