Measurement: Raman, 780 nm, unoriented, Raman Data Processed
Mineral: Davidite-(La)
Rruff sample: R110047
Ideal chemistry: La^3+^(Y^3+^,U^4+^)Fe^3+^_2_(Ti^4+^,Fe^3+^,Cr^3+^,V^5+^)_18_(O,OH,F)_38_
Locality: Billeroo Davidite Prospect, Plumbago Station, Olary Province, South Australia, Australia
Source: Donald M Doell
Description: Black worn octahedron (metamict)
Measured chemistry: (La_0.45_Ce_0.39_Gd_0.05_Nd_0.02_Pr_0.01_Ca_0.05_)_∑=0.98_(Y_0.37_Yb_0.04_Er_0.04_Dy_0.03_Ho_0.01_Lu_0.01_U_0.17_Sc_0.09_Th_0.02_)_∑=0.78_Fe_2_(Ti_11.62_Fe_5.00_Cr_0.20_Al_0.20_Mn_0.12_Pb_0.05_Nb_0.05_Zr_0.05_Zn_0.02_Mg_0.01_)_∑=17.31_(O_36.92_OH_1.
Raman shift (cm-1)	intensity
189.955	1.19092
192.848	16.1782
195.741	22.7559
198.633	34.9546
201.526	41.8227
204.419	77.9756
207.311	94.751
210.204	61.1543
213.097	46.8369
215.99	40.5576
218.882	26.0869
221.775	33.5083
224.668	15.3594
227.56	11.064
230.453	9.34863
233.346	4.72559
236.238	6.27832
239.131	30.811
242.024	2.40918
244.917	15.2563
247.809	35.7715
250.702	31.9702
253.595	25.9219
256.487	14.7944
259.38	31.2539
262.273	60.9946
265.166	57.0332
268.058	61.561
270.951	60.771
273.844	81.3662
276.736	85.8023
279.629	98.7124
282.522	93.085
285.414	88.3711
288.307	99.3648
291.2	95.8916
294.092	85.2246
296.985	65.7637
299.878	64.6152
302.771	49.1372
305.663	36.7134
308.556	49.4526
311.449	34.8252
314.341	21.5884
317.234	37.7202
320.127	19.6904
323.019	23.415
325.912	20.7788
328.805	24.981
331.698	2.92383
334.59	7.03906
337.483	27.1582
340.376	11.7144
343.268	8.0459
346.161	7.56543
349.054	22.1289
351.947	4.59326
354.839	11.8721
357.732	24.9976
360.625	24.2402
363.517	30.5459
366.41	26.8511
369.303	51.1777
372.195	57.2637
375.088	50.9609
377.981	56.5737
380.873	75.4399
383.766	82.5518
386.659	98.4243
389.552	94.6499
392.444	107.422
395.337	105.992
398.23	83.2146
401.122	111.564
404.015	81.6287
406.908	97.8569
409.8	62.8694
412.693	52.3623
415.586	54.0928
418.479	45.5474
421.371	64.0596
424.264	47.4185
427.157	36.5903
430.049	20.0252
432.942	41.655
435.835	21.6675
438.728	6.87256
441.62	3.85278
444.513	4.83838
447.406	13.6079
450.298	5.74268
453.191	10.655
456.084	6.40552
458.976	2.09155
461.869	6.7251
464.762	12.1113
467.654	3.25073
470.547	1.55103
473.44	7.08276
476.333	0.415771
479.225	10.2769
482.118	23.2961
485.011	22.7905
487.903	26.9221
490.796	28.3931
493.689	30.4841
496.582	58.6416
499.474	50.1543
502.367	53.7468
505.26	75.0598
508.152	77.2966
511.045	72.6453
513.938	63.1397
516.83	86.6228
519.723	51.8911
522.616	39.1484
525.509	22.0762
528.401	35.1394
531.294	26.6186
534.187	19.9531
537.079	15.5115
539.972	16.4294
542.865	1.08667
545.757	4.02393
548.65	0.369629
551.543	1.96631
554.436	8.85132
557.328	15.2141
560.221	8.28149
563.114	5.66675
566.006	9.55615
568.899	9.09106
571.792	0.653076
574.684	11.7922
577.577	7.5415
580.47	13.8347
583.362	15.7798
586.255	26.8059
589.148	19.8555
592.041	28.3018
594.933	26.5225
597.826	42.9243
600.719	32.023
603.611	55.6462
606.504	59.7366
609.397	65.4343
612.29	66.4797
615.182	80.196
618.075	89.1257
620.968	92.6321
623.86	105.15
626.753	112.279
629.646	122.349
632.538	130.578
635.431	145.794
638.324	132.189
641.217	129.971
644.109	103.199
647.002	102.724
649.895	115.281
652.787	88.1585
655.68	84.7812
658.573	66.5598
661.466	56.0718
664.358	54.0576
667.251	39.4644
670.144	37.4258
673.036	31.7019
675.929	23.8506
678.822	32.9678
681.714	24.2695
684.607	26.1665
687.5	19.7935
690.393	32.083
693.285	8.31226
696.178	0.497803
699.071	2.59692
701.963	1.89893
704.856	4.95898
707.749	10.9163
710.641	0.041992
713.534	5.79468
716.427	0.262695
719.319	7.25659
722.212	4.28223
725.105	3.32935
727.998	8.21997
730.89	19.0676
733.783	15.21
736.676	0.803467
739.568	7.00781
742.461	18.0989
745.354	10.2534
748.246	19.988
751.139	27.7949
754.032	3.89893
756.925	3.10474
759.817	0.566162
762.71	7.89551
765.603	9.04468
768.495	22.501
771.388	14.4451
774.281	4.2019
777.173	17.894
780.066	22.2876
782.959	13.4578
785.852	4.96265
788.744	4.62036
791.637	59.665
794.53	37.8965
797.422	16.8018
800.315	17.9761
803.208	8.55396
806.101	29.2195
808.993	27.4036
811.886	38.9683
814.779	14.7283
817.671	25.3543
820.564	41.7168
823.457	31.4568
826.349	14.1365
829.242	14.4824
832.135	25.6248
835.028	5.85181
837.92	26.6948
840.813	15.9978
843.706	22.6606
846.598	11.457
849.491	10.769
852.384	19.2888
855.276	9.4939
858.169	12.5898
861.062	5.09863
863.955	32.3372
866.847	28.3171
869.74	11.7322
872.633	11.51
875.525	17.9446
878.418	11.8169
881.311	7.68872
884.203	6.11548
887.096	37.6089
889.989	1.97852
892.881	13.2012
895.774	5.60059
898.667	5.32837
901.56	10.9463
904.452	3.27881
907.345	12.3638
910.238	4.15112
913.13	10.071
916.023	10.3191
918.916	29.355
921.808	2.72388
924.701	2.89307
927.594	9.7334
930.487	12.3709
933.379	16.0544
936.272	27.8438
939.165	14.5527
942.057	17.5
944.95	3.69067
947.843	1.75928
950.736	8.85132
953.628	18.5762
956.521	15.2551
959.414	11.7979
962.306	11.8567
965.199	9.04102
968.092	25.0444
970.984	25.8105
973.877	13.303
976.77	2.14941
979.663	8.81201
982.555	42.8132
985.448	15.3752
988.341	11.1936
991.233	5.85449
994.126	17.3057
997.019	7.33691
999.911	5.37231
1002.8	4.55762
1005.7	8.89209
1008.59	13.7065
1011.48	1.56519
1014.38	10.1582
1017.27	18.8169
1020.16	14.6497
1023.05	10.094
1025.95	7.87085
1028.84	14.6018
1031.73	22.3267
1034.62	8.70825
1037.52	16.5774
1040.41	12.9927
1043.3	18.8252
1046.19	3.59644
1049.09	26.0093
1051.98	22.3599
1054.87	43.3367
1057.77	23.958
1060.66	50.8179
1063.55	12.5598
1066.44	8.17432
1069.34	18.467
1072.23	17.0049
1075.12	9.08105
1078.01	10.6502
1080.91	9.20947
1083.8	4.58472
1086.69	8.97534
1089.59	29.7722
1092.48	19.7686
1095.37	57.6228
1098.26	12.5674
1101.16	18.113
1104.05	15.3152
1106.94	6.16602
1109.83	22.0972
1112.73	10.5474
1115.62	4.32593
1118.51	2.51538
1121.4	9.1665
1124.3	1.55469
1127.19	18.9019
1130.08	11.7908
1132.98	9.62988
1135.87	20.1123
1138.76	10.3608
1141.65	15.0405
1144.55	11.3804
1147.44	15.6331
1150.33	13.956
1153.22	9.71484
1156.12	2.1355
1159.01	7.76978
1161.9	19.4998
1164.8	15.1909
1167.69	19.1658
1170.58	25.8916
1173.47	27.6191
1176.37	20.0625
1179.26	11.9595
1182.15	13.8604
1185.04	15.5681
1187.94	14.1213
1190.83	13.429
1193.72	19.282
1196.62	16.3381
1199.51	12.7446
1202.4	16.7097
1205.29	32.1836
1208.19	10.0071
1211.08	0.878418
1213.97	19.0969
1216.86	17.2383
1219.76	8.19092
1222.65	10.4194
1225.54	22.6811
1228.43	12.5322
1231.33	5.49365
1234.22	8.25464
1237.11	24.2288
1240.01	7.48315
1242.9	0.127441
1245.79	11.8782
1248.68	1.65234
1251.58	4.83008
1254.47	3.01269
1257.36	9.28662
1260.25	4.70215
1263.15	14.2673
1266.04	31.9495
1268.93	35.169
1271.83	5.69409
1274.72	16.7075
1277.61	23.0701
1280.5	5.91479
1283.4	3.90137
