Measurement: Raman, 532 nm, unoriented, Raman Data Processed
Mineral: Davidite-(La)
Rruff sample: R110047
Ideal chemistry: La^3+^(Y^3+^,U^4+^)Fe^3+^_2_(Ti^4+^,Fe^3+^,Cr^3+^,V^5+^)_18_(O,OH,F)_38_
Locality: Billeroo Davidite Prospect, Plumbago Station, Olary Province, South Australia, Australia
Source: Donald M Doell
Description: Black worn octahedron (metamict)
Measured chemistry: (La_0.45_Ce_0.39_Gd_0.05_Nd_0.02_Pr_0.01_Ca_0.05_)_∑=0.98_(Y_0.37_Yb_0.04_Er_0.04_Dy_0.03_Ho_0.01_Lu_0.01_U_0.17_Sc_0.09_Th_0.02_)_∑=0.78_Fe_2_(Ti_11.62_Fe_5.00_Cr_0.20_Al_0.20_Mn_0.12_Pb_0.05_Nb_0.05_Zr_0.05_Zn_0.02_Mg_0.01_)_∑=17.31_(O_36.92_OH_1.
Raman shift (cm-1)	intensity
186.433	0
189.326	0.881714
192.219	8.45196
195.112	16.8754
198.004	32.0972
200.897	20.2268
203.79	19.0303
206.682	11.0449
209.575	18.6431
212.468	16.7707
215.36	20.6069
218.253	27.1462
221.146	27.45
224.038	18.4996
226.931	9.33362
229.824	8.40747
232.717	8.24622
235.609	0.75769
238.502	1.9599
241.395	0.889099
244.287	2.67529
247.18	4.61279
250.073	4.21863
252.965	7.85474
255.858	6.93811
258.751	9.96137
261.644	9.13751
264.536	9.96942
267.429	17.9814
270.322	19.8845
273.214	26.1671
276.107	25.6693
279	30.0572
281.892	31.545
284.785	32.9445
287.678	36.7375
290.571	29.2845
293.463	38.4505
296.356	32.4738
299.249	36.5118
302.141	30.2933
305.034	27.1766
307.927	16.4717
310.82	15.5137
313.712	12.2953
316.605	11.0776
319.498	8.80023
322.39	5.19305
325.283	5.1637
328.176	0.770386
331.068	2.75342
333.961	6.9422
336.854	2.37244
339.747	1.47961
342.639	0.474915
345.532	1.92938
348.425	0.821655
351.317	3.88861
354.21	7.56152
357.103	5.83929
359.995	9.97113
362.888	19.2884
365.781	26.0572
368.673	21.2616
371.566	28.1784
374.459	34.2549
377.352	41.6295
380.244	52.7872
383.137	58.4227
386.03	70.1843
388.922	77.0746
391.815	86.0408
394.708	79.0149
397.601	92.8224
400.493	95.4171
403.386	85.9461
406.279	84.2208
409.171	77.7721
412.064	71.0645
414.957	61.9596
417.849	60.1876
420.742	48.3916
423.635	38.3956
426.527	40.7931
429.42	34.9464
432.313	26.9901
435.206	20.4474
438.098	18.2692
440.991	12.2174
443.884	11.0414
446.776	14.2863
449.669	5.45667
452.562	7.03558
455.454	0.056335
458.347	1.07105
461.24	0.5802
464.133	1.48547
467.025	3.25555
469.918	7.03564
472.811	2.2074
475.703	0.129517
478.596	3.3465
481.489	7.70282
484.382	13.0749
487.274	21.1187
490.167	21.428
493.06	31.8142
495.952	38.8633
498.845	48.4763
501.738	53.1433
504.63	67.4835
507.523	74.9423
510.416	79.6394
513.308	81.8309
516.201	78.0799
519.094	73.9301
521.987	64.6681
524.879	60.0753
527.772	61.4145
530.665	47.8944
533.557	37.3043
536.45	33.1896
539.343	22.7336
542.236	18.0978
545.128	18.3416
548.021	13.1595
550.914	15.2006
553.806	7.13947
556.699	3.74176
559.592	6.92248
562.484	4.49036
565.377	1.19287
568.27	3.38098
571.163	2.55145
574.055	1.63739
576.948	0.390564
579.841	2.22492
582.733	1.39362
585.626	0.945313
588.519	1.86414
591.411	6.27118
594.304	8.28265
597.197	5.52417
600.09	13.194
602.982	2.95337
605.875	12.9199
608.768	20.8193
611.66	30.6303
614.553	37.697
617.446	42.3331
620.338	51.84
623.231	61.7742
626.124	67.062
629.016	76.6962
631.909	82.5765
634.802	94.2902
637.695	94.0306
640.587	95.5096
643.48	87.8124
646.373	85.2399
649.265	73.2773
652.158	69.3982
655.051	67.5775
657.943	62.8435
660.836	59.3785
663.729	48.8633
666.622	39.4952
669.514	34.9428
672.407	31.4071
675.3	23.5148
678.192	19.4482
681.085	19.2153
683.978	17.3626
686.87	13.4241
689.763	13.7664
692.656	18.7129
695.549	6.55518
698.441	9.77539
701.334	8.84552
704.227	3.97553
707.119	7.24396
710.012	9.69959
712.905	2.53412
715.798	5.50586
718.69	2.61621
721.583	1.26941
724.476	0.565308
727.368	7.38324
730.261	0.574707
733.154	0.358582
736.046	3.72772
738.939	0.747864
741.832	6.43487
744.725	1.46612
747.617	0.156555
750.51	0.349426
753.403	6.74524
756.295	5.2442
759.188	1.59729
762.081	6.19989
764.973	6.57208
767.866	10.6461
770.759	4.67615
773.652	7.87775
776.544	5.39264
779.437	7.97156
782.33	9.30945
785.222	9.45245
788.115	6.52026
791.008	8.36438
793.9	10.2452
796.793	11.7851
799.686	10.5513
802.578	14.1342
805.471	12.5321
808.364	14.7816
811.257	12.9857
814.149	11.2287
817.042	13.9034
819.935	15.0554
822.827	15.6323
825.72	8.5957
828.613	11.9768
831.505	9.05582
834.398	8.6019
837.291	6.99963
840.184	3.17596
843.076	9.36365
845.969	9.70398
848.862	0.797455
851.754	5.9566
854.647	2.18247
857.54	0.112457
860.433	4.43311
863.325	8.52216
866.218	2.27011
869.111	1.74936
872.003	1.41406
874.896	3.66315
877.789	1.83331
880.681	8.75205
883.574	2.83176
886.467	3.80087
889.36	5.78241
892.252	8.42065
895.145	4.87207
898.038	0.497101
900.93	2.84186
903.823	5.35449
906.716	3.66937
909.608	9.55075
912.501	5.12076
915.394	1.53415
918.287	4.04956
921.179	4.30463
924.072	9.86999
926.965	9.05878
929.857	3.27127
932.75	7.26678
935.643	7.27689
938.535	7.09766
941.428	7.27927
944.321	7.23434
947.213	7.92819
950.106	8.47479
952.999	8.77023
955.892	2.3233
958.784	5.68286
961.677	4.07294
964.57	2.74289
967.462	4.54901
970.355	5.65396
973.248	3.90131
976.14	0.658539
979.033	5.27454
981.926	5.45435
984.819	2.24609
987.711	0.289063
990.604	2.53918
993.497	3.65839
996.389	2.78296
999.282	1.65482
1002.17	1.79526
1005.07	2.71497
1007.96	2.86569
1010.85	2.88873
1013.75	0.986176
1016.64	1.30334
1019.53	4.81271
1022.42	5.81293
1025.32	5.59936
1028.21	5.26547
1031.1	3.6319
1033.99	4.68045
1036.89	3.02716
1039.78	2.18567
1042.67	1.98572
1045.57	0.208527
1048.46	0.523102
1051.35	2.65692
1054.24	8.94864
1057.14	5.46826
1060.03	8.54877
1062.92	5.49127
1065.81	6.62689
1068.71	3.69693
1071.6	9.53616
1074.49	1.22006
1077.38	0.487457
1080.28	5.94534
1083.17	0.099945
1086.06	0.301849
1088.96	5.46036
1091.85	2.20151
1094.74	8.03735
1097.63	6.65832
1100.53	3.64557
1103.42	4.20181
1106.31	4.82913
1109.2	2.72522
1112.1	9.70721
1114.99	6.15024
1117.88	4.93909
1120.78	5.81433
1123.67	4.05066
1126.56	3.95776
1129.45	0.940369
1132.35	1.72592
1135.24	1.3186
1138.13	6.57632
1141.02	8.53598
1143.92	1.69394
1146.81	7.38016
1149.7	5.78833
1152.6	1.28912
1155.49	3.55142
1158.38	2.01633
1161.27	5.02103
1164.17	3.44183
1167.06	2.31937
1169.95	1.97418
1172.84	4.30042
1175.74	4.93237
1178.63	3.64505
1181.52	0.809113
1184.41	6.4584
1187.31	4.87707
1190.2	6.88144
1193.09	8.54187
1195.99	7.51715
1198.88	3.11038
1201.77	4.32303
1204.66	0.19339
1207.56	5.25443
1210.45	7.68951
1213.34	4.03482
1216.23	4.61465
1219.13	0.246887
1222.02	3.51923
1224.91	8.67682
1227.81	2.83951
1230.7	0.896851
1233.59	4.47507
1236.48	0.839844
1239.38	2.7569
1242.27	5.129
1245.16	4.6011
1248.05	1.89179
1250.95	5.10861
1253.84	6.28027
1256.73	9.96762
1259.62	10.9933
1262.52	7.60992
1265.41	7.72931
1268.3	7.37256
1271.2	6.31894
1274.09	0.32132
1276.98	0.7323
1279.87	7.12479
1282.77	1.5036
1285.66	6.09241
1288.55	4.87018
1291.44	9.258
1294.34	5.90744
1297.23	6.77631
1300.12	0.56604
1303.02	0
