Measurement: Raman, 532 nm, unoriented, Raman Data Processed
Mineral: Deerite
Rruff sample: R070393
Ideal chemistry: Fe^2+^_6_Fe^3+^_3_(Si_6_O_17_)O_3_(OH)_5_
Locality: Laytonville quarry, Laytonville, Mendocino County, California, USA
Source: Michael Scott
Description: Black bladed crystals embedded in quartz and fibrous riebeckite
Raman shift (cm-1)	intensity
161.233	0
164.125	22.0693
167.018	6.48566
169.911	28.2976
172.803	11.5968
175.696	35.752
178.589	51.2765
181.482	45.906
184.374	31.4975
187.267	3.31079
190.16	27.4889
193.052	38.3064
195.945	28.9219
198.838	61.4404
201.731	30.4746
204.623	33.9299
207.516	48.8011
210.409	61.9142
213.301	0.154968
216.194	26.0206
219.087	14.9622
221.979	25.399
224.872	30.3606
227.765	11.1682
230.657	30.5223
233.55	39.0157
236.443	41.1799
239.336	34.0752
242.228	15.7835
245.121	21.6564
248.014	49.5728
250.906	44.6951
253.799	41.9102
256.692	32.9464
259.584	46.1115
262.477	65.7161
265.37	36.9383
268.263	77.5267
271.155	69.5122
274.048	44.1033
276.941	70.4669
279.833	43.371
282.726	46.7951
285.619	60.2429
288.512	65.1011
291.404	44.0793
294.297	33.3137
297.19	39.5926
300.082	31.5169
302.975	19.5867
305.868	19.0483
308.76	30.9568
311.653	28.754
314.546	24.3467
317.438	8.69836
320.331	26.5524
323.224	0.059875
326.117	6.008
329.009	28.8135
331.902	0.995239
334.795	17.7847
337.687	16.1005
340.58	7.37079
343.473	11.907
346.365	25.5149
349.258	24.6574
352.151	30.9363
355.044	59.3721
357.936	33.7001
360.829	45.5821
363.722	60.281
366.614	33.8205
369.507	72.4103
372.4	69.6677
375.293	49.6359
378.185	63.4692
381.078	35.6812
383.971	58.6804
386.863	53.5105
389.756	37.6799
392.649	13.1624
395.541	46.3707
398.434	9.71393
401.327	45.6657
404.219	26.4255
407.112	60.3893
410.005	22.8271
412.898	16.3142
415.79	17.4478
418.683	16.683
421.576	21.4172
424.469	18.5554
427.361	25.3599
430.254	28.5689
433.147	20.0417
436.039	0.483521
438.932	11.3401
441.825	6.28748
444.717	22.0636
447.61	4.5603
450.503	24.2044
453.396	17.9908
456.288	10.8112
459.181	35.0693
462.074	32.0844
464.966	23.4355
467.859	23.4385
470.752	42.1228
473.644	27.0123
476.537	39.3507
479.43	40.908
482.322	30.3227
485.215	38.0133
488.108	56.2863
491.001	46.0214
493.893	14.5493
496.786	28.0495
499.679	29.9525
502.571	22.1949
505.464	5.74737
508.357	20.7644
511.25	31.7197
514.142	34.318
517.035	20.7916
519.928	24.7556
522.82	10.2355
525.713	33.0727
528.606	7.22174
531.498	20.2171
534.391	17.7584
537.284	5.13471
540.177	7.09912
543.069	50.1506
545.962	82.7648
548.855	75.7648
551.747	84.4287
554.64	93.4039
557.533	85.5228
560.425	56.2612
563.318	68.2751
566.211	87.7186
569.104	103.593
571.996	117.108
574.889	130.532
577.782	148.503
580.674	161.642
583.567	169.467
586.46	150.981
589.352	144.944
592.245	108.112
595.138	92.7736
598.031	93.4112
600.923	91.2425
603.816	79.8996
606.709	75.2099
609.601	65.7955
612.494	62.1251
615.387	38.2039
618.279	57.2458
621.172	21.1518
624.065	54.9435
626.958	43.5585
629.85	37.6325
632.743	31.6627
635.636	42.1387
638.528	18.9011
641.421	26.8964
644.314	55.6902
647.207	24.262
650.099	11.4011
652.992	14.7637
655.885	44.3293
658.777	28.829
661.67	39.666
664.563	41.3296
667.455	40.3187
670.348	38.4328
673.241	15.0668
676.134	16.9882
679.026	4.73578
681.919	5.89288
684.812	4.04871
687.704	2.74274
690.597	1.52393
693.49	0.386169
696.382	19.0899
699.275	4.33679
702.168	19.7717
705.061	19.2865
707.953	14.5048
710.846	23.8278
713.739	42.7351
716.631	28.4334
719.524	13.7538
722.417	55.2766
725.309	59.1317
728.202	32.0117
731.095	58.9195
733.987	46.1277
736.88	44.6056
739.773	43.4401
742.666	41.2039
745.558	38.8599
748.451	14.7599
751.344	12.8518
754.236	36.0097
757.129	34.0288
760.022	37.0071
762.915	30.1423
765.807	9.21899
768.7	15.9192
771.593	39.3131
774.485	34.3932
777.378	39.5482
780.271	49.1887
783.163	19.5448
786.056	28.8321
788.949	30.5331
791.842	14.3699
794.734	36.7427
797.627	21.0229
800.52	19.9092
803.412	34.2969
806.305	3.7432
809.198	40.7527
812.091	9.99106
814.983	27.0704
817.876	5.30631
820.769	4.68594
823.661	19.5928
826.554	2.62598
829.447	22.137
832.339	27.914
835.232	14.7726
838.125	13.4525
841.018	16.5248
843.91	33.2975
846.803	29.9609
849.696	29.4786
852.588	11.0496
855.481	24.0258
858.374	23.0317
861.266	20.3128
864.159	16.6999
867.052	20.3613
869.944	16.4971
872.837	6.00207
875.73	25.6752
878.623	8.20306
881.515	4.19275
884.408	41.1224
887.301	9.65576
890.193	19.2454
893.086	13.1021
895.979	6.43103
898.871	21.4177
901.764	30.5134
904.657	19.3104
907.55	28.6996
910.442	28.6126
913.335	17.0843
916.228	32.0469
919.12	68.9366
922.013	42.9074
924.906	25.9219
927.798	41.8236
930.691	20.053
933.584	11.163
936.477	21.596
939.369	13.6966
942.262	23.3951
945.155	27.5868
948.047	66.1205
950.94	20.0371
953.833	29.3739
956.726	57.3732
959.618	48.3358
962.511	35.6065
965.404	39.7525
968.296	66.0857
971.189	57.7416
974.082	26.0045
976.974	20.5494
979.867	22.6397
982.76	18.2075
985.653	38.0498
988.545	27.9597
991.438	12.2733
994.331	46.3475
997.223	21.3876
1000.12	24.4965
1003.01	45.7771
1005.9	25.5277
1008.79	27.4249
1011.69	13.298
1014.58	9.39398
1017.47	18.7866
1020.37	11.1591
1023.26	16.4647
1026.15	44.1112
1029.04	10.9493
1031.94	9.96173
1034.83	18.9615
1037.72	9.9353
1040.61	0.358765
1043.51	3.64102
1046.4	24.1957
1049.29	19.6731
1052.18	9.58295
1055.08	26.8478
1057.97	2.21106
1060.86	2.11026
1063.76	27.8341
1066.65	20.3284
1069.54	14.1473
1072.43	17.8433
1075.33	24.7821
1078.22	32.6481
1081.11	50.4903
1084	42.7469
1086.9	45.7165
1089.79	45.8092
1092.68	14.2413
1095.58	30.5559
1098.47	7.71909
1101.36	29.1917
1104.25	17.5823
1107.15	19.7867
1110.04	27.2007
1112.93	35.0361
1115.82	23.4028
1118.72	20.2658
1121.61	13.2641
1124.5	15.1552
1127.39	34.4429
1130.29	28.0116
1133.18	27.3219
1136.07	29.4211
1138.97	22.2101
1141.86	6.63431
1144.75	5.55627
1147.64	19.9267
1150.54	14.7732
1153.43	34.7778
1156.32	15.1805
1159.21	38.1448
1162.11	16.9105
1165	19.594
1167.89	23.4757
1170.79	13.5746
1173.68	8.49173
1176.57	18.2229
1179.46	19.6608
1182.36	6.91052
1185.25	28.5708
1188.14	12.6967
1191.03	19.6607
1193.93	18.1903
1196.82	18.7023
1199.71	28.9418
1202.61	27.4817
1205.5	15.895
1208.39	9.34677
1211.28	18.4387
1214.18	21.5959
1217.07	0.662628
1219.96	8.62994
1222.85	28.9828
1225.75	5.22421
1228.64	28.2404
1231.53	11.05
1234.42	2.5907
1237.32	35.1352
1240.21	15.6691
1243.1	6.89621
1246	7.60754
1248.89	6.3558
1251.78	6.22052
1254.67	11.1987
1257.57	20.2333
1260.46	19.5954
1263.35	0.659546
1266.24	6.75113
1269.14	18.7367
1272.03	30.0937
1274.92	14.7696
1277.82	18.7515
1280.71	41.5421
1283.6	30.4624
1286.49	17.985
1289.39	5.25702
1292.28	16.6394
1295.17	0.161011
1298.06	17.5769
1300.96	26.7042
1303.85	9.33804
1306.74	29.6539
1309.63	19.2501
1312.53	31.9603
