Measurement: Raman, 785 nm, unoriented, Raman Data Processed
Mineral: Deerite
Rruff sample: R070393
Ideal chemistry: Fe^2+^_6_Fe^3+^_3_(Si_6_O_17_)O_3_(OH)_5_
Locality: Laytonville quarry, Laytonville, Mendocino County, California, USA
Source: Michael Scott
Description: Black bladed crystals embedded in quartz and fibrous riebeckite
Raman shift (cm-1)	intensity
159.107	0
161.999	77.4751
164.892	92.9965
167.785	74.0696
170.677	10.5597
173.57	50.9047
176.463	27.9962
179.356	26.099
182.248	9.98352
185.141	23.7979
188.034	64.0525
190.926	51.1807
193.819	37.5007
196.712	63.0162
199.604	44.4977
202.497	46.2695
205.39	50.2732
208.282	27.1384
211.175	3.02972
214.068	21.6007
216.961	20.3889
219.853	7.18182
222.746	30.4238
225.639	8.39301
228.531	4.77545
231.424	10.8207
234.317	16.8286
237.209	4.40894
240.102	27.2149
242.995	2.73224
245.888	25.1873
248.78	21.3311
251.673	48.795
254.566	29.6497
257.458	36.6887
260.351	36.968
263.244	53.2782
266.137	67.7899
269.029	24.7561
271.922	61.2485
274.815	34.2849
277.707	35.1731
280.6	62.1281
283.493	53.9576
286.385	43.8408
289.278	64.7045
292.171	32.9283
295.063	39.3027
297.956	24.797
300.849	35.9542
303.742	29.8633
306.634	48.0132
309.527	32.5441
312.42	15.6663
315.312	10.4928
318.205	8.1946
321.098	11.0981
323.99	18.545
326.883	13.7747
329.776	16.6494
332.669	21.2741
335.561	28.4622
338.454	36.7631
341.347	40.2722
344.239	50.1648
347.132	53.3698
350.025	55.4428
352.918	48.9664
355.81	46.1668
358.703	55.5718
361.596	46.9335
364.488	58.9125
367.381	59.3104
370.274	58.6649
373.166	70.7788
376.059	63.9284
378.952	80.5204
381.844	54.5006
384.737	65.6216
387.63	60.3417
390.523	66.3079
393.415	39.6103
396.308	44.0655
399.201	48.7094
402.093	29.102
404.986	53.4517
407.879	19.4954
410.772	7.28686
413.664	9.46539
416.557	5.29675
419.45	13.8561
422.342	4.85559
425.235	1.005
428.128	18.4545
431.02	22.1691
433.913	8.30335
436.806	7.43915
439.699	42.9574
442.591	29.1664
445.484	45.5267
448.377	22.9623
451.269	41.2243
454.162	33.1339
457.055	55.8579
459.947	37.816
462.84	65.2692
465.733	67.0064
468.625	55.6718
471.518	80.8514
474.411	39.1699
477.304	40.7916
480.196	38.6439
483.089	26.2048
485.982	20.1101
488.874	28.4115
491.767	29.9208
494.66	30.9321
497.553	10.6273
500.445	8.09802
503.338	9.32703
506.231	20.2625
509.123	3.03333
512.016	5.34277
514.909	15.2686
517.802	7.50024
520.694	9.36755
523.587	20.5276
526.48	20.3843
529.372	18.0756
532.265	42.125
535.158	52.3998
538.05	47.3751
540.943	78.3872
543.836	61.0219
546.729	62.7639
549.621	93.397
552.514	83.2017
555.407	121.355
558.299	118.916
561.192	136.594
564.085	165.55
566.977	211.808
569.87	235.964
572.763	266.999
575.655	277.555
578.548	308.282
581.441	265.15
584.333	228.268
587.226	194.874
590.119	137.871
593.012	146.019
595.904	112.387
598.797	86.3016
601.69	46.9301
604.582	50.1456
607.475	38.7645
610.368	41.9296
613.26	41.9409
616.153	39.9791
619.046	23.8085
621.939	24.8046
624.831	23.4026
627.724	5.98572
630.617	7.14471
633.509	5.60364
636.402	8.52728
639.295	9.54993
642.188	20.3849
645.08	1.66174
647.973	15.7455
650.866	13.3074
653.758	34.0925
656.651	22.0413
659.544	44.8006
662.436	42.9055
665.329	54.0612
668.222	53.6224
671.115	12.9062
674.007	35.4982
676.9	10.0481
679.793	6.75617
682.685	40.6542
685.578	3.20373
688.471	15.582
691.363	15.6418
694.256	26.5081
697.149	28.209
700.042	15.4146
702.934	3.31818
705.827	44.8788
708.72	19.1934
711.612	27.0502
714.505	9.01025
717.398	44.8138
720.29	7.59375
723.183	34.2333
726.076	45.3672
728.968	63.1819
731.861	26.0226
734.754	35.3852
737.647	19.7184
740.539	35.4896
743.432	23.2996
746.325	8.0459
749.217	19.7545
752.11	23.3627
755.003	40.8884
757.895	9.30328
760.788	24.6757
763.681	1.48035
766.574	25.6967
769.466	15.2238
772.359	13.0386
775.252	22.6718
778.144	23.6187
781.037	18.313
783.93	27.4263
786.822	32.0941
789.715	22.2644
792.608	45.5493
795.501	10.5487
798.393	1.21759
801.286	12.4832
804.179	5.17798
807.071	16.0239
809.964	11.7221
812.857	7.42664
815.75	8.61859
818.642	14.4458
821.535	4.86383
824.428	20.2554
827.32	25.9718
830.213	0.820435
833.106	10.3655
835.998	15.4146
838.891	12.103
841.784	5.55566
844.677	16.2595
847.569	2.21381
850.462	19.5687
853.355	12.6016
856.247	11.5047
859.14	36.0253
862.033	10.7081
864.925	8.85919
867.818	0.29834
870.711	21.7338
873.604	0.847778
876.496	15.3168
879.389	16.9613
882.282	12.2726
885.174	36.1047
888.067	26.9802
890.96	44.4916
893.852	36.5733
896.745	32.71
899.638	25.7567
902.53	30.7074
905.423	33.8715
908.316	19.3452
911.209	25.1605
914.101	19.8981
916.994	39.0326
919.887	31.534
922.779	14.3084
925.672	22.59
928.565	25.6312
931.457	6.81641
934.35	14.4454
937.243	12.7491
940.136	11.6461
943.028	33.5166
945.921	19.1763
948.814	13.3678
951.706	42.2661
954.599	30.0142
957.492	39.6118
960.385	37.1677
963.277	19.5195
966.17	37.1906
969.063	37.5401
971.955	44.4398
974.848	26.6971
977.741	29.618
980.633	33.9053
983.526	45.9195
986.419	18.7587
989.312	22.5891
992.204	48.8044
995.097	20.0283
997.99	17.5788
1000.88	12.7835
1003.77	35.4261
1006.67	25.0937
1009.56	39.485
1012.45	8.50232
1015.35	14.2697
1018.24	8.80707
1021.13	6.33234
1024.02	10.7737
1026.92	5.29669
1029.81	2.73663
1032.7	32.0819
1035.6	7.71783
1038.49	34.731
1041.38	23.7058
1044.27	34.7924
1047.17	31.9638
1050.06	20.855
1052.95	36.9703
1055.84	31.3554
1058.74	39.0578
1061.63	40.8846
1064.52	33.238
1067.41	36.9042
1070.31	15.2301
1073.2	9.51202
1076.09	4.94391
1078.98	38.2293
1081.88	44.555
1084.77	29.178
1087.66	23.5912
1090.56	45.9594
1093.45	21.9465
1096.34	17.1606
1099.23	35.5283
1102.13	2.90662
1105.02	0.358215
1107.91	39.5102
1110.81	28.1381
1113.7	28.6849
1116.59	28.5338
1119.48	24.0549
1122.38	37.526
1125.27	21.6105
1128.16	41.0245
1131.05	35.2131
1133.95	47.1814
1136.84	12.4197
1139.73	27.6923
1142.62	30.1708
1145.52	35.655
1148.41	9.76691
1151.3	14.4134
1154.19	5.47321
1157.09	38.8184
1159.98	17.8931
1162.87	29.3416
1165.77	25.5422
1168.66	8.56619
1171.55	7.01941
1174.44	34.5302
1177.34	12.644
1180.23	26.8618
1183.12	11.7418
1186.02	32.3996
1188.91	26.5721
1191.8	48.1257
1194.69	42.0016
1197.59	15.5517
1200.48	41.0601
1203.37	19.6791
1206.26	14.3635
1209.16	38.2291
1212.05	3.8653
1214.94	24.4089
1217.84	21.9271
1220.73	36.8012
1223.62	17.3646
1226.51	24.3506
1229.41	27.5101
1232.3	28.3766
1235.19	2.24976
1238.08	17.3496
1240.98	4.62079
