Measurement: Raman, 532 nm, unoriented, Raman Data Processed
Mineral: Delafossite
Rruff sample: R050403
Ideal chemistry: Cu^1+^Fe^3+^O_2_
Locality: Cole Shaft, Bisbee, Cochise County, Arizona, USA
Source: Marcus Origlieri
Description: Black bladed rosettes
Measured chemistry: Cu^1+^(Fe^3+^_0.94_Al_0.06_)O_2_
Raman shift (cm-1)	intensity
206.615	0
209.508	0.42234
212.401	0.222094
215.293	0.703371
218.186	0.471945
221.079	0.222818
223.971	0.977747
226.864	0.971258
229.757	0.655788
232.649	0.618685
235.542	0.874132
238.435	0.656637
241.328	0.693007
244.22	0.913868
247.113	0.678843
250.006	0.526445
252.898	0.315968
255.791	0.22072
258.684	0.547127
261.577	0.53068
264.469	0.783535
267.362	0.063948
270.255	0.301577
273.147	0.236244
276.04	1.20543
278.933	1.03666
281.825	1.15973
284.718	1.80673
287.611	1.19451
290.503	1.84939
293.396	1.55254
296.289	1.50705
299.182	1.79612
302.074	1.91425
304.967	0.905924
307.86	1.22095
310.752	2.23432
313.645	3.16556
316.538	3.37523
319.43	4.58115
322.323	4.95339
325.216	6.41681
328.109	7.26416
331.001	8.77952
333.894	10.5138
336.787	11.8717
339.679	13.548
342.572	15.0386
345.465	17.8358
348.358	16.5576
351.25	14.6841
354.143	11.9647
357.036	9.30686
359.928	6.35791
362.821	4.04631
365.714	3.06584
368.606	2.79939
371.499	1.31715
374.392	1.5251
377.284	0.730816
380.177	0.870914
383.07	0.705748
385.963	0.400728
388.855	0.653461
391.748	0.232182
394.641	0.800823
397.533	0.161915
400.426	1.04182
403.319	1.15423
406.212	0.320129
409.104	0.918848
411.997	0.317747
414.89	0.158411
417.782	0.225389
420.675	0.338493
423.568	0.706499
426.46	0.483122
429.353	0.246557
432.246	0.515408
435.139	0.624599
438.031	0.014734
440.924	0.683552
443.817	0.409628
446.709	0.166849
449.602	0.431768
452.495	0.579334
455.387	1.08102
458.28	1.30969
461.173	1.75602
464.065	1.97511
466.958	2.03623
469.851	1.85593
472.744	1.74316
475.636	2.53909
478.529	2.1135
481.422	3.38651
484.314	3.09953
487.207	2.60159
490.1	3.06666
492.993	2.66113
495.885	3.77605
498.778	2.89123
501.671	4.23993
504.563	4.03164
507.456	2.84191
510.349	3.36014
513.241	2.77841
516.134	3.31231
519.027	2.20744
521.919	2.39734
524.812	2.86546
527.705	3.32124
530.598	2.73111
533.49	1.63402
536.383	1.45581
539.276	1.48003
542.168	0.838957
545.061	1.11558
547.954	0.334791
550.846	0.940601
553.739	0.873455
556.632	0.473993
559.525	0.722301
562.417	0.93128
565.31	0.091663
568.203	0.276783
571.095	0.600212
573.988	0.089951
576.881	0.429712
579.774	0.362116
582.666	0.059179
585.559	0.794935
588.452	1.02374
591.344	0.656111
594.237	1.19969
597.13	1.405
600.022	0.203119
602.915	0.613178
605.808	0.871422
608.7	0.692381
611.593	0.587864
614.486	0.745443
617.379	0.053003
620.271	0.385798
623.164	0.351223
626.057	0.425262
628.949	0.665897
631.842	1.03604
634.735	1.26452
637.627	1.84215
640.52	2.20126
643.413	2.56048
646.306	3.37821
649.198	3.74669
652.091	5.05384
654.984	5.83767
657.876	7.4084
660.769	8.46917
663.662	11.1825
666.554	13.9002
669.447	16.0194
672.34	18.8357
675.232	20.3234
678.125	24.3498
681.018	26.7048
683.911	27.8137
686.803	27.5937
689.696	27.5113
692.589	23.7049
695.481	20.0517
698.374	15.6288
701.267	12.7691
704.159	10.9942
707.052	8.41005
709.945	5.59845
712.838	5.26654
715.73	3.59587
718.623	3.10258
721.516	2.62994
724.408	1.34694
727.301	2.1141
730.194	1.73649
733.087	1.20794
735.979	0.178162
738.872	0.810789
741.765	0.215292
744.657	0.130907
747.55	0.700096
750.443	0.660162
753.335	1.0516
756.228	0.465334
759.121	0.308968
762.014	0.325115
764.906	0.565254
767.799	0.541742
770.692	1.4064
773.584	0.397354
776.477	0.010036
779.37	0.498592
782.263	0.064508
785.155	1.63704
788.048	1.03476
790.941	0.937286
793.833	0.023716
796.726	1.48163
799.619	0.737696
802.511	1.24939
805.404	1.12482
808.297	0.911047
811.189	1.2477
814.082	0.533752
816.975	1.51412
819.868	1.31444
822.76	1.98145
825.653	1.97649
828.546	1.53591
831.438	0.485317
834.331	1.46468
837.224	1.86195
840.116	2.70011
843.009	1.50241
845.902	1.66533
848.795	2.01131
851.687	1.91918
854.58	1.09669
857.473	1.97652
860.365	1.31176
863.258	2.066
866.151	1.20457
869.043	1.35417
871.936	1.07583
874.829	1.74038
877.722	2.04917
880.614	0.912853
883.507	1.04703
886.4	1.06049
889.292	1.07295
892.185	0.80352
895.078	0.645161
897.971	1.20324
900.863	0.900097
903.756	0.026361
906.649	0.794489
909.541	0.351706
912.434	0.403709
915.327	0.991537
918.219	1.29754
921.112	0.209341
924.005	0.527451
926.898	0.62941
929.79	0.991037
932.683	0.946321
935.576	0.069632
938.468	0.476067
941.361	0.069361
944.254	0.681549
947.146	0.835104
950.039	0.005404
952.932	0.517881
955.824	0.935631
958.717	1.21256
961.61	0.105175
964.503	1.24547
967.395	0.598259
970.288	1.0298
973.181	0.007202
976.073	0.914927
978.966	1.55598
981.859	1.0867
984.751	0.548674
987.644	1.06455
990.537	0.524981
993.43	1.66098
996.322	0.679039
999.215	1.82242
1002.11	1.6116
1005	1.11032
1007.89	0.60474
1010.79	0.884453
1013.68	1.26205
1016.57	1.20643
1019.46	0.839243
1022.36	0.606932
1025.25	1.38207
1028.14	1.76584
1031.04	1.11766
1033.93	0.948057
1036.82	0.608578
1039.71	1.09325
1042.61	0.95722
1045.5	0.653971
1048.39	0.94952
1051.28	1.39755
1054.18	1.11639
1057.07	1.41393
1059.96	1.17756
1062.85	0.790371
1065.75	1.16037
1068.64	0.203893
1071.53	0.37089
1074.42	0.126302
1077.32	0.190674
1080.21	0.830373
1083.1	0.396242
1086	1.31306
1088.89	0.786847
1091.78	0.512889
1094.67	0.115756
1097.57	0.065414
1100.46	0.2584
1103.35	0.268554
1106.24	0.796618
1109.14	1.1534
1112.03	0.590981
1114.92	0.179718
1117.82	0.030367
1120.71	0.768044
1123.6	0.807035
1126.49	0.197215
1129.39	0.223142
1132.28	0.632286
1135.17	0.209306
1138.07	0.139577
1140.96	0.126164
1143.85	0.769489
1146.74	0.172453
1149.63	0.433959
1152.53	0.398765
1155.42	0.582929
1158.31	0.184993
1161.21	1.01378
1164.1	0.215113
1166.99	0.870851
1169.88	0.610766
1172.78	0.531423
1175.67	0.740149
1178.56	1.48457
1181.45	0.921605
1184.35	0.685059
1187.24	1.0871
1190.13	0.651247
1193.03	0.230583
1195.92	0.90116
1198.81	0.706738
1201.7	0.110283
1204.6	0.537985
1207.49	0.876188
1210.38	0.884813
1213.28	1.87001
1216.17	1.23079
1219.06	0.334866
1221.95	0.723314
1224.85	0.799438
1227.74	1.04644
1230.63	0.270449
1233.52	0.681767
1236.42	0.331264
1239.31	0.162478
1242.2	0.957978
1245.09	0.61946
1247.99	0.78445
1250.88	0.270175
1253.77	0.356685
1256.66	1.15614
1259.56	0.973474
1262.45	0.756656
1265.34	0.773748
1268.24	0.186732
1271.13	0.918855
1274.02	0.627851
1276.91	0.376617
1279.81	0
