Measurement: Raman, 532 nm, unoriented, Raman Data Processed
Mineral: Delhayelite
Rruff sample: R070096
Ideal chemistry: K_7_Na_3_Ca_5_Al_2_Si_14_O_38_F_4_Cl_2_
Locality: Yukspor Mountain, Khibiny Massif, Kola Peninsula, Russia
Source: Michael Scott
Description: Dark gray to colorless cleavage fragments associated with brown lamprophyllite, elongated blue aegerine, light yellow fenakite, grayish brown lomonosovite and very pale yellow to colorless Fenaksite (R080135).
Measured chemistry: K_7.25_Na_3.44_(Ca_4.32_Na_0.66_Mn_0.02_)_Σ=5_(Al_1.97_Fe^3+^_0.03_)_Σ=2_(Si_13.97_Al_0.03_)_Σ=14_O_38_F_4_(Cl_1.70_F_0.30_)_Σ=2_
Raman shift (cm-1)	intensity
177.181	0
180.073	39.0049
182.966	78.6953
185.859	125.693
188.751	184.909
191.644	214.544
194.537	196.373
197.43	63.873
200.322	0.746094
203.215	2.33789
206.108	47.8789
209	48.3857
211.893	150.316
214.786	58.6748
217.679	105.078
220.571	135.219
223.464	146.868
226.357	205.074
229.249	209.039
232.142	147.394
235.035	173.598
237.927	255.908
240.82	253.213
243.713	260.546
246.606	202.42
249.498	60.2647
252.391	80.1055
255.284	49.5185
258.176	20.5332
261.069	80.5869
263.962	10.168
266.854	85.0918
269.747	184.661
272.64	106.858
275.532	177.537
278.425	214.254
281.318	209.279
284.211	382.709
287.103	387.489
289.996	394.719
292.889	548.54
295.781	499.222
298.674	571.674
301.567	461.434
304.459	344.748
307.352	336.887
310.245	319.07
313.137	240.833
316.03	170.973
318.923	216.205
321.816	255.701
324.708	210.113
327.601	462.9
330.494	272.506
333.386	303.445
336.279	258.746
339.172	339.223
342.065	370.279
344.957	377.488
347.85	363.246
350.743	338.227
353.635	302.559
356.528	226.144
359.421	188.041
362.313	108.127
365.206	85.1484
368.099	4.31445
370.991	58.4336
373.884	38.5625
376.777	24.875
379.67	39.5703
382.562	20.3594
385.455	27.4355
388.348	111.475
391.24	0.095703
394.133	26.3867
397.026	69.0195
399.918	140.115
402.811	92.0742
405.704	167.139
408.596	134.631
411.489	122.74
414.382	199.92
417.275	120.016
420.167	226.184
423.06	248.035
425.953	326.734
428.845	338.31
431.738	306.16
434.631	300.486
437.524	202.098
440.416	366.461
443.309	213.178
446.202	405.023
449.094	436.736
451.987	588.441
454.88	585.951
457.772	614.553
460.665	432.498
463.558	302.574
466.45	276.644
469.343	304.5
472.236	240.156
475.129	249.93
478.021	322.26
480.914	325.398
483.807	428.857
486.699	442.283
489.592	395.791
492.485	355.154
495.377	290.35
498.27	270.412
501.163	255.16
504.055	143.9
506.948	2.40234
509.841	15.0254
512.734	4.07031
515.626	16.041
518.519	67.375
521.412	125.322
524.304	5.375
527.197	20.6953
530.09	181.287
532.982	13.2207
535.875	125.529
538.768	156.312
541.661	101.791
544.553	174.699
547.446	109.027
550.339	156.033
553.231	70.0195
556.124	135.141
559.017	139.441
561.909	210.014
564.802	169.84
567.695	305.578
570.588	266.762
573.48	287.394
576.373	396.981
579.266	420.293
582.158	538.707
585.051	512.539
587.944	591.303
590.837	994.174
593.729	1398.16
596.622	1752.82
599.514	2314.47
602.407	2700.6
605.3	2546.24
608.193	2118.63
611.085	1568.77
613.978	979.088
616.871	566.928
619.763	339.926
622.656	388.086
625.549	237.981
628.442	164.002
631.334	161.494
634.227	60.3672
637.12	80.1641
640.012	16.6582
642.905	33.4473
645.798	11.127
648.69	92.9707
651.583	93.75
654.476	95.4766
657.369	189.391
660.261	145.408
663.154	119.008
666.047	325.236
668.939	281.924
671.832	413.477
674.725	289.92
677.617	241.295
680.51	242.838
683.403	125.166
686.295	159.695
689.188	54.3867
692.081	8.10156
694.974	45.916
697.866	25.6406
700.759	105.307
703.652	91.3965
706.544	122.078
709.437	140.338
712.33	145.859
715.222	243.935
718.115	157.053
721.008	140.191
723.901	185.373
726.793	133.684
729.686	159.703
732.579	293.482
735.471	115.418
738.364	67.0527
741.257	57.9492
744.149	49.6055
747.042	126.853
749.935	166.791
752.827	98.0898
755.72	21.1875
758.613	86.2832
761.506	34.6191
764.398	174.879
767.291	67.9727
770.184	57.752
773.076	32.4805
775.969	73.5
778.862	30.3828
781.755	142.594
784.647	175.949
787.54	196.033
790.433	238.225
793.325	203.471
796.218	115.852
799.111	115.232
802.003	306.746
804.896	142.959
807.789	135.123
810.682	237.9
813.574	172.008
816.467	173.432
819.36	170.248
822.252	229.41
825.145	180.584
828.038	81.8379
830.93	288.856
833.823	127.494
836.716	133.43
839.609	226.363
842.501	115.363
845.394	34.7168
848.287	245.619
851.179	236.404
854.072	77.3125
856.965	248.949
859.857	203.356
862.75	265.676
865.643	214.664
868.535	411.928
871.428	173.453
874.321	91.709
877.213	138.875
880.106	158.967
882.999	36.9531
885.892	66.8047
888.784	186.394
891.677	205.185
894.57	198.34
897.462	91.0586
900.355	150.269
903.248	146.617
906.14	77.0547
909.033	164.769
911.926	56.0781
914.819	197.734
917.711	166.09
920.604	134.793
923.497	53.0352
926.389	158.394
929.282	56.9531
932.175	95.5391
935.067	183.93
937.96	117.668
940.853	211.633
943.745	239.348
946.638	278.578
949.531	299.856
952.424	226.762
955.316	210.82
958.209	258.617
961.102	83.2109
963.994	161.285
966.887	85.0391
969.78	136.887
972.673	125.434
975.565	117.551
978.458	68.4688
981.351	48.1992
984.243	124.93
987.136	28.4922
990.029	285.188
992.921	205.992
995.814	34.3633
998.707	83.1875
1001.6	63.2422
1004.49	195.723
1007.38	13.7969
1010.28	11.082
1013.17	138.816
1016.06	16.8398
1018.96	125.633
1021.85	157.094
1024.74	108.508
1027.63	241
1030.53	138.488
1033.42	67.0312
1036.31	86.0039
1039.2	161.852
1042.1	184.875
1044.99	73.7734
1047.88	132.598
1050.78	164.082
1053.67	264.117
1056.56	102.328
1059.45	20.5703
1062.35	116.805
1065.24	79.9688
1068.13	91.4922
1071.02	208.801
1073.92	351.137
1076.81	230.219
1079.7	507.984
1082.6	404.621
1085.49	278.871
1088.38	236.914
1091.27	234.449
1094.17	217.531
1097.06	250.019
1099.95	357.566
1102.84	170.055
1105.74	149.047
1108.63	151.231
1111.52	87.6016
1114.41	272.18
1117.31	221.414
1120.2	66.4922
1123.09	249.469
1125.98	140.867
1128.88	190.082
1131.77	299.488
1134.66	454.777
1137.56	221.481
1140.45	226.477
1143.34	401.668
1146.23	304.422
1149.13	546.18
1152.02	385.918
1154.91	211.215
1157.81	130.566
1160.7	247.609
1163.59	201.543
1166.48	204.238
1169.38	167.469
1172.27	139.109
1175.16	61.1406
1178.05	8.05469
1180.95	17.8672
1183.84	24.8945
1186.73	59.2969
1189.62	156.824
1192.52	121.289
1195.41	144.527
1198.3	95.2227
1201.2	157.625
1204.09	31.1875
1206.98	43.9414
1209.87	115.918
1212.77	66.7891
1215.66	90.9297
1218.55	178.398
1221.44	186.113
1224.34	96.4688
1227.23	68.9102
1230.12	207.691
1233.02	276.562
1235.91	122.992
1238.8	263.625
1241.69	278.793
1244.59	254.305
1247.48	57.8047
1250.37	111.891
1253.26	182.734
1256.16	277.762
1259.05	155.977
1261.94	151.328
1264.84	148.039
1267.73	152.465
1270.62	74.9141
1273.51	306.285
1276.41	271.984
1279.3	340.102
1282.19	262.16
1285.08	226.504
1287.98	208
1290.87	130.359
1293.76	124.418
1296.65	201.023
1299.55	204.594
1302.44	180.051
1305.33	0
