Measurement: Raman, 532 nm, unoriented, Raman Data Processed
Mineral: Delhayelite
Rruff sample: R060816
Ideal chemistry: K_7_Na_3_Ca_5_Al_2_Si_14_O_38_F_4_Cl_2_
Locality: Chibiny, Kola Peninsula, Russia
Source: Bob Jenkins
Description: Dark brown platy fragment
Raman shift (cm-1)	intensity
173.591	0
176.484	0.606445
179.377	81.5195
182.269	160.815
185.162	290.132
188.055	257.07
190.947	328.654
193.84	262.269
196.733	109.881
199.626	55.708
202.518	63.5205
205.411	126.053
208.304	107.986
211.196	64.7246
214.089	37.3213
216.982	1.05469
219.875	45.5781
222.767	89.835
225.66	13.1299
228.553	37.2568
231.445	37.8994
234.338	34.2207
237.231	38.5352
240.123	39.2188
243.016	71.6826
245.909	106.686
248.802	120.046
251.694	65.9688
254.587	89.1191
257.48	29.4482
260.372	125.963
263.265	198.131
266.158	194.205
269.05	228.621
271.943	260.191
274.836	282.611
277.728	331.208
280.621	361.357
283.514	491.706
286.406	469.633
289.299	508.519
292.192	613.174
295.085	688.593
297.977	462.293
300.87	381.286
303.763	517.965
306.655	412.577
309.548	355.818
312.441	226.043
315.334	198.796
318.226	10.6309
321.119	39.5654
324.012	109.032
326.904	50.4619
329.797	84.7656
332.69	176.345
335.582	59.1943
338.475	163.66
341.368	264.412
344.26	179.91
347.153	359.74
350.046	422.457
352.939	422.338
355.831	272.082
358.724	197.477
361.617	135.921
364.509	83.2939
367.402	10.3408
370.295	31.709
373.188	68.6055
376.08	36.2959
378.973	1.17481
381.866	56.5478
384.758	42.2676
387.651	135.519
390.544	35.5059
393.436	11.5469
396.329	68.6973
399.222	170.71
402.114	84.667
405.007	231.387
407.9	205.758
410.793	214.434
413.685	216.785
416.578	303.688
419.471	337.943
422.363	390.035
425.256	509.693
428.149	514.906
431.041	641.469
433.934	573.977
436.827	478.529
439.719	424.543
442.612	465.441
445.505	516.939
448.398	584.902
451.29	699.4
454.183	844.803
457.076	693.481
459.968	521.311
462.861	370.125
465.754	313.912
468.647	320.801
471.539	386.57
474.432	358.17
477.325	416.988
480.217	396.541
483.11	719.291
486.003	700.609
488.895	688.309
491.788	599.783
494.681	505.037
497.574	355.088
500.466	292.828
503.359	53.1914
506.252	23.4629
509.144	31.1055
512.037	51.4707
514.93	42.4648
517.822	27.9336
520.715	99.75
523.608	35.6953
526.5	171.346
529.393	62.4434
532.286	45.8516
535.179	57.1055
538.071	26.9355
540.964	46.7578
543.857	118.633
546.749	78.0137
549.642	228.746
552.535	121.848
555.427	48.375
558.32	52.1094
561.213	152.82
564.106	239.389
566.998	418.598
569.891	521.695
572.784	733.199
575.676	796.936
578.569	823.66
581.462	907.49
584.354	916.184
587.247	1067.35
590.14	1296.48
593.033	1809.67
595.925	2360.07
598.818	3334.39
601.711	4385.35
604.603	4709.77
607.496	4051.49
610.389	2847.67
613.281	1872.55
616.174	1378.96
619.067	1052.92
621.96	847.629
624.852	663.561
627.745	477.584
630.638	328.57
633.53	144.522
636.423	134.613
639.316	110.568
642.208	60.5195
645.101	46.4746
647.994	28.166
650.886	138.277
653.779	134.547
656.672	52.5664
659.565	65.2461
662.457	34.1094
665.35	88.459
668.243	158.668
671.135	293.272
674.028	155.824
676.921	16.0215
679.813	57.7559
682.706	53.5625
685.599	222.887
688.492	135.631
691.384	123.201
694.277	108.68
697.17	141.67
700.062	102.309
702.955	89.6133
705.848	5.50977
708.74	98.5117
711.633	210.037
714.526	115.252
717.418	87.0781
720.311	65.0215
723.204	170.406
726.097	350.99
728.989	208.475
731.882	238.881
734.775	93.7383
737.667	156.897
740.56	157.809
743.453	316.647
746.346	453.496
749.238	445.143
752.131	20.4277
755.024	196.106
757.916	254.369
760.809	75.0156
763.702	19.9922
766.594	169.373
769.487	125.359
772.38	367.115
775.273	322.295
778.165	69.834
781.058	146.463
783.951	43.8281
786.843	115.867
789.736	134.221
792.629	340.494
795.521	223.213
798.414	214.203
801.307	124.147
804.199	186.941
807.092	95.1582
809.985	206.193
812.878	81.7188
815.77	112.783
818.663	14.9141
821.556	98.2754
824.448	80.0332
827.341	99.7109
830.234	267.826
833.126	96.6738
836.019	99.6602
838.912	145.277
841.805	84.7637
844.697	93.2324
847.59	112.059
850.483	101.228
853.375	78.1856
856.268	69.8438
859.161	104.174
862.053	138.346
864.946	150.857
867.839	36.7773
870.731	32.8789
873.624	73.9883
876.517	66.3438
879.41	158.273
882.302	240.379
885.195	221.32
888.088	293.877
890.98	217.027
893.873	474.801
896.766	509.113
899.659	396.623
902.551	379.51
905.444	182.125
908.337	254.893
911.229	200.938
914.122	172.713
917.015	119.834
919.907	190.527
922.8	219.551
925.693	451.422
928.586	251.781
931.478	379.057
934.371	162.719
937.264	205.34
940.156	82.3789
943.049	165.654
945.942	82.6758
948.834	70.3164
951.727	85.3731
954.62	104.225
957.513	148.848
960.405	141.502
963.298	149.625
966.191	135.523
969.083	6.77539
971.976	208.769
974.869	197.383
977.761	213.662
980.654	211.955
983.547	327.885
986.439	56.7109
989.332	197.342
992.225	189.666
995.118	197.279
998.01	233.272
1000.9	189.303
1003.8	182.225
1006.69	129.613
1009.58	26.5098
1012.47	127.924
1015.37	48.4453
1018.26	84.4453
1021.15	16.8008
1024.05	174.998
1026.94	175.844
1029.83	76.6152
1032.72	67.0938
1035.62	159.453
1038.51	221.461
1041.4	68.3945
1044.29	108.371
1047.19	7.25195
1050.08	8.95703
1052.97	145.176
1055.86	190.611
1058.76	239.633
1061.65	97.5098
1064.54	182.805
1067.43	152.086
1070.33	207.033
1073.22	211.912
1076.11	283.369
1079.01	129.875
1081.9	383.281
1084.79	321.617
1087.68	380.09
1090.58	257.16
1093.47	264.938
1096.36	179.57
1099.26	369.953
1102.15	233.379
1105.04	219.562
1107.93	325.16
1110.83	175.668
1113.72	61.6016
1116.61	150.297
1119.5	53.7227
1122.4	52.3203
1125.29	165.562
1128.18	445.383
1131.07	391.402
1133.97	492.019
1136.86	499.359
1139.75	562.379
1142.64	459.152
1145.54	385.5
1148.43	404.156
1151.32	486.305
1154.22	460.141
1157.11	606.644
1160	554.352
1162.89	358.57
1165.79	132.144
1168.68	99.5078
1171.57	150.41
1174.46	275.035
1177.36	229.098
1180.25	270.664
1183.14	187.008
1186.04	242.559
1188.93	208.922
1191.82	51.8203
1194.71	96.1367
1197.61	59.4609
1200.5	116.277
1203.39	46.0625
1206.29	61.4258
1209.18	121.656
1212.07	148.394
1214.96	113.891
1217.86	46.7461
1220.75	145.438
1223.64	138.797
1226.53	243.965
1229.43	256.242
1232.32	247.797
1235.21	365.731
1238.1	350.809
1241	66.8828
1243.89	122.242
1246.78	173.641
1249.67	499.469
1252.57	242.758
1255.46	343.051
1258.35	288.473
1261.25	344.156
1264.14	65.207
1267.03	59.3711
1269.92	290.793
1272.82	385.043
1275.71	409.535
1278.6	178.148
1281.49	180.477
1284.39	64.0625
1287.28	122.508
1290.17	105.906
1293.07	153.82
1295.96	64.7461
1298.85	8.31641
