Measurement: Raman, 532 nm, unoriented, Raman Data Processed
Mineral: Denisovite
Rruff sample: R120067
Ideal chemistry: KCa_2_Si_3_O_8_F
Locality: Eveslogchorr Mt, Khibiny Massif, Kola Peninsula, Murmanskaja Oblast', Northern Region, Russia
Source: Donald Doell
Description: Parallel aggregate of colorless-white acicular crystals on black aegerine
Raman shift (cm-1)	intensity
198.968	0
201.861	1.25281
204.754	1.11932
207.647	7.96387
210.539	22.4496
213.432	29.2494
216.325	30.8099
219.217	33.31
222.11	31.6216
225.003	30.0918
227.895	33.2034
230.788	45.9537
233.681	61.5583
236.573	74.4447
239.466	73.2904
242.359	58.7754
245.252	46.7306
248.144	42.2087
251.037	33.2654
253.93	35.3016
256.822	32.1681
259.715	25.8453
262.608	15.9379
265.5	8.3924
268.393	9.18701
271.286	9.3454
274.179	8.11328
277.071	10.7314
279.964	8.80975
282.857	6.66486
285.75	9.52417
288.642	16.6574
291.535	23.8712
294.428	24.487
297.32	27.7445
300.213	31.8574
303.106	28.9368
305.998	28.1239
308.891	30.7091
311.784	30.3885
314.676	33.7104
317.569	30.0633
320.462	31.7217
323.355	34.9251
326.247	35.7904
329.14	37.1538
332.033	36.9649
334.925	44.9791
337.818	53.7462
340.711	55.5018
343.603	54.0205
346.496	56.9476
349.389	53.6131
352.281	53.8357
355.174	47.9271
358.067	28.0589
360.96	22.4059
363.852	8.53717
366.745	1.26294
369.638	1.48212
372.53	0.419922
375.423	1.52057
378.316	5.10101
381.209	3.87671
384.101	1.32526
386.994	2.85101
389.887	8.93994
392.779	11.3848
395.672	9.86591
398.565	11.2141
401.457	11.7347
404.35	17.4274
407.243	19.9713
410.135	25.5993
413.028	28.9662
415.921	30.6462
418.814	28.1665
421.706	22.3967
424.599	20.1617
427.492	26.3848
430.384	23.4304
433.277	27.6426
436.17	27.1654
439.062	28.4229
441.955	24.2982
444.848	22.1599
447.741	25.197
450.633	24.685
453.526	25.8725
456.419	32.6686
459.311	41.8439
462.204	44.6597
465.097	31.0879
467.99	15.9313
470.882	7.71082
473.775	6.36676
476.668	1.69373
479.56	4.1048
482.453	6.60083
485.346	10.0885
488.238	7.37927
491.131	14.6661
494.024	12.0223
496.916	15.2258
499.809	17.7587
502.702	19.7889
505.595	20.1155
508.487	20.0252
511.38	23.2209
514.273	18.1052
517.165	8.43549
520.058	5.60138
522.951	0.285583
525.844	5.60297
528.736	0.861389
531.629	0.257874
534.522	1.19751
537.414	0.645142
540.307	3.17505
543.2	1.87024
546.092	0.07843
548.985	5.49066
551.878	9.54596
554.771	7.33844
557.663	6.4422
560.556	3.36646
563.449	5.52637
566.341	0.883484
569.234	0.669556
572.127	0.610229
575.019	1.41223
577.912	3.27948
580.805	10.0917
583.697	7.78241
586.59	13.0201
589.483	13.7865
592.376	13.4328
595.268	10.3917
598.161	7.13641
601.054	6.36694
603.946	8.25781
606.839	12.4132
609.732	24.2447
612.625	35.1326
615.517	53.9733
618.41	78.1659
621.303	108.144
624.195	131.069
627.088	145.986
629.981	156.877
632.873	182.662
635.766	207.622
638.659	218.614
641.552	209.693
644.444	189.777
647.337	177.384
650.23	157.942
653.122	146.967
656.015	146.9
658.908	153.047
661.8	172.741
664.693	207.371
667.586	252.997
670.479	298.45
673.371	307.762
676.264	279.407
679.157	215.94
682.049	150.014
684.942	96.7074
687.835	59.9279
690.727	44.0531
693.62	26.1655
696.513	19.9414
699.405	10.2866
702.298	2.06079
705.191	0.678711
708.084	0.361084
710.976	1.07263
713.869	1.00354
716.762	0.735229
719.654	3.70227
722.547	0.309937
725.44	1.78625
728.332	6.82873
731.225	4.56811
734.118	6.35315
737.011	0.928833
739.903	2.6156
742.796	1.04028
745.689	0.2323
748.581	0.048218
751.474	4.79968
754.367	5.24902
757.26	6.26965
760.152	6.0188
763.045	6.79407
765.938	11.4077
768.83	14.2533
771.723	14.2261
774.616	16.4766
777.508	23.4448
780.401	28.2932
783.294	30.7867
786.187	27.3957
789.079	16.4062
791.972	23.1752
794.865	25.334
797.757	19.274
800.65	18.8534
803.543	11.3066
806.435	7.26807
809.328	5.21777
812.221	2.95606
815.114	4.44006
818.006	6.83533
820.899	7.45642
823.792	4.7832
826.684	3.79065
829.577	1.94544
832.47	3.47205
835.362	10.0452
838.255	5.22852
841.148	10.5341
844.04	10.9165
846.933	10.3312
849.826	12.2313
852.719	11.3389
855.611	11.5236
858.504	5.80786
861.397	8.1189
864.289	3.45703
867.182	1.49817
870.075	1.54077
872.967	2.22827
875.86	6.36658
878.753	1.31372
881.646	0.766724
884.538	4.10498
887.431	4.11206
890.324	6.57519
893.216	3.36401
896.109	1.58533
899.002	2.20972
901.894	2.07959
904.787	8.42517
907.68	0.486206
910.573	7.94727
913.465	5.27942
916.358	5.3927
919.251	5.71741
922.143	0.517212
925.036	3.45142
927.929	6.2384
930.822	1.43884
933.714	1.94507
936.607	2.74072
939.5	6.35913
942.392	10.1379
945.285	13.9705
948.178	15.7773
951.07	17.6089
953.963	20.1604
956.856	21.9355
959.749	24.7627
962.641	34.2275
965.534	43.4658
968.427	44.9075
971.319	22.2014
974.212	12.4973
977.105	10.6311
979.997	10.4925
982.89	3.12427
985.783	1.65039
988.676	1.94971
991.568	1.33606
994.461	2.09534
997.354	0.423096
1000.25	7.70496
1003.14	8.65234
1006.03	14.1475
1008.92	16.244
1011.82	21.9091
1014.71	24.6787
1017.6	23.7436
1020.5	39.9827
1023.39	49.9203
1026.28	54.3279
1029.17	61.1616
1032.07	57.5962
1034.96	56.8051
1037.85	46.3726
1040.74	40.5962
1043.64	31.4282
1046.53	25.125
1049.42	23.4938
1052.32	20.8226
1055.21	25.0201
1058.1	26.7926
1060.99	24.8795
1063.89	26.5006
1066.78	18.7578
1069.67	18.1235
1072.56	10.1326
1075.46	8.60657
1078.35	7.17786
1081.24	6.95825
1084.13	3.08093
1087.03	0.912231
1089.92	1.32288
1092.81	3.00085
1095.7	4.84241
1098.6	3.69238
1101.49	5.78357
1104.38	2.77942
1107.28	5.94946
1110.17	9.32483
1113.06	12.4766
1115.95	21.9442
1118.85	26.4872
1121.74	39.9543
1124.63	47.3013
1127.53	70.1444
1130.42	79.5536
1133.31	95.1348
1136.2	107.843
1139.1	88.9735
1141.99	46.9055
1144.88	20.0178
1147.77	12.3003
1150.67	4.91577
1153.56	3.24988
1156.45	3.22644
1159.35	0.36145
1162.24	1.73511
1165.13	3.15576
1168.02	1.35571
1170.92	1.29993
1173.81	4.58435
1176.7	7.00317
1179.59	5.67578
1182.49	7.06457
1185.38	11.3099
1188.27	10.0538
1191.16	8.36218
1194.06	10.6782
1196.95	8.77173
1199.84	10.3917
1202.73	6.84827
1205.63	13.0862
1208.52	14.9951
1211.41	16.6457
1214.31	20.4429
1217.2	13.7841
1220.09	8.29504
1222.98	10.0615
1225.88	15.861
1228.77	9.11316
1231.66	5.64832
1234.56	1.91003
1237.45	0.292236
1240.34	0.374878
1243.23	7.61658
1246.13	4.55139
1249.02	1.57214
1251.91	6.32873
1254.8	7.86841
1257.7	5.04077
1260.59	6.26306
1263.48	11.0315
1266.38	5.18469
1269.27	6.93115
1272.16	3.39526
1275.05	6.49768
1277.95	11.5267
1280.84	7.15149
1283.73	0.037354
1286.62	3.90588
1289.52	0.55542
1292.41	2.20911
1295.3	0.257568
1298.19	6.44006
1301.09	5.35779
