Measurement: Raman, 532 nm, unoriented, Raman Data Processed
Mineral: Derbylite
Rruff sample: R070382
Ideal chemistry: Fe^3+^_4_Ti^4+^_3_Sb^3+^O_13_(OH)
Locality: Buca della Vena Mine,  Stazzema,  Apuan Alps,  Lucca Province,  Tuscany,  Italy
Source: Michael Scott
Description: Black prismatic crystal in barite vug
Raman shift (cm-1)	intensity
146.287	0
149.18	6.13039
152.072	7.72542
154.965	7.52014
157.858	16.3975
160.75	22.8538
163.643	29.0383
166.536	14.7814
169.429	14.2628
172.321	5.76723
175.214	8.38585
178.107	21.4324
180.999	17.8266
183.892	21.2795
186.785	40.3761
189.678	45.8316
192.57	38.5329
195.463	23.6632
198.356	21.6804
201.248	6.62332
204.141	6.44908
207.034	3.13141
209.926	11.1528
212.819	6.27676
215.712	5.47502
218.605	6.53764
221.497	7.29953
224.39	4.01302
227.283	16.2049
230.175	24.2781
233.068	24.931
235.961	17.3777
238.853	23.3794
241.746	0.818115
244.639	12.8089
247.532	12.6463
250.424	3.52177
253.317	2.6826
256.21	21.9139
259.102	14.9714
261.995	20.0282
264.888	18.5465
267.781	16.1891
270.673	32.9333
273.566	52.9513
276.459	81.0095
279.351	101.472
282.244	113.923
285.137	112.339
288.029	105.365
290.922	110.338
293.815	104.456
296.707	90.8518
299.6	63.0002
302.493	55.3675
305.386	21.7487
308.278	23.2814
311.171	43.8726
314.064	9.59407
316.956	20.2492
319.849	3.34543
322.742	9.92561
325.635	6.74597
328.527	17.6177
331.42	7.82602
334.313	0.062851
337.205	19.9475
340.098	25.2194
342.991	19.6874
345.883	27.4322
348.776	36.9412
351.669	27.0287
354.562	37.1435
357.454	60.8645
360.347	22.7907
363.24	58.8805
366.132	64.8835
369.025	57.1244
371.918	35.7675
374.81	60.5744
377.703	50.0698
380.596	31.8779
383.488	35.6146
386.381	40.6132
389.274	37.7694
392.167	29.2776
395.059	24.9907
397.952	4.12019
400.845	6.99423
403.737	2.21758
406.63	14.1017
409.523	1.3502
412.416	8.80109
415.308	10.64
418.201	10.3082
421.094	4.18117
423.986	4.73766
426.879	9.3036
429.772	13.5658
432.664	20.0453
435.557	5.89029
438.45	13.1614
441.343	11.1312
444.235	9.15994
447.128	15.5402
450.021	18.8944
452.913	5.62753
455.806	13.9048
458.699	6.08458
461.591	3.93466
464.484	13.7522
467.377	2.03818
470.27	23.2904
473.162	24.1855
476.055	14.3024
478.948	29.2678
481.84	3.66766
484.733	15.4756
487.626	22.2839
490.519	17.1547
493.411	26.6354
496.304	12.9325
499.197	16.5629
502.089	12.6293
504.982	11.0162
507.875	18.6208
510.767	21.4353
513.66	29.1575
516.553	2.57307
519.446	13.7406
522.338	5.56187
525.231	4.43452
528.124	10.8783
531.016	10.7173
533.909	17.7767
536.802	21.6239
539.694	4.7881
542.587	11.4125
545.48	18.3516
548.372	1.78697
551.265	8.0162
554.158	21.1743
557.051	15.214
559.943	20.2243
562.836	5.75334
565.729	12.0937
568.621	5.98662
571.514	17.9677
574.407	6.28856
577.299	17.4588
580.192	6.31867
583.085	4.67516
585.978	13.4239
588.87	14.1154
591.763	16.7586
594.656	16.6337
597.548	17.0687
600.441	17.9243
603.334	18.1769
606.227	18.9893
609.119	0.49733
612.012	10.9751
614.905	8.8306
617.797	11.0981
620.69	27.8676
623.583	12.8619
626.476	23.3289
629.368	27.9357
632.261	17.8774
635.154	25.3543
638.046	32.3284
640.939	19.4928
643.832	27.2822
646.724	31.6906
649.617	44.2521
652.51	17.236
655.403	30.2039
658.295	28.003
661.188	27.7022
664.081	6.68581
666.973	21.5936
669.866	16.409
672.759	11.4679
675.651	25.3179
678.544	21.2851
681.437	1.33061
684.33	16.5593
687.222	8.33984
690.115	16.3576
693.008	5.90843
695.9	13.7915
698.793	2.26451
701.686	3.29962
704.578	15.5568
707.471	15.9219
710.364	9.93719
713.256	5.36456
716.149	13.5982
719.042	21.3939
721.935	3.23444
724.827	6.78305
727.72	13.2207
730.613	10.0774
733.505	25.9187
736.398	7.26378
739.291	7.11139
742.183	3.09009
745.076	21.3551
747.969	11.0596
750.862	10.8834
753.754	17.5691
756.647	28.7488
759.54	26.6468
762.432	35.9933
765.325	39.6624
768.218	50.9569
771.111	34.2406
774.003	61.0954
776.896	53.3334
779.789	43.8629
782.681	44.4811
785.574	54.448
788.467	46.7102
791.359	64.5854
794.252	70.4258
797.145	69.3417
800.038	50.2114
802.93	47.7308
805.823	52.5879
808.716	36.8506
811.608	42.6307
814.501	48.9305
817.394	53.0527
820.286	34.7403
823.179	26.356
826.072	23.9327
828.965	20.3495
831.857	20.4456
834.75	20.3614
837.643	0.127518
840.535	2.62181
843.428	4.60431
846.321	5.19698
849.213	12.1154
852.106	12.1698
854.999	2.36385
857.891	5.72214
860.784	1.87642
863.677	7.83134
866.57	10.3512
869.462	8.78316
872.355	2.34815
875.248	11.2279
878.14	10.9629
881.033	15.1054
883.926	15.0109
886.819	4.25664
889.711	6.40344
892.604	20.6231
895.497	8.02774
898.389	4.28951
901.282	5.71755
904.175	16.0162
907.067	11.5784
909.96	8.31177
912.853	20.346
915.746	16.9762
918.638	11.771
921.531	9.00124
924.424	21.7502
927.316	23.8975
930.209	25.4585
933.102	16.3289
935.995	11.7045
938.887	8.34883
941.78	3.97311
944.673	2.90213
947.565	19.3555
950.458	5.28859
953.351	24.3407
956.243	15.7689
959.136	18.1404
962.029	0.054062
964.922	17.8899
967.814	3.1145
970.707	12.5711
973.6	14.5908
976.492	11.7278
979.385	19.7938
982.278	12.029
985.17	17.1241
988.063	23.9827
990.956	0.994858
993.848	19.1054
996.741	11.6538
999.634	18.5368
1002.53	21.1708
1005.42	0.893295
1008.31	8.4362
1011.21	11.2125
1014.1	13.6229
1016.99	13.2678
1019.88	11.4655
1022.78	3.78635
1025.67	14.2506
1028.56	7.05023
1031.45	0.17598
1034.35	0.322235
1037.24	11.373
1040.13	9.9294
1043.02	17.3166
1045.92	12.7465
1048.81	11.427
1051.7	7.84993
1054.6	17.0696
1057.49	9.57559
1060.38	6.058
1063.27	14.8719
1066.17	11.3348
1069.06	16.1561
1071.95	15.645
1074.84	21.8079
1077.74	1.66023
1080.63	17.3617
1083.52	18.4596
1086.41	32.174
1089.31	35.8007
1092.2	37.1699
1095.09	30.0356
1097.99	24.9186
1100.88	25.346
1103.77	11.3477
1106.66	3.82474
1109.56	4.32687
1112.45	23.9131
1115.34	18.6894
1118.23	8.64436
1121.13	16.7014
1124.02	0.054749
1126.91	0.985153
1129.81	17.361
1132.7	8.54648
1135.59	12.6161
1138.48	15.5727
1141.38	13.5065
1144.27	17.4224
1147.16	14.4346
1150.05	21.6973
1152.95	13.8536
1155.84	17.9895
1158.73	7.17378
1161.62	3.31374
1164.52	11.2391
1167.41	8.67534
1170.3	10.7829
1173.2	4.01799
1176.09	3.81245
1178.98	3.93094
1181.87	21.1271
1184.77	6.13274
1187.66	18.0803
1190.55	18.1935
1193.44	1.45847
1196.34	13.4548
1199.23	5.83914
1202.12	12.5847
1205.02	10.3615
1207.91	11.9221
1210.8	13.7161
1213.69	17.2384
1216.59	7.77458
1219.48	24.1885
1222.37	9.97862
1225.27	10.6497
1228.16	20.0136
1231.05	10.9821
1233.94	4.80916
1236.84	7.61992
1239.73	11.8395
1242.62	6.03981
1245.51	0.018646
1248.41	6.66043
1251.3	6.55913
1254.19	6.25673
1257.08	19.9535
1259.98	7.44871
1262.87	2.82608
1265.76	9.68387
1268.65	2.43355
1271.55	15.8335
1274.44	7.69241
1277.33	17.6914
1280.23	6.09255
1283.12	7.6871
1286.01	12.6972
1288.9	2.07204
1291.8	18.7673
1294.69	11.2232
1297.58	12.3477
