Measurement: Raman, 785 nm, unoriented, Raman Data Processed
Mineral: Derbylite
Rruff sample: R070382
Ideal chemistry: Fe^3+^_4_Ti^4+^_3_Sb^3+^O_13_(OH)
Locality: Buca della Vena Mine,  Stazzema,  Apuan Alps,  Lucca Province,  Tuscany,  Italy
Source: Michael Scott
Description: Black prismatic crystal in barite vug
Raman shift (cm-1)	intensity
149.464	0
152.357	48.6688
155.25	23.7554
158.142	1.65631
161.035	13.2224
163.928	7.92804
166.821	4.5567
169.713	14.2144
172.606	6.34845
175.499	5.42218
178.391	2.43695
181.284	7.396
184.177	29.3808
187.069	40.4959
189.962	49.7531
192.855	24.0441
195.748	32.5091
198.64	17.2496
201.533	19.9802
204.426	2.7666
207.318	28.2519
210.211	12.1688
213.104	2.95471
215.996	1.20386
218.889	9.56494
221.782	31.285
224.674	12.8442
227.567	34.2889
230.46	35.8621
233.353	30.1034
236.245	39.6854
239.138	21.0388
242.031	16.8254
244.923	21.2432
247.816	19.0687
250.709	0.628174
253.601	9.73157
256.494	5.88971
259.387	28.1332
262.28	20.9337
265.172	25.3431
268.065	65.8362
270.958	61.8871
273.85	103.609
276.743	114.006
279.636	171.921
282.529	180.498
285.421	235.833
288.314	230.179
291.207	232.165
294.099	206.633
296.992	195.994
299.885	146.947
302.777	124.731
305.67	105.699
308.563	96.3748
311.455	56.9947
314.348	48.5884
317.241	34.5279
320.134	11.1494
323.026	22.5647
325.919	3.38287
328.812	14.5386
331.704	0.105896
334.597	3.97205
337.49	3.7503
340.382	0.886292
343.275	41.6528
346.168	5.0412
349.061	5.80377
351.953	0.735718
354.846	35.3779
357.739	26.504
360.631	34.1637
363.524	20.6719
366.417	37.2377
369.31	35.0671
372.202	51.014
375.095	41.6524
377.988	56.1964
380.88	59.543
383.773	62.9883
386.666	51.2
389.558	49.1732
392.451	45.9703
395.344	54.9407
398.236	48.6223
401.129	37.7319
404.022	24.3043
406.915	11.6908
409.807	2.91455
412.7	12.6691
415.593	3.34192
418.485	23.7267
421.378	24.4316
424.271	23.2866
427.163	43.5703
430.056	40.7745
432.949	22.2216
435.842	20.2525
438.734	30.8469
441.627	46.1645
444.52	38.6867
447.412	24.1661
450.305	33.9627
453.198	17.423
456.091	27.1737
458.983	18.03
461.876	13.3626
464.769	6.8334
467.661	19.1089
470.554	7.39587
473.447	11.7163
476.339	6.36282
479.232	15.672
482.125	6.33691
485.017	12.4085
487.91	12.9272
490.803	1.64868
493.696	15.1807
496.588	16.6495
499.481	17.6744
502.374	11.2447
505.266	14.9487
508.159	19.3245
511.052	6.28384
513.944	12.4715
516.837	15.0421
519.73	0.141296
522.623	0.817993
525.515	16.3568
528.408	6.77924
531.301	7.54538
534.193	8.45932
537.086	9.57629
539.979	13.0034
542.871	6.54861
545.764	14.9916
548.657	3.5975
551.55	0.50827
554.442	13.6674
557.335	15.448
560.228	21.5457
563.12	5.51932
566.013	17.191
568.906	20.5127
571.798	29.1397
574.691	11.1567
577.584	21.1235
580.477	30.1794
583.369	48.2178
586.262	31.248
589.155	33.459
592.047	50.5377
594.94	34.3349
597.833	34.3312
600.726	47.6352
603.618	64.7357
606.511	54.3665
609.404	61.5649
612.296	50.4763
615.189	55.8546
618.082	68.0756
620.974	65.6675
623.867	77.1818
626.76	84.162
629.653	89.2289
632.545	77.4878
635.438	73.4328
638.331	66.9833
641.223	78.3
644.116	50.7046
647.009	52.3464
649.901	58.6193
652.794	58.6207
655.687	39.817
658.58	18.5587
661.472	36.5583
664.365	23.1894
667.258	33.665
670.15	9.6568
673.043	33.8944
675.936	36.0184
678.828	8.85895
681.721	18.975
684.614	9.29755
687.506	14.9584
690.399	0.198425
693.292	5.24136
696.185	1.20062
699.077	19.0873
701.97	8.70477
704.863	2.65198
707.755	19.7538
710.648	10.4771
713.541	5.37619
716.433	13.8371
719.326	12.3578
722.219	28.8549
725.112	17.6906
728.004	14.8687
730.897	9.9704
733.79	18.6513
736.682	31.633
739.575	22.6683
742.468	11.3756
745.361	8.21783
748.253	20.7933
751.146	27.0385
754.039	32.2006
756.931	45.2666
759.824	36.1304
762.717	35.8667
765.609	53.7844
768.502	47.2158
771.395	57.2247
774.288	70.8297
777.18	85.596
780.073	52.5983
782.966	87.99
785.858	78.1468
788.751	79.873
791.644	95.5171
794.536	73.3976
797.429	90.525
800.322	95.5244
803.215	88.421
806.107	78.5299
809	83.8462
811.893	66.3688
814.785	61.9461
817.678	70.041
820.571	46.8987
823.463	42.1309
826.356	34.8156
829.249	31.7035
832.141	14.5304
835.034	21.4901
837.927	26.9562
840.82	10.3338
843.712	2.845
846.605	11.0679
849.498	15.6442
852.39	18.5046
855.283	8.06598
858.176	6.36853
861.068	11.4717
863.961	18.1967
866.854	7.60925
869.747	24.8634
872.639	16.1068
875.532	9.90924
878.425	11.5379
881.317	18.6969
884.21	0.66626
887.103	30.8695
889.995	8.65552
892.888	25.0719
895.781	19.319
898.674	34.5701
901.566	10.3816
904.459	9.4017
907.352	9.38263
910.244	13.6017
913.137	39.12
916.03	15.3851
918.923	31.5516
921.815	16.1637
924.708	17.5577
927.601	22.7203
930.493	26.5047
933.386	16.5287
936.279	14.7556
939.171	11.1266
942.064	3.92697
944.957	8.29895
947.85	4.51267
950.742	26.239
953.635	29.1049
956.528	20.0362
959.42	6.72824
962.313	25.9995
965.206	21.3976
968.098	9.24808
970.991	9.90848
973.884	13.3469
976.777	25.2958
979.669	24.5845
982.562	29.5913
985.455	26.9286
988.347	26.6336
991.24	25.3793
994.133	17.4666
997.025	2.38516
999.918	7.77908
1002.81	10.4394
1005.7	16.7277
1008.6	13.4629
1011.49	1.75388
1014.38	2.0928
1017.27	7.75061
1020.17	11.4356
1023.06	5.04413
1025.95	1.93237
1028.85	8.54413
1031.74	0.226196
1034.63	23.8609
1037.52	22.283
1040.42	20.2428
1043.31	0.647827
1046.2	8.14438
1049.09	9.52875
1051.99	2.67786
1054.88	22.3367
1057.77	5.61435
1060.66	4.04352
1063.56	18.654
1066.45	14.1638
1069.34	16.868
1072.24	22.1744
1075.13	6.16452
1078.02	5.68948
1080.91	6.75128
1083.81	15.2538
1086.7	6.67957
1089.59	16.8773
1092.48	20.0608
1095.38	22.7205
1098.27	21.3167
1101.16	24.8657
1104.06	15.4614
1106.95	23.3133
1109.84	12.277
1112.73	4.18039
1115.63	18.5467
1118.52	10.3113
1121.41	12.3249
1124.3	4.9378
1127.2	0.667114
1130.09	19.364
1132.98	23.522
1135.88	12.8546
1138.77	10.7405
1141.66	14.7696
1144.55	17.5169
1147.45	15.429
1150.34	19.706
1153.23	12.5842
1156.12	9.2049
1159.02	20.3836
1161.91	19.6346
1164.8	13.6886
1167.69	11.4619
1170.59	8.12666
1173.48	7.0209
1176.37	13.2368
1179.27	8.07649
1182.16	1.65633
1185.05	3.37778
1187.94	13.9076
1190.84	15.5238
1193.73	13.1432
1196.62	19.5848
1199.51	14.3717
1202.41	7.46118
1205.3	21.6019
1208.19	17.066
1211.09	17.0848
1213.98	8.61479
1216.87	16.1924
1219.76	21.9361
1222.66	4.17296
1225.55	8.02176
