Measurement: Raman, 780 nm, unoriented, Raman Data Processed
Mineral: Derriksite
Rruff sample: R100223
Ideal chemistry: Cu^2+^_4_(U^6+^O_2_)(Se^4+^O_3_)_2_(OH)_6_
Locality: Musonoi mine, Kolwezi, Katanga, Congo
Source: William W. Pinch
Description: Dark green crystal associated with metatorbernite, malachite and brochantite
Raman shift (cm-1)	intensity
147.013	0
149.906	2.32139
152.798	5.31665
155.691	5.80194
158.584	4.76374
161.477	5.90798
164.369	10.6666
167.262	12.9985
170.155	19.6743
173.047	15.4809
175.94	17.5933
178.833	21.52
181.726	17.4778
184.618	15.1123
187.511	12.1622
190.404	9.67862
193.296	6.26836
196.189	8.44951
199.082	8.1901
201.974	2.54556
204.867	3.10977
207.76	3.14949
210.652	5.38673
213.545	5.73295
216.438	14.2138
219.331	10.6668
222.223	13.1234
225.116	9.24015
228.009	11.2014
230.901	10.2913
233.794	5.75501
236.687	8.10057
239.579	7.31152
242.472	7.73862
245.365	8.82459
248.257	5.10766
251.15	6.63117
254.043	5.1872
256.936	4.9972
259.828	3.6506
262.721	4.18284
265.614	3.29413
268.506	2.2487
271.399	5.876
274.292	5.37275
277.185	4.79764
280.077	2.59913
282.97	3.89022
285.863	4.50529
288.755	3.01329
291.648	0.089176
294.541	2.97889
297.433	3.84268
300.326	0.587498
303.219	2.49131
306.111	0.179668
309.004	5.18535
311.897	3.87162
314.79	0.967937
317.682	2.26685
320.575	1.67711
323.468	7.95652
326.36	3.84467
329.253	0.938502
332.146	3.90941
335.038	5.68004
337.931	3.97555
340.824	8.30909
343.717	5.08086
346.609	8.91141
349.502	0.950329
352.395	2.65287
355.287	4.0893
358.18	1.94412
361.073	12.37
363.965	14.3812
366.858	19.2452
369.751	25.5856
372.644	32.3373
375.536	32.646
378.429	32.1513
381.322	30.1695
384.214	27.0612
387.107	22.5059
390	19.5542
392.892	11.3971
395.785	13.6495
398.678	7.81396
401.57	9.54402
404.463	12.3559
407.356	17.7771
410.249	9.04135
413.141	6.29305
416.034	6.85262
418.927	5.44743
421.819	0.369167
424.712	2.00337
427.605	1.79075
430.498	0.658314
433.39	0.077118
436.283	2.03027
439.176	1.8627
442.068	4.93222
444.961	3.79125
447.854	0.266979
450.746	5.40903
453.639	4.84875
456.532	2.71789
459.425	1.00032
462.317	5.93177
465.21	6.20675
468.103	9.78703
470.995	3.54711
473.888	6.66241
476.781	3.46617
479.673	3.98126
482.566	4.58415
485.459	3.54913
488.351	5.22665
491.244	5.82041
494.137	5.65563
497.029	4.78286
499.922	7.64331
502.815	5.97339
505.708	2.61593
508.6	3.86005
511.493	3.49111
514.386	8.94967
517.278	3.78675
520.171	4.50259
523.064	2.5759
525.957	6.82706
528.849	2.32338
531.742	4.57989
534.635	1.91952
537.527	0.009151
540.42	0.411396
543.313	0.520969
546.205	0.094952
549.098	0.344032
551.991	1.13968
554.884	2.25588
557.776	6.68108
560.669	0.098984
563.562	0.885094
566.454	4.81932
569.347	0.962479
572.24	4.69309
575.132	0.864231
578.025	2.3339
580.918	0.215012
583.811	5.06471
586.703	3.48342
589.596	7.43927
592.489	7.59785
595.381	14.5859
598.274	15.6271
601.167	18.4075
604.059	30.4934
606.952	30.5616
609.845	40.1765
612.737	54.5946
615.63	60.0978
618.523	59.6741
621.416	60.4816
624.308	58.693
627.201	55.3196
630.094	45.4975
632.986	38.8681
635.879	33.0361
638.772	25.7559
641.664	22.9498
644.557	19.093
647.45	18.5124
650.342	10.5718
653.235	12.6813
656.128	6.00537
659.021	9.58007
661.913	3.60245
664.806	5.49806
667.699	0.272961
670.591	0.200256
673.484	1.05445
676.377	5.36039
679.269	4.98312
682.162	0.543301
685.055	1.69724
687.948	3.46407
690.84	2.97483
693.733	5.0216
696.626	5.7785
699.518	2.37625
702.411	11.4029
705.304	6.33785
708.197	12.0409
711.089	18.1101
713.982	28.4443
716.875	34.2524
719.767	42.35
722.66	45.6893
725.553	50.0143
728.445	45.5729
731.338	44.7769
734.231	37.1003
737.124	27.0048
740.016	20.1924
742.909	8.90754
745.802	6.94022
748.694	5.20944
751.587	7.20849
754.48	0.848164
757.372	3.79297
760.265	4.57354
763.158	4.09957
766.051	3.34068
768.943	2.18045
771.836	2.67482
774.729	2.71756
777.621	5.30555
780.514	9.06609
783.407	7.87903
786.299	7.83921
789.192	10.3493
792.085	10.266
794.977	11.2003
797.87	14.4383
800.763	16.6263
803.655	22.6549
806.548	24.8196
809.441	31.2299
812.334	33.7375
815.226	41.773
818.119	43.57
821.012	46.052
823.904	47.909
826.797	50.3894
829.69	52.3647
832.582	50.8552
835.475	51.0222
838.368	44.0839
841.261	45.633
844.153	38.3006
847.046	36.0567
849.939	35.068
852.831	27.4725
855.724	20.1985
858.617	18.1169
861.51	11.7168
864.402	12.0051
867.295	12.0506
870.188	4.06414
873.08	7.25687
875.973	6.1927
878.866	3.13906
881.758	2.04652
884.651	0.010868
887.544	5.62058
890.437	0.343544
893.329	0.640316
896.222	1.42804
899.115	3.92619
902.007	2.15747
904.9	3.60884
907.793	0.778229
910.685	2.8328
913.578	4.36929
916.471	6.94191
919.364	1.01051
922.256	5.18127
925.149	2.07738
928.042	3.97565
930.934	7.92954
933.827	2.78507
936.72	1.3955
939.612	3.78895
942.505	7.29235
945.398	3.01383
948.29	0.151354
951.183	1.78297
954.076	2.83738
956.968	1.98541
959.861	4.94032
962.754	4.32283
965.647	7.16888
968.539	1.00606
971.432	5.38099
974.325	2.68257
977.217	2.37727
980.11	3.05568
983.003	3.96529
985.895	1.34693
988.788	2.92302
991.681	0.471485
994.574	4.56261
997.466	3.33884
1000.36	1.10755
1003.25	4.45618
1006.14	1.25377
1009.04	4.69822
1011.93	4.22553
1014.82	5.1799
1017.72	3.94137
1020.61	3.14189
1023.5	3.4425
1026.39	7.44515
1029.29	5.1917
1032.18	2.41289
1035.07	2.54113
1037.96	3.16068
1040.86	6.50932
1043.75	3.78815
1046.64	6.44582
1049.54	2.05672
1052.43	7.97461
1055.32	0.491282
1058.21	2.63328
1061.11	0.663153
1064	6.6292
1066.89	3.91668
1069.78	6.57274
1072.68	3.36462
1075.57	4.85356
1078.46	2.30338
1081.35	4.91597
1084.25	8.17514
1087.14	3.36443
1090.03	1.80072
1092.92	1.34207
1095.82	2.42608
1098.71	5.53965
1101.6	2.4701
1104.5	5.15931
1107.39	9.00144
1110.28	4.53913
1113.17	3.71128
1116.07	7.41971
1118.96	2.86773
1121.85	1.58534
1124.74	1.35186
1127.64	1.65771
1130.53	2.62778
1133.42	1.60223
1136.32	5.0376
1139.21	2.28863
1142.1	3.0849
1144.99	4.40259
1147.89	4.07663
1150.78	2.96635
1153.67	6.67349
1156.57	4.33238
1159.46	1.94463
1162.35	4.00656
1165.24	5.07968
1168.13	4.90345
1171.03	4.84707
1173.92	7.2451
1176.81	3.06377
1179.71	0.106308
1182.6	5.06564
1185.49	1.66943
1188.38	4.81089
1191.28	6.13444
1194.17	0.95521
1197.06	6.34631
1199.95	0.721256
1202.85	4.87724
1205.74	1.38191
1208.63	7.4905
1211.53	4.98832
1214.42	2.47851
1217.31	4.34087
1220.2	3.44528
1223.1	1.61082
1225.99	6.08217
1228.88	3.35652
1231.78	2.45656
1234.67	0.634228
1237.56	4.06712
1240.45	6.88865
1243.35	6.90267
1246.24	6.34583
1249.13	4.58371
1252.02	3.97253
1254.92	4.26799
1257.81	9.11567
1260.7	0.120918
1263.59	4.17836
1266.49	3.0695
1269.38	3.63681
1272.27	2.20742
1275.16	3.98882
1278.06	4.13322
1280.95	5.55577
1283.84	0.530535
