Measurement: Raman, 780 nm, unoriented, Raman Data Processed
Mineral: Destinezite
Rruff sample: R050631
Ideal chemistry: Fe^3+^_2_(PO_4_)(S^6+^O_4_)(OH)6H_2_O
Locality: Patagonia Mountains, Arizona, USA
Source: University of Arizona Mineral Museum
Description: Colorless acicular crystal
Raman shift (cm-1)	intensity
97.3287	0
100.704	3.57092
104.078	0.792465
107.453	7.3324
110.828	3.7848
114.203	1.15183
117.578	3.24858
120.952	8.0426
124.327	10.0089
127.702	16.3516
131.077	17.9474
134.452	24.7995
137.826	38.3882
141.201	40.0269
144.576	31.8344
147.951	26.4944
151.326	21.1084
154.701	14.2188
158.075	6.20203
161.45	3.19943
164.825	2.01941
168.2	0.935257
171.575	0.120285
174.949	0.390625
178.324	1.63765
181.699	2.08647
185.074	4.78931
188.449	11.0668
191.823	13.7428
195.198	22.715
198.573	27.285
201.948	33.0005
205.323	35.6617
208.697	25.488
212.072	16.3964
215.447	8.00226
218.822	5.02646
222.197	10.3995
225.572	7.55353
228.946	8.97111
232.321	11.2703
235.696	9.88202
239.071	10.8972
242.446	14.4594
245.821	13.8879
249.195	14.6828
252.57	14.063
255.945	13.094
259.32	13.4308
262.695	13.2766
266.069	16.8441
269.444	19.1966
272.819	22.8015
276.194	24.8609
279.569	32.2496
282.943	36.5577
286.318	37.7523
289.693	41.2404
293.068	42.0043
296.443	38.527
299.817	41.7375
303.192	31.8297
306.567	26.3043
309.942	13.0171
313.317	4.83376
316.692	2.44286
320.066	0.499855
323.441	1.07489
326.816	0.423218
330.191	1.1665
333.566	1.11383
336.94	0.022675
340.315	1.83244
343.69	3.38855
347.065	0.649986
350.44	3.60195
353.815	5.54621
357.189	7.99471
360.564	9.80389
363.939	10.1366
367.314	10.5291
370.689	11.7206
374.063	7.83388
377.438	4.76946
380.813	2.71922
384.188	1.70337
387.563	0.424866
390.938	2.56801
394.312	1.94728
397.687	1.31834
401.062	2.07262
404.437	4.87922
407.812	5.10374
411.186	4.89485
414.561	5.50017
417.936	7.16295
421.311	9.34923
424.686	7.77398
428.06	10.3504
431.435	11.5737
434.81	13.0775
438.185	15.117
441.56	15.2035
444.935	19.2535
448.309	18.8093
451.684	26.6625
455.059	32.4963
458.434	36.8679
461.809	41.3504
465.183	42.1681
468.558	37.7042
471.933	30.8373
475.308	26.0625
478.683	13.8819
482.058	12.3426
485.432	8.29703
488.807	7.58278
492.182	1.86882
495.557	2.38584
498.932	0.817078
502.306	0.84449
505.681	1.43642
509.056	1.49098
512.431	0.452415
515.806	1.66785
519.181	0.834175
522.555	2.70098
525.93	3.58527
529.305	6.14411
532.68	7.90744
536.055	11.4365
539.429	12.59
542.804	15.5037
546.179	17.8922
549.554	19.053
552.929	19.5093
556.303	18.002
559.678	12.5395
563.053	12.9926
566.428	8.66467
569.803	6.11435
573.178	2.31415
576.552	2.1808
579.927	1.34493
583.302	0.245605
586.677	3.3165
590.052	3.89172
593.426	4.34256
596.801	6.39079
600.176	7.84586
603.551	10.1592
606.926	10.9675
610.301	11.9755
613.675	12.7884
617.05	9.99789
620.425	10.0222
623.8	8.74404
627.174	8.76227
630.549	6.90398
633.924	6.10161
637.299	3.83499
640.674	2.91618
644.049	2.43341
647.423	0.271187
650.798	1.82417
654.173	0.038033
657.548	0.568657
660.923	1.20606
664.298	0.104752
667.672	0.034382
671.047	0.211555
674.422	0.994949
677.797	1.03582
681.172	2.37675
684.546	3.35017
687.921	1.44765
691.296	0.592724
694.671	3.57296
698.046	1.48101
701.42	2.57629
704.795	1.28933
708.17	4.66743
711.545	2.75745
714.92	2.21759
718.294	2.47364
721.669	2.90845
725.044	2.96342
728.419	1.76333
731.794	1.71483
735.169	2.87801
738.543	3.38015
741.918	2.15197
745.293	2.38964
748.668	4.43092
752.043	2.07133
755.418	0.415161
758.792	1.88846
762.167	1.95311
765.542	2.75286
768.917	0.300735
772.292	2.13843
775.666	1.21094
779.041	2.50649
782.416	1.101
785.791	2.45435
789.166	2.20634
792.54	3.5058
795.915	2.47282
799.29	2.29276
802.665	3.24993
806.04	2.3664
809.414	1.46207
812.789	3.20921
816.164	5.16592
819.539	2.41604
822.914	2.16366
826.289	1.72313
829.663	3.29015
833.038	3.56337
836.413	2.6208
839.788	5.28093
843.163	4.0034
846.538	2.7685
849.912	4.13954
853.287	5.7069
856.662	2.32704
860.037	2.83908
863.412	3.02836
866.786	3.5829
870.161	5.597
873.536	2.52092
876.911	2.71688
880.286	5.55896
883.66	3.23107
887.035	3.80803
890.41	2.77429
893.785	2.00272
897.16	1.79452
900.534	0.323341
903.909	2.81483
907.284	1.61874
910.659	1.39989
914.034	0.182346
917.409	1.9716
920.783	0.568085
924.158	0.812714
927.533	0.521965
930.908	0.491306
934.283	0.230015
937.658	1.98209
941.032	2.91563
944.407	4.07775
947.782	3.67671
951.157	7.54794
954.532	13.1147
957.906	18.1704
961.281	27.5995
964.656	39.2557
968.031	54.8977
971.406	52.1634
974.78	40.5813
978.155	33.0598
981.53	32.3899
984.905	36.9851
988.28	43.0177
991.654	28.8764
995.029	13.5707
998.404	8.02527
1001.78	3.50431
1005.15	5.60867
1008.53	6.30152
1011.9	5.83377
1015.28	8.25169
1018.65	8.21499
1022.03	14.0665
1025.4	16.2078
1028.78	17.747
1032.15	25.3292
1035.53	32.3351
1038.9	41.7809
1042.28	55.1841
1045.65	67.2713
1049.03	70.5683
1052.4	69.5984
1055.78	58.3818
1059.15	42.961
1062.53	24.1387
1065.9	13.9749
1069.28	9.27577
1072.65	6.11357
1076.03	8.34962
1079.4	6.76128
1082.77	5.58936
1086.15	3.72382
1089.52	1.34224
1092.9	0.274807
1096.27	0.125427
1099.65	0.422615
1103.02	0.068649
1106.4	0.739113
1109.77	0.236702
1113.15	0.070328
1116.52	0.339233
1119.9	2.11471
1123.27	0.310993
1126.65	1.98968
1130.02	1.21193
1133.4	0.71769
1136.77	2.26099
1140.15	1.58453
1143.52	1.7713
1146.9	0.723995
1150.27	0.662426
1153.65	1.20294
1157.02	1.60678
1160.39	1.01172
1163.77	1.50011
1167.14	1.69147
1170.52	3.66071
1173.89	3.74898
1177.27	5.30825
1180.64	6.01685
1184.02	5.90274
1187.39	5.31261
1190.77	5.32616
1194.14	4.95357
1197.52	5.63677
1200.89	1.49657
1204.27	0.822365
1207.64	2.51492
1211.02	3.66472
1214.39	0.057232
1217.77	1.82271
1221.14	2.0341
1224.52	2.84975
1227.89	2.18304
1231.27	0.385727
1234.64	1.13383
1238.02	2.21549
1241.39	0.939041
1244.77	1.22498
1248.14	2.39955
1251.52	2.83954
1254.89	1.51649
1258.27	0.248741
1261.64	3.21265
1265.01	1.29999
1268.39	0.734867
1271.76	0.578232
1275.14	3.01481
1278.51	1.34758
1281.89	0.749748
1285.26	0.793446
