Measurement: Raman, 780 nm, unoriented, Raman Data Processed
Mineral: Diaboleite
Rruff sample: R050270
Ideal chemistry: Cu^2+^Pb^2+^_2_Cl_2_(OH)_4_
Locality: Tiger, Pinal County, Arizona, USA
Source: Marcus Origlieri
Description: Blue irregular crystalline
Measured chemistry: (Cu_0.97_Pb_0.03_)_Î£=1_Pb_2.00_Cl_2.00_(OH)_4_
Raman shift (cm-1)	intensity
160.169	0
163.062	0.654121
165.955	0.541496
168.847	0.61684
171.74	1.50349
174.633	2.51386
177.525	2.0933
180.418	2.7035
183.311	2.64106
186.203	1.93771
189.096	0.873501
191.989	0.096142
194.882	0.763805
197.774	0.974148
200.667	1.08065
203.56	1.46053
206.452	2.97374
209.345	3.48481
212.238	5.07317
215.131	5.71073
218.023	5.7511
220.916	6.33639
223.809	5.0867
226.701	4.28644
229.594	3.459
232.487	3.57848
235.379	1.972
238.272	1.58707
241.165	1.38138
244.058	0.611303
246.95	0.667686
249.843	0.30209
252.736	0.473366
255.628	0.233196
258.521	0.035999
261.414	0.652983
264.306	0.083303
267.199	2.14796
270.092	2.75157
272.985	3.16047
275.877	3.82508
278.77	3.46002
281.663	5.51525
284.555	5.82797
287.448	5.35958
290.341	4.358
293.233	4.24964
296.126	2.96425
299.019	3.4004
301.911	1.60132
304.804	1.76804
307.697	1.40423
310.59	0.966122
313.482	0.039005
316.375	0.086245
319.268	0.191355
322.16	0.558666
325.053	0.943718
327.946	1.22842
330.839	1.2672
333.731	1.44206
336.624	1.36656
339.517	2.06581
342.409	2.26129
345.302	2.86054
348.195	2.51981
351.087	3.06864
353.98	3.48439
356.873	4.64664
359.765	3.63559
362.658	5.19888
365.551	5.29573
368.443	6.1509
371.336	5.62317
374.229	5.64418
377.122	5.45141
380.014	4.83232
382.907	4.2416
385.8	4.23181
388.692	3.7149
391.585	3.30181
394.478	3.12638
397.37	3.07655
400.263	2.30464
403.156	1.8553
406.049	0.92053
408.941	1.34985
411.834	0.772934
414.727	0.874495
417.619	0.199053
420.512	0.067753
423.405	0.187119
426.298	0.153439
429.19	0.298237
432.083	0.461304
434.976	0.65901
437.868	0.078051
440.761	0.184465
443.654	0.103346
446.546	0.676525
449.439	0.353647
452.332	0.831017
455.224	0.14917
458.117	0.845928
461.01	1.80642
463.903	1.27752
466.795	1.52573
469.688	0.812222
472.581	0.875259
475.473	1.10709
478.366	0.637224
481.259	0.520601
484.152	0.065161
487.044	0.684208
489.937	0.014214
492.83	0.911957
495.722	0.3592
498.615	0.383482
501.508	0.172949
504.4	0.815546
507.293	0.674969
510.186	0.694658
513.079	1.08727
515.971	0.936262
518.864	0.373034
521.757	0.953661
524.649	0.396667
527.542	1.64404
530.435	0.579767
533.327	0.700683
536.22	1.48101
539.113	0.641251
542.006	0.491179
544.898	1.27018
547.791	0.339594
550.684	0.627976
553.576	0.641544
556.469	0.844651
559.362	0.373987
562.255	0.532165
565.147	0.757846
568.04	1.4597
570.933	0.464704
573.825	0.807246
576.718	1.26106
579.611	0.753278
582.503	0.468239
585.396	1.03813
588.289	0.299746
591.181	1.08847
594.074	0.626733
596.967	1.51723
599.86	0.627264
602.752	0.015681
605.645	0.810936
608.538	0.824759
611.43	0.04493
614.323	0.411102
617.216	0.252573
620.108	0.328604
623.001	1.2402
625.894	0.4589
628.787	0.236135
631.679	0.680955
634.572	0.82836
637.465	1.42312
640.357	0.43805
643.25	0.963285
646.143	1.2196
649.035	0.925564
651.928	1.69186
654.821	0.256813
657.713	0.516125
660.606	1.27243
663.499	1.42458
666.392	1.02198
669.284	0.92263
672.177	0.849994
675.07	1.24467
677.962	0.612222
680.855	1.31969
683.748	0.829402
686.64	0.715618
689.533	0.740142
692.426	0.467147
695.319	0.35978
698.211	0.899648
701.104	0.091254
703.997	0.00501
706.889	0.065802
709.782	0.136063
712.675	0.532001
715.567	0.26025
718.46	0.208871
721.353	0.11644
724.246	0.269395
727.138	0.239076
730.031	0.286855
732.924	0.398651
735.816	0.538605
738.709	0.266974
741.602	0.204042
744.495	0.756853
747.387	0.373883
750.28	0.859261
753.173	0.555548
756.065	0.08247
758.958	0.774314
761.851	0.647626
764.743	1.35815
767.636	1.69698
770.529	1.67235
773.422	1.4095
776.314	1.72541
779.207	1.69142
782.1	0.721312
784.992	1.13722
787.885	1.01124
790.778	1.88874
793.67	1.54212
796.563	1.2175
799.456	1.24012
802.348	0.954901
805.241	0.547483
808.134	1.71931
811.027	1.22401
813.919	0.008984
816.812	0.566068
819.705	0.845065
822.597	1.44233
825.49	1.12703
828.383	0.844577
831.275	0.136398
834.168	1.06936
837.061	0.829308
839.954	0.45009
842.846	0.656021
845.739	0.714402
848.632	0.946357
851.524	0.818427
854.417	1.36286
857.31	1.0108
860.202	1.15491
863.095	0.901347
865.988	0.144481
868.881	1.04632
871.773	1.20713
874.666	0.712032
877.559	0.179971
880.451	0.493757
883.344	0.401508
886.237	0.434404
889.13	0.564781
892.022	0.588289
894.915	0.037081
897.808	0.873934
900.7	0.042604
903.593	0.892982
906.486	0.97625
909.378	0.18391
912.271	0.547541
915.164	0.642349
918.057	0.697533
920.949	0.320067
923.842	0.607395
926.735	0.086123
929.627	0.622626
932.52	0.241361
935.413	0.430279
938.305	0.449848
941.198	0.515224
944.091	0.667851
946.984	1.5306
949.876	0.904436
952.769	0.47623
955.662	0.714827
958.554	0.437464
961.447	0.766643
964.34	0.765256
967.232	0.898948
970.125	0.538183
973.018	0.463948
975.91	1.064
978.803	0.128109
981.696	0.795615
984.589	0.71188
987.481	0.703459
990.374	0.17688
993.267	0.166311
996.159	0.700238
999.052	0.340858
1001.95	0.2258
1004.84	0.587888
1007.73	0.335495
1010.62	0.401443
1013.52	0.321309
1016.41	1.17039
1019.3	1.3022
1022.19	0.955702
1025.09	0.367435
1027.98	0.210574
1030.87	0.800183
1033.77	0.466763
1036.66	0.630492
1039.55	0.832191
1042.44	1.13363
1045.34	0.057208
1048.23	0.469247
1051.12	0.409761
1054.01	0.580323
1056.91	0.725828
1059.8	0.945134
1062.69	1.02404
1065.58	1.15049
1068.48	0.569032
1071.37	1.33832
1074.26	1.07301
1077.15	0.119828
1080.05	1.22116
1082.94	1.20934
1085.83	0.714971
1088.73	0.577461
1091.62	0.827144
1094.51	0.522626
1097.4	0.826472
1100.3	0.887266
1103.19	0.794725
1106.08	0.609976
1108.97	0.551048
1111.87	0.094295
1114.76	0.316045
1117.65	0.50209
1120.55	0.32903
1123.44	0.592664
1126.33	0.306863
1129.22	0.39123
1132.12	0.439384
1135.01	0.601202
1137.9	0.456274
1140.79	0.163146
1143.69	1.0977
1146.58	0.873618
1149.47	1.23733
1152.37	0.452494
1155.26	0.737974
1158.15	0.339466
1161.04	0.49972
1163.94	0.520188
1166.83	1.08274
1169.72	0.670199
1172.61	1.02121
1175.51	0.622751
1178.4	0.824254
1181.29	0.228634
1184.18	0.314136
1187.08	0.625566
1189.97	0.493627
1192.86	1.04107
1195.76	0.401965
1198.65	0.98717
1201.54	0.885729
1204.43	0.478706
1207.33	0.05407
1210.22	1.04968
1213.11	0.888702
1216.01	1.05269
1218.9	0.12208
1221.79	0.751218
1224.68	0.343791
1227.58	0.479788
1230.47	0.980308
1233.36	0.115212
1236.25	0.907506
1239.15	0.509001
1242.04	0.072886
1244.93	1.49046
1247.82	0.299238
1250.72	1.21968
1253.61	1.5509
1256.5	1.16962
1259.39	0.822075
1262.29	0.577923
1265.18	0.278131
1268.07	1.42304
1270.97	1.1743
1273.86	0.856612
1276.75	0.068182
1279.64	1.49965
1282.54	0.344065
1285.43	0.000928
