Measurement: Raman, 532 nm, unoriented, Raman Data Processed
Mineral: Diaoyudaoite
Rruff sample: R130023
Ideal chemistry: NaAl_11_O_17_
Locality: Synthetic
Source: Ken Roberts
Description: Purple hexagonal tabular crystal
Raman shift (cm-1)	intensity
174.214	0
177.107	11.6921
180	46.4878
182.892	101.554
185.785	153.762
188.678	209.339
191.57	257.988
194.463	280.379
197.356	204.557
200.249	133.619
203.141	83.0496
206.034	46.1702
208.927	13.1277
211.819	3.35986
214.712	13.2561
217.605	3.18213
220.497	3.82129
223.39	25.8867
226.283	54.3225
229.175	82.7524
232.068	107.501
234.961	143.112
237.854	188.998
240.746	234.22
243.639	278.697
246.532	290.117
249.424	254.537
252.317	184.077
255.21	116.561
258.103	59.2932
260.995	32.5956
263.888	10.9438
266.781	4.88928
269.673	0.681519
272.566	6.07031
275.459	4.86011
278.351	3.45056
281.244	4.11231
284.137	14.7755
287.029	30.0272
289.922	40.8816
292.815	51.4606
295.708	66.2862
298.6	81.698
301.493	98.8336
304.386	112.583
307.278	129.969
310.171	153.231
313.064	183.91
315.957	207.152
318.849	225.261
321.742	242.717
324.635	224.545
327.527	163.098
330.42	97.6706
333.313	67.3188
336.205	39.5403
339.098	27.1344
341.991	20.4537
344.884	13.981
347.776	18.8755
350.669	11.9521
353.562	12.1929
356.454	13.4486
359.347	8.72778
362.24	3.99744
365.132	13.9815
368.025	12.9788
370.918	5.1947
373.81	8.64917
376.703	9.4928
379.596	6.96729
382.489	6.95203
385.381	2.09314
388.274	2.50769
391.167	3.17664
394.059	2.28088
396.952	1.7898
399.845	2.6228
402.738	0.725342
405.63	3.62488
408.523	8.6438
411.416	20.1892
414.308	33.5814
417.201	51.3594
420.094	53.3258
422.986	62.0531
425.879	59.59
428.772	50.302
431.664	40.6707
434.557	24.8715
437.45	24.0868
440.343	18.2435
443.235	11.2667
446.128	11.6038
449.021	8.97864
451.913	7.2179
454.806	1.22766
457.699	3.26965
460.591	2.78052
463.484	2.60657
466.377	1.21411
469.27	4.14087
472.162	9.24841
475.055	10.3522
477.948	10.2684
480.84	14.3451
483.733	7.92358
486.626	8.24683
489.519	8.77576
492.411	8.74683
495.304	6.68835
498.197	8.69788
501.089	8.66882
503.982	7.58582
506.875	3.30237
509.767	0.623535
512.66	6.04651
515.553	2.32959
518.446	2.57654
521.338	0.247925
524.231	0.216797
527.124	3.68054
530.016	1.23938
532.909	0.93396
535.802	6.6012
538.694	8.33191
541.587	6.29077
544.48	0.696411
547.372	5.02014
550.265	4.61694
553.158	6.40393
556.051	3.21643
558.943	6.21899
561.836	10.1956
564.729	5.56616
567.621	13.9083
570.514	12.4216
573.407	14.6818
576.299	10.8318
579.192	10.7014
582.085	15.2116
584.978	16.4316
587.87	17.2516
590.763	16.5735
593.656	16.6321
596.548	18.8321
599.441	16.854
602.334	11.1001
605.226	6.48572
608.119	6.22839
611.012	1.5354
613.905	3.33301
616.797	2.46179
619.69	10.8527
622.583	6.72144
625.475	4.71729
628.368	0.648193
631.261	9.69214
634.154	13.4769
637.046	15.3842
639.939	8.68823
642.832	11.8605
645.724	12.8856
648.617	11.0927
651.51	7.28223
654.402	6.95361
657.295	7.94604
660.188	10.1306
663.081	7.38086
665.973	4.89258
668.866	5.34338
671.759	11.0109
674.651	15.9857
677.544	17.9283
680.437	24.2738
683.329	24.861
686.222	32.9369
689.115	29.1303
692.008	27.0321
694.9	16.3152
697.793	7.47583
700.686	1.52002
703.578	5.59936
706.471	2.82129
709.364	0.26355
712.256	4.72583
715.149	3.6294
718.042	1.50488
720.934	3.93213
723.827	2.56091
726.72	2.64185
729.613	3.02307
732.505	5.04785
735.398	8.63232
738.291	6.98694
741.183	11.5244
744.076	16.5514
746.969	24.6008
749.861	26.1462
752.754	27.5116
755.647	28.6913
758.54	35.6655
761.432	44.5543
764.325	49.7266
767.218	56.7269
770.11	61.8582
773.003	60.0023
775.896	51.0969
778.788	37.1815
781.681	25.1821
784.574	15.0931
787.467	19.9711
790.359	23.6604
793.252	25.676
796.145	22.2639
799.037	17.1399
801.93	17.7707
804.823	9.00464
807.716	13.0918
810.608	13.7914
813.501	10.7557
816.394	9.41553
819.286	14.4691
822.179	18.6633
825.072	12.6538
827.964	7.91821
830.857	4.10205
833.75	1.09509
836.643	7.3219
839.535	13.0795
842.428	18.4141
845.321	19.329
848.213	21.7822
851.106	20.4346
853.999	29.3833
856.891	26.6499
859.784	35.2347
862.677	32.5347
865.569	30.8702
868.462	28.1011
871.355	27.244
874.248	22.9094
877.14	21.8676
880.033	14.2578
882.926	6.79639
885.818	0.202637
888.711	1.57507
891.604	0.757935
894.496	3.39209
897.389	0.855713
900.282	4.33948
903.175	0.794434
906.067	3.30701
908.96	3.90918
911.853	8.44409
914.745	6.08752
917.638	7.17371
920.531	6.21448
923.423	14.6791
926.316	19.4293
929.209	13.9376
932.102	11.634
934.994	10.6688
937.887	10.7007
940.78	6.97119
943.672	4.29578
946.565	6.8833
949.458	5.99475
952.351	1.66602
955.243	2.70886
958.136	1.62842
961.029	5.75061
963.921	9.99194
966.814	11.4089
969.707	12.004
972.599	15.4147
975.492	17.2295
978.385	19.1577
981.278	11.9739
984.17	15.2667
987.063	16.5524
989.956	16.9558
992.848	22.9371
995.741	23.082
998.634	23.3374
1001.53	23.3436
1004.42	19.0648
1007.31	14.3446
1010.21	18.353
1013.1	18.8202
1015.99	10.3013
1018.88	10.754
1021.77	12.0027
1024.67	11.8925
1027.56	12.0302
1030.45	13.282
1033.35	12.5544
1036.24	11.3433
1039.13	5.36621
1042.02	9.82752
1044.92	12.0193
1047.81	14.9236
1050.7	5.95166
1053.6	4.50781
1056.49	2.76343
1059.38	2.18005
1062.27	6.99963
1065.17	3.4187
1068.06	7.34668
1070.95	7.05823
1073.84	3.6665
1076.74	5.86194
1079.63	4.31567
1082.52	6.00586
1085.41	10.0041
1088.31	7.32581
1091.2	5.26221
1094.09	5.04028
1096.99	7.50061
1099.88	10.1843
1102.77	5.15418
1105.66	9.77087
1108.56	0.946411
1111.45	1.02673
1114.34	0.886719
1117.23	4.39136
1120.13	7.52002
1123.02	0.489502
1125.91	0.018311
1128.81	1.59058
1131.7	4.00244
1134.59	5.69641
1137.48	5.32788
1140.38	1.24976
1143.27	0.412598
1146.16	4.30908
1149.05	5.52014
1151.95	8.12012
1154.84	5.67383
1157.73	1.53748
1160.62	5.50818
1163.52	11.8954
1166.41	4.64624
1169.3	5.50012
1172.2	8.75928
1175.09	9.91711
1177.98	10.6544
1180.87	8.41528
1183.77	8.33606
1186.66	2.33618
1189.55	1.03516
1192.44	0.056274
1195.34	3.19287
1198.23	4.79578
1201.12	3.36231
1204.02	7.88257
1206.91	4.16186
1209.8	5.16186
1212.69	4.07471
1215.59	4.91553
1218.48	1.12488
1221.37	0.619263
1224.26	2.1471
1227.16	3.47949
1230.05	5.97058
1232.94	3.91699
1235.84	3.15149
1238.73	3.43066
1241.62	7.97046
1244.51	9.63062
1247.41	13.9474
1250.3	13.4302
1253.19	12.1622
1256.08	13.6278
1258.98	18.4834
1261.87	24.0599
1264.76	12.7186
1267.65	15.85
1270.55	13.835
1273.44	13.1871
1276.33	7.6886
1279.23	13.0555
1282.12	9.77441
1285.01	7.47498
1287.9	2.59009
1290.8	1.64404
1293.69	3.64197
1296.58	1.88635
1299.47	0.250366
