Measurement: Raman, 532 nm, unoriented, Raman Data Processed
Mineral: Diaphorite
Rruff sample: R060173
Ideal chemistry: Ag^1+^_3_Pb^2+^_2_Sb^3+^_3_S^2-^_8_
Locality: Van Silver mine, Vancouver, British Columbia, Canada
Source: Ty Balacko
Description: Steel-gray striated prismatic crystals
Measured chemistry: (Pb_1.90_Ag_0.07_Cu_0.03_)_Î£=2_Ag_3.00_Sb_3.00_S_8.00_
Raman shift (cm-1)	intensity
134.136	0
137.511	2.01532
140.886	3.34391
144.261	2.53267
147.636	5.68541
151.011	8.13487
154.385	10.3856
157.76	8.61166
161.135	8.28689
164.51	9.16371
167.885	7.28326
171.259	7.05584
174.634	7.01406
178.009	5.78679
181.384	5.139
184.759	4.77278
188.133	3.73689
191.508	3.34214
194.883	2.78849
198.258	2.11472
201.633	1.81086
205.008	1.58474
208.382	0.07056
211.757	0.364769
215.132	0.056019
218.507	0.042278
221.882	-0.00746666
225.256	0.315203
228.631	0.449947
232.006	0.059601
235.381	0.19352
238.756	0.882004
242.131	0.237923
245.505	0.92775
248.88	0.374866
252.255	1.05682
255.63	2.13073
259.005	2.87492
262.38	2.17388
265.754	3.86245
269.129	4.26204
272.504	4.2519
275.879	5.58789
279.254	7.23349
282.628	7.31741
286.003	8.5475
289.378	9.53425
292.753	11.1882
296.128	13.2333
299.503	12.8326
302.877	12.8349
306.252	11.4147
309.627	11.0744
313.002	8.49002
316.377	7.01183
319.752	5.37352
323.126	4.62172
326.501	3.91566
329.876	3.29927
333.251	2.39709
336.626	1.2567
340	0.40821
343.375	0.661384
346.75	-0.149425
350.125	0.221853
353.5	0.0677222
356.875	0.380501
360.249	0.54175
363.624	0.3641
366.999	0.658621
370.374	0.902739
373.749	0.932806
377.123	0.649044
380.498	0.884064
383.873	1.19124
387.248	0.950279
390.623	1.31414
393.998	1.21216
397.372	1.33306
400.747	1.02311
404.122	1.36617
407.497	1.43765
410.872	0.657511
414.247	0.794529
417.621	1.02129
420.996	0.571987
424.371	0.703554
427.746	0.324379
431.121	0.876528
434.495	1.16415
437.87	1.14398
441.245	0.704075
444.62	0.785345
447.995	0.918804
451.37	0.416199
454.744	0.470091
458.119	0.83423
461.494	0.220964
464.869	1.25034
468.244	0.618216
471.618	0.833866
474.993	0.916178
478.368	0.120989
481.743	0.957939
485.118	0.985394
488.493	1.26137
491.867	0.69891
495.242	0.707956
498.617	0.0814
501.992	0.933626
505.367	0.595285
508.741	0.497622
512.116	0.759501
515.491	0.277487
518.866	1.15955
522.241	0.314791
525.616	1.28905
528.99	0.15687
532.365	0.218538
535.74	0.411959
539.115	0.877136
542.49	1.48206
545.865	0.613991
549.239	0.527319
552.614	0.031712
555.989	1.17411
559.364	0.291142
562.739	0.538227
566.114	0.75975
569.488	1.4339
572.863	0.489843
576.238	0.787779
579.613	0.583895
582.987	0.57692
586.362	0.690609
589.737	0.441145
593.112	1.46298
596.487	0.88368
599.862	0.905025
603.236	0.23839
606.611	0.205297
609.986	0.632645
613.361	0.012754
616.736	0.648403
620.111	0.553822
623.485	0.521746
626.86	0.549522
630.235	0.150759
633.61	0.603857
636.985	0.354567
640.36	0.545321
643.734	0.635155
647.109	0.17325
650.484	0.740257
653.859	0.508133
657.234	0.563154
660.609	0.47266
663.983	0.330029
667.358	0.03838
670.733	0.816954
674.108	0.8372
677.482	0.375696
680.857	0.54855
684.232	0.801632
687.607	1.5795
690.982	1.22717
694.357	0.591898
697.731	1.01897
701.106	0.799036
704.481	1.06463
707.856	0.639038
711.231	0.964006
714.606	0.802246
717.98	1.68472
721.355	0.606464
724.73	1.38514
728.105	0.050882
731.48	0.64683
734.855	0.931927
738.229	0.203913
741.604	1.57298
744.979	0.100525
748.354	0.701756
751.729	0.58197
755.104	0.400671
758.478	1.06677
761.853	1.04981
765.228	0.877007
768.603	0.114115
771.977	0.274611
775.352	0.074303
778.727	1.17066
782.102	0.013485
785.477	0.301142
788.852	1.36654
792.226	0.86916
795.601	1.30433
798.976	0.239107
802.351	0.591988
805.726	0.109198
809.101	0.645708
812.475	0.323112
815.85	0.438559
819.225	0.204397
822.6	0.665375
825.975	0.702528
829.35	0.767347
832.724	1.21688
836.099	1.06092
839.474	1.25025
842.849	1.41467
846.224	0.885061
849.598	1.20518
852.973	0.662857
856.348	1.07224
859.723	1.36805
863.098	0.645447
866.473	1.2352
869.847	1.02315
873.222	0.917696
876.597	0.32831
879.972	0.703876
883.347	1.30339
886.721	1.31548
890.096	0.489019
893.471	0.244537
896.846	0.357382
900.221	0.565174
903.596	0.080362
906.97	0.085907
910.345	0.296057
913.72	0.101658
917.095	0.774925
920.47	0.185493
923.845	0.609268
927.219	0.282476
930.594	0.610443
933.969	0.722395
937.344	0.689999
940.719	0.046787
944.093	0.103565
947.468	0.328909
950.843	0.690876
954.218	1.24367
957.593	1.31266
960.968	0.197601
964.342	1.11637
967.717	0.058462
971.092	0.553322
974.467	0.487057
977.842	0.447329
981.216	0.703308
984.591	1.18034
987.966	0.455124
991.341	0.492655
994.716	0.339867
998.091	0.719307
1001.47	0.749767
1004.84	1.0887
1008.22	0.26449
1011.59	1.25457
1014.97	0.335865
1018.34	0.331175
1021.71	0.487183
1025.09	0.933062
1028.46	0.853216
1031.84	0.324686
1035.21	0.617424
1038.59	1.33364
1041.96	0.530228
1045.34	1.25807
1048.71	0.616503
1052.09	0.834093
1055.46	0.804123
1058.84	0.458202
1062.21	0.871717
1065.59	0.596994
1068.96	0.795067
1072.34	0.343437
1075.71	0.195597
1079.09	0.451118
1082.46	1.55496
1085.84	1.33456
1089.21	0.608932
1092.59	0.375345
1095.96	0.685999
1099.34	1.45802
1102.71	1.11425
1106.09	1.25998
1109.46	1.0758
1112.83	0.728483
1116.21	1.64834
1119.58	0.240242
1122.96	0.035477
1126.33	0.967386
1129.71	0.151125
1133.08	0.122402
1136.46	0.397871
1139.83	0.544445
1143.21	0.877665
1146.58	0.24695
1149.96	1.00096
1153.33	0.48436
1156.71	1.53939
1160.08	0.661772
1163.46	0.509094
1166.83	0.035023
1170.21	0.856131
1173.58	1.10547
1176.96	0.807014
1180.33	0.206911
1183.71	0.162743
1187.08	1.35423
1190.45	0.784256
1193.83	1.02747
1197.2	0.364265
1200.58	1.04728
1203.95	0.729568
1207.33	1.06212
1210.7	0.300791
1214.08	0.756069
1217.45	0.747768
1220.83	1.08747
1224.2	0.83247
1227.58	0.484245
1230.95	0.903557
1234.33	0.295731
1237.7	1.087
1241.08	0.589003
1244.45	0.540758
1247.83	0.844423
1251.2	1.19036
1254.58	1.07795
1257.95	1.05728
1261.33	0.929728
1264.7	0.340248
1268.08	0.95167
1271.45	1.58622
1274.83	0.363716
1278.2	1.10951
1281.58	0.89624
1284.95	0.487988
1288.33	0.620981
1291.7	0.836113
1295.08	0.175364
1298.45	0.055756
1301.82	0.223423
