Measurement: Raman, 780 nm, unoriented, Raman Data Processed
Mineral: Diaphorite
Rruff sample: R060173
Ideal chemistry: Ag^1+^_3_Pb^2+^_2_Sb^3+^_3_S^2-^_8_
Locality: Van Silver mine, Vancouver, British Columbia, Canada
Source: Ty Balacko
Description: Steel-gray striated prismatic crystals
Measured chemistry: (Pb_1.90_Ag_0.07_Cu_0.03_)_Î£=2_Ag_3.00_Sb_3.00_S_8.00_
Raman shift (cm-1)	intensity
134.452	0
137.344	0.08857
140.237	0.152532
143.13	0.011372
146.022	0.073781
148.915	0.196643
151.808	0.098232
154.701	0.192432
157.593	0.787445
160.486	0.458802
163.379	0.550164
166.271	1.09617
169.164	0.810002
172.057	1.28648
174.949	1.04049
177.842	0.617291
180.735	0.258911
183.627	0.154935
186.52	0.249751
189.413	0.156321
192.306	0.039126
195.198	0.296728
198.091	0.020255
200.984	0.157169
203.876	0.053501
206.769	0.219198
209.662	0.034448
212.554	0.208983
215.447	0.195807
218.34	0.113496
221.233	0.170338
224.125	0.312487
227.018	0.032225
229.911	0.280329
232.803	0.104549
235.696	0.138192
238.589	0.412836
241.482	0.229054
244.374	0.139006
247.267	0.134198
250.16	0.034592
253.052	0.429675
255.945	0.012347
258.838	0.010237
261.73	0.453787
264.623	0.182543
267.516	0.301722
270.408	0.520528
273.301	0.656944
276.194	1.12412
279.087	1.43007
281.979	2.24639
284.872	2.48926
287.765	3.12971
290.657	3.55524
293.55	3.97608
296.443	4.34561
299.335	4.86437
302.228	5.02475
305.121	5.1955
308.014	5.18671
310.906	5.28126
313.799	4.73413
316.692	4.36914
319.584	3.79101
322.477	3.30954
325.37	2.90172
328.262	2.69071
331.155	2.42556
334.048	1.85733
336.94	1.52128
339.833	1.20876
342.726	0.603608
345.619	0.426071
348.511	0.38253
351.404	0.047195
354.297	0.074933
357.189	0.132602
360.082	0.052184
362.975	0.133969
365.868	0.011714
368.76	0.097417
371.653	0.036749
374.546	0.031914
377.438	0.123956
380.331	0.089585
383.224	0.139178
386.116	0.028607
389.009	0.324973
391.902	0.404282
394.795	0.121388
397.687	0.207355
400.58	0.122541
403.473	0.163743
406.365	0.466067
409.258	0.37504
412.151	0.445454
415.043	0.646381
417.936	0.435864
420.829	0.358652
423.721	0.411661
426.614	0.469539
429.507	0.001695
432.399	0.236604
435.292	0.279197
438.185	0.222513
441.078	0.075687
443.97	0.142051
446.863	0.215158
449.756	0.261415
452.648	0.124829
455.541	0.050482
458.434	0.353997
461.327	0.335833
464.219	0.125068
467.112	0.034236
470.005	0.014305
472.897	0.290285
475.79	0.173464
478.683	0.031683
481.575	0.079924
484.468	0.163017
487.361	0.06003
490.253	0.04768
493.146	0.084022
496.039	0.338477
498.932	0.005804
501.824	0.50866
504.717	0.069938
507.61	0.015563
510.502	0.369486
513.395	0.409074
516.288	0.117916
519.181	0.113686
522.073	0.160102
524.966	0.486205
527.859	0.224809
530.751	0.109138
533.644	0.166355
536.537	0.272837
539.429	0.384529
542.322	0.267964
545.215	0.238053
548.107	0.35268
551	0.306263
553.893	0.027384
556.785	0.280861
559.678	0.189358
562.571	0.079753
565.464	0.187965
568.356	0.21898
571.249	0.169582
574.142	0.030631
577.034	0.223754
579.927	0.175886
582.82	0.473299
585.712	0.094168
588.605	0.021474
591.498	0.253122
594.391	0.060282
597.283	0.260668
600.176	0.572213
603.069	0.039003
605.961	0.222414
608.854	0.319724
611.747	0.207437
614.639	0.378133
617.532	0.47912
620.425	0.495811
623.318	0.186458
626.21	0.325621
629.103	0.372358
631.996	0.01478
634.888	0.070777
637.781	0.075519
640.674	0.154604
643.567	0.113112
646.459	0.085704
649.352	0.164461
652.245	0.377442
655.137	0.163501
658.03	0.178857
660.923	0.278282
663.815	0.035885
666.708	0.227361
669.601	0.130832
672.494	0.425081
675.386	0.208839
678.279	0.531101
681.172	0.506872
684.064	0.331935
686.957	0.27662
689.85	0.027705
692.742	0.151934
695.635	0.244107
698.528	0.235958
701.42	0.047308
704.313	0.270944
707.206	0.240385
710.098	0.021858
712.991	0.04613
715.884	0.443128
718.777	0.063841
721.669	0.336821
724.562	0.070607
727.455	0.035009
730.347	0.238562
733.24	0.285071
736.133	0.160103
739.025	0.124819
741.918	0.018886
744.811	0.349017
747.704	0.130909
750.596	0.238141
753.489	0.374809
756.382	0.079818
759.274	0.374141
762.167	0.452792
765.06	0.142357
767.952	0.17917
770.845	0.267548
773.738	0.445901
776.631	0.472137
779.523	0.42499
782.416	0.268458
785.309	0.460388
788.201	0.274912
791.094	0.415578
793.987	0.112904
796.88	0.171657
799.772	0.390397
802.665	0.05442
805.558	0.168804
808.45	0.310465
811.343	0.32805
814.236	0.219609
817.128	0.093199
820.021	0.047527
822.914	0.204652
825.807	0.201685
828.699	0.177446
831.592	0.563797
834.485	0.111982
837.377	0.324633
840.27	0.35789
843.163	0.467612
846.055	0.066862
848.948	0.018896
851.841	0.298847
854.734	0.425762
857.626	0.103568
860.519	0.101125
863.412	0.013988
866.304	0.250825
869.197	0.481937
872.09	0.171563
874.982	0.127875
877.875	0.239826
880.768	0.277763
883.66	0.390839
886.553	0.203533
889.446	0.439925
892.338	0.295526
895.231	0.075734
898.124	0.169851
901.017	0.154996
903.909	0.253653
906.802	0.022353
909.695	0.039617
912.587	0.417487
915.48	0.255918
918.373	0.168085
921.265	0.09449
924.158	0.306993
927.051	0.139683
929.944	0.179219
932.836	0.118883
935.729	0.16813
938.622	0.158659
941.514	0.147317
944.407	0.242344
947.3	0.354428
950.192	0.423021
953.085	0.139843
955.978	0.278687
958.87	0.324939
961.763	0.266845
964.656	0.266222
967.549	0.448597
970.441	0.300408
973.334	0.141199
976.227	0.150251
979.119	0.332889
982.012	0.293001
984.905	0.196809
987.798	0.348941
990.69	0.267403
993.583	0.301267
996.476	0.311988
999.368	0.087401
1002.26	0.041563
1005.15	0.209494
1008.05	0.1952
1010.94	0.213905
1013.83	0.216136
1016.73	0.297381
1019.62	0.011615
1022.51	0.153137
1025.4	0.34971
1028.3	0.03494
1031.19	0.199332
1034.08	0.012749
1036.97	0.232117
1039.87	0.157293
1042.76	0.096535
1045.65	0.364548
1048.54	0.286535
1051.44	0.307872
1054.33	0.294744
1057.22	0.167434
1060.12	0.0351
1063.01	0.088595
1065.9	0.01955
1068.79	0.174258
1071.69	0.003197
1074.58	0.380288
1077.47	0.454014
1080.36	0.527896
1083.26	0.308307
1086.15	0.372434
1089.04	0.598205
1091.93	0.387467
1094.83	0.108426
1097.72	0.103316
1100.61	0.089175
1103.51	0.202527
1106.4	0.194327
1109.29	0.322088
1112.18	0.110147
1115.08	0.383239
1117.97	0.074538
1120.86	0.330143
1123.75	0.435825
1126.65	0.462751
1129.54	0.190401
1132.43	0.010055
1135.33	0.122491
1138.22	0.265663
1141.11	0.129173
1144	0.414773
1146.9	0.196836
1149.79	0.153905
1152.68	0.291239
1155.57	0.151986
1158.47	0.567401
1161.36	0.149697
1164.25	0.184523
1167.14	0.365703
1170.04	0.212349
1172.93	0.249694
1175.82	0.32851
1178.72	0.049637
1181.61	0.125136
1184.5	0.116252
1187.39	0.377508
1190.29	0.12859
1193.18	0.363798
1196.07	0.02808
1198.96	0.130061
1201.86	0.124071
1204.75	0.297511
1207.64	0.387038
1210.54	0.361791
1213.43	0.109273
1216.32	0.365948
1219.21	0.140224
1222.11	0.278822
1225	0.16522
1227.89	0.430433
1230.78	0.280027
1233.68	0.002679
1236.57	0.243663
1239.46	0.694975
1242.36	0.362865
1245.25	0.16398
1248.14	0.139299
1251.03	0.249829
1253.93	0.597068
1256.82	0.379037
1259.71	0.035709
1262.6	0.442878
1265.5	0.442322
1268.39	0.023201
1271.28	0.297956
1274.17	0.507814
1277.07	0.48973
1279.96	0.324506
1282.85	0.145352
1285.74	0.182885
