Measurement: Raman, 780 nm, unoriented, Raman Data Processed
Mineral: Dickite
Rruff sample: R090054
Ideal chemistry: Al_2_Si_2_O_5_(OH)_4_
Locality: Schuylkill county, Pennsylvania, USA
Source: Mineralogical Museum, Harvard University
Description: Unconsolidated mass of hexagonal platelets associated with minor quartz crystals.
Raman shift (cm-1)	intensity
109.864	0
113.239	1.48914
116.613	12.6096
119.988	20.2681
123.363	26.7417
126.738	14.6505
130.113	16.9322
133.487	15.6424
136.862	18.6741
140.237	18.3609
143.612	13.225
146.987	5.79619
150.362	1.57881
153.736	2.79424
157.111	0.855003
160.486	2.8988
163.861	2.67457
167.236	3.908
170.61	6.05654
173.985	2.95203
177.36	8.8215
180.735	5.37348
184.11	9.05049
187.484	8.12691
190.859	5.50714
194.234	10.9456
197.609	11.5656
200.984	10.3619
204.358	8.58134
207.733	7.36278
211.108	5.23154
214.483	8.73426
217.858	7.81578
221.233	10.9419
224.607	14.9376
227.982	16.5505
231.357	24.366
234.732	30.3659
238.107	33.8109
241.482	33.8342
244.856	26.048
248.231	17.8849
251.606	11.0382
254.981	10.2241
258.356	7.31381
261.73	9.80652
265.105	10.883
268.48	9.10662
271.855	3.68871
275.23	4.29746
278.604	3.89827
281.979	2.78492
285.354	3.76369
288.729	0.035149
292.104	1.42739
295.478	1.07746
298.853	2.21433
302.228	2.3843
305.603	4.38272
308.978	5.59988
312.353	8.49297
315.727	4.86362
319.102	6.4946
322.477	9.92799
325.852	13.9771
329.227	19.097
332.601	27.0953
335.976	23.3352
339.351	16.4711
342.726	13.7711
346.101	8.6607
349.476	6.13616
352.85	5.66441
356.225	5.3447
359.6	4.58825
362.975	4.93887
366.35	4.80149
369.724	5.63511
373.099	7.49902
376.474	4.87178
379.849	10.0382
383.224	4.71004
386.599	2.30827
389.973	3.65232
393.348	1.92665
396.723	0.229256
400.098	1.48531
403.473	1.95424
406.847	0.50621
410.222	6.20411
413.597	4.20319
416.972	8.69245
420.347	12.3828
423.721	10.8904
427.096	13.5055
430.471	22.5491
433.846	25.8532
437.221	17.2758
440.596	12.1011
443.97	10.1088
447.345	11.9577
450.72	15.2875
454.095	20.3817
457.47	25.5717
460.844	29.1463
464.219	27.2798
467.594	24.8969
470.969	21.1257
474.344	20.353
477.719	14.1946
481.093	12.8512
484.468	10.0379
487.843	2.65979
491.218	2.81448
494.592	2.14689
497.967	3.64644
501.342	1.58823
504.717	6.28854
508.092	1.89169
511.467	3.40123
514.841	5.01615
518.216	1.15566
521.591	0.688786
524.966	1.91538
528.341	0.032589
531.716	2.10596
535.09	1.68552
538.465	1.18097
541.84	0.594482
545.215	2.06815
548.59	0.698948
551.964	0.231724
555.339	0.606396
558.714	1.15744
562.089	0.704372
565.464	0.476097
568.838	1.14962
572.213	0.467503
575.588	1.28964
578.963	0.550537
582.338	0.762596
585.712	2.94294
589.087	3.29095
592.462	4.75129
595.837	5.32117
599.212	4.23555
602.587	3.7286
605.961	7.52047
609.336	3.63102
612.711	4.25608
616.086	5.14678
619.461	3.55241
622.836	2.74855
626.21	4.95598
629.585	1.41071
632.96	4.65956
636.335	6.03177
639.71	4.82789
643.084	5.68832
646.459	4.07855
649.834	6.54399
653.209	2.12953
656.584	1.0125
659.958	2.0676
663.333	1.74926
666.708	1.26779
670.083	2.03421
673.458	1.33808
676.832	0.69841
680.207	0.30381
683.582	1.53659
686.957	0.196239
690.332	1.3965
693.707	5.08644
697.081	3.03525
700.456	3.76077
703.831	5.31659
707.206	8.59443
710.581	5.70203
713.955	4.82034
717.33	2.89771
720.705	5.34054
724.08	5.13025
727.455	5.30605
730.83	5.73895
734.204	6.53205
737.579	10.5013
740.954	11.9518
744.329	12.218
747.704	15.5223
751.078	11.129
754.453	10.35
757.828	7.38757
761.203	6.78695
764.578	3.61011
767.952	3.39271
771.327	0.697449
774.702	3.79531
778.077	2.15261
781.452	3.66678
784.827	3.18341
788.201	2.19742
791.576	8.71551
794.951	5.81839
798.326	6.07894
801.701	6.01297
805.075	3.57462
808.45	3.48724
811.825	1.12092
815.2	0.029583
818.575	2.96615
821.949	2.41104
825.324	1.47905
828.699	0.541382
832.074	1.70787
835.449	0.686214
838.824	0.623615
842.198	2.34977
845.573	0.127472
848.948	3.06781
852.323	2.08835
855.698	1.59476
859.072	0.517143
862.447	2.2328
865.822	0.890007
869.197	2.90236
872.572	2.0945
875.947	2.58668
879.321	4.11388
882.696	0.687656
886.071	7.37329
889.446	7.39292
892.821	7.75271
896.195	7.63538
899.57	9.7501
902.945	11.867
906.32	11.3967
909.695	15.4361
913.069	19.6562
916.444	17.2654
919.819	12.2942
923.194	9.13859
926.569	6.21907
929.944	0.801826
933.318	0.803101
936.693	2.94069
940.068	3.49966
943.443	0.648411
946.818	3.39727
950.192	1.06512
953.567	2.84711
956.942	4.65029
960.317	1.80571
963.692	3.19574
967.067	1.59921
970.441	2.72699
973.816	3.91633
977.191	1.21507
980.566	1.75462
983.941	2.73204
987.315	3.03986
990.69	1.75542
994.065	3.46956
997.44	3.2798
1000.82	1.13945
1004.19	3.33596
1007.56	1.86653
1010.94	0.099274
1014.31	3.70328
1017.69	4.20531
1021.06	3.19434
1024.44	2.10245
1027.81	1.81094
1031.19	2.96084
1034.56	0.539082
1037.94	0.249763
1041.31	0.54071
1044.69	0.465153
1048.06	2.81852
1051.44	0.01368
1054.81	3.81394
1058.19	3.52981
1061.56	2.93651
1064.94	5.30203
1068.31	2.72934
1071.69	3.39537
1075.06	3.15087
1078.43	5.2821
1081.81	7.78858
1085.18	11.4483
1088.56	14.4062
1091.93	17.2699
1095.31	15.1347
1098.68	16.3871
1102.06	15.01
1105.43	8.77464
1108.81	12.0213
1112.18	10.6962
1115.56	9.97949
1118.93	15.9359
1122.31	14.5354
1125.68	10.8675
1129.06	11.4313
1132.43	5.19572
1135.81	4.09548
1139.18	2.82884
1142.56	4.17139
1145.93	4.20245
1149.31	6.13972
1152.68	5.34683
1156.06	2.97137
1159.43	3.36973
1162.81	5.22757
1166.18	1.44139
1169.56	2.12317
1172.93	3.57467
1176.31	3.60622
1179.68	1.76031
1183.06	2.87865
1186.43	0.568531
1189.8	3.83477
1193.18	1.85268
1196.55	1.17014
1199.93	2.06136
1203.3	0.948195
1206.68	1.42332
1210.05	4.66429
1213.43	2.08383
1216.8	3.32904
1220.18	3.17564
1223.55	2.10265
1226.93	2.0231
1230.3	0.977386
1233.68	1.78466
1237.05	4.70297
1240.43	3.27811
1243.8	6.6488
1247.18	6.94827
1250.55	3.27407
1253.93	1.88211
1257.3	2.49681
1260.67	1.94232
1264.05	3.40075
1267.42	1.91158
1270.8	5.91257
1274.17	3.71052
1277.55	4.89689
1280.92	1.92375
1284.3	0.020672
