Measurement: Raman, 780 nm, unoriented, Raman Data Processed
Mineral: Diegogattaite
Rruff sample: R120156
Ideal chemistry: Na_2_CaCu^2+^_2_Si_8_O_20_H_2_O
Locality: Wessels mine, Kalahari manganese field, Northern Cape Province, South Africa
Source: Marcus Origlieri
Description: Lighter greenish blue massive, associated with darker blue wesselsite and quartz
Measured chemistry: (Na_1.98_Mg_0.01_)_Σ=1.99_(Ca_0.98_Cu_0.02_)_Σ=1.00_Cu_2.00_Si_8_O_20.00_·H_2_O; The mineral is medium gray, associated with wesselsite (white) and quartz (dark gray); Normalized to 8 Si atoms; water assumed from crystal structure solution
Raman shift (cm-1)	intensity
93.9705	0
97.3453	0.419724
100.72	0.013222
104.095	1.77303
107.47	0.889282
110.845	0.074665
114.219	4.89926
117.594	11.8585
120.969	11.3052
124.344	11.9898
127.719	9.51686
131.094	6.20618
134.468	1.44146
137.843	0.599775
141.218	0.38294
144.593	0.006079
147.968	0.293959
151.342	0.32242
154.717	1.84984
158.092	2.55566
161.467	4.04991
164.842	3.70124
168.216	3.34955
171.591	3.41648
174.966	4.7812
178.341	5.70088
181.716	5.58687
185.09	7.18764
188.465	10.6542
191.84	10.8506
195.215	8.97728
198.59	10.2701
201.965	13.5182
205.339	12.575
208.714	8.92073
212.089	6.58339
215.464	6.0018
218.839	6.65282
222.214	5.16634
225.588	3.83494
228.963	3.52202
232.338	4.40712
235.713	5.25753
239.088	7.748
242.462	11.5787
245.837	11.8697
249.212	7.59912
252.587	4.02155
255.962	1.26337
259.336	1.53168
262.711	1.0083
266.086	1.23749
269.461	0.604452
272.836	0.237247
276.211	0.104901
279.585	0.072958
282.96	0.479782
286.335	0.546657
289.71	0.426242
293.085	0.051239
296.459	0.012806
299.834	0.447103
303.209	0.411067
306.584	0.399393
309.959	0.640576
313.334	0.499701
316.708	0.47111
320.083	0.210703
323.458	0.411685
326.833	1.22974
330.207	1.77902
333.582	2.31214
336.957	1.57105
340.332	1.00489
343.707	0.938012
347.082	0.003675
350.456	0.18368
353.831	0.417636
357.206	1.27484
360.581	2.36038
363.956	4.04833
367.33	4.92462
370.705	7.32327
374.08	11.5653
377.455	13.3321
380.83	10.9242
384.205	7.21181
387.579	4.01057
390.954	4.15267
394.329	4.50972
397.704	5.84818
401.079	6.50686
404.453	7.37724
407.828	5.87361
411.203	3.61088
414.578	1.49595
417.953	0.649571
421.327	0.233254
424.702	0.033266
428.077	0.283556
431.452	0.277566
434.827	0.091707
438.202	0.262107
441.576	0.34053
444.951	0.739048
448.326	0.732227
451.701	1.24284
455.076	0.900096
458.45	0.681547
461.825	1.24977
465.2	1.31045
468.575	1.44058
471.95	0.664887
475.325	0.682164
478.699	0.644645
482.074	0.733034
485.449	1.15215
488.824	0.97985
492.199	0.941406
495.573	0.83097
498.948	0.843341
502.323	1.20734
505.698	1.2263
509.073	1.72247
512.447	2.055
515.822	1.93142
519.197	1.47098
522.572	1.21638
525.947	1.02676
529.322	1.18333
532.696	1.95823
536.071	1.65704
539.446	0.998105
542.821	0.71594
546.196	0.379166
549.57	0.354133
552.945	0.069035
556.32	0.176802
559.695	0.037518
563.07	0.167785
566.444	0.243918
569.819	0.295646
573.194	0.057309
576.569	0.060972
579.944	0.118193
583.319	0.80985
586.693	0.82464
590.068	1.0078
593.443	2.63035
596.818	3.68711
600.193	5.19457
603.567	9.14282
606.942	13.3915
610.317	14.0915
613.692	8.90363
617.067	6.66021
620.442	5.82333
623.816	6.2977
627.191	6.18398
630.566	4.26469
633.941	2.72301
637.316	2.48087
640.69	1.00596
644.065	0.869077
647.44	0.55059
650.815	0.182642
654.19	0.602252
657.564	0.136629
660.939	0.002588
664.314	0.566892
667.689	0.362755
671.064	0.883024
674.439	0.629459
677.813	0.196785
681.188	0.195704
684.563	0.094672
687.938	0.234301
691.313	0.515649
694.688	0.113408
698.062	0.398623
701.437	0.24705
704.812	0.579656
708.187	0.543674
711.562	1.41427
714.936	1.99946
718.311	2.38171
721.686	4.10046
725.061	4.61232
728.436	3.57098
731.81	1.99259
735.185	0.871858
738.56	0.82435
741.935	0.44504
745.31	0.180462
748.684	0.529163
752.059	0.051698
755.434	0.150616
758.809	0.179106
762.184	0.225399
765.559	0.266438
768.933	0.197165
772.308	0.063379
775.683	0.307198
779.058	0.431994
782.433	0.43338
785.808	1.08791
789.182	0.752623
792.557	0.853065
795.932	1.33986
799.307	0.861867
802.682	0.941379
806.056	0.987268
809.431	0.663368
812.806	0.741353
816.181	0.595837
819.556	1.07432
822.93	0.86668
826.305	0.731365
829.68	1.12855
833.055	1.41849
836.43	1.142
839.804	1.24033
843.179	1.02295
846.554	1.76558
849.929	1.28433
853.304	1.89753
856.679	1.50365
860.053	0.977175
863.428	1.6522
866.803	1.07523
870.178	0.592915
873.553	0.910261
876.927	0.835794
880.302	1.19847
883.677	0.619072
887.052	0.918255
890.427	0.696463
893.802	0.257166
897.176	0.574368
900.551	0.134398
903.926	0.011185
907.301	0.618441
910.676	0.061008
914.05	0.461887
917.425	0.001686
920.8	0.135538
924.175	0.062796
927.55	0.017597
930.924	0.288391
934.299	0.30892
937.674	0.541689
941.049	0.062807
944.424	0.110807
947.799	0.15892
951.173	0.707342
954.548	0.492531
957.923	0.272396
961.298	1.12405
964.673	0.671589
968.047	1.02024
971.422	0.403763
974.797	0.71652
978.172	0.122828
981.547	0.875931
984.922	1.0123
988.296	0.781635
991.671	1.01987
995.046	0.608212
998.421	0.732683
1001.8	0.918901
1005.17	0.548111
1008.54	0.247192
1011.92	0.708681
1015.29	0.846783
1018.67	0.217899
1022.04	0.391775
1025.42	0.662188
1028.79	0.414251
1032.17	0.219276
1035.54	0.246077
1038.92	0.254475
1042.29	0.039379
1045.67	0.11772
1049.04	0.318304
1052.42	0.788937
1055.79	0.608969
1059.17	0.561728
1062.54	1.05739
1065.92	0.942432
1069.29	1.57722
1072.67	1.6982
1076.04	0.794167
1079.42	1.07127
1082.79	0.934616
1086.17	1.29017
1089.54	2.71633
1092.92	3.90706
1096.29	4.74526
1099.66	3.61864
1103.04	2.28197
1106.41	1.90745
1109.79	1.23935
1113.16	1.0065
1116.54	0.4713
1119.91	0.499041
1123.29	0.503254
1126.66	0.457825
1130.04	0.416618
1133.41	0.310972
1136.79	0.106932
1140.16	0.444345
1143.54	0.221289
1146.91	0.117952
1150.29	0.356749
1153.66	0.150986
1157.04	0.374908
1160.41	0.509459
1163.79	0.520048
1167.16	0.230133
1170.54	0.359941
1173.91	0.698496
1177.29	0.545486
1180.66	0.823153
1184.04	0.771441
1187.41	1.12041
1190.79	0.445564
1194.16	1.11773
1197.54	0.821207
1200.91	0.169672
1204.28	0.587727
1207.66	0.775932
1211.03	0.648048
1214.41	0.536121
1217.78	0.51795
1221.16	0.109694
1224.53	0.196772
1227.91	0.82122
1231.28	0.888538
1234.66	0.807774
1238.03	0.479662
1241.41	0.130035
1244.78	0.512505
1248.16	0.770954
1251.53	0.676397
1254.91	0.315685
1258.28	0.827557
1261.66	0.37479
1265.03	0.612572
1268.41	0.193312
1271.78	0.793726
1275.16	0.698816
1278.53	0.666161
1281.9	0.145609
