Measurement: Raman, 785 nm, unoriented, Raman Data Processed
Mineral: Digenite
Rruff sample: R060840
Ideal chemistry: Cu_1.8_S
Locality: Butte, Montana, USA
Source: Michael Scott
Description: Black to deep blue metallic massive, diffraction indicates that this sample is in the high temperature form
Measured chemistry: (Cu_1.66_Fe_0.02_)_Î£=1.68_S_1.00_
Raman shift (cm-1)	intensity
83.4402	0
86.815	51.7213
90.1898	687.611
93.5646	514.242
96.9394	397.062
100.314	291.238
103.689	179.412
107.064	49.6853
110.439	3.38586
113.814	31.2094
117.188	21.6401
120.563	8.23187
123.938	279.992
127.313	863.311
130.688	1274.91
134.062	1212.61
137.437	943.51
140.812	1005.93
144.187	1326.58
147.562	1636.6
150.936	1658.32
154.311	1512.17
157.686	1478.15
161.061	1374.59
164.436	1206.59
167.811	1019.73
171.185	945.912
174.56	739.293
177.935	599.998
181.31	492.269
184.685	471.369
188.06	364.427
191.434	329.377
194.809	294.503
198.184	239.78
201.559	200.402
204.934	77.178
208.308	115.121
211.683	132.284
215.058	71.1736
218.433	49.8245
221.808	67.457
225.183	52.0042
228.557	46.6338
231.932	14.509
235.307	21.5625
238.682	50.3704
242.057	128.273
245.431	14.7783
248.806	40.3198
252.181	41.096
255.556	2.17627
258.931	14.5515
262.305	101.974
265.68	101.598
269.055	53.7046
272.43	57.648
275.805	63.1082
279.18	148.982
282.554	76.1938
285.929	95.5903
289.304	14.4338
292.679	150.477
296.054	125.149
299.428	121.061
302.803	103.622
306.178	193.388
309.553	210.038
312.928	177.97
316.303	187.235
319.677	139.445
323.052	158.242
326.427	209.641
329.802	162.513
333.177	70.1155
336.551	119.965
339.926	20.6095
343.301	31.5463
346.676	37.9415
350.051	27.9388
353.426	7.96082
356.8	24.795
360.175	8.43408
363.55	17.4122
366.925	48.623
370.3	24.019
373.675	79.7728
377.049	76.0671
380.424	69.043
383.799	12.9824
387.174	60.83
390.549	66.5673
393.923	1.28113
397.298	86.7363
400.673	74.7775
404.048	67.805
407.423	72.2505
410.798	110.527
414.172	116.295
417.547	92.8987
420.922	56.537
424.297	88.4692
427.671	85.0234
431.046	90.2126
434.421	52.281
437.796	46.9174
441.171	19.119
444.546	116.602
447.92	49.215
451.295	67.075
454.67	71.6965
458.045	39.6506
461.42	60.2704
464.795	52.4459
468.169	97.1782
471.544	74.5271
474.919	47.1298
478.294	32.316
481.669	62.9193
485.043	48.0049
488.418	128.319
491.793	46.5876
495.168	45.2557
498.543	80.4569
501.918	42.4464
505.292	57.7051
508.667	112.819
512.042	39.0364
515.417	69.1711
518.792	39.8676
522.166	56.2244
525.541	74.05
528.916	62.0481
532.291	3.29358
535.666	65.0533
539.04	51.8389
542.415	127.912
545.79	99.121
549.165	113.837
552.54	7.10803
555.915	57.9237
559.289	55.7424
562.664	98.4362
566.039	66.5813
569.414	35.4235
572.789	101.486
576.163	66.6022
579.538	122.211
582.913	95.0891
586.288	92.0652
589.663	103.926
593.038	86.2562
596.412	99.3851
599.787	42.7827
603.162	25.8671
606.537	18.4266
609.912	72.5552
613.287	98.5456
616.661	101.245
620.036	165.631
623.411	62.3325
626.786	64.7231
630.161	65.4122
633.535	2.6206
636.91	28.031
640.285	13.0057
643.66	25.3223
647.035	42.7183
650.409	73.9642
653.784	41.6867
657.159	92.6844
660.534	87.2642
663.909	65.8586
667.284	62.1262
670.658	40.077
674.033	27.0443
677.408	56.7468
680.783	41.0465
684.158	113.129
687.533	71.1526
690.907	24.7518
694.282	80.7953
697.657	115.591
701.032	109.401
704.407	14.1268
707.781	52.4815
711.156	79.7592
714.531	65.8987
717.906	11.4905
721.281	124.789
724.655	42.8852
728.03	111.383
731.405	86.0161
734.78	121.861
738.155	94.4619
741.529	172.37
744.904	104.779
748.279	61.8147
751.654	168.117
755.029	68.3004
758.404	173.227
761.778	139.896
765.153	84.3208
768.528	25.8016
771.903	102.438
775.278	111.917
778.653	98.9546
782.027	152.373
785.402	153.553
788.777	144.866
792.152	111.106
795.527	58.1812
798.901	7.56043
802.276	3.74805
805.651	28.0511
809.026	146.864
812.401	91.6697
815.775	124.05
819.15	168.978
822.525	137.039
825.9	122.356
829.275	62.3513
832.65	81.4669
836.024	111.184
839.399	103.963
842.774	84.9365
846.149	47.764
849.524	105.428
852.899	148.986
856.273	28.075
859.648	91.7971
863.023	88.9889
866.398	41.8956
869.773	81.8706
873.148	68.0231
876.522	25.4094
879.897	94.4772
883.272	75.6387
886.647	11.1834
890.021	62.3472
893.396	34.6462
896.771	92.1464
900.146	120.332
903.521	51.6394
906.896	25.3801
910.27	80.0339
913.645	106.902
917.02	71.5336
920.395	63.2633
923.77	60.1947
927.144	94.4596
930.519	91.9062
933.894	37.4808
937.269	75.2826
940.644	107.252
944.019	164.657
947.393	29.625
950.768	44.5356
954.143	32.8591
957.518	5.56128
960.893	35.4016
964.268	47.3247
967.642	58.5614
971.017	41.1835
974.392	64.2625
977.767	36.2097
981.142	30.3049
984.516	5.88904
987.891	65.151
991.266	0.83728
994.641	38.3466
998.016	6.30493
1001.39	43.5857
1004.76	17.3552
1008.14	8.65161
1011.51	60.4668
1014.89	12.0333
1018.26	18.0408
1021.64	61.1927
1025.01	70.4208
1028.39	20.5449
1031.76	97.6685
1035.14	44.345
1038.51	52.9255
1041.89	75.5389
1045.26	87.4193
1048.64	53.3643
1052.01	73.7179
1055.39	54.9502
1058.76	123.703
1062.14	39.9335
1065.51	25.7952
1068.89	44.2789
1072.26	13.9795
1075.64	96.757
1079.01	58.4333
1082.39	62.4171
1085.76	70.5886
1089.14	69.22
1092.51	28.5643
1095.88	110.055
1099.26	8.36243
1102.63	110.17
1106.01	39.2205
1109.38	96.4393
1112.76	71.4745
1116.13	56.0251
1119.51	61.4496
1122.88	92.2804
1126.26	121.313
1129.63	131.488
1133.01	79.4852
1136.38	32.6394
1139.76	64.1499
1143.13	115.523
1146.51	103.333
1149.88	67.88
1153.26	96.723
1156.63	10.219
1160.01	136.492
1163.38	110.78
1166.76	105.597
1170.13	166.254
1173.51	30.2824
1176.88	113.056
1180.26	85.1388
1183.63	141.322
1187.01	154.147
1190.38	121.725
1193.76	123.424
1197.13	150.165
1200.51	189.822
1203.88	164.076
1207.25	40.0463
1210.63	118.583
1214	168.413
1217.38	117.6
1220.75	171.651
1224.13	191.774
1227.5	150.118
1230.88	201.208
1234.25	174.015
1237.63	2.2052
1241	61.9403
1244.38	189.887
1247.75	190.686
1251.13	87.8683
1254.5	53.4741
1257.88	103.5
1261.25	44.8997
1264.63	76.2838
1268	62.2178
1271.38	0
