Measurement: Raman, 780 nm, unoriented, Raman Data Processed
Mineral: Dingdaohengite-(Ce)
Rruff sample: R150046
Ideal chemistry: (Ce^3+^,La^3+^)_4_Fe^2+^(Ti^4+^,Fe^2+^,Mg,Fe^3+^)_2_Ti^4+^_2_Si_4_O_22_
Locality: Mulanje Massif, Malawi
Source: Paul Botha
Description: Dark brown striated prismatic crystals, associated with quartz
Raman shift (cm-1)	intensity
160.985	0
163.877	4.59564
166.77	8.5452
169.663	8.91693
172.555	13.0852
175.448	11.2937
178.341	8.42352
181.234	11.1696
184.126	4.9407
187.019	3.11298
189.912	2.39053
192.804	2.51529
195.697	2.19336
198.59	0.708893
201.482	1.49423
204.375	1.60147
207.268	0.027435
210.161	0.320221
213.053	2.0032
215.946	2.0787
218.839	3.93658
221.731	4.28528
224.624	6.8251
227.517	8.64072
230.409	12.0041
233.302	14.9825
236.195	16.8551
239.088	19.761
241.98	22.3052
244.873	22.0752
247.766	23.874
250.658	22.7295
253.551	20.6168
256.444	18.2454
259.336	14.4363
262.229	13.2163
265.122	10.9704
268.014	9.51611
270.907	8.88795
273.8	8.49248
276.693	9.32341
279.585	8.73521
282.478	9.19778
285.371	8.50299
288.263	9.78249
291.156	9.26666
294.049	6.18663
296.942	4.87538
299.834	4.56708
302.727	3.03468
305.62	2.32008
308.512	1.09352
311.405	0.538849
314.298	0.627197
317.19	0.788483
320.083	0.988831
322.976	1.76691
325.868	3.08283
328.761	1.74152
331.654	1.76979
334.547	1.68539
337.439	3.92979
340.332	3.14796
343.225	3.66715
346.117	2.80576
349.01	2.34955
351.903	3.3006
354.796	1.80075
357.688	2.66765
360.581	3.07531
363.474	3.68431
366.366	2.65668
369.259	1.98521
372.152	0.580048
375.044	0.570633
377.937	0.209839
380.83	0.816101
383.722	0.028244
386.615	1.36697
389.508	0.13562
392.401	1.70943
395.293	3.79794
398.186	0.531738
401.079	1.86278
403.971	0.148148
406.864	0.430481
409.757	0.522675
412.649	1.50406
415.542	2.08762
418.435	1.01035
421.327	2.78548
424.22	1.54878
427.113	3.6445
430.006	4.34924
432.898	4.226
435.791	4.92259
438.684	4.21547
441.576	3.98425
444.469	3.84947
447.362	4.76846
450.255	5.0107
453.147	7.8493
456.04	7.65836
458.933	6.63187
461.825	9.02364
464.718	6.4924
467.611	5.10142
470.503	4.67624
473.396	4.86806
476.289	3.12376
479.182	1.72679
482.074	2.09183
484.967	0.620285
487.86	1.32713
490.752	0.163223
493.645	0.338593
496.538	2.69571
499.43	2.47972
502.323	7.02217
505.216	3.86096
508.108	7.27058
511.001	10.8231
513.894	11.5954
516.787	14.3999
519.679	15.5205
522.572	16.262
525.465	16.0852
528.357	16.5254
531.25	17.8917
534.143	15.7684
537.035	18.5541
539.928	17.5204
542.821	14.8653
545.713	13.8117
548.606	12.5773
551.499	10.8857
554.392	10.3489
557.284	7.19522
560.177	5.82747
563.07	4.88603
565.962	2.19019
568.855	1.01357
571.748	0.42392
574.64	0.464859
577.533	0.347931
580.426	0.963379
583.319	0.463547
586.211	0.967987
589.104	1.38061
591.997	0.47525
594.889	1.13463
597.782	1.04575
600.675	1.76418
603.567	1.16351
606.46	2.69911
609.353	3.53816
612.246	2.56876
615.138	3.65196
618.031	3.46559
620.924	5.00774
623.816	6.79671
626.709	7.32347
629.602	8.70256
632.494	8.83492
635.387	9.99541
638.28	10.5047
641.173	11.1107
644.065	11.0039
646.958	10.473
649.851	13.8824
652.743	12.2087
655.636	13.8755
658.529	15.0578
661.421	16.3469
664.314	17.8549
667.207	17.5808
670.1	19.5558
672.992	20.2894
675.885	23.2133
678.778	25.4725
681.67	25.4876
684.563	23.2402
687.456	22.6641
690.348	19.931
693.241	15.8463
696.134	13.2127
699.027	12.5523
701.919	9.65311
704.812	7.82039
707.705	6.35053
710.597	5.53329
713.49	4.80399
716.383	5.07855
719.275	3.13309
722.168	2.8705
725.061	2.73144
727.953	1.5667
730.846	2.94499
733.739	1.24847
736.632	0.968796
739.524	1.44066
742.417	1.13617
745.31	2.08968
748.202	1.18451
751.095	0.155914
753.988	0.342712
756.88	0.918717
759.773	-0.0893571
762.666	0.320206
765.559	0.393753
768.451	0.331787
771.344	0.370346
774.237	0.610306
777.129	0.422073
780.022	1.11551
782.915	0.467422
785.808	0.914581
788.7	0.460312
791.593	0.260239
794.486	0.990173
797.378	0.645569
800.271	0.872787
803.164	1.60489
806.056	1.61609
808.949	1.58005
811.842	0.844482
814.734	0.538925
817.627	1.73271
820.52	3.96909
823.413	2.07216
826.305	2.0397
829.198	1.80472
832.091	1.23315
834.983	0.600098
837.876	0.825562
840.769	1.81168
843.661	1.83957
846.554	3.67418
849.447	3.69598
852.34	3.71758
855.232	4.14642
858.125	3.73997
861.018	4.59947
863.91	4.02696
866.803	3.81554
869.696	2.36612
872.588	3.36964
875.481	2.44763
878.374	2.57864
881.266	1.5865
884.159	2.77665
887.052	2.89327
889.945	2.31141
892.837	4.13963
895.73	2.64711
898.623	2.71632
901.515	2.59559
904.408	2.04839
907.301	2.05815
910.193	1.199
913.086	1.22886
915.979	1.2176
918.872	0.537209
921.764	0.042412
924.657	0.383713
927.55	2.18537
930.442	1.47598
933.335	0.51487
936.228	1.321
939.12	1.25263
942.013	0.942833
944.906	1.56396
947.799	0.50428
950.691	0.010094
953.584	0.583031
956.477	0.223618
959.369	2.52068
962.262	1.78359
965.155	3.00501
968.047	5.97837
970.94	7.7991
973.833	9.47852
976.726	9.45877
979.618	7.93117
982.511	7.79576
985.404	5.52218
988.296	4.51454
991.189	3.37029
994.082	3.83009
996.974	2.75725
999.867	2.02874
1002.76	1.86315
1005.65	1.85587
1008.54	1.74812
1011.44	1.1107
1014.33	2.53628
1017.22	3.68358
1020.12	3.51074
1023.01	4.43652
1025.9	3.3561
1028.79	3.16408
1031.69	3.69395
1034.58	3.81962
1037.47	3.13039
1040.37	2.80883
1043.26	3.41047
1046.15	1.67242
1049.04	1.83147
1051.94	0.462379
1054.83	1.51179
1057.72	2.36484
1060.61	2.50837
1063.51	0.713753
1066.4	1.86924
1069.29	1.63553
1072.18	0.222984
1075.08	0.309036
1077.97	0.537689
1080.86	0.002785
1083.76	1.66338
1086.65	0.033165
1089.54	1.89381
1092.43	2.23917
1095.33	0.321968
1098.22	0.401382
1101.11	0.400902
1104	0.73806
1106.9	1.79166
1109.79	1.77009
1112.68	0.160667
1115.58	0.078728
1118.47	0.127663
1121.36	0.848877
1124.25	0.744736
1127.15	0.235931
1130.04	1.21629
1132.93	0.662224
1135.82	1.58194
1138.72	1.86912
1141.61	2.03438
1144.5	0.784607
1147.39	1.50983
1150.29	0.134285
1153.18	0.20881
1156.07	0.613748
1158.97	1.22001
1161.86	1.01883
1164.75	0.643349
1167.64	1.29205
1170.54	1.71318
1173.43	0.744377
1176.32	0.843239
1179.21	1.21755
1182.11	0.770248
1185	0.009697
1187.89	0.868607
1190.79	1.34681
1193.68	1.6167
1196.57	1.03688
1199.46	1.58944
1202.36	2.27263
1205.25	0.686966
1208.14	0.837578
1211.03	0.982635
1213.93	0.838959
1216.82	0.589279
1219.71	1.17581
1222.61	2.30978
1225.5	1.60834
1228.39	0.634781
1231.28	0.177124
1234.18	0.558479
1237.07	0.30101
1239.96	0.591805
1242.85	1.04179
1245.75	0.66478
1248.64	0.966316
1251.53	1.09283
1254.42	1.21301
1257.32	0.83461
1260.21	1.53947
1263.1	0.96032
1265.99	2.24192
1268.89	2.6543
1271.78	0.073761
1274.67	0.726089
1277.57	1.15424
1280.46	0.579575
1283.35	1.30703
