Measurement: Raman, 532 nm, unoriented, Raman Data Processed
Mineral: Dingdaohengite-(Ce)
Rruff sample: R150046
Ideal chemistry: (Ce^3+^,La^3+^)_4_Fe^2+^(Ti^4+^,Fe^2+^,Mg,Fe^3+^)_2_Ti^4+^_2_Si_4_O_22_
Locality: Mulanje Massif, Malawi
Source: Paul Botha
Description: Dark brown striated prismatic crystals, associated with quartz
Raman shift (cm-1)	intensity
157.28	0
160.172	0.070313
163.065	1.89868
165.958	3.7146
168.85	3.79576
171.743	4.34076
174.636	4.55987
177.528	3.41118
180.421	2.07079
183.314	1.65282
186.207	1.04036
189.099	2.59477
191.992	0.364487
194.885	0.443573
197.777	0.819733
200.67	0.299454
203.563	0.07901
206.455	0.013763
209.348	0.068604
212.241	0.335999
215.133	0.258301
218.026	1.47905
220.919	1.55994
223.812	0.383102
226.704	1.47241
229.597	1.59886
232.49	2.84859
235.382	2.24579
238.275	4.03465
241.168	6.0616
244.06	6.07845
246.953	5.7791
249.846	5.92857
252.739	4.90781
255.631	6.60103
258.524	7.87148
261.417	7.96719
264.309	8.34766
267.202	9.2458
270.095	9.88707
272.988	10.7263
275.88	13.833
278.773	12.6775
281.666	12.8129
284.558	14.1256
287.451	13.5546
290.344	14.0988
293.236	12.3803
296.129	10.2798
299.022	9.09788
301.915	7.24246
304.807	5.38182
307.7	2.97987
310.593	3.72722
313.485	1.29089
316.378	1.49574
319.271	0.46312
322.163	0.0578
325.056	1.70502
327.949	0.156937
330.842	0.561081
333.734	0.384232
336.627	2.42241
339.52	1.76125
342.412	1.86262
345.305	0.330048
348.198	0.067291
351.091	0.282562
353.983	0.287781
356.876	0.196014
359.769	0.831482
362.661	1.33673
365.554	0.068298
368.447	1.47513
371.339	0.942749
374.232	3.75577
377.125	2.42658
380.017	2.54678
382.91	5.15591
385.803	5.82059
388.696	6.55844
391.588	7.14032
394.481	7.89581
397.374	9.59235
400.266	11.2036
403.159	13.3281
406.052	13.9162
408.945	14.0739
411.837	16.3338
414.73	17.4893
417.623	20.174
420.515	21.627
423.408	24.8385
426.301	26.6196
429.193	28.1395
432.086	28.7013
434.979	29.7113
437.872	30.474
440.764	28.7285
443.657	25.6512
446.55	24.7296
449.442	20.1781
452.335	16.8121
455.228	12.8297
458.12	11.8203
461.013	8.45752
463.906	7.21692
466.798	6.42905
469.691	4.26492
472.584	4.16718
475.477	1.44675
478.369	0.46225
481.262	0.767609
484.155	0.33905
487.047	1.0199
489.94	1.18204
492.833	0.78299
495.726	0.690582
498.618	3.67056
501.511	5.86676
504.404	6.17221
507.296	8.96628
510.189	10.4038
513.082	13.6991
515.974	17.584
518.867	18.2428
521.76	23.2047
524.653	23.9274
527.545	25.8029
530.438	29.4341
533.331	29.619
536.223	29.0851
539.116	29.6827
542.009	30.8984
544.901	27.933
547.794	27.3431
550.687	24.8359
553.58	21.6856
556.472	17.6538
559.365	14.0463
562.258	11.1069
565.15	8.42111
568.043	4.8305
570.936	2.45926
573.828	2.10074
576.721	1.55151
579.614	1.52808
582.506	0.616058
585.399	1.69843
588.292	2.13586
591.185	2.07507
594.077	0.227325
596.97	0.408051
599.863	1.61728
602.755	3.91183
605.648	5.91693
608.541	7.45026
611.433	11.5754
614.326	16.7647
617.219	17.3814
620.112	22.459
623.004	24.5568
625.897	27.7148
628.79	31.6973
631.682	32.7948
634.575	36.8935
637.468	36.5658
640.361	37.5525
643.253	37.7908
646.146	37.5842
649.039	37.8537
651.931	38.2216
654.824	37.2555
657.717	39.748
660.609	38.7407
663.502	40.2773
666.395	41.7874
669.288	41.8465
672.18	40.8587
675.073	41.8055
677.966	40.1746
680.858	39.4809
683.751	38.3503
686.644	36.5404
689.536	34.6247
692.429	30.512
695.322	27.9679
698.215	23.7018
701.107	21.361
704	19.327
706.893	18.3992
709.785	15.669
712.678	15.1589
715.571	13.417
718.463	13.7634
721.356	12.1724
724.249	11.9535
727.141	13.4607
730.034	12.0645
732.927	11.8372
735.82	11.171
738.712	11.1221
741.605	9.67706
744.498	9.19174
747.39	8.65063
750.283	8.00339
753.176	7.06625
756.068	6.70621
758.961	4.03583
761.854	3.45969
764.747	2.16717
767.639	0.739685
770.532	0.196503
773.425	0.292419
776.317	0.754547
779.21	1.15942
782.103	1.25503
784.995	1.75089
787.888	2.51623
790.781	0.012787
793.674	5.19028
796.566	1.04086
799.459	2.29199
802.352	0.32901
805.244	1.78772
808.137	2.31723
811.03	1.06348
813.923	2.80179
816.815	3.9967
819.708	3.7265
822.601	4.80942
825.493	5.4259
828.386	4.01382
831.279	5.71716
834.171	7.35809
837.064	7.47476
839.957	7.83926
842.85	7.59094
845.742	8.27445
848.635	8.39282
851.528	8.92923
854.42	10.3652
857.313	9.94318
860.206	10.5102
863.098	9.51367
865.991	9.11984
868.884	7.39105
871.777	9.83362
874.669	7.00621
877.562	8.08269
880.455	8.06673
883.347	8.48183
886.24	7.00983
889.133	6.83301
892.025	8.02875
894.918	7.93394
897.811	10.0533
900.703	7.76181
903.596	8.3378
906.489	5.80336
909.382	7.08072
912.274	5.66835
915.167	4.771
918.06	3.44737
920.952	4.42146
923.845	3.55159
926.738	2.6479
929.63	3.21793
932.523	0.734344
935.416	1.73065
938.309	2.27383
941.201	0.804901
944.094	1.16193
946.987	0.40683
949.879	0.474228
952.772	0.740616
955.665	0.268372
958.558	1.1246
961.45	1.36774
964.343	1.69334
967.236	1.80037
970.128	2.37305
973.021	2.46338
975.914	3.48177
978.806	2.63969
981.699	3.51352
984.592	1.7345
987.485	4.03238
990.377	3.68108
993.27	2.90109
996.163	3.22621
999.055	2.15486
1001.95	2.79597
1004.84	4.33354
1007.73	3.72939
1010.63	3.29514
1013.52	5.06482
1016.41	4.62775
1019.3	4.17216
1022.2	4.60434
1025.09	4.02618
1027.98	4.80148
1030.88	5.28651
1033.77	6.60722
1036.66	6.32002
1039.55	7.81908
1042.45	5.44304
1045.34	7.88455
1048.23	5.91298
1051.12	5.1026
1054.02	5.34442
1056.91	4.56755
1059.8	2.91161
1062.69	4.33989
1065.59	3.25444
1068.48	2.90006
1071.37	2.13738
1074.27	2.4048
1077.16	3.56741
1080.05	1.47671
1082.94	2.21487
1085.84	2.52119
1088.73	3.10306
1091.62	3.01901
1094.51	2.45344
1097.41	2.26279
1100.3	2.09167
1103.19	2.22923
1106.09	1.79132
1108.98	1.79865
1111.87	0.897064
1114.76	1.1702
1117.66	1.75002
1120.55	1.9563
1123.44	1.43663
1126.33	0.069641
1129.23	0.336075
1132.12	0.024216
1135.01	0.008011
1137.9	0.425522
1140.8	0.494843
1143.69	0.301056
1146.58	0.090729
1149.48	0.97612
1152.37	0.569977
1155.26	1.49455
1158.15	0.462051
1161.05	0.930145
1163.94	0.189728
1166.83	0.048782
1169.72	1.0845
1172.62	0.646667
1175.51	0.461716
1178.4	2.0786
1181.3	0.984695
1184.19	0.662994
1187.08	3.38602
1189.97	0.66394
1192.87	1.09625
1195.76	1.29306
1198.65	1.425
1201.54	0.518753
1204.44	0.998062
1207.33	0.043365
1210.22	1.11362
1213.12	3.2672
1216.01	1.33943
1218.9	0.885284
1221.79	1.66272
1224.69	0.194077
1227.58	1.41296
1230.47	1.20091
1233.36	1.70247
1236.26	2.86328
1239.15	1.95223
1242.04	2.56838
1244.93	1.2937
1247.83	2.33536
1250.72	2.04921
1253.61	2.22079
1256.51	1.55675
1259.4	3.39864
1262.29	1.95567
1265.18	1.68877
1268.08	0.01564
1270.97	3.29256
1273.86	1.38203
1276.76	2.8055
1279.65	2.08153
1282.54	2.49849
1285.43	0.426895
1288.33	1.27379
1291.22	1.83716
1294.11	0.901337
1297	0.980667
1299.9	0.001602
