Measurement: Raman, 780 nm, unoriented, Raman Data Processed
Mineral: Diopside
Rruff sample: R050496
Ideal chemistry: CaMgSi_2_O_6_
Locality: New City Quarry, Riverside, Riverside County, Calfornia, USA
Source: California Institute of Technology
Description: Aggregate of light green irregular grains
Measured chemistry: Ca(Mg_0.66_Fe_0.33_Mn_0.01_)(Si_0.95_Al_0.05_)_2_O_6_
Raman shift (cm-1)	intensity
110.697	0
114.072	12.2772
117.447	38.8784
120.822	57.8011
124.197	81.4542
127.572	96.5464
130.946	119.645
134.321	134.705
137.696	124.082
141.071	56.5461
144.446	13.2105
147.82	1.73126
151.195	6.00629
154.57	2.98657
157.945	6.51764
161.32	19.0349
164.694	19.076
168.069	25.5228
171.444	31.0322
174.819	34.9138
178.194	40.6619
181.569	35.5251
184.943	37.8139
188.318	33.0456
191.693	30.1299
195.068	23.0128
198.443	16.3159
201.817	14.2752
205.192	9.34546
208.567	0.784668
211.942	3.48816
215.317	5.23358
218.691	10.1715
222.066	9.08502
225.441	13.3151
228.816	11.7017
232.191	12.7819
235.566	11.03
238.94	20.6332
242.315	8.14185
245.69	6.02234
249.065	9.62738
252.44	6.82074
255.815	0.654053
259.189	1.71936
262.564	0.109497
265.939	5.0694
269.314	0.449463
272.689	2.76752
276.063	0.609375
279.438	4.06104
282.813	5.02484
286.188	13.808
289.563	17.4531
292.938	33.0558
296.312	43.9297
299.687	62.2009
303.062	78.6849
306.437	101.538
309.812	126.552
313.186	130.631
316.561	140.741
319.936	134.55
323.311	118.534
326.686	110.396
330.06	94.3715
333.435	103.134
336.81	106.309
340.185	114.197
343.56	121.148
346.935	124.028
350.309	126.363
353.684	115.677
357.059	104.552
360.434	101.603
363.809	111.918
367.183	133.535
370.558	171.892
373.933	191.918
377.308	216.124
380.683	231.706
384.058	225.53
387.432	190.88
390.807	129.279
394.182	72.3743
397.557	39.6105
400.932	23.3591
404.306	10.278
407.681	2.60483
411.056	2.42227
414.431	7.16354
417.806	0.319183
421.18	1.49231
424.555	4.55197
427.93	0.548401
431.305	2.11041
434.68	3.6203
438.055	3.534
441.429	4.53366
444.804	8.13596
448.179	6.50504
451.554	3.46692
454.929	8.23636
458.303	2.07025
461.678	4.38586
465.053	7.03946
468.428	9.77939
471.803	10.5223
475.178	7.54663
478.552	6.00574
481.927	7.32086
485.302	11.5648
488.677	4.69525
492.052	13.1801
495.426	22.5722
498.801	23.2675
502.176	32.6056
505.551	37.1792
508.926	42.5528
512.301	52.1609
515.675	57.8267
519.05	59.7461
522.425	59.8518
525.8	60.5641
529.175	58.9113
532.549	62.6843
535.924	54.6756
539.299	53.8381
542.674	57.2485
546.049	52.6716
549.423	52.9558
552.798	46.6009
556.173	52.3391
559.548	49.6104
562.923	41.4658
566.298	32.8267
569.672	26.1068
573.047	20.9964
576.422	14.5562
579.797	11.0031
583.172	5.25467
586.546	1.8493
589.921	1.00375
593.296	3.02506
596.671	0.745453
600.046	2.16623
603.42	1.2493
606.795	3.10718
610.17	3.20657
613.545	10.0026
616.92	6.47467
620.295	19.2044
623.669	19.5585
627.044	27.4067
630.419	37.6289
633.794	45.0508
637.169	71.096
640.543	92.6575
643.918	143.077
647.293	202.054
650.668	276.999
654.043	339.069
657.418	378.783
660.792	399.16
664.167	353.274
667.542	258.122
670.917	166.386
674.292	100.523
677.667	72.2944
681.041	50.8538
684.416	35.4701
687.791	26.1363
691.166	17.8899
694.541	15.0832
697.915	18.1997
701.29	7.768
704.665	6.06934
708.04	6.29275
711.415	3.77774
714.789	1.92676
718.164	0.202606
721.539	0.312775
724.914	5.37033
728.289	3.32184
731.664	3.34604
735.038	3.84042
738.413	1.46899
741.788	4.11334
745.163	0.930115
748.538	2.38757
751.913	0.915283
755.287	5.22678
758.662	0.357971
762.037	4.98767
765.412	0.671387
768.787	1.9668
772.161	6.10269
775.536	6.20334
778.911	8.06613
782.286	8.87231
785.661	7.9411
789.035	1.24585
792.41	8.71765
795.785	3.52594
799.16	1.90362
802.535	10.1081
805.909	9.56436
809.284	9.20496
812.659	10.6165
816.034	14.6991
819.409	15.4243
822.784	17.5198
826.158	15.7351
829.533	5.59396
832.908	15.0972
836.283	21.8433
839.658	30.9198
843.033	43.3062
846.407	49.5552
849.782	61.5165
853.157	57.5697
856.532	51.1526
859.907	36.1976
863.281	25.2683
866.656	19.6801
870.031	11.8567
873.406	4.80777
876.781	5.30695
880.155	0.625031
883.53	3.24008
886.905	6.19308
890.28	3.2041
893.655	3.07431
897.03	2.75555
900.404	2.01202
903.779	3.06479
907.154	2.63498
910.529	3.59366
913.904	2.29495
917.278	6.64648
920.653	7.31036
924.028	0.958221
927.403	7.75735
930.778	5.19412
934.153	0.655762
937.527	1.34265
940.902	0.755859
944.277	1.51691
947.652	0.203827
951.027	3.09351
954.401	2.80402
957.776	5.30255
961.151	8.31915
964.526	7.11926
967.901	8.81775
971.275	13.1133
974.65	13.7686
978.025	13.7131
981.4	25.1024
984.775	29.1631
988.15	42.8301
991.524	66.2923
994.899	110.149
998.274	164.072
1001.65	221.206
1005.02	262.241
1008.4	269.407
1011.77	234.045
1015.15	139.299
1018.52	84.575
1021.9	56.6245
1025.27	43.3447
1028.65	39.6052
1032.02	40.2596
1035.4	38.8992
1038.77	46.8393
1042.15	38.7673
1045.52	34.641
1048.9	25.1078
1052.27	18.0115
1055.65	11.529
1059.02	9.13788
1062.4	8.26303
1065.77	7.40668
1069.14	1.63532
1072.52	6.7229
1075.89	5.69998
1079.27	6.40784
1082.64	2.72235
1086.02	3.14966
1089.39	2.56415
1092.77	0.751282
1096.14	3.50211
1099.52	6.67227
1102.89	3.64893
1106.27	9.33179
1109.64	4.11987
1113.02	2.59909
1116.39	4.44479
1119.77	6.9324
1123.14	2.20215
1126.52	4.42664
1129.89	9.42267
1133.27	5.6878
1136.64	1.90494
1140.02	2.82285
1143.39	3.43756
1146.77	5.5058
1150.14	1.9379
1153.52	4.03186
1156.89	4.95288
1160.27	2.38089
1163.64	1.14166
1167.02	4.60107
1170.39	8.33487
1173.77	6.20282
1177.14	3.97696
1180.51	7.04321
1183.89	5.66464
1187.26	0.933472
1190.64	1.63452
1194.01	4.24271
1197.39	4.78326
1200.76	5.66016
1204.14	8.2883
1207.51	6.59714
1210.89	6.64096
1214.26	10.199
1217.64	5.88971
1221.01	1.17542
1224.39	4.48038
1227.76	4.36856
1231.14	6.86444
1234.51	6.24829
1237.89	1.88647
1241.26	2.63812
1244.64	6.168
1248.01	7.63406
1251.38	7.3818
1254.76	4.76178
1258.13	0.360748
1261.51	5.25574
1264.88	7.73227
1268.26	7.24036
1271.63	11.2376
1275.01	0.503632
1278.38	6.11044
1281.76	8.6676
1285.13	1.86261
