Measurement: Raman, 514 nm, unoriented, Raman Data Processed
Mineral: Dioptase
Rruff sample: R050010
Ideal chemistry: Cu^2+^SiO_3_H_2_O
Locality: Tsumeb mine, Tsumeb, Otavi District, Oshikoto, Namibia
Source: Eugene Schlepp
Description: Bluish green single crystals
Measured chemistry: Cu_1.00_Si_1.00_O_3_Â·H_2_O ; trace amounts of Mg and Al; OH estimated by difference
Raman shift (cm-1)	intensity
80.823	0
85.009	34.045
89.193	757.313
93.375	3696.51
97.554	9801.02
101.732	5728.83
105.908	997.894
110.082	1925.03
114.254	3649.33
118.424	4585.23
122.592	5139.15
126.758	11425.6
130.922	26102.2
135.083	23218.3
139.243	15311.9
143.401	2688.71
147.557	211.231
151.711	131.108
155.863	3050.9
160.013	8449.81
164.161	6531.86
168.308	2281.05
172.452	2702.82
176.594	7546.25
180.734	9946.89
184.872	6163.01
189.008	3313.82
193.143	3021.47
197.275	4511.53
201.405	3693.06
205.534	3846.48
209.66	5665.79
213.784	9856.03
217.907	20358.5
222.027	36244.2
226.146	40101.7
230.263	24552.8
234.377	11676.5
238.49	5577.57
242.601	3409.15
246.709	1258.24
250.816	234.741
254.921	750.716
259.024	5173.21
263.125	16373.2
267.224	20214.2
271.321	9053.76
275.416	4737.47
279.51	4356.17
283.601	5772.73
287.69	8838.02
291.778	12569.8
295.863	9412.8
299.947	2829.8
304.029	216.425
308.108	580.264
312.186	826.466
316.262	602.292
320.336	330.932
324.408	2203.77
328.478	2095.51
332.546	543.17
336.612	29.754
340.677	115.974
344.739	1169.94
348.799	4707.85
352.858	18248.7
356.915	39205.4
360.969	23254.1
365.022	8440.69
369.073	4206.81
373.122	2946.98
377.169	2841.7
381.215	3428.51
385.258	5202.4
389.299	9578.37
393.339	19687.4
397.376	35514.5
401.412	34071.6
405.446	17182.8
409.478	8393.01
413.508	6530.53
417.536	7331.22
421.562	8116.94
425.586	8452.63
429.609	9200.21
433.629	9373.71
437.648	9205.15
441.665	8050.5
445.68	7006.5
449.693	6235.65
453.704	5958.4
457.713	4902.84
461.721	3251.16
465.726	2229.71
469.73	1661.96
473.731	1139.25
477.731	975.542
481.729	1003.5
485.725	1341.64
489.72	1583.47
493.712	1199.97
497.703	1028.41
501.691	1235.24
505.678	1560.77
509.663	2083.97
513.646	2801.84
517.627	3256.39
521.607	3229.66
525.584	3085.79
529.56	2910.81
533.534	2426.69
537.506	2023.45
541.476	1635.08
545.444	1360.64
549.41	1419.05
553.375	1891.62
557.337	3088.3
561.298	4727.14
565.257	4734.74
569.214	3728.86
573.17	2838.14
577.123	1803.9
581.075	906.352
585.024	430.489
588.972	119.271
592.918	30.553
596.863	168.451
600.805	155.965
604.746	196.187
608.685	175.177
612.621	104.787
616.557	29.755
620.49	97.239
624.421	372.656
628.351	520.459
632.279	799.926
636.205	1274.3
640.129	1861.55
644.051	2956.55
647.972	5061.24
651.89	10105.6
655.807	21069.8
659.722	31765.1
663.636	23418.1
667.547	12573.8
671.457	6959.24
675.365	4312.89
679.271	2742.91
683.175	1934.19
687.077	1392.19
690.978	1044.28
694.877	820.13
698.774	681.814
702.669	613.63
706.562	620.905
710.454	700.834
714.344	778.257
718.232	949.737
722.118	1313.38
726.002	1849.7
729.885	2885.43
733.766	4896.83
737.645	7772.92
741.522	9927.69
745.397	8692.52
749.271	5654.99
753.143	3473.06
757.013	2091.2
760.881	1373.91
764.748	923.851
768.613	641.869
772.476	446.82
776.337	388.468
780.196	352.183
784.054	303.729
787.91	353.153
791.764	359.432
795.616	379.548
799.467	404.5
803.316	366.297
807.163	318.953
811.008	304.47
814.851	189.841
818.693	222.064
822.533	118.146
826.371	51.091
830.208	17.106
834.042	56.561
837.875	23.392
841.706	51.538
845.536	32.922
849.363	63.818
853.189	54.995
857.013	4.593
860.836	76.399
864.656	43.48
868.475	21.795
872.292	4.298
876.108	27.922
879.922	83.34
883.733	129.551
887.544	137.719
891.352	274.848
895.159	437.945
898.964	593.062
902.767	998.365
906.568	1573.14
910.368	2600.57
914.166	3474.7
917.962	3091.54
921.757	1960.99
925.55	1407.91
929.341	1186.13
933.13	1111.43
936.918	1066.76
940.703	1052.1
944.488	1178.46
948.27	1431.85
952.051	1839.29
955.83	2505.58
959.607	2900.98
963.383	2259.91
967.156	1701.69
970.928	1391.58
974.699	1452.62
978.468	1586.61
982.234	1778.23
986	2035.11
989.763	2594.07
993.525	3616.31
997.285	5544.19
1001.04	9311.01
1004.8	15507.3
1008.55	14879.4
1012.31	12659.1
1016.06	12679
1019.81	12255.3
1023.56	11027.8
1027.31	9195.33
1031.05	7191.13
1034.79	4971.05
1038.53	3419.08
1042.27	2403.69
1046.01	1839.48
1049.75	1418.85
1053.48	1194.33
1057.22	908.915
1060.95	849.594
1064.68	715.358
1068.4	600.199
1072.13	464.105
1075.86	347.073
1079.58	266.095
1083.3	194.167
1087.02	161.29
1090.74	117.677
1094.45	61.42
1098.17	8.177
1101.88	13.272
1105.59	20.142
1109.3	5.188
1113.01	0.239
1116.71	19.033
1120.42	37.022
1124.12	229.276
1127.82	133.499
1131.52	158.03
1135.22	165.579
1138.91	154.576
1142.61	232.483
1146.3	237.726
1149.99	257.387
1153.68	301.263
1157.37	298.815
1161.06	313.569
1164.74	357.92
1168.42	337.995
1172.1	355.745
1175.78	331.507
1179.46	260.933
1183.14	260.152
1186.81	227.307
1190.48	203.379
1194.15	200.35
1197.83	183.317
1201.49	124.263
1205.16	137.105
1208.82	183.771
1212.49	172.565
1216.15	161.286
1219.81	165.952
1223.46	138.678
1227.12	101.091
1230.78	73.587
1234.43	60.322
1238.08	37.872
1241.73	48.494
1245.38	11.261
1249.03	12.381
1252.67	2.593
1256.31	2.406
1259.95	15.208
1263.6	31.448
1267.23	39.748
1270.87	10.917
1274.51	23.318
1278.14	23.183
1281.77	11.318
1285.4	5.277
1289.03	16.69
1292.66	10.953
1296.28	19.98
1299.91	27.814
1303.53	44.448
1307.15	31.881
1310.77	29.08
1314.38	54.014
1318	52.691
1321.61	100.135
1325.23	105.358
1328.84	154.365
1332.45	146.177
1336.06	152.801
1339.66	113.23
1343.27	98.461
1346.87	112.49
1350.47	121.322
1354.07	97.97
1357.67	93.44
1361.26	101.733
1364.86	74.975
1368.45	85.917
1372.04	75.777
1375.63	67.799
1379.22	43.279
1382.81	32.428
1386.39	87.623
1389.98	74.954
1393.56	37.802
1397.14	46.69
1400.72	46.545
1404.3	32.739
1407.87	27.856
1411.45	39.817
1415.02	32.559
1418.59	83.205
1422.16	46.362
1425.73	65.172
1429.29	72.411
1432.86	74.05
1436.42	83.067
1439.98	71.951
1443.54	77.637
1447.1	56.327
1450.66	72.558
1454.21	75.739
1457.77	79.217
1461.32	78.241
1464.87	78.472
1468.42	93.302
1471.96	118.238
1475.51	67.974
1479.06	89.391
1482.6	121.177
1486.14	64.694
1489.68	74.479
1493.22	41.603
1496.75	30.443
1500.29	68.565
1503.82	7.887
1507.35	24.853
1510.88	9.61
1514.41	43.054
1517.94	17.662
1521.46	8.151
