Measurement: Raman, 785 nm, unoriented, Raman Data Processed
Mineral: Dioptase
Rruff sample: R050010
Ideal chemistry: Cu^2+^SiO_3_H_2_O
Locality: Tsumeb mine, Tsumeb, Otavi District, Oshikoto, Namibia
Source: Eugene Schlepp
Description: Bluish green single crystals
Measured chemistry: Cu_1.00_Si_1.00_O_3_Â·H_2_O ; trace amounts of Mg and Al; OH estimated by difference
Raman shift (cm-1)	intensity
123.912	0
126.805	56.8096
129.697	109.845
132.59	318.511
135.483	396.452
138.376	322.103
141.268	233.37
144.161	182.87
147.054	312.028
149.946	532.167
152.839	606.691
155.732	334.263
158.625	130.966
161.517	256.088
164.41	192.652
167.303	150.278
170.195	113.471
173.088	128.695
175.981	83.1591
178.873	67.4015
181.766	14.6142
184.659	13.2754
187.552	28.1609
190.444	13.7534
193.337	10.2543
196.23	38.2891
199.122	1.87311
202.015	9.37674
204.908	15.1737
207.8	12.0229
210.693	9.87778
213.586	21.6094
216.478	49.3493
219.371	61.9801
222.264	81.7879
225.157	43.1681
228.049	22.393
230.942	10.7108
233.835	21.1632
236.727	5.45023
239.62	4.13565
242.513	7.5889
245.405	8.45566
248.298	5.21399
251.191	30.9041
254.084	12.9022
256.976	8.8446
259.869	29.5193
262.762	41.0534
265.654	38.9995
268.547	22.8847
271.44	3.19598
274.332	17.128
277.225	17.0919
280.118	24.9009
283.011	43.2674
285.903	62.8118
288.796	55.651
291.689	72.5701
294.581	52.672
297.474	18.4063
300.367	3.48882
303.26	25.6815
306.152	8.79312
309.045	0.118332
311.938	20.7158
314.83	0.497299
317.723	13.659
320.616	13.232
323.508	1.75954
326.401	29.0293
329.294	21.6135
332.187	22.3174
335.079	12.3592
337.972	14.3567
340.865	37.3852
343.757	62.1262
346.65	69.6696
349.543	112.976
352.435	133.192
355.328	185.709
358.221	130.753
361.113	86.373
364.006	77.3757
366.899	49.9046
369.792	43.8261
372.684	55.7835
375.577	50.6736
378.47	39.4896
381.362	36.8254
384.255	34.633
387.148	28.5231
390.041	48.434
392.933	32.782
395.826	46.8431
398.719	42.1653
401.611	67.5045
404.504	55.5834
407.397	46.7985
410.289	70.0006
413.182	60.1425
416.075	76.1046
418.967	63.9418
421.86	71.5822
424.753	60.4286
427.646	53.9216
430.538	55.6229
433.431	61.4671
436.324	64.9597
439.216	28.9076
442.109	4.44954
445.002	17.4264
447.894	14.3586
450.787	11.6994
453.68	1.647
456.573	2.52717
459.465	9.66664
462.358	3.70776
465.251	11.3386
468.143	2.75706
471.036	5.73933
473.929	15.5433
476.822	2.97853
479.714	7.76369
482.607	21.5275
485.5	51.1028
488.392	58.7865
491.285	75.5701
494.178	61.1662
497.07	72.4215
499.963	71.4019
502.856	59.3394
505.748	40.7481
508.641	57.4087
511.534	21.9726
514.427	19.2508
517.319	11.7785
520.212	4.89218
523.105	9.37979
525.997	50.5053
528.89	41.5672
531.783	64.7581
534.676	56.3521
537.568	40.2798
540.461	26.3226
543.354	38.4064
546.246	18.2849
549.139	24.9818
552.032	24.0897
554.924	13.4539
557.817	19.8558
560.71	6.41852
563.602	12.7104
566.495	32.991
569.388	14.9941
572.281	42.4861
575.173	28.0587
578.066	47.4346
580.959	48.6878
583.851	50.0922
586.744	28.0695
589.637	23.7496
592.529	24.6146
595.422	20.4687
598.315	27.0779
601.208	24.271
604.1	5.88458
606.993	1.80098
609.886	13.1199
612.778	9.37776
615.671	19.8326
618.564	28.504
621.457	19.2181
624.349	30.8587
627.242	21.6554
630.135	35.8443
633.027	18.0688
635.92	35.2259
638.813	39.4928
641.705	56.8207
644.598	69.9967
647.491	97.5489
650.384	119.645
653.276	143.18
656.169	205.805
659.062	202.381
661.954	142.178
664.847	104.1
667.74	73.096
670.632	67.303
673.525	70.6782
676.418	37.0061
679.311	3.0455
682.203	19.7473
685.096	13.1693
687.989	0.446228
690.881	3.21159
693.774	22.7441
696.667	12.2442
699.559	1.96195
702.452	7.56574
705.345	6.81722
708.237	23.571
711.13	20.9144
714.023	1.81271
716.916	5.37747
719.808	3.18005
722.701	15.9898
725.594	6.18919
728.486	24.4795
731.379	40.4407
734.272	22.7934
737.164	26.0195
740.057	19.4374
742.95	28.8199
745.843	13.943
748.735	13.2652
751.628	31.3982
754.521	14.9206
757.413	26.6627
760.306	4.01303
763.199	16.0915
766.091	21.3838
768.984	26.4863
771.877	9.49011
774.77	13.6791
777.662	15.9327
780.555	30.473
783.448	15.5707
786.34	50.1424
789.233	56.552
792.126	7.83237
795.019	25.6677
797.911	0.985977
800.804	27.7754
803.697	22.3801
806.589	0.314163
809.482	21.0864
812.375	18.296
815.267	22.4531
818.16	18.6092
821.053	21.8967
823.946	23.2253
826.838	15.3981
829.731	30.6802
832.624	17.6227
835.516	18.6618
838.409	1.72012
841.302	31.898
844.194	23.4599
847.087	1.99704
849.98	13.692
852.872	11.8249
855.765	4.35718
858.658	18.6367
861.551	17.098
864.443	24.2112
867.336	7.75833
870.229	23.1682
873.121	20.4495
876.014	2.35944
878.907	19.3534
881.799	5.46265
884.692	12.141
887.585	16.5953
890.478	12.606
893.37	35.1023
896.263	11.767
899.156	25.4563
902.048	25.3127
904.941	41.9164
907.834	48.7482
910.726	21.4253
913.619	39.1761
916.512	24.1161
919.405	0.805695
922.297	22.4483
925.19	30.2323
928.083	20.3696
930.975	15.1697
933.868	9.51675
936.761	37.2413
939.654	5.99972
942.546	44.5363
945.439	47.7911
948.332	45.3372
951.224	46.9145
954.117	58.3188
957.01	55.7083
959.902	58.0356
962.795	20.4085
965.688	29.4959
968.581	24.1598
971.473	21.3573
974.366	5.95273
977.259	29.119
980.151	5.01404
983.044	25.3411
985.937	27.6949
988.829	37.2859
991.722	44.5029
994.615	34.8456
997.508	55.2112
1000.4	77.0895
1003.29	107.396
1006.19	68.1325
1009.08	93.1693
1011.97	88.1795
1014.86	80.2404
1017.76	74.5854
1020.65	81.6056
1023.54	72.6187
1026.43	74.6246
1029.33	54.6448
1032.22	19.9174
1035.11	35.1181
1038.01	33.7321
1040.9	21.209
1043.79	31.0883
1046.68	15.3225
1049.58	29.7398
1052.47	7.94614
1055.36	32.1689
1058.25	20.1324
1061.15	13.8547
1064.04	9.31952
1066.93	6.9899
1069.83	5.64664
1072.72	16.6572
1075.61	14.1824
1078.5	10.2325
1081.4	19.4598
1084.29	3.43268
1087.18	32.8796
1090.07	29.8691
1092.97	8.42685
1095.86	14.7836
1098.75	20.1798
1101.64	10.904
1104.54	33.5278
1107.43	19.7372
1110.32	7.76532
1113.21	21.6132
1116.11	18.4062
1119	23.6318
1121.89	23.191
1124.79	39.6179
1127.68	17.8214
1130.57	21.952
1133.46	33.3505
1136.36	18.1572
1139.25	29.6293
1142.14	19.443
1145.04	14.1841
1147.93	5.55383
1150.82	17.7806
1153.71	10.7119
1156.61	33.923
1159.5	19.9277
1162.39	15.6156
1165.28	37.0738
1168.18	12.7007
1171.07	16.8079
1173.96	32.64
1176.86	9.27405
1179.75	16.3445
1182.64	23.6113
1185.53	15.7911
1188.43	40.8825
1191.32	37.8739
1194.21	32.9857
1197.1	30.8958
1200	33.8075
1202.89	22.5357
1205.78	43.679
1208.67	42.6261
1211.57	30.2319
1214.46	29.5561
1217.35	18.5107
1220.24	7.87241
1223.14	20.1166
1226.03	11.7893
1228.92	14.3929
1231.82	25.2916
1234.71	24.5098
