Measurement: Raman, 532 nm, unoriented, Raman Data Processed
Mineral: Diopside
Rruff sample: R060085
Ideal chemistry: CaMgSi_2_O_6_
Locality: Tyrol, Austria
Source: University of Arizona Mineral Museum
Description: Brownish-green massive
Measured chemistry: (Ca_0.97_Na_0.03_)_Σ=1_(Mg_0.79_Fe^2+^_0.10_Fe^3+^_0.04_Al_0.04_Ti_0.02_Cr_0.01_)_Σ=1_(Si_1.90_Al_0.10_)_Σ=2_O_6_
Raman shift (cm-1)	intensity
143.404	0
146.297	0.5
149.19	5.96436
152.082	13.4463
154.975	13.442
157.868	3.2207
160.76	0.470459
163.653	3.00867
166.546	9.75708
169.438	13.8782
172.331	12.198
175.224	10.8623
178.117	7.65186
181.009	12.3674
183.902	16.5358
186.795	14.4121
189.687	11.7616
192.58	12.042
195.473	12.847
198.365	14.2833
201.258	12.6661
204.151	6.65637
207.043	2.40955
209.936	6.35132
212.829	12.4775
215.722	17.8884
218.614	18.203
221.507	17.2748
224.4	19.7845
227.292	22.9439
230.185	22.2924
233.078	22.5975
235.97	14.8735
238.863	9.36768
241.756	11.0416
244.649	10.9033
247.541	12.1863
250.434	11.0048
253.327	11.322
256.219	13.7054
259.112	11.428
262.005	6.33203
264.897	1.5177
267.79	3.03308
270.683	5.67688
273.576	0.411377
276.468	3.41211
279.361	2.59167
282.254	5.87524
285.146	2.05359
288.039	7.78711
290.932	11.127
293.825	9.82971
296.717	12.7822
299.61	13.011
302.503	15.9251
305.395	27.1858
308.288	31.2862
311.181	41.0649
314.073	46.7148
316.966	61.6034
319.859	80.908
322.752	99.4825
325.644	106.268
328.537	89.2502
331.43	65.0527
334.322	41.9639
337.215	29.2654
340.108	22.4244
343	18.5681
345.893	17.5961
348.786	13.3761
351.678	15.3381
354.571	19.1685
357.464	19.3246
360.357	16.4435
363.249	21.5656
366.142	24.1947
369.035	26.8682
371.927	34.0219
374.82	32.0631
377.713	31.8264
380.606	39.8657
383.498	51.1093
386.391	64.5955
389.284	80.8053
392.176	91.418
395.069	74.8124
397.962	52.7964
400.854	29.3943
403.747	14.8695
406.64	9.7063
409.532	7.43066
412.425	3.13098
415.318	3.69922
418.211	2.36487
421.103	6.72375
423.996	0.122314
426.889	0.248901
429.781	5.04822
432.674	6.28638
435.567	2.17236
438.459	0.255371
441.352	1.49426
444.245	0.680786
447.137	0.125
450.03	2.83228
452.923	2.2677
455.816	4.87085
458.708	9.52197
461.601	9.84009
464.494	9.8606
467.386	11.7074
470.279	9.8938
473.172	9.90869
476.065	12.1328
478.957	7.03174
481.85	5.26111
484.743	11.8176
487.635	13.1423
490.528	9.47632
493.421	7.41968
496.313	5.7782
499.206	6.56311
502.099	9.74536
504.991	18.2573
507.884	26.0638
510.777	28.7345
513.67	28.7849
516.562	26.703
519.455	21.2673
522.348	15.0489
525.24	15.7042
528.133	18.5291
531.026	19.129
533.918	18.3239
536.811	20.3896
539.704	19.934
542.597	22.1656
545.489	20.8645
548.382	14.544
551.275	17.4351
554.167	16.7564
557.06	7.24023
559.953	4.85107
562.846	8.77918
565.738	13.1077
568.631	10.9789
571.524	8.84985
574.416	6.18933
577.309	4.07568
580.202	3.96692
583.094	0.37439
585.987	0.148193
588.88	2.03565
591.773	6.55798
594.665	0.141235
597.558	1.6156
600.451	2.38354
603.343	6.32104
606.236	0.988403
609.129	0.570801
612.021	4.10339
614.914	5.69958
617.807	6.72412
620.699	4.75452
623.592	6.84143
626.485	8.47705
629.378	16.6263
632.27	21.098
635.163	17.3294
638.056	21.5057
640.948	22.7468
643.841	40.9606
646.734	49.3313
649.626	57.3501
652.519	72.0384
655.412	100.82
658.305	137.006
661.197	173.336
664.09	209.836
666.983	217.509
669.875	182.596
672.768	136.89
675.661	92.2732
678.553	69.8175
681.446	48.368
684.339	40.0857
687.232	32.2513
690.124	25.9434
693.017	22.7346
695.91	18.668
698.802	13.3594
701.695	13.9236
704.588	17.5643
707.481	6.60718
710.373	10.7523
713.266	5.49744
716.159	9.1919
719.051	9.98718
721.944	5.64331
724.837	1.52539
727.729	5.4812
730.622	4.37927
733.515	0.772339
736.408	4.01965
739.3	6.24182
742.193	12.0613
745.086	10.1611
747.978	10.8539
750.871	5.2904
753.764	8.04712
756.656	7.09509
759.549	3.7605
762.442	0.352417
765.335	0.441772
768.227	3.32239
771.12	7.75122
774.013	2.93616
776.905	7.35815
779.798	4.68591
782.691	7.23132
785.583	7.65051
788.476	5.40698
791.369	0.268311
794.261	4.53101
797.154	5.896
800.047	4.8606
802.94	0.061523
805.832	0.030884
808.725	3.73621
811.618	0.008911
814.51	0.498901
817.403	6.12122
820.296	10.8109
823.188	9.85254
826.081	7.60278
828.974	0.647461
831.867	0.484375
834.759	5.28601
837.652	4.90601
840.545	7.37634
843.437	8.16479
846.33	5.10901
849.223	3.21106
852.115	8.74097
855.008	18.1393
857.901	23.7002
860.794	15.7666
863.686	15.7926
866.579	13.0317
869.472	19.5087
872.364	11.2886
875.257	8.36609
878.15	5.31946
881.043	12.475
883.935	10.5643
886.828	11.1699
889.721	10.5256
892.613	11.8749
895.506	12.627
898.399	7.21741
901.291	4.18945
904.184	6.76843
907.077	5.9375
909.97	12.6342
912.862	6.05579
915.755	3.63708
918.648	0.931641
921.54	10.6564
924.433	3.69092
927.326	9.5083
930.218	1.95276
933.111	2.20422
936.004	0.850098
938.896	1.91406
941.789	2.59558
944.682	1.4762
947.575	5.07617
950.467	0.645142
953.36	1.99402
956.253	3.96704
959.145	0.993774
962.038	1.82031
964.931	1.94263
967.823	4.45215
970.716	6.51184
973.609	6.46301
976.501	12.4545
979.394	16.1324
982.287	25.4586
985.18	20.4413
988.072	21.4334
990.965	21.8758
993.858	35.0045
996.75	48.3981
999.643	57.4745
1002.54	72.8993
1005.43	99.4191
1008.32	116.799
1011.21	134.867
1014.11	129.374
1017	92.2434
1019.89	55.8151
1022.78	34.0837
1025.68	29.1503
1028.57	15.8457
1031.46	22.2164
1034.36	17.8356
1037.25	16.5094
1040.14	18.8375
1043.03	7.22778
1045.93	9.828
1048.82	8.5697
1051.71	7.54199
1054.6	2.99243
1057.5	3.42456
1060.39	5.7688
1063.28	7.84009
1066.17	11.8157
1069.07	6.32422
1071.96	3.91357
1074.85	2.12769
1077.75	0.742432
1080.64	2.03857
1083.53	2.8645
1086.42	2.73535
1089.32	2.17432
1092.21	3.21118
1095.1	8.32593
1097.99	7.84668
1100.89	4.37061
1103.78	6.51489
1106.67	6.96021
1109.57	7.24585
1112.46	5.95239
1115.35	5.65161
1118.24	5.11206
1121.14	9.91479
1124.03	17.6577
1126.92	12.9609
1129.82	23.613
1132.71	14.2339
1135.6	17.2139
1138.49	15.919
1141.38	20.7312
1144.28	22.8801
1147.17	17.813
1150.06	19.6528
1152.96	16.7974
1155.85	28.3027
1158.74	25.6177
1161.63	29.2051
1164.53	25.0869
1167.42	24.3342
1170.31	19.2825
1173.2	23.5715
1176.1	17.5439
1178.99	19.2859
1181.88	20.2598
1184.78	19.283
1187.67	23.9866
1190.56	17.3872
1193.45	16.8606
1196.35	17.8325
1199.24	12.2937
1202.13	7.86084
1205.03	12.7534
1207.92	15.3696
1210.81	9.47266
1213.7	4.52808
1216.6	10.8896
1219.49	9.68848
1222.38	7.84741
1225.27	12.8423
1228.17	6.97681
1231.06	2.43897
1233.95	6.01904
1236.84	2.83569
1239.74	4.40796
1242.63	1.95923
1245.52	1.82642
1248.41	6.76294
1251.31	7.9187
1254.2	13.6519
1257.09	8.91162
1259.99	8.69385
1262.88	8.97217
1265.77	11.7263
1268.66	8.02832
1271.56	6.52368
1274.45	9.16162
1277.34	6.62012
1280.23	6.57788
1283.13	3.04272
1286.02	4.25659
1288.91	5.50952
1291.81	0.811768
1294.7	0.448975
1297.59	1.04102
