Measurement: Raman, 780 nm, unoriented, Raman Data Processed
Mineral: Diopside
Rruff sample: R050406
Ideal chemistry: CaMgSi_2_O_6_
Locality: unknown
Source: University of Arizona Mineral Museum
Description: Brownish gray massive
Measured chemistry: (Ca_0.95_Na_0.05_)(Mg_0.75_Fe^2+^_0.18_Fe^3+^_0.05_Al_0.01_Ti_0.01_Mn^2+^_0.01_)(Si_0.98_Al_0.02_)_2_O_6_
Raman shift (cm-1)	intensity
129.646	0
132.539	3.06311
135.432	0.632202
138.325	5.59802
141.217	6.02997
144.11	5.22461
147.003	7.41028
149.895	12.0325
152.788	11.6613
155.681	11.0734
158.573	13.2999
161.466	17.7509
164.359	18.5377
167.251	20.4811
170.144	24.8438
173.037	31.6225
175.93	32.2741
178.822	37.7563
181.715	36.4225
184.608	37.3565
187.5	39.9117
190.393	41.0018
193.286	37.7001
196.179	30.6412
199.071	25.8283
201.964	19.8865
204.857	18.4509
207.749	18.084
210.642	15.5623
213.535	14.6644
216.427	14.59
219.32	16.8957
222.213	18.4363
225.106	20.335
227.998	22.5793
230.891	26.971
233.784	24.1603
236.676	20.1533
239.569	14.9904
242.462	12.8752
245.354	12.6333
248.247	11.8007
251.14	12.514
254.032	10.4289
256.925	12.5775
259.818	9.42139
262.711	6.0932
265.603	4.85175
268.496	1.57733
271.389	0.625122
274.281	1.38171
277.174	2.45074
280.067	2.08142
282.959	0.662415
285.852	0.206665
288.745	1.36066
291.638	2.71845
294.53	4.22821
297.423	9.52441
300.316	15.5886
303.208	18.5544
306.101	24.2972
308.994	32.9479
311.887	41.3425
314.779	49.2638
317.672	63.3516
320.565	66.3287
323.457	67.1456
326.35	55.808
329.243	40.0488
332.135	29.224
335.028	19.0063
337.921	16.344
340.813	15.6594
343.706	15.7394
346.599	12.8727
349.492	12.3306
352.384	12.5407
355.277	15.2792
358.17	14.7521
361.062	13.4474
363.955	16.1453
366.848	19.6047
369.74	21.9897
372.633	27.1715
375.526	32.5988
378.419	37.1479
381.311	40.9992
384.204	49.9562
387.097	55.6523
389.989	49.5748
392.882	41.8429
395.775	25.3593
398.668	13.5487
401.56	3.89972
404.453	2.81293
407.346	2.29199
410.238	4.17102
413.131	2.30005
416.024	1.92694
418.916	0.847534
421.809	1.32703
424.702	2.7948
427.594	2.13013
430.487	1.32971
433.38	4.55078
436.273	1.17956
439.165	1.46637
442.058	2.42114
444.951	3.52228
447.843	5.11694
450.736	7.0144
453.629	8.57513
456.522	8.24896
459.414	4.6062
462.307	7.90991
465.2	7.99603
468.092	7.62482
470.985	4.61591
473.878	4.78491
476.77	1.82562
479.663	3.34259
482.556	4.54761
485.449	1.74567
488.341	2.53668
491.234	4.89648
494.127	8.15167
497.019	11.2753
499.912	14.7081
502.805	18.6461
505.697	22.2942
508.59	19.4917
511.483	16.7422
514.375	15.9963
517.268	13.5239
520.161	15.4252
523.054	8.09991
525.946	11.9921
528.839	12.042
531.732	12.1168
534.624	12.0641
537.517	8.83508
540.41	9.15704
543.303	11.8775
546.195	13.4656
549.088	17.3132
551.981	20.9965
554.873	23.6396
557.766	24.3516
560.659	19.0877
563.551	14.2103
566.444	11.0076
569.337	9.13934
572.23	8.68909
575.122	2.60455
578.015	5.63983
580.908	4.008
583.8	2.30926
586.693	2.51746
589.586	0.431885
592.478	0.983887
595.371	1.22064
598.264	1.49347
601.156	0.796936
604.049	0.548157
606.942	0.20166
609.835	0.12146
612.727	0.107605
615.62	2.72308
618.513	3.75915
621.405	4.11572
624.298	4.51465
627.191	6.84241
630.083	8.3346
632.976	7.95917
635.869	12.9681
638.761	12.5771
641.654	18.3047
644.547	25.3536
647.44	35.5701
650.332	51.5719
653.225	71.2229
656.118	91.6328
659.01	118.285
661.903	146.024
664.796	165.361
667.688	151.658
670.581	114.094
673.474	72.0792
676.367	43.4598
679.259	24.3506
682.152	19.1504
685.045	15.5632
687.937	11.2522
690.83	10.1486
693.723	7.34485
696.615	5.28735
699.508	4.67297
702.401	3.92212
705.294	3.77911
708.186	3.67737
711.079	3.43152
713.972	1.90869
716.864	2.315
719.757	2.85596
722.65	1.5824
725.543	1.34503
728.435	0.453979
731.328	0.47406
734.221	0.718201
737.113	1.04419
740.006	0.911072
742.899	0.130371
745.791	1.1496
748.684	1.0108
751.577	0.647034
754.47	0.638428
757.362	1.91657
760.255	1.24451
763.148	0.36792
766.04	2.2395
768.933	0.921082
771.826	1.64734
774.718	1.57428
777.611	0.961853
780.504	1.16144
783.396	3.586
786.289	2.54248
789.182	1.68555
792.075	2.65411
794.967	1.15082
797.86	1.49133
800.753	2.46344
803.645	2.37909
806.538	1.29871
809.431	2.51367
812.323	0.639221
815.216	2.11575
818.109	3.26852
821.002	1.66937
823.894	1.63672
826.787	2.61258
829.68	2.97089
832.572	2.9335
835.465	1.57315
838.358	1.90057
841.25	2.65231
844.143	2.49991
847.036	1.35544
849.929	1.00803
852.821	1.54819
855.714	2.90732
858.607	3.35465
861.5	1.73953
864.392	2.03754
867.285	2.56915
870.178	1.61008
873.07	0.723083
875.963	1.74753
878.856	1.14941
881.748	0.174835
884.641	0.831421
887.534	0.927002
890.427	0.389771
893.319	0.603943
896.212	0.944946
899.105	1.57285
901.997	2.2565
904.89	2.57104
907.783	2.05719
910.675	1.86264
913.568	0.934998
916.461	2.22885
919.353	2.48135
922.246	1.87299
925.139	1.34003
928.032	1.3345
930.924	1.50952
933.817	1.75156
936.71	1.62881
939.602	0.783356
942.495	0.31958
945.388	0.879822
948.28	0.283112
951.173	0.080475
954.066	0.007538
956.958	0.383606
959.851	0.650604
962.744	0.437042
965.637	0.853668
968.529	0.789185
971.422	3.19388
974.315	4.14316
977.207	4.6221
980.1	7.5621
982.993	8.66773
985.885	12.0606
988.778	15.0736
991.671	17.5578
994.564	27.8514
997.456	43.7075
1000.35	64.67
1003.24	96.7403
1006.13	130.005
1009.03	164.416
1011.92	186.902
1014.81	171.445
1017.71	112.165
1020.6	60.4772
1023.49	38.8173
1026.38	25.8361
1029.28	20.9633
1032.17	16.1034
1035.06	15.1339
1037.95	15.8117
1040.85	14.4869
1043.74	15.4642
1046.63	14.3691
1049.53	9.31943
1052.42	10.7256
1055.31	10.0964
1058.2	8.21078
1061.1	5.27979
1063.99	5.43658
1066.88	5.8168
1069.77	3.74991
1072.67	1.67059
1075.56	2.34616
1078.45	0.395233
1081.35	1.70105
1084.24	1.4342
1087.13	1.02753
1090.02	1.17346
1092.91	2.69632
1095.81	1.77667
1098.7	0.610962
1101.59	1.96106
1104.49	2.32446
1107.38	1.70429
1110.27	2.23138
1113.16	0.696075
1116.06	2.62351
1118.95	2.01132
1121.84	0.815491
1124.73	1.55414
1127.63	1.52429
1130.52	1.43665
1133.41	0.28775
1136.31	0.237762
1139.2	0.090424
1142.09	0.407318
1144.98	0.816193
1147.88	1.2164
1150.77	1.54199
1153.66	1.53088
1156.56	1.93512
1159.45	2.89847
1162.34	2.36801
1165.23	2.2984
1168.13	3.87244
1171.02	2.96201
1173.91	1.76169
1176.8	3.99951
1179.7	4.50601
1182.59	2.5195
1185.48	4.67334
1188.38	4.93625
1191.27	4.98267
1194.16	3.99115
1197.05	2.59119
1199.94	1.94
1202.84	3.84381
1205.73	4.11728
1208.62	0.582245
1211.52	0.319733
1214.41	2.73105
1217.3	1.32703
1220.19	1.48483
1223.09	0.222778
1225.98	1.23202
1228.87	2.42535
1231.77	1.18204
1234.66	1.01398
1237.55	1.94607
1240.44	1.36462
1243.34	0.118896
1246.23	0.0784
1249.12	3.91364
1252.01	0.907837
1254.91	3.80463
1257.8	1.04862
1260.69	0.665649
1263.59	0.433502
1266.48	0.664795
1269.37	1.33951
1272.26	0.495758
