Measurement: Raman, 532 nm, unoriented, Raman Data Processed
Mineral: Dioptase
Rruff sample: R050010
Ideal chemistry: Cu^2+^SiO_3_H_2_O
Locality: Tsumeb mine, Tsumeb, Otavi District, Oshikoto, Namibia
Source: Eugene Schlepp
Description: Bluish green single crystals
Measured chemistry: Cu_1.00_Si_1.00_O_3_Â·H_2_O ; trace amounts of Mg and Al; OH estimated by difference
Raman shift (cm-1)	intensity
121.699	0
125.074	94.5511
128.449	558.152
131.823	1130.6
135.198	911.178
138.573	741.744
141.948	43.5286
145.323	29.5846
148.698	19.2286
152.072	168.621
155.447	477.851
158.822	888.406
162.197	738.006
165.572	215.023
168.946	164.787
172.321	338.698
175.696	680.335
179.071	738.897
182.446	343.097
185.821	119.723
189.195	82.5535
192.57	182.241
195.945	417.713
199.32	109.978
202.695	98.074
206.07	349.837
209.444	757
212.819	1408.91
216.194	2399.9
219.569	3723.08
222.944	4186.98
226.318	3402.05
229.693	2043.13
233.068	1238.84
236.443	937.394
239.818	876.209
243.192	636.998
246.567	45.1869
249.942	20.3777
253.317	193.175
256.692	657.668
260.067	1412.54
263.441	2395.42
266.816	2103.57
270.191	1042.38
273.566	814.96
276.941	1057.36
280.315	1518.14
283.69	2121.52
287.065	2855.57
290.44	3585.17
293.815	3027.31
297.19	1406.29
300.564	410.491
303.939	78.7919
307.314	-13.1695
310.689	2.35725
314.064	65.7121
317.438	272.482
320.813	620.496
324.188	937.27
327.563	658.279
330.938	214.894
334.313	65.6656
337.687	125.415
341.062	516.809
344.437	1218.92
347.812	2408.62
351.187	4334.49
354.562	6782.23
357.936	5896.74
361.311	2097.05
364.686	726.775
368.061	228.495
371.436	17.0666
374.81	0.762451
378.185	128.687
381.56	384.026
384.935	978.617
388.31	1854.21
391.685	3102.24
395.059	4413.51
398.434	4730.29
401.809	2926.5
405.184	1459.49
408.559	992.822
411.933	1155.83
415.308	1429.87
418.683	1679.84
422.058	1776.16
425.433	1880.47
428.808	1928.06
432.182	1943.99
435.557	1835.4
438.932	1598.57
442.307	1431.28
445.682	1289.24
449.056	1309.16
452.431	1266.39
455.806	946.352
459.181	454.461
462.556	157.586
465.93	23.9189
469.305	-5.02568
472.68	-4.49757
476.055	14.3978
479.43	61.2672
482.805	199.372
486.179	290.384
489.554	328.269
492.929	234.785
496.304	285.435
499.679	437.788
503.053	705.841
506.428	966.228
509.803	1293.02
513.178	1567.99
516.553	1751.64
519.928	1779.43
523.302	1830.84
526.677	1704.67
530.052	1524.59
533.427	1303.49
536.802	1080.31
540.177	846.94
543.551	692.322
546.926	613.543
550.301	570.949
553.676	584.764
557.051	685.8
560.425	710.413
563.8	663.121
567.175	532.025
570.55	411.716
573.925	295.202
577.299	180.04
580.674	74.6104
584.049	46.7593
587.424	18.5881
590.799	17.8641
594.174	16.5073
597.548	16.7894
600.923	9.84399
604.298	3.30518
607.673	0.816162
611.048	22.9647
614.423	26.5049
617.797	39.9818
621.172	90.6834
624.547	121.23
627.922	175.877
631.297	252.085
634.671	331.941
638.046	488.847
641.421	747.282
644.796	1212.81
648.171	2005.93
651.545	2976.07
654.92	4114.94
658.295	4491.04
661.67	3253.01
665.045	1812.01
668.42	1036.65
671.794	606.699
675.169	385.808
678.544	215.788
681.919	153.216
685.294	100.951
688.668	61.9903
692.043	16.1492
695.418	14.8483
698.793	11.2108
702.168	17.133
705.543	12.249
708.917	6.37231
712.292	29.2705
715.667	65.057
719.042	126.273
722.417	238.456
725.792	440.451
729.166	702.486
732.541	1050.54
735.916	1381.31
739.291	1530.08
742.666	1343.16
746.04	992.384
749.415	646.978
752.79	413.168
756.165	238.362
759.54	186.918
762.915	153.822
766.289	116.163
769.664	118.015
773.039	99.1219
776.414	117.262
779.789	128.714
783.163	131.527
786.538	143.615
789.913	160.698
793.288	174.429
796.663	152.326
800.038	157.129
803.412	160.385
806.787	160.983
810.162	156.113
813.537	133.574
816.912	125.954
820.286	101.406
823.661	88.1031
827.036	76.6679
830.411	38.8098
833.786	45.2695
837.16	19.9711
840.535	11.0535
843.91	17.8978
847.285	25.3818
850.66	4.87305
854.035	15.8776
857.409	7.43878
860.784	12.7681
864.159	11.6604
867.534	19.9157
870.909	1.34729
874.284	0.433777
877.658	4.8927
881.033	25.6443
884.408	13.2842
887.783	64.803
891.158	105.555
894.533	148.218
897.907	266.343
901.282	479.865
904.657	750.451
908.032	1054.57
911.407	1265.63
914.781	1134.33
918.156	741.852
921.531	409.098
924.906	208.197
928.281	93.3321
931.655	34.0633
935.03	34.9515
938.405	46.7036
941.78	70.8511
945.155	146.929
948.529	306.852
951.904	483.41
955.279	608.488
958.654	549.801
962.029	310.631
965.404	99.3529
968.778	32.817
972.153	1.21289
975.528	27.3678
978.903	66.9036
982.278	150.829
985.653	326.647
989.027	666.17
992.402	1203.39
995.777	2321.13
999.152	3756.66
1002.53	4917.31
1005.9	4274.59
1009.28	2701.3
1012.65	1897.45
1016.03	1566.79
1019.4	1355.29
1022.78	1168.86
1026.15	966.355
1029.53	717.265
1032.9	470.273
1036.28	281.487
1039.65	189.736
1043.02	135.481
1046.4	80.5724
1049.77	59.2976
1053.15	37.8657
1056.52	21.9741
1059.9	21.1747
1063.27	21.1232
1066.65	2.37091
1070.02	2.827
1073.4	14.1282
1076.77	7.19644
1080.15	1.67895
1083.52	5.45746
1086.9	2.43369
1090.27	1.59409
1093.65	5.76914
1097.02	3.35611
1100.4	13.7487
1103.77	8.01013
1107.15	24.3362
1110.52	13.9266
1113.9	36.9386
1117.27	50.9379
1120.64	55.704
1124.02	66.6025
1127.39	59.529
1130.77	56.7505
1134.14	78.0854
1137.52	61.6078
1140.89	73.9675
1144.27	70.6654
1147.64	85.1272
1151.02	84.1015
1154.39	79.4229
1157.77	93.8447
1161.14	94.2359
1164.52	90.0082
1167.89	89.4667
1171.27	82.9894
1174.64	67.3791
1178.02	78.6509
1181.39	62.9908
1184.77	64.3479
1188.14	51.1252
1191.52	56.2721
1194.89	45.4031
1198.27	55.4964
1201.64	39.7972
1205.02	47.1859
1208.39	43.4086
1211.77	36.5246
1215.14	46.5113
1218.52	43.4658
1221.89	33.7689
1225.27	39.0481
1228.64	23.3545
1232.01	14.734
1235.39	20.2382
1238.76	16.6783
1242.14	13.576
1245.51	20.1605
1248.89	11.2508
1252.26	5.22433
1255.64	11.2365
1259.01	13.8362
1262.39	11.6704
1265.76	7.62076
1269.14	7.17215
1272.51	18.0598
1275.89	7.93797
1279.26	12.0305
1282.64	0.446945
1286.01	18.0556
1289.39	9.94556
1292.76	7.36723
1296.14	0.890854
1299.51	19.9551
1302.88	0.006195
