Measurement: Raman, 780 nm, unoriented, Raman Data Processed
Mineral: Diopside
Rruff sample: R060085
Ideal chemistry: CaMgSi_2_O_6_
Locality: Tyrol, Austria
Source: University of Arizona Mineral Museum
Description: Brownish-green massive
Measured chemistry: (Ca_0.97_Na_0.03_)_Σ=1_(Mg_0.79_Fe^2+^_0.10_Fe^3+^_0.04_Al_0.04_Ti_0.02_Cr_0.01_)_Σ=1_(Si_1.90_Al_0.10_)_Σ=2_O_6_
Raman shift (cm-1)	intensity
141.744	0
144.636	5.17578
147.529	2.82422
150.422	9.47656
153.315	76.4219
156.207	104.305
159.1	121.676
161.993	53.2227
164.885	137.582
167.778	82.7812
170.671	61.1289
173.563	129.527
176.456	117.375
179.349	156.586
182.242	214.633
185.134	184.023
188.027	227.312
190.92	263.715
193.812	467.754
196.705	477.926
199.598	430.098
202.49	346.188
205.383	334.965
208.276	338.211
211.168	278.445
214.061	225.125
216.954	235.582
219.847	276.375
222.739	273.293
225.632	310.391
228.525	261.727
231.417	272.746
234.31	181.703
237.203	162.535
240.095	22.918
242.988	15.1562
245.881	51.1172
248.774	2.48047
251.666	24.3438
254.559	68.2617
257.452	47.7852
260.344	10.8906
263.237	41.8398
266.13	1.64453
269.022	81.5352
271.915	63.0703
274.808	41.3125
277.701	168.113
280.593	210.289
283.486	272.82
286.379	235.5
289.271	294.387
292.164	346.254
295.057	310.336
297.95	332.305
300.842	242.625
303.735	240.434
306.628	237.898
309.52	377.434
312.413	529.988
315.306	689.672
318.198	862.82
321.091	1175.07
323.984	1411.91
326.877	1301.76
329.769	1096.44
332.662	782.356
335.555	667.93
338.447	607.598
341.34	503.418
344.233	482.488
347.125	497.863
350.018	561.398
352.911	578.859
355.803	508.309
358.696	631.965
361.589	588.856
364.482	579.273
367.374	589.609
370.267	717.602
373.16	665.602
376.052	585.519
378.945	635.231
381.838	870.332
384.731	1122.06
387.623	1405.32
390.516	1734.87
393.409	1761.88
396.301	1432.06
399.194	1055.39
402.087	784.387
404.979	582.594
407.872	448.047
410.765	292.695
413.658	265.148
416.55	180.906
419.443	135.859
422.336	172.109
425.228	67.6953
428.121	42.6484
431.014	4.35156
433.906	7.75
436.799	43.6719
439.692	63.5508
442.584	37.707
445.477	82.1992
448.37	82.1953
451.263	86.2227
454.155	169.844
457.048	239.535
459.941	343.34
462.833	396.621
465.726	402.418
468.619	548.574
471.512	531.137
474.404	560.227
477.297	452.715
480.19	265.598
483.082	199.926
485.975	110.148
488.868	59.9297
491.76	36.0078
494.653	56.3242
497.546	71.3672
500.438	78.8281
503.331	37.25
506.224	16.8164
509.117	46.9844
512.009	116.426
514.902	193.633
517.795	168.746
520.687	151.043
523.58	168.879
526.473	230.848
529.365	254.981
532.258	280.754
535.151	302.449
538.044	278.695
540.936	215.019
543.829	171.602
546.722	129.934
549.614	127.719
552.507	116.586
555.4	155.277
558.293	194.836
561.185	118.613
564.078	122.438
566.971	76.0273
569.863	102.152
572.756	27.7109
575.649	2.05859
578.541	18.9453
581.434	62.0859
584.327	14.8789
587.22	47.0117
590.112	109.25
593.005	136.769
595.898	165.941
598.79	174.75
601.683	176.465
604.576	213.414
607.468	282.129
610.361	223.172
613.254	337.062
616.146	338.613
619.039	255.941
621.932	190.293
624.825	254.566
627.717	230.379
630.61	181.117
633.503	169.461
636.395	130.199
639.288	243.039
642.181	263.66
645.073	302.41
647.966	374.664
650.859	472.453
653.752	598.84
656.644	642.941
659.537	869.57
662.43	997.387
665.322	1167.64
668.215	1205.27
671.108	941.223
674	718.41
676.893	593.574
679.786	499.644
682.679	244.004
685.571	216.106
688.464	173.629
691.357	68.9297
694.249	9.17188
697.142	80.8945
700.035	60.6602
702.928	10.4453
705.82	20.2148
708.713	96.9258
711.606	17.7188
714.498	54.7344
717.391	3
720.284	140.391
723.176	232.832
726.069	186.441
728.962	262.461
731.855	409.356
734.747	343.84
737.64	315.043
740.533	292.398
743.425	342.711
746.318	365.312
749.211	417.973
752.103	410.375
754.996	280.406
757.889	224.617
760.782	178.789
763.674	97.6875
766.567	96.25
769.46	94.7773
772.352	146.066
775.245	106.301
778.138	150.578
781.03	160.656
783.923	129.137
786.816	172.09
789.708	214.863
792.601	358.508
795.494	476.754
798.387	414.539
801.279	425.195
804.172	350.535
807.065	508.863
809.957	442.019
812.85	344.266
815.743	345.652
818.635	436.887
821.528	407.332
824.421	402.648
827.314	385.336
830.206	359.199
833.099	393.027
835.992	383.172
838.884	333.441
841.777	237.184
844.67	160.481
847.562	212.934
850.455	191.098
853.348	232.5
856.241	250.519
859.133	278.188
862.026	287.215
864.919	303.227
867.811	292.305
870.704	302.973
873.597	365.598
876.49	294.856
879.382	232.769
882.275	233.012
885.168	327.508
888.06	300.707
890.953	243.117
893.846	223.293
896.738	44.4961
899.631	22.9297
902.524	20.4453
905.417	13.793
908.309	27.4766
911.202	19.3242
914.095	65.5391
916.987	42.6523
919.88	23.2852
922.773	111.402
925.665	72.3594
928.558	0.6875
931.451	41.0469
934.343	52.3164
937.236	119.582
940.129	176.262
943.022	99.2891
945.914	114.453
948.807	202.977
951.7	343.082
954.592	428.246
957.485	365.535
960.378	396.254
963.27	258.871
966.163	210.981
969.056	220.18
971.949	172.969
974.841	233.793
977.734	223.027
980.627	291.965
983.519	343.676
986.412	378.996
989.305	523.777
992.197	530.129
995.09	672.43
997.983	767.652
1000.88	970.156
1003.77	1189.53
1006.66	1445.46
1009.55	1803.12
1012.45	1939.75
1015.34	1617.22
1018.23	1228.14
1021.12	920.656
1024.02	726.902
1026.91	709.859
1029.8	761.5
1032.69	736.191
1035.59	675.586
1038.48	710.223
1041.37	605.125
1044.27	557.215
1047.16	527.215
1050.05	499.102
1052.94	454.91
1055.84	483.594
1058.73	443.156
1061.62	543.07
1064.52	593.266
1067.41	626.84
1070.3	665.113
1073.19	645.598
1076.09	640.137
1078.98	464.949
1081.87	445.035
1084.76	365.871
1087.66	305.102
1090.55	332.012
1093.44	337.93
1096.34	166.891
1099.23	128.25
1102.12	73.1289
1105.01	7.25
1107.91	80.0156
1110.8	10.9062
1113.69	68.5742
1116.58	67.7188
1119.48	85.6641
1122.37	13.4258
1125.26	90.957
1128.15	83.4883
1131.05	191.352
1133.94	240.004
1136.83	229.922
1139.72	237.516
1142.62	310.527
1145.51	306.438
1148.4	263.449
1151.3	178.141
1154.19	159.207
1157.08	144.957
1159.97	179.387
1162.87	154.629
1165.76	152.59
1168.65	144.414
1171.55	197.125
1174.44	245.973
1177.33	138.117
1180.22	182.484
1183.12	130.656
1186.01	211.93
1188.9	259.684
1191.79	309.801
1194.69	262.816
1197.58	336.231
1200.47	246
1203.37	290.316
1206.26	276.488
1209.15	241.438
1212.04	271.805
1214.93	287.996
1217.83	331.109
1220.72	237.211
1223.61	178.109
1226.51	219.906
1229.4	211.293
1232.29	261.262
1235.18	143.195
1238.08	78.9453
1240.97	28.4648
1243.86	4.21484
1246.76	22.4453
1249.65	41.5898
1252.54	74.2109
1255.43	73.0547
1258.33	110.965
1261.22	254.828
1264.11	189.508
1267	177.281
1269.9	161.809
1272.79	129.754
1275.68	47.7617
1278.58	70.8359
1281.47	14.375
1284.36	50.6367
