Measurement: Raman, 780 nm, unoriented, Raman Data Processed
Mineral: Dolerophanite
Rruff sample: R070652
Ideal chemistry: Cu^2+^_2_OS^6+^O_4_
Locality: First scoria cone, Northern Breakthrough (North Breach), Great Fissure (Main Fracture) eruption, Tolbachik volcano, Kamchatka Oblast', Far-Eastern Region, Russia
Source: Michael Scott
Description: Very dark brown prismatic crystal to golden brown crystal fragments associated with euchlorine
Raman shift (cm-1)	intensity
126.718	0
129.61	103.045
132.503	2.13818
135.396	131.912
138.288	307.983
141.181	350.258
144.074	523.702
146.967	638.207
149.859	711.118
152.752	728.879
155.645	787.447
158.537	645.988
161.43	491.308
164.323	386.163
167.215	298.176
170.108	231.567
173.001	93.7275
175.894	50.6362
178.786	28.894
181.679	19.1904
184.572	2.56787
187.464	34.2935
190.357	15.248
193.25	6.37256
196.143	36.8379
199.035	2.95801
201.928	52.2637
204.821	54.7261
207.713	34.4522
210.606	86.0098
213.499	120.961
216.392	201.439
219.284	88.229
222.177	224.867
225.07	195.053
227.962	224.56
230.855	202.003
233.748	117.203
236.64	139.031
239.533	127.924
242.426	151.963
245.319	99.894
248.211	68.084
251.104	66.9917
253.997	104.079
256.889	35.8882
259.782	36.1421
262.675	7.8667
265.567	56.3442
268.46	11.0957
271.353	76.2891
274.245	89.7676
277.138	151.179
280.031	175.414
282.924	104.016
285.816	164.648
288.709	156.023
291.602	162.097
294.494	140.526
297.387	177.506
300.28	151.556
303.173	191.004
306.065	116.938
308.958	95.4702
311.851	100.889
314.743	63.0098
317.636	110.652
320.529	27.1724
323.421	63.4976
326.314	24.2564
329.207	14.2837
332.099	51.169
334.992	20.4014
337.885	14.5283
340.778	9.73682
343.67	1.93848
346.563	26.2778
349.456	72.3047
352.348	66.5884
355.241	35.6763
358.134	5.3208
361.026	119.185
363.919	74.1611
366.812	0.491699
369.705	56.1475
372.597	4.03125
375.49	9.12207
378.383	40.1543
381.276	38.4463
384.168	8.83838
387.061	67.9873
389.954	51.4395
392.846	6.30713
395.739	77.3252
398.632	70.8618
401.524	17.8525
404.417	73.2407
407.31	75.8242
410.202	67.0254
413.095	77.9961
415.988	111.644
418.881	77.2803
421.773	159.224
424.666	85.8477
427.559	133.148
430.451	123.367
433.344	125.978
436.237	65.2285
439.13	122.277
442.022	172.611
444.915	125.185
447.808	147.237
450.7	207.74
453.593	227.7
456.486	238.71
459.378	221.761
462.271	230.253
465.164	173.249
468.057	110.165
470.949	137.798
473.842	134.922
476.735	12.4829
479.627	60.5991
482.52	24.1138
485.413	75.0879
488.305	63.1006
491.198	17.7925
494.091	42.9448
496.983	65.9082
499.876	52.9658
502.769	48.7749
505.662	36.9397
508.554	17.0349
511.447	21.5186
514.34	33.573
517.232	27.0393
520.125	43.061
523.018	59.8567
525.91	30.1233
528.803	25.1909
531.696	51.3435
534.589	27.2927
537.481	5.34521
540.374	19.1716
543.267	7.47266
546.159	3.95386
549.052	16.1946
551.945	56.0122
554.837	10.6021
557.73	104.496
560.623	60.9592
563.516	105.501
566.408	154.989
569.301	143.66
572.194	194.852
575.086	253.942
577.979	358.884
580.872	383.247
583.764	374.082
586.657	422.155
589.55	265.894
592.443	310.109
595.335	234.678
598.228	117.624
601.121	116.674
604.013	70.4336
606.906	83.3562
609.799	97.2026
612.692	49.3083
615.584	78.8838
618.477	97.2136
621.37	106.342
624.262	172.938
627.155	233.397
630.048	170.337
632.94	116.067
635.833	131.701
638.726	203.158
641.619	207.611
644.511	213.631
647.404	141.211
650.297	146.228
653.189	71.0295
656.082	140.459
658.975	50.8745
661.867	47.9985
664.76	109.751
667.653	4.32739
670.546	16.0955
673.438	44.8052
676.331	22.9346
679.224	11.0923
682.116	33.3
685.009	27.7918
687.902	31.5064
690.794	7.22046
693.687	4.06787
696.58	3.29736
699.473	47.9888
702.365	42.2546
705.258	15.3389
708.151	5.66382
711.043	1.07178
713.936	39.0125
716.829	32.781
719.721	1.85107
722.614	29.7375
725.507	29.6965
728.4	7.56836
731.292	36.8486
734.185	0.819336
737.078	2.8169
739.97	20.5959
742.863	20.5891
745.756	56.075
748.649	9.11694
751.541	102.81
754.434	45.6973
757.327	18.8643
760.219	34.0693
763.112	57.3994
766.005	88.6294
768.897	58.8191
771.79	45.3054
774.683	33.6416
777.576	39.665
780.468	22.1387
783.361	57.8242
786.254	2.80518
789.146	51.4019
792.039	52.3999
794.932	55.8005
797.824	18.0996
800.717	39.7524
803.61	39.2258
806.503	66.3264
809.395	65.1419
812.288	23.9539
815.181	85.8679
818.073	56.4807
820.966	15.02
823.859	14.6672
826.751	12.3433
829.644	22.0193
832.537	94.7124
835.43	25.4605
838.322	45.0596
841.215	60.5095
844.108	83.4558
847	48.5413
849.893	44.2398
852.786	16.7134
855.678	16.1846
858.571	0.151367
861.464	14.3347
864.357	32.3215
867.249	12.061
870.142	30.2585
873.035	32.8687
875.927	9.97144
878.82	17.198
881.713	24.739
884.606	63.3562
887.498	35.3828
890.391	11.5459
893.284	69.728
896.176	95.1975
899.069	72.0027
901.962	148.184
904.854	28.9844
907.747	2.8125
910.64	40.0266
913.533	43.9878
916.425	41.1133
919.318	77.781
922.211	36.0681
925.103	27.9155
927.996	7.69824
930.889	3.86694
933.781	44.7966
936.674	4.42773
939.567	25.0188
942.46	4.66479
945.352	61.4456
948.245	9.41773
951.138	37.9487
954.03	28.6428
956.923	17.708
959.816	35.7122
962.708	39.3474
965.601	33.1057
968.494	44.6106
971.386	54.8755
974.279	107.062
977.172	93.2017
980.065	133.626
982.957	142.095
985.85	238.472
988.743	262.097
991.635	394.43
994.528	490.034
997.421	484.575
1000.31	476.592
1003.21	420.802
1006.1	230.581
1008.99	191.075
1011.88	134.38
1014.78	147.093
1017.67	142.47
1020.56	139.833
1023.46	131.03
1026.35	51.2769
1029.24	72.4163
1032.13	59.0857
1035.03	23.811
1037.92	0.700195
1040.81	19.4946
1043.7	14.9434
1046.6	14.446
1049.49	23.8545
1052.38	18.6819
1055.28	33.3894
1058.17	40.7505
1061.06	22.5464
1063.95	35.8977
1066.85	12.4648
1069.74	46.7324
1072.63	2.2561
1075.52	14.4023
1078.42	34.7795
1081.31	47.0727
1084.2	15.6155
1087.1	50.2058
1089.99	12.5425
1092.88	40.8638
1095.77	73.8037
1098.66	70.1604
1101.56	69.136
1104.45	37.1206
1107.34	29.728
1110.24	30.2642
1113.13	24.5225
1116.02	12.0398
1118.91	4.21314
1121.81	5.50952
1124.7	3.0979
1127.59	59.1362
1130.48	46.9058
1133.38	17.4395
1136.27	14.6736
1139.16	27.8894
1142.06	29.8816
1144.95	54.7627
1147.84	43.9053
1150.73	10.4719
1153.63	73.9148
1156.52	40.0205
1159.41	61.5205
1162.31	71.3552
1165.2	101.941
1168.09	122.51
1170.98	57.5915
1173.88	101.2
1176.77	62.6055
1179.66	53.1043
1182.55	85.7573
1185.45	55.7258
1188.34	61.8713
1191.23	54.9309
1194.12	60.1514
1197.02	60.1934
1199.91	28.6223
1202.8	22.2988
1205.69	9.98975
1208.59	59.3525
1211.48	56.7251
1214.37	67.603
1217.27	22.793
1220.16	24.2898
1223.05	36.9377
1225.94	99.5669
1228.84	35.4917
1231.73	62.3982
1234.62	51.5508
1237.52	73.0273
1240.41	43.9268
1243.3	11.4734
1246.19	39.9866
1249.09	16.824
1251.98	14.291
1254.87	11.9226
1257.76	44.8889
1260.66	41.7935
1263.55	67.5713
