Measurement: Raman, 785 nm, unoriented, Raman Data Processed
Mineral: Donpeacorite
Rruff sample: R060646
Ideal chemistry: Mn^2+^MgSi_2_O_6_
Locality: Balmat, Balmat-Edwards Zinc District, St. Lawrence County, New York, USA
Source: Michael Scott
Description: Orangish-brown fine grained massive
Measured chemistry: (Mn^2+^_0.58_Mg_0.40_Ca_0.03_)_Î£=1_Mg_1.00_(Si_1.00_O_3_)_2_
Raman shift (cm-1)	intensity
182.74	0
185.633	81.6938
188.525	134.374
191.418	222.003
194.311	337.428
197.204	329.176
200.096	340.213
202.989	351.834
205.882	185.756
208.774	176.378
211.667	80.9658
214.56	85.1728
217.452	156.942
220.345	162.465
223.238	232.18
226.131	254.803
229.023	200.105
231.916	159.636
234.809	151.528
237.701	149.526
240.594	104.656
243.487	62.0298
246.38	72.5278
249.272	50.3975
252.165	76.9492
255.058	2.66602
257.95	21.8486
260.843	23.125
263.736	19.2188
266.628	20.3896
269.521	19.5723
272.414	16.6929
275.307	3.77148
278.199	13.6445
281.092	49.1128
283.985	47.0562
286.877	67.2437
289.77	104.53
292.663	109.511
295.555	132.256
298.448	144.796
301.341	175.892
304.233	168.947
307.126	99.4146
310.019	202.78
312.912	208.695
315.804	285.677
318.697	264.248
321.59	247.263
324.482	378.87
327.375	398.956
330.268	493.714
333.161	441.047
336.053	409.576
338.946	380.866
341.839	368.049
344.731	357.235
347.624	406.875
350.517	469.502
353.409	559.799
356.302	645.209
359.195	631.753
362.087	560.353
364.98	605.059
367.873	658.874
370.766	597.372
373.658	571.999
376.551	526.622
379.444	511.984
382.336	472.359
385.229	419.621
388.122	361.87
391.014	402.274
393.907	356.948
396.8	292.075
399.693	181.761
402.585	108.61
405.478	81.8169
408.371	113.605
411.263	142.099
414.156	167.706
417.049	133.514
419.942	194.869
422.834	143.541
425.727	107.46
428.62	94.0918
431.512	46.9155
434.405	56.77
437.298	14.1421
440.19	54.5864
443.083	29.0278
445.976	16.3154
448.868	26.7739
451.761	8.02002
454.654	12.1191
457.547	2.39209
460.439	25.6211
463.332	15.8369
466.225	7.21094
469.117	32.5727
472.01	20.7974
474.903	16.9985
477.796	3.98828
480.688	4.49902
483.581	3.29248
486.474	87.8789
489.366	85.0679
492.259	192.935
495.152	157.612
498.044	208.042
500.937	229.618
503.83	270.372
506.723	203.453
509.615	147.305
512.508	146.598
515.401	145.686
518.293	86.7803
521.186	48.8828
524.079	56.2246
526.971	49.1372
529.864	45.7319
532.757	120.056
535.649	64.8257
538.542	67.2783
541.435	20.1953
544.328	50.5581
547.22	13.1719
550.113	13.5063
553.006	63.4985
555.898	60.7793
558.791	52.9302
561.684	39.1992
564.577	35.2134
567.469	63.5073
570.362	34.1626
573.255	20.4507
576.147	15.8848
579.04	86.8306
581.933	67.2334
584.825	34.7866
587.718	30.2607
590.611	43.5132
593.504	59.6812
596.396	42.1411
599.289	46.3027
602.182	59.0273
605.074	152.576
607.967	142.052
610.86	104.989
613.752	112.302
616.645	141.726
619.538	154.873
622.431	131.685
625.323	178.832
628.216	207.856
631.109	274.733
634.001	276.125
636.894	432.635
639.787	431.516
642.679	356.909
645.572	336.759
648.465	364.408
651.357	432.08
654.25	556.036
657.143	773.037
660.036	1045.8
662.928	1324.39
665.821	1579.54
668.714	1920.94
671.606	2193.95
674.499	1691.76
677.392	1213.81
680.284	803.136
683.177	537.378
686.07	343.139
688.963	281.312
691.855	197.617
694.748	110.21
697.641	79.9238
700.533	77.312
703.426	80.0044
706.319	20.2842
709.212	16.75
712.104	15.7515
714.997	5.16357
717.89	3.39307
720.782	2.51904
723.675	25.7251
726.568	15.9312
729.46	33.0903
732.353	57.8906
735.246	95.6191
738.139	102.137
741.031	124.993
743.924	23.0786
746.817	100.987
749.709	181.297
752.602	138.852
755.495	88.481
758.387	81.9731
761.28	76.4258
764.173	119.302
767.066	81.3535
769.958	29.77
772.851	98.1191
775.744	53.8901
778.636	3.12988
781.529	28.2007
784.422	35.2598
787.314	22.3442
790.207	80.5679
793.1	57.437
795.992	119.814
798.885	94.3106
801.778	50.3379
804.671	171.019
807.563	177.873
810.456	194.62
813.349	135.8
816.241	332.312
819.134	252.384
822.027	212.838
824.919	219.578
827.812	242.083
830.705	222.076
833.598	236.25
836.49	216.326
839.383	164.875
842.276	206.438
845.168	226.639
848.061	233.859
850.954	293.572
853.846	396.334
856.739	516.898
859.632	341.394
862.525	304.933
865.417	257.956
868.31	193.053
871.203	27.2144
874.095	60.4165
876.988	17.6768
879.881	46.4898
882.774	39.669
885.666	41.1118
888.559	21.0371
891.452	15.417
894.344	12.917
897.237	55.0869
900.13	49.7554
903.022	93.146
905.915	90.2632
908.808	118.699
911.701	144.421
914.593	144.667
917.486	184.713
920.379	140.235
923.271	203.504
926.164	177.872
929.057	186.347
931.949	214.981
934.842	154.003
937.735	90.6055
940.628	92.3877
943.52	54.9277
946.413	57.5908
949.306	25.8027
952.198	44.1484
955.091	0.816406
957.984	19.958
960.876	0.033203
963.769	24.9619
966.662	59.0615
969.554	78.6416
972.447	68.4512
975.34	45.6191
978.233	80.1318
981.125	70.2031
984.018	45.3272
986.911	54.1006
989.803	94.2773
992.696	167.489
995.589	291.44
998.481	385.829
1001.37	512.102
1004.27	636.513
1007.16	538.592
1010.05	458.39
1012.95	449.376
1015.84	355.971
1018.73	334.615
1021.62	259.362
1024.52	336.412
1027.41	261.792
1030.3	192.249
1033.19	246.822
1036.09	384.751
1038.98	431.703
1041.87	457.134
1044.77	463.63
1047.66	343.031
1050.55	278.366
1053.44	142.536
1056.34	120.681
1059.23	44.1133
1062.12	21.5
1065.01	29.2441
1067.91	25.1982
1070.8	30.8408
1073.69	26.5977
1076.58	67.6494
1079.48	2.77539
1082.37	6.22168
1085.26	72.1992
1088.15	26.7695
1091.05	3.20215
1093.94	13.8281
1096.83	69.4834
1099.73	64.9394
1102.62	152.606
1105.51	155.113
1108.4	319.463
1111.3	347.16
1114.19	310.518
1117.08	221.876
1119.97	184.634
1122.87	148.366
1125.76	42.4707
1128.65	14.4385
1131.55	89.4336
1134.44	28.2422
1137.33	43.9053
1140.22	40.4727
1143.12	60.2988
1146.01	60.8359
1148.9	65.9619
1151.8	23.792
1154.69	23.873
1157.58	15.9893
1160.47	101.844
1163.37	7.15918
1166.26	6.07031
1169.15	3.93457
1172.04	25.1777
1174.94	90.0254
1177.83	27.2129
1180.72	167.196
1183.61	115.621
1186.51	176.431
1189.4	190.797
1192.29	144.093
1195.18	155.698
1198.08	3.23633
1200.97	126.058
1203.86	31.9189
1206.76	76.7168
1209.65	55.7275
1212.54	68.5322
