Measurement: Raman, 532 nm, unoriented, Raman Data Processed
Mineral: Donpeacorite
Rruff sample: R060646
Ideal chemistry: Mn^2+^MgSi_2_O_6_
Locality: Balmat, Balmat-Edwards Zinc District, St. Lawrence County, New York, USA
Source: Michael Scott
Description: Orangish-brown fine grained massive
Measured chemistry: (Mn^2+^_0.58_Mg_0.40_Ca_0.03_)_Î£=1_Mg_1.00_(Si_1.00_O_3_)_2_
Raman shift (cm-1)	intensity
163.904	0
166.797	0.93103
169.69	12.1486
172.582	41.3951
175.475	42.8939
178.368	72.769
181.26	90.9341
184.153	122.673
187.046	153.924
189.939	188.534
192.831	183.981
195.724	234.509
198.617	231.515
201.509	210.202
204.402	181.607
207.295	140.465
210.187	149.473
213.08	171.728
215.973	190.553
218.865	180.767
221.758	204.657
224.651	198.262
227.544	139.267
230.436	108.576
233.329	97.6615
236.222	116.296
239.114	54.2592
242.007	63.3693
244.9	80.6658
247.792	43.2075
250.685	42.0985
253.578	40.8879
256.471	31.8922
259.363	9.2467
262.256	7.47998
265.149	14.6573
268.041	19.1398
270.934	9.07983
273.827	8.22253
276.719	4.10168
279.612	13.5507
282.505	31.4894
285.398	23.0569
288.29	16.7645
291.183	6.43579
294.076	38.8276
296.969	20.2954
299.861	37.7297
302.754	40.7294
305.647	4.90198
308.539	34.7402
311.432	8.53076
314.325	56.4451
317.217	34.9141
320.11	45.1929
323.003	71.5757
325.896	99.3611
328.788	102.709
331.681	92.5066
334.574	78.688
337.466	64.9955
340.359	72.1155
343.252	94.6612
346.144	67.4573
349.037	102.447
351.93	133.02
354.822	124.676
357.715	127.319
360.608	127.061
363.501	150.411
366.393	176.39
369.286	187.432
372.179	173.559
375.071	161.123
377.964	110.53
380.857	72.0199
383.75	110.506
386.642	121.392
389.535	113.374
392.428	142.124
395.32	116.805
398.213	49.0304
401.106	25.4703
403.998	27.3719
406.891	30.5969
409.784	52.8368
412.676	59.7964
415.569	66.8983
418.462	70.3828
421.355	61.4493
424.247	34.0515
427.14	41.0284
430.033	33.3938
432.925	41.7109
435.818	3.67334
438.711	14.032
441.603	10.0752
444.496	0.989746
447.389	9.33716
450.282	1.94214
453.174	1.37183
456.067	2.40845
458.96	29.5405
461.852	28.4863
464.745	22.6355
467.638	30.2175
470.531	12.9556
473.423	9.63135
476.316	3.05542
479.209	29.4954
482.101	42.8511
484.994	40.271
487.887	53.6985
490.779	58.1304
493.672	79.3003
496.565	79.6799
499.458	75.613
502.35	76.3662
505.243	93.5869
508.136	94.6484
511.028	68.0754
513.921	99.9746
516.814	67.8984
519.707	57.7817
522.599	97.0312
525.492	83.4927
528.385	60.4875
531.277	46.4265
534.17	69.2353
537.063	42.3386
539.955	53.145
542.848	5.41772
545.741	2.95752
548.634	22.1709
551.526	22.759
554.419	14.4177
557.312	9.5481
560.204	68.5095
563.097	52.4651
565.99	20.3755
568.882	13.248
571.775	14.6238
574.668	30.1204
577.561	11.481
580.453	11.9138
583.346	20.8069
586.239	27.7949
589.131	34.3457
592.024	16.4736
594.917	19.3491
597.809	25.4128
600.702	46.2134
603.595	48.3489
606.487	64.8867
609.38	61.6897
612.273	64.7561
615.166	47.1924
618.058	105.742
620.951	138.538
623.844	107.62
626.736	122.889
629.629	105.852
632.522	166.949
635.415	172.45
638.307	195.075
641.2	221.567
644.093	210.613
646.985	238.848
649.878	282.975
652.771	310.629
655.663	390.006
658.556	480.133
661.449	590.749
664.342	719.803
667.234	882.426
670.127	966.706
673.02	942.442
675.912	776.956
678.805	518.73
681.698	352.212
684.591	249.881
687.483	186.496
690.376	140.988
693.269	116.37
696.161	89.5606
699.054	69.8987
701.947	52.3398
704.839	49.3594
707.732	18.5432
710.625	7.84497
713.518	1.61719
716.41	30.4768
719.303	5.11206
722.196	2.31641
725.088	26.0413
727.981	32.5161
730.874	6.27197
733.766	56.7358
736.659	35.407
739.552	71.6585
742.444	59.5149
745.337	15.302
748.23	45.6516
751.123	43.8415
754.015	29.6001
756.908	91.6741
759.801	43.0796
762.693	69.5449
765.586	66.7908
768.479	52.1787
771.371	35.5613
774.264	0.128906
777.157	22.511
780.05	25.843
782.942	2.13354
785.835	13.0159
788.728	18.7419
791.62	34.0422
794.513	21.2009
797.406	32.5344
800.298	67.2566
803.191	79.1323
806.084	119.864
808.977	117.641
811.869	130.646
814.762	132.689
817.655	136.815
820.547	148.74
823.44	137.912
826.333	136.101
829.226	142.118
832.118	142.148
835.011	106.882
837.904	102.12
840.796	100.277
843.689	115.174
846.582	96.8164
849.474	145.953
852.367	187.405
855.26	223.804
858.153	238.373
861.045	185.748
863.938	107.536
866.831	99.885
869.723	56.8062
872.616	40.4739
875.509	64.0335
878.401	5.43359
881.294	18.0625
884.187	34.4849
887.08	22.0603
889.972	33.6043
892.865	15.1743
895.758	14.8784
898.65	39.1113
901.543	63.5845
904.436	66.2546
907.328	49.7883
910.221	69.1287
913.114	126.045
916.007	134.582
918.899	171.762
921.792	143.972
924.685	99.3362
927.577	124.986
930.47	57.7866
933.363	99.9534
936.255	91.7302
939.148	47.2812
942.041	57.3127
944.934	14.5115
947.826	44.3757
950.719	3.46216
953.612	15.2927
956.504	3.47217
959.397	75.9058
962.29	11.6677
965.183	9.63428
968.075	42.9136
970.968	34.6621
973.861	42.1545
976.753	40.5237
979.646	57.2783
982.539	64.6655
985.431	51.3105
988.324	65.8804
991.217	89.1436
994.11	118.669
997.002	213.222
999.895	264.878
1002.79	337.236
1005.68	351.707
1008.57	354.781
1011.47	314.644
1014.36	317.727
1017.25	217.818
1020.14	217.864
1023.04	205.482
1025.93	165.567
1028.82	195.405
1031.71	171.863
1034.61	172.464
1037.5	193.78
1040.39	234.516
1043.29	231.148
1046.18	226.311
1049.07	163.967
1051.96	141.118
1054.86	48.7637
1057.75	54.4768
1060.64	35.1038
1063.53	16.1977
1066.43	10.8674
1069.32	0.298584
1072.21	31.1653
1075.11	16.469
1078	6.5
1080.89	7.27661
1083.78	2.31128
1086.68	14.1179
1089.57	56.4309
1092.46	36.9111
1095.35	33.8823
1098.25	96.1504
1101.14	77.0178
1104.03	112.451
1106.92	190.676
1109.82	217.022
1112.71	237.808
1115.6	232.09
1118.5	167.324
1121.39	104.959
1124.28	18.8848
1127.17	43.8928
1130.07	52.6914
1132.96	85.7378
1135.85	29.0435
1138.74	45.2715
1141.64	82.0474
1144.53	48.5713
1147.42	13.7031
1150.32	56.1494
1153.21	101.144
1156.1	35.0542
1158.99	71.7029
1161.89	37.8174
1164.78	58.3967
1167.67	73.2402
1170.56	23.0781
1173.46	23.1628
1176.35	47.7617
1179.24	3.86597
1182.13	109.159
1185.03	117.175
1187.92	74.9949
1190.81	109.853
1193.71	42.8852
1196.6	12.6055
1199.49	2.16748
1202.38	0.830566
1205.28	1.76099
1208.17	18.6221
1211.06	12.6821
1213.95	12.0051
1216.85	48.5478
1219.74	51.9973
1222.63	49.721
1225.53	133.549
1228.42	90.3755
1231.31	121.036
1234.2	71.9651
1237.1	72.2175
1239.99	109.193
1242.88	90.6326
1245.78	68.3106
1248.67	65.6419
1251.56	101.563
1254.45	92.0007
1257.35	101.602
1260.24	103.848
1263.13	102.212
1266.02	41.7505
1268.92	67.3096
1271.81	80.5518
1274.7	43.937
1277.59	45.4053
1280.49	42.1289
1283.38	16.7944
