Measurement: Raman, 780 nm, unoriented, Raman Data Processed
Mineral: Dozyite
Rruff sample: R100040
Ideal chemistry: Mg_7_Al_2_(Si_4_Al_2_)O_15_(OH)_12_
Locality: Wood's Chrome mine, Lancaster County, Pennsylvania, USA
Source: Jeff Weissman
Description: Mauve fibers intimately mixed with serpentine and chlorite
Raman shift (cm-1)	intensity
138.781	0
141.673	1.67133
144.566	4.23731
147.459	2.52576
150.351	5.33844
153.244	4.1568
156.137	4.86462
159.03	2.70973
161.922	5.59375
164.815	4.17248
167.708	3.85101
170.6	0.79364
173.493	0.326355
176.386	7.4613
179.278	7.17468
182.171	8.03082
185.064	9.39801
187.957	11.7432
190.849	20.8064
193.742	24.6731
196.635	37.7886
199.527	32.1038
202.42	16.6446
205.313	8.74945
208.205	6.80725
211.098	8.57471
213.991	8.06433
216.884	9.42584
219.776	14.1331
222.669	22.222
225.562	30.9027
228.454	39.6356
231.347	50.5836
234.24	58.2797
237.132	72.9799
240.025	71.3517
242.918	58.5132
245.811	42.0532
248.703	26.7531
251.596	14.2733
254.489	10.22
257.381	7.25433
260.274	8.26233
263.167	7.3916
266.059	5.56085
268.952	4.42078
271.845	5.56769
274.738	4.21033
277.63	5.34204
280.523	0.47937
283.416	1.70709
286.308	5.67572
289.201	3.35114
292.094	1.54919
294.986	0.665344
297.879	3.43005
300.772	1.85181
303.665	2.07605
306.557	0.029846
309.45	1.17438
312.343	3.49329
315.235	2.54944
318.128	3.35242
321.021	0.702454
323.913	2.67621
326.806	3.4577
329.699	3.24506
332.592	0.478088
335.484	3.46082
338.377	5.16296
341.27	8.35443
344.162	10.0187
347.055	14.3427
349.948	18.8828
352.841	23.8285
355.733	23.0188
358.626	12.7794
361.519	15.5722
364.411	19.2696
367.304	25.7843
370.197	29.7707
373.089	40.1258
375.982	50.2283
378.875	59.3596
381.767	60.6955
384.66	58.8925
387.553	53.1112
390.446	41.1397
393.338	26.3901
396.231	19.1223
399.124	6.9129
402.016	6.59796
404.909	1.07239
407.802	1.40576
410.695	2.62091
413.587	0.109131
416.48	0.503784
419.373	1.52154
422.265	7.52539
425.158	7.40222
428.051	7.18262
430.943	5.61694
433.836	3.06665
436.729	4.68158
439.622	3.76019
442.514	1.48444
445.407	4.1944
448.3	2.38965
451.192	2.93195
454.085	6.71899
456.978	8.77753
459.87	11.8855
462.763	12.2906
465.656	12.8521
468.548	12.5809
471.441	12.35
474.334	7.83185
477.227	4.96918
480.119	3.625
483.012	2.33252
485.905	2.59271
488.797	1.94196
491.69	0.647705
494.583	0.71698
497.476	1.20946
500.368	1.54657
503.261	0.835083
506.154	3.28113
509.046	2.67505
511.939	5.52054
514.832	7.79038
517.724	12.4655
520.617	15.1134
523.51	20.37
526.403	24.752
529.295	34.1157
532.188	38.9117
535.081	42.7309
537.973	46.9363
540.866	41.7992
543.759	40.9245
546.651	28.3927
549.544	22.8893
552.437	15.7375
555.33	11.5593
558.222	6.50342
561.115	6.60706
564.008	5.01105
566.9	4.55804
569.793	1.32251
572.686	0.3414
575.578	3.29562
578.471	2.51505
581.364	0.419891
584.256	3.43487
587.149	0.383759
590.042	1.73715
592.935	0.985596
595.827	0.961548
598.72	10.2803
601.613	1.29996
604.505	1.49164
607.398	5.25256
610.291	2.78793
613.183	5.57071
616.076	5.27551
618.969	8.66672
621.862	9.99347
624.754	9.50116
627.647	9.3775
630.54	11.0396
633.432	13.6111
636.325	14.648
639.218	14.3793
642.111	13.6312
645.003	13.5058
647.896	19.8415
650.789	20.8434
653.681	21.6205
656.574	24.6321
659.467	26.7467
662.359	29.0708
665.252	36.7214
668.145	42.6566
671.038	52.1132
673.93	65.5429
676.823	72.8787
679.716	79.4011
682.608	86.2167
685.501	88.0321
688.394	82.6246
691.286	71.4099
694.179	57.1899
697.072	41.781
699.965	32.7984
702.857	21.5201
705.75	16.1146
708.643	10.2778
711.535	11.3027
714.428	7.38516
717.321	5.4754
720.213	5.56522
723.106	3.28525
725.999	7.22931
728.891	1.02268
731.784	2.85394
734.677	1.88486
737.57	5.25186
740.462	1.24689
743.355	0.916982
746.248	0.960938
749.14	0.810181
752.033	1.49556
754.926	0.306091
757.818	2.94653
760.711	2.95526
763.604	0.501129
766.497	2.21234
769.389	2.7561
772.282	0.712097
775.175	4.46048
778.067	0.530518
780.96	3.71353
783.853	4.1825
786.745	2.44598
789.638	3.246
792.531	2.80255
795.424	4.4234
798.316	2.79309
801.209	0.59671
804.102	2.30023
806.994	0.225189
809.887	2.69076
812.78	0.929901
815.673	0.86142
818.565	1.65427
821.458	1.3374
824.351	1.09464
827.243	0.582855
830.136	1.33691
833.029	2.87039
835.921	1.96631
838.814	3.20706
841.707	3.8436
844.6	1.44031
847.492	2.73349
850.385	3.61511
853.278	4.02731
856.17	2.32773
859.063	4.3038
861.956	2.12894
864.848	2.3555
867.741	4.85852
870.634	1.39044
873.527	4.38977
876.419	4.50055
879.312	2.01239
882.205	3.98792
885.097	3.13287
887.99	2.03949
890.883	3.79272
893.775	2.5513
896.668	1.53839
899.561	0.462524
902.454	1.09638
905.346	0.637085
908.239	0.002716
911.132	0.156769
914.024	2.52295
916.917	2.87628
919.81	0.682861
922.702	1.18027
925.595	2.99762
928.488	2.14847
931.381	2.5513
934.273	5.80347
937.166	2.36804
940.059	2.19617
942.951	1.5285
945.844	2.9729
948.737	5.47928
951.63	3.76361
954.522	2.32785
957.415	3.89087
960.308	5.11508
963.2	3.698
966.093	0.981842
968.986	2.40765
971.878	0.095123
974.771	3.78061
977.664	2.57248
980.557	1.43652
983.449	2.68768
986.342	2.15451
989.235	2.20453
992.127	0.583069
995.02	3.44864
997.913	1.64774
1000.8	0.33548
1003.7	2.74771
1006.59	1.23343
1009.48	0.184875
1012.38	1.80936
1015.27	1.36304
1018.16	3.46707
1021.05	0.926422
1023.95	1.10281
1026.84	4.10657
1029.73	0.238556
1032.62	1.6485
1035.52	3.17944
1038.41	5.56476
1041.3	5.08252
1044.2	5.94632
1047.09	7.75619
1049.98	9.01398
1052.87	9.65185
1055.77	8.81781
1058.66	13.0854
1061.55	12.04
1064.44	10.6589
1067.34	9.86151
1070.23	10.8062
1073.12	9.70419
1076.02	10.462
1078.91	11.1535
1081.8	10.2131
1084.69	11.4303
1087.59	10.5563
1090.48	10.0566
1093.37	7.66257
1096.27	6.33353
1099.16	5.3627
1102.05	3.37445
1104.94	2.81586
1107.84	2.03586
1110.73	0.637573
1113.62	0.238037
1116.51	1.88495
1119.41	0.465485
1122.3	1.37753
1125.19	2.60791
1128.08	0.339111
1130.98	2.35715
1133.87	0.515839
1136.76	1.07791
1139.65	2.09549
1142.55	3.33139
1145.44	1.2803
1148.33	3.02603
1151.23	0.431549
1154.12	0.523132
1157.01	2.95728
1159.9	1.61935
1162.8	1.70566
1165.69	2.4173
1168.58	1.14334
1171.47	3.21265
1174.37	4.55701
1177.26	3.98953
1180.15	2.7298
1183.05	1.2251
1185.94	4.83194
1188.83	2.84699
1191.72	4.62036
1194.62	2.71585
1197.51	2.48395
1200.4	2.16992
1203.29	3.3515
1206.19	1.85095
1209.08	0.041626
1211.97	3.72815
1214.87	4.26672
1217.76	0.698425
1220.65	1.15747
1223.54	0.147522
1226.44	2.01242
1229.33	3.03314
1232.22	0.283936
1235.11	1.10538
1238.01	0.065002
1240.9	1.16113
1243.79	0.042572
1246.68	2.74506
1249.58	3.02173
1252.47	2.50946
1255.36	1.64719
1258.26	2.26856
1261.15	1.64532
1264.04	2.23785
1266.93	1.19888
1269.83	1.00455
1272.72	0.683746
1275.61	0.127869
1278.51	0.37088
1281.4	1.13177
1284.29	2.40772
