Measurement: Raman, 532 nm, unoriented, Raman Data Processed
Mineral: Dozyite
Rruff sample: R100040
Ideal chemistry: Mg_7_Al_2_(Si_4_Al_2_)O_15_(OH)_12_
Locality: Wood's Chrome mine, Lancaster County, Pennsylvania, USA
Source: Jeff Weissman
Description: Mauve fibers intimately mixed with serpentine and chlorite
Raman shift (cm-1)	intensity
180.166	0
183.059	0.520081
185.951	8.41126
188.844	14.5086
191.737	16.4792
194.629	22.0003
197.522	30.6626
200.415	25.3351
203.308	16.3024
206.2	10.8525
209.093	9.3255
211.986	1.7287
214.878	5.90479
217.771	7.28754
220.664	9.48773
223.556	14.7433
226.449	18.8896
229.342	22.2819
232.234	32.2946
235.127	45.4046
238.02	52.8344
240.913	49.3831
243.805	38.3135
246.698	26.5823
249.591	17.3117
252.483	11.8348
255.376	9.27356
258.269	6.01685
261.161	5.09363
264.054	0.980957
266.947	3.35644
269.84	4.45746
272.732	1.53345
275.625	2.68359
278.518	0.237366
281.41	0.055176
284.303	0.041199
287.196	2.06976
290.089	2.12067
292.981	3.56537
295.874	0.86969
298.767	0.256775
301.659	0.184692
304.552	1.58612
307.445	1.09589
310.337	0.310059
313.23	2.00336
316.123	6.85065
319.015	4.20996
321.908	4.98279
324.801	7.16864
327.694	2.46558
330.586	5.78058
333.479	2.01367
336.372	7.14819
339.264	8.92786
342.157	9.97199
345.05	11.7786
347.942	13.5471
350.835	21.9199
353.728	30.194
356.621	32.9163
359.513	20.6996
362.406	16.6942
365.299	13.699
368.191	20.4496
371.084	26.6973
373.977	35.9667
376.87	48.2587
379.762	64.0419
382.655	69.8737
385.548	68.4418
388.44	60.1074
391.333	48.1103
394.226	34.385
397.118	19.3193
400.011	11.2272
402.904	6.45654
405.796	5.59003
408.689	3.61914
411.582	0.59906
414.475	3.24042
417.367	1.28247
420.26	0.415161
423.153	7.40216
426.045	0.987732
428.938	5.57428
431.831	7.80908
434.724	8.05896
437.616	3.83179
440.509	4.20258
443.402	2.01636
446.294	1.64319
449.187	0.220947
452.08	1.39258
454.972	5.99634
457.865	7.84045
460.758	10.7887
463.651	13.2769
466.543	17.5645
469.436	11.8885
472.329	11.2227
475.221	11.0655
478.114	4.46832
481.007	6.79999
483.899	1.97125
486.792	6.01727
489.685	2.71179
492.577	3.39362
495.47	2.39136
498.363	2.25915
501.256	3.35742
504.148	2.49853
507.041	6.11084
509.934	4.27612
512.826	9.84784
515.719	11.7192
518.612	15.9782
521.505	20.7882
524.397	32.0886
527.29	34.042
530.183	41.8792
533.075	50.9586
535.968	54.6226
538.861	61.0617
541.753	62.4227
544.646	51.3337
547.539	42.7943
550.432	32.0468
553.324	22.5851
556.217	18.8569
559.11	14.2707
562.002	12.8689
564.895	12.1125
567.788	7.79791
570.68	10.5911
573.573	4.15277
576.466	1.78198
579.359	1.37103
582.251	3.25287
585.144	1.93945
588.037	4.2204
590.929	2.72906
593.822	0.379028
596.715	0.987488
599.607	0.763611
602.5	0.295471
605.393	1.1579
608.285	3.68323
611.178	5.7467
614.071	2.3078
616.964	3.539
619.856	4.0376
622.749	3.45715
625.642	4.8316
628.534	3.375
631.427	8.27093
634.32	5.86377
637.212	9.07471
640.105	5.47217
642.998	6.30859
645.891	6.1087
648.783	12.8032
651.676	12.5136
654.569	18.8811
657.461	18.3371
660.354	23.36
663.247	27.3383
666.139	28.6043
669.032	39.553
671.925	46.8979
674.818	58.1745
677.71	73.1055
680.603	81.4492
683.496	94.5085
686.388	101.046
689.281	96.3788
692.174	87.1495
695.067	66.6538
697.959	55.0697
700.852	41.2205
703.745	24.2339
706.637	20.1528
709.53	18.0902
712.423	19.7747
715.315	9.71051
718.208	6.46918
721.101	5.30524
723.994	0.595459
726.886	4.0036
729.779	3.52899
732.672	0.356506
735.564	0.021851
738.457	4.38678
741.35	1.62134
744.242	1.84943
747.135	1.81549
750.028	0.288513
752.92	1.96851
755.813	1.68097
758.706	5.15533
761.599	1.91205
764.491	1.50317
767.384	0.174133
770.277	3.91632
773.169	0.327393
776.062	4.67682
778.955	5.05597
781.847	4.6098
784.74	0.403076
787.633	3.25647
790.526	3.01617
793.418	5.42847
796.311	3.104
799.204	1.68445
802.096	1.8382
804.989	6.64178
807.882	1.15527
810.774	1.10419
813.667	0.639832
816.56	0.787048
819.453	0.745728
822.345	5.74737
825.238	4.85053
828.131	4.74737
831.023	2.13513
833.916	6.02057
836.809	6.11883
839.702	2.49176
842.594	5.91321
845.487	7.01086
848.38	4.46454
851.272	7.06873
854.165	4.93127
857.058	8.36786
859.95	4.92828
862.843	4.24737
865.736	3.54468
868.629	0.341736
871.521	4.95709
874.414	2.90436
877.307	8.25952
880.199	1.39215
883.092	2.24121
885.985	1.78528
888.877	3.63788
891.77	3.24756
894.663	4.28894
897.556	3.39111
900.448	5.33221
903.341	7.52063
906.234	6.66186
909.126	5.07629
912.019	1.89191
914.912	2.22827
917.804	4.09375
920.697	3.94751
923.59	2.28595
926.482	4.29242
929.375	5.27026
932.268	7.38843
935.161	1.99878
938.053	0.689026
940.946	0.047668
943.839	3.03406
946.731	1.33637
949.624	1.89575
952.517	6.40875
955.409	7.57794
958.302	3.97284
961.195	4.79126
964.088	1.78931
966.98	1.11255
969.873	4.6665
972.766	2.24786
975.658	6.28644
978.551	14.6063
981.444	6.64532
984.337	6.8916
987.229	7.38812
990.122	8.09888
993.015	4.98572
995.907	4.12988
998.8	3.52545
1001.69	1.70874
1004.59	3.40393
1007.48	0.437195
1010.37	3.65796
1013.26	2.63605
1016.16	1.19952
1019.05	5.21558
1021.94	7.18268
1024.83	0.561157
1027.73	0.236389
1030.62	0.129578
1033.51	3.31073
1036.4	2.82422
1039.3	2.70459
1042.19	2.45325
1045.08	3.2865
1047.98	4.39673
1050.87	7.54181
1053.76	10.579
1056.65	10.4816
1059.55	9.21307
1062.44	9.49054
1065.33	8.7464
1068.22	7.09607
1071.12	10.1572
1074.01	7.81317
1076.9	10.4689
1079.8	13.4241
1082.69	12.3127
1085.58	9.75806
1088.47	12.9146
1091.37	9.89606
1094.26	9.55005
1097.15	11.1039
1100.04	6.90619
1102.94	5.00861
1105.83	3.43616
1108.72	5.19977
1111.62	2.94092
1114.51	1.82532
1117.4	0.005615
1120.29	0.119263
1123.19	6.31934
1126.08	1.17834
1128.97	3.63715
1131.86	2.3114
1134.76	4.06116
1137.65	2.0285
1140.54	4.28589
1143.43	1.58899
1146.33	3.58881
1149.22	3.16089
1152.11	2.84277
1155.01	2.82245
1157.9	2.1712
1160.79	1.729
1163.68	3.97321
1166.58	0.564636
1169.47	4.32282
1172.36	5.25574
1175.26	8.23352
1178.15	1.66937
1181.04	5.07678
1183.93	2.46149
1186.83	4.1283
1189.72	0.726135
1192.61	5.68207
1195.5	0.348999
1198.4	4.79199
1201.29	3.51312
1204.18	5.03613
1207.07	5.11139
1209.97	1.90851
1212.86	4.96265
1215.75	0.953369
1218.64	3.0979
1221.54	0.870667
1224.43	3.04315
1227.32	3.58124
1230.22	4.67987
1233.11	8.05951
1236	6.86719
1238.89	4.7395
1241.79	1.04419
1244.68	1.00433
1247.57	3.23889
1250.46	4.63733
1253.36	5.53961
1256.25	4.17041
1259.14	0.16748
1262.04	6.53497
1264.93	2.03827
1267.82	3.30353
1270.71	9.99908
1273.61	4.15735
1276.5	1.79865
1279.39	4.29944
1282.29	4.51349
1285.18	1.91388
1288.07	1.8103
1290.96	2.38086
1293.86	9.7746
1296.75	1.55969
1299.64	5.81702
1302.53	2.69214
