Measurement: Raman, 785 nm, unoriented, Raman Data Processed
Mineral: Dravite
Rruff sample: R040088
Ideal chemistry: NaMg_3_Al_6_(Si_6_O_18_)(BO_3_)_3_(OH)_3_OH
Locality: Yinnietharra Station, Pilbara, Western Australia, Australia
Source: University of Arizona Mineral Museum
Description: Brown short prismatic crystal
Measured chemistry: (Na_0.88_Ca_0.06_[box]_0.06_)(Mg_0.88_Al_0.10_Ti_0.04_Fe_0.02_)_3_Al_6.00_(B_1_O_3_)_3_Si_6.00_O_18_((OH)_0.98_F_0.02_)_4_
Raman shift (cm-1)	intensity
154.895	0
157.788	10.0641
160.681	28.0247
163.573	24.939
166.466	47.5967
169.359	60.044
172.252	50.2087
175.144	10.5884
178.037	2.81494
180.93	4.8562
183.822	3.8667
186.715	46.0076
189.608	60.1195
192.5	134.683
195.393	130.699
198.286	206.901
201.179	334.185
204.071	517.899
206.964	842.338
209.857	1221.76
212.749	1456.01
215.642	1407.25
218.535	1169.12
221.428	883.667
224.32	747.805
227.213	681.455
230.106	697.379
232.998	746.005
235.891	888.461
238.784	1083.65
241.676	1205.48
244.569	1147.06
247.462	936.954
250.355	726.269
253.247	496.021
256.14	345.085
259.033	266.685
261.925	202.365
264.818	184.897
267.711	171.21
270.603	152.342
273.496	107.978
276.389	60.5364
279.281	76.8058
282.174	31.3182
285.067	8.97595
287.96	9.29126
290.852	15.501
293.745	16.8957
296.638	7.57202
299.53	44.8643
302.423	3.1073
305.316	27.7133
308.209	47.4369
311.101	97.6029
313.994	95.9329
316.887	71.2488
319.779	9.54089
322.672	4.2616
325.565	26.8162
328.457	64.5075
331.35	107.615
334.243	155.281
337.135	199.381
340.028	201.251
342.921	266.65
345.814	262.323
348.706	294.755
351.599	353.972
354.492	488.031
357.384	656.523
360.277	970.726
363.17	1442.7
366.062	1865.93
368.955	1998.48
371.848	1694.15
374.741	1227.32
377.633	847.992
380.526	579.295
383.419	463.024
386.311	322.225
389.204	272.61
392.097	259.773
394.99	231.761
397.882	172.88
400.775	211.324
403.668	171.614
406.56	183.806
409.453	138.14
412.346	102.128
415.238	69.5703
418.131	36.5604
421.024	25.1284
423.916	8.89758
426.809	22.3761
429.702	25.3176
432.595	10.9924
435.487	0.685425
438.38	17.847
441.273	1.83154
444.165	21.9629
447.058	19.0924
449.951	21.2737
452.844	0.827637
455.736	9.88733
458.629	2.42346
461.522	15.9423
464.414	48.1768
467.307	34.9962
470.2	72.4108
473.092	71.1224
475.985	107.543
478.878	93.3563
481.771	160.724
484.663	182.628
487.556	207.152
490.449	229.727
493.341	223.085
496.234	211.308
499.127	178.362
502.019	162.299
504.912	146.887
507.805	124.023
510.697	110.276
513.59	103.512
516.483	102.944
519.376	88.7057
522.268	70.5533
525.161	99.1445
528.054	94.9421
530.946	109.779
533.839	73.0476
536.732	100.584
539.625	83.4679
542.517	85.7577
545.41	55.5386
548.303	66.2019
551.195	53.1346
554.088	42.6216
556.981	37.3757
559.873	28.9805
562.766	33.0252
565.659	7.89215
568.552	21.0455
571.444	9.17706
574.337	1.68372
577.23	11.743
580.122	4.77075
583.015	4.86743
585.908	5.73749
588.8	6.19946
591.693	4.99225
594.586	0.653992
597.479	13.4945
600.371	5.38037
603.264	8.23883
606.157	34.9369
609.049	24.6302
611.942	35.2398
614.835	49.5927
617.727	34.0311
620.62	77.7178
623.513	72.1479
626.405	117.321
629.298	179.604
632.191	220.421
635.084	206.605
637.976	170.131
640.869	158.94
643.762	144.479
646.654	148.168
649.547	223.134
652.44	250.313
655.332	236.624
658.225	238.412
661.118	251.633
664.011	297.86
666.903	392.614
669.796	486.527
672.689	505.875
675.581	536.445
678.474	457.665
681.367	408.377
684.26	367.979
687.152	339.091
690.045	345.386
692.938	389.433
695.83	469.436
698.723	559.225
701.616	566.995
704.508	511.839
707.401	371.415
710.294	244.388
713.187	139.89
716.079	124.817
718.972	74.4197
721.865	45.0444
724.757	20.8758
727.65	20.7699
730.543	2.82983
733.435	23.5355
736.328	0.572571
739.221	7.67694
742.114	20.8581
745.006	2.33624
747.899	36.6182
750.792	67.3242
753.684	115.147
756.577	135.732
759.47	120.993
762.362	81.0805
765.255	38.9681
768.148	9.76141
771.04	25.8236
773.933	31.7462
776.826	16.8189
779.719	36.4369
782.611	30.6162
785.504	35.675
788.397	45.0065
791.289	57.7949
794.182	64.2515
797.075	33.2852
799.967	51.6019
802.86	81.509
805.753	113.809
808.646	150.352
811.538	188.796
814.431	222.494
817.324	224.895
820.216	214.44
823.109	193.508
826.002	149.864
828.894	119.982
831.787	82.2583
834.68	72.9797
837.573	76.5746
840.465	74.2388
843.358	72.0226
846.251	33.385
849.143	28.1646
852.036	20.5369
854.929	21.7631
857.822	3.85394
860.714	8.68237
863.607	13.4739
866.5	6.58826
869.392	3.1936
872.285	7.76123
875.178	10.7463
878.07	6.9613
880.963	0.519409
883.856	17.0986
886.749	7.31183
889.641	36.3878
892.534	19.436
895.427	19.053
898.319	14.7726
901.212	12.6998
904.105	10.3563
906.997	10.9823
909.89	18.5393
912.783	21.9907
915.675	30.1405
918.568	1.2818
921.461	17.6854
924.354	13.0206
927.246	23.4118
930.139	2.07794
933.032	10.8744
935.924	4.10944
938.817	2.23016
941.71	11.1078
944.602	20.9183
947.495	15.4716
950.388	31.3563
953.28	22.2767
956.173	28.0254
959.066	46.5649
961.959	36.5863
964.851	63.8316
967.744	48.3813
970.637	60.4461
973.529	42.1943
976.422	48.5975
979.315	52.9909
982.207	59.4769
985.1	41.2766
987.993	26.5229
990.886	6.64148
993.778	4.56244
996.671	7.10486
999.564	12.7094
1002.46	2.42078
1005.35	40.3927
1008.24	50.1404
1011.13	53.365
1014.03	83.7794
1016.92	128.949
1019.81	142.105
1022.71	170.149
1025.6	184.744
1028.49	237.135
1031.38	241.414
1034.28	258.629
1037.17	253.378
1040.06	257.807
1042.95	236.622
1045.85	225.743
1048.74	225.045
1051.63	205
1054.53	187.998
1057.42	170.047
1060.31	164.657
1063.2	147.639
1066.1	163.202
1068.99	152.122
1071.88	137.442
1074.77	103.832
1077.67	75.7291
1080.56	59.8867
1083.45	53.9908
1086.35	45.9018
1089.24	21.7871
1092.13	9.91675
1095.02	21.8893
1097.92	6.78857
1100.81	22.0486
1103.7	0.972351
1106.59	18.0557
1109.49	3.44665
1112.38	0.060181
1115.27	15.3901
1118.16	8.78766
1121.06	10.5969
1123.95	15.7075
1126.84	1.84131
1129.73	1.55456
1132.63	20.8165
1135.52	11.1984
1138.41	16.9655
1141.31	7.47162
1144.2	39.2312
1147.09	8.42517
1149.98	49.5457
1152.88	12.2248
1155.77	21.0067
1158.66	22.1423
1161.56	27.3563
1164.45	2.07873
1167.34	20.2662
1170.23	33.1546
1173.13	1.58581
1176.02	29.2504
1178.91	12.0193
1181.8	23.8329
1184.7	17.9454
1187.59	1.79004
1190.48	25.1169
1193.38	1.26721
1196.27	37.2888
1199.16	37.6984
1202.05	10.1536
1204.94	26.4902
1207.84	33.2353
1210.73	36.9388
1213.62	58.9191
1216.52	41.0837
1219.41	52.6449
1222.3	35.5712
1225.19	58.226
1228.09	61.2156
1230.98	47.1592
1233.87	32.3447
1236.77	8.08478
1239.66	14.8554
1242.55	32.4925
1245.44	5.32117
1248.34	27.6505
1251.23	7.12946
1254.12	11.0166
1257.01	13.2065
1259.91	29.1271
1262.8	1.00519
