Measurement: Raman, 532 nm, unoriented, Raman Data Processed
Mineral: Dravite
Rruff sample: R060534
Ideal chemistry: NaMg_3_Al_6_(Si_6_O_18_)(BO_3_)_3_(OH)_3_OH
Locality: Sri Lanka
Source: Gemological Institute of America
Description: Black trigonal prism
Measured chemistry: (Na_0.79_Ca_0.21_)(Mg_0.68_Fe^2+^_0.29_Ti_0.02_Al_0.01_)_3_Al_6.00_(BO_3_)_3_(Si_0.95_Al_005_)_6.00_O_18_(OH)_4_
Raman shift (cm-1)	intensity
152.374	0
155.267	2.37678
158.159	2.35086
161.052	0.606461
163.945	0.208588
166.838	0.190063
169.73	2.33257
172.623	1.70511
175.516	3.19196
178.408	3.09436
181.301	5.39674
184.194	7.28064
187.086	7.7269
189.979	10.7975
192.872	11.5148
195.764	15.4159
198.657	21.9324
201.55	30.7408
204.443	36.4104
207.335	45.2114
210.228	48.2856
213.121	48.8129
216.013	44.1146
218.906	36.5185
221.799	32.677
224.691	30.1667
227.584	31.0167
230.477	31.7665
233.37	36.5271
236.262	40.6522
239.155	47.122
242.048	47.3974
244.94	39.5971
247.833	27.7235
250.726	19.6177
253.619	10.7128
256.511	9.39307
259.404	5.94322
262.297	7.8316
265.189	9.67879
268.082	5.14797
270.975	4.27334
273.867	3.04091
276.76	1.87758
279.653	2.21634
282.546	0.40731
285.438	1.59021
288.331	0.637619
291.224	0.82708
294.116	2.03592
297.009	1.63384
299.902	0.798027
302.794	3.44111
305.687	3.85606
308.58	5.96776
311.473	10.3527
314.365	12.472
317.258	11.821
320.151	9.60456
323.043	11.3286
325.936	12.8228
328.829	16.3147
331.721	18.5012
334.614	20.3604
337.507	22.3266
340.399	26.7582
343.292	27.865
346.185	30.4357
349.077	34.33
351.97	38.2128
354.863	45.3329
357.756	55.4863
360.648	68.2287
363.541	80.4054
366.434	90.5085
369.326	90.9336
372.219	81.9004
375.112	64.1758
378.005	52.5305
380.897	43.5408
383.79	36.903
386.683	31.0016
389.575	25.7848
392.468	24.1226
395.361	21.5652
398.253	20.4378
401.146	19.1782
404.039	17.4892
406.932	16.2066
409.824	14.1114
412.717	13.3625
415.61	9.99742
418.502	8.47703
421.395	7.45562
424.288	3.92818
427.18	3.5396
430.073	2.7793
432.966	0.2547
435.859	0.029068
438.751	0.169266
441.644	1.04594
444.537	0.700668
447.429	0.011467
450.322	1.07001
453.215	0.032181
456.108	2.31775
459	0.706482
461.893	0.86113
464.786	1.42185
467.678	1.02537
470.571	1.36301
473.464	3.81078
476.356	3.74068
479.249	6.65192
482.142	6.99164
485.034	6.82431
487.927	8.09366
490.82	8.34873
493.713	8.32667
496.605	8.88735
499.498	7.4699
502.391	7.53411
505.283	4.93823
508.176	4.12662
511.069	2.90638
513.962	1.70839
516.854	1.81503
519.747	0.85231
522.64	1.62289
525.532	2.68049
528.425	3.61211
531.318	5.3361
534.21	6.25617
537.103	7.0136
539.996	7.04877
542.889	6.49132
545.781	7.26115
548.674	5.68373
551.567	5.66192
554.459	6.24353
557.352	6.28608
560.245	6.20111
563.137	6.04147
566.03	5.91074
568.923	3.94788
571.816	4.49963
574.708	3.63325
577.601	3.40823
580.494	3.71383
583.386	4.64539
586.279	5.105
589.172	4.58281
592.064	3.7406
594.957	2.84199
597.85	2.80682
600.742	1.99142
603.635	1.56868
606.528	0.036537
609.42	0.633789
612.313	1.22387
615.206	1.0135
618.099	0.1101
620.991	1.52172
623.884	1.48459
626.777	3.12359
629.669	2.52455
632.562	2.29049
635.455	2.44454
638.347	1.15573
641.24	0.782326
644.133	0.766914
647.026	2.81728
649.918	3.24147
652.811	2.52348
655.704	5.5365
658.596	7.24526
661.489	7.68415
664.382	8.67495
667.274	9.37753
670.167	6.82867
673.06	2.63248
675.953	1.92266
678.845	1.26709
681.738	0.100533
684.631	2.72335
687.523	1.07719
690.416	4.53675
693.309	8.08587
696.202	14.8265
699.094	21.1599
701.987	22.3576
704.88	19.5113
707.772	19.6868
710.665	17.5716
713.558	18.4375
716.45	20.4353
719.343	25.2641
722.236	29.806
725.129	30.0773
728.021	33.7392
730.914	34.626
733.807	39.7181
736.699	40.8645
739.592	45.8249
742.485	51.1333
745.377	54.8635
748.27	58.7384
751.163	61.679
754.056	64.4314
756.948	66.9955
759.841	65.1937
762.734	64.3564
765.626	64.3188
768.519	63.8347
771.412	60.716
774.304	59.382
777.197	55.1501
780.09	54.6481
782.982	53.3935
785.875	51.903
788.768	46.3317
791.661	42.4501
794.553	36.4708
797.446	29.2374
800.339	23.6672
803.231	19.4677
806.124	17.8883
809.017	15.9955
811.909	13.9834
814.802	13.1619
817.695	9.71618
820.588	6.70634
823.48	3.90009
826.373	2.02113
829.266	0.80751
832.158	1.04826
835.051	1.22846
837.944	1.87868
840.837	1.54767
843.729	0.287415
846.622	0.047333
849.515	0.176918
852.407	1.1243
855.3	1.60144
858.193	1.38554
861.085	1.92809
863.978	2.08758
866.871	2.56391
869.764	4.1168
872.656	3.15084
875.549	3.71653
878.442	4.14771
881.334	4.50794
884.227	4.63961
887.12	5.2532
890.013	5.53717
892.905	4.81033
895.798	3.84714
898.691	5.26823
901.583	3.09599
904.476	2.65947
907.369	3.60129
910.261	2.47628
913.154	1.57117
916.047	1.21697
918.939	1.0807
921.832	0.751205
924.725	0.169868
927.618	0.432404
930.51	0.475838
933.403	0.560928
936.296	0.187759
939.188	0.82444
942.081	0.688087
944.974	0.74527
947.866	2.14298
950.759	2.2125
953.652	3.16761
956.545	3.63979
959.437	4.58138
962.33	6.02235
965.223	4.68712
968.115	4.90238
971.008	4.8939
973.901	5.55765
976.793	5.98413
979.686	4.97589
982.579	4.86308
985.472	3.56587
988.364	3.16146
991.257	3.67948
994.15	0.995247
997.042	2.92122
999.935	0.799072
1002.83	1.0269
1005.72	0.321686
1008.61	0.870903
1011.51	2.90187
1014.4	4.01962
1017.29	4.61153
1020.18	5.72651
1023.08	7.31533
1025.97	9.81365
1028.86	9.55601
1031.76	11.959
1034.65	13.4344
1037.54	13.9113
1040.43	13.1993
1043.33	12.9449
1046.22	13.4854
1049.11	13.8278
1052	12.6665
1054.9	11.4919
1057.79	11.0366
1060.68	10.2454
1063.57	10.6531
1066.47	9.60197
1069.36	7.79436
1072.25	7.18283
1075.14	6.18892
1078.04	4.45939
1080.93	4.17899
1083.82	2.46288
1086.72	1.92782
1089.61	2.32819
1092.5	1.95911
1095.39	2.54582
1098.29	2.97983
1101.18	3.17039
1104.07	3.15305
1106.96	2.43012
1109.86	2.57394
1112.75	1.36755
1115.64	0.138771
1118.54	0.293594
1121.43	0.906059
1124.32	0.801201
1127.21	0.067551
1130.11	0.120239
1133	0.213257
1135.89	1.15037
1138.79	0.739975
1141.68	0.696991
1144.57	0.673668
1147.46	1.30817
1150.36	1.50999
1153.25	1.25398
1156.14	1.63207
1159.03	1.57755
1161.93	0.344025
1164.82	1.68786
1167.71	1.56625
1170.6	2.07619
1173.5	1.33311
1176.39	2.14863
1179.28	1.28082
1182.17	1.96274
1185.07	1.12637
1187.96	1.4908
1190.85	1.66795
1193.75	2.70483
1196.64	2.11465
1199.53	1.42381
1202.42	1.09759
1205.32	1.16183
1208.21	0.360703
1211.1	0.824318
1213.99	0.950706
1216.89	2.51259
1219.78	1.88435
1222.67	2.25375
1225.57	3.4152
1228.46	2.41407
1231.35	3.37463
1234.24	3.65324
1237.14	4.6586
1240.03	3.46572
1242.92	3.59834
1245.82	3.53029
1248.71	3.15493
1251.6	3.50428
1254.49	3.05661
1257.38	2.37116
1260.28	2.13457
1263.17	2.36032
1266.06	2.48441
1268.96	3.78426
1271.85	2.58758
1274.74	1.82016
1277.63	3.07581
1280.53	0.723679
1283.42	0.438408
1286.31	1.45424
1289.2	0.69091
1292.1	0.614288
1294.99	0.832542
1297.88	0.213692
1300.78	0.640366
1303.67	0.096321
