Measurement: Raman, 514 nm, unoriented, Raman Data Processed
Mineral: Dravite
Rruff sample: R040088
Ideal chemistry: NaMg_3_Al_6_(Si_6_O_18_)(BO_3_)_3_(OH)_3_OH
Locality: Yinnietharra Station, Pilbara, Western Australia, Australia
Source: University of Arizona Mineral Museum
Description: Brown short prismatic crystal
Measured chemistry: (Na_0.88_Ca_0.06_[box]_0.06_)(Mg_0.88_Al_0.10_Ti_0.04_Fe_0.02_)_3_Al_6.00_(B_1_O_3_)_3_Si_6.00_O_18_((OH)_0.98_F_0.02_)_4_
Raman shift (cm-1)	intensity
180.734	0
184.872	43.288
189.008	158.677
193.143	400.716
197.275	533.824
201.405	1366.12
205.534	2656.44
209.66	5255.41
213.784	7778.5
217.907	9212.09
222.027	7417.44
226.146	5611.01
230.263	4763.29
234.377	4801.04
238.49	5286.5
242.601	6106.37
246.709	6047.73
250.816	4424.66
254.921	2298.98
259.024	1264.97
263.125	781.89
267.224	684.21
271.321	768.155
275.416	1097.87
279.51	869.303
283.601	430.364
287.69	145.914
291.778	118.854
295.863	453.108
299.947	477.418
304.029	266.644
308.108	103.177
312.186	308.427
316.262	348.348
320.336	117.691
324.408	251.854
328.478	747.533
332.546	1786.08
336.612	2629.76
340.677	3470.62
344.739	4321.44
348.799	4203.35
352.858	4262.85
356.915	4677.78
360.969	5624.42
365.022	9026.3
369.073	12609.1
373.122	17638.7
377.169	17222.9
381.215	12101.5
385.258	8185.17
389.299	5998.2
393.339	4554.62
397.376	3999.51
401.412	3499.89
405.446	3013.83
409.478	2536.25
413.508	2249.93
417.536	1645.64
421.562	1175.27
425.586	795.798
429.609	773.223
433.629	741.535
437.648	802.784
441.665	895.977
445.68	901.702
449.693	875.542
453.704	588.985
457.713	400.857
461.721	147.865
465.726	280.634
469.73	428.786
473.731	377.078
477.731	784.924
481.729	1087.77
485.725	1335.96
489.72	2108.14
493.712	2370.08
497.703	2433.79
501.691	2177.25
505.678	1606.48
509.663	1124.54
513.646	763.396
517.627	255.006
521.607	139.351
525.584	600.411
529.56	1042.18
533.534	1198.64
537.506	1214.81
541.476	1177.66
545.444	665.211
549.41	696.58
553.375	460.625
557.337	458.157
561.298	351.535
565.257	454.325
569.214	475.572
573.17	713.312
577.123	657.511
581.075	576.796
585.024	520.016
588.972	114.127
592.918	95.02
596.863	150.695
600.805	268.275
604.746	161.94
608.685	42.542
612.621	71.526
616.557	31.868
620.49	184.81
624.421	421.308
628.351	288.38
632.279	691.61
636.205	839.178
640.129	512.853
644.051	309.184
647.972	314.988
651.89	504.25
655.807	928.954
659.722	1649.09
663.636	2448.63
667.547	2979.57
671.457	3839.89
675.365	4516.56
679.271	4360.59
683.175	3755.95
687.077	3273.63
690.978	3050.6
694.877	3052.86
698.774	3767.38
702.669	5458.51
706.562	6649.02
710.454	8775.94
714.344	12169.8
718.232	14324.5
722.118	15978.6
726.002	14597.4
729.885	10741.3
733.766	7659.63
737.645	5739.58
741.522	4889.78
745.397	4926.7
749.271	4916.62
753.143	5744.63
757.013	6393.86
760.881	7128.88
764.748	8208.03
768.613	8652.67
772.476	8500.58
776.337	8976
780.196	10555.2
784.054	13106.1
787.91	15453.7
791.764	16181.1
795.616	15002.1
799.467	13313.7
803.316	11692
807.163	11714.9
811.008	14019.4
814.851	15779.6
818.693	15701.3
822.533	13068.5
826.371	9268.33
830.208	6621.7
834.042	4756.6
837.875	3937.01
841.706	3157.94
845.536	2088.36
849.363	1260.27
853.189	465.659
857.013	138.468
860.836	145.691
864.656	208.672
868.475	154.8
872.292	205.681
876.108	108.773
879.922	170.664
883.733	140.295
887.544	1.502
891.352	24.137
895.159	194.757
898.964	344.608
902.767	566.067
906.568	766.907
910.368	894.469
914.166	1127.67
917.962	1198.66
921.757	1274.21
925.55	1444.23
929.341	1510.66
933.13	1820.49
936.918	1964.71
940.703	2225.32
944.488	2632.34
948.27	2645.74
952.051	2745.55
955.83	2652.76
959.607	3028.37
963.383	2966.39
967.156	3201.81
970.928	3208.65
974.699	3425.34
978.468	3624.56
982.234	3592.64
986	3477.15
989.763	3523.08
993.525	3527.49
997.285	3296.56
1001.04	3132.81
1004.8	3331.18
1008.55	3161.42
1012.31	3153.87
1016.06	3370.1
1019.81	4104.42
1023.56	4145.84
1027.31	4529.58
1031.05	4505.49
1034.79	4733.42
1038.53	5207.99
1042.27	6052.01
1046.01	6593.89
1049.75	7163.2
1053.48	7736.25
1057.22	7666.35
1060.95	8178.46
1064.68	8858.92
1068.4	9347.94
1072.13	9129.82
1075.86	8154.36
1079.58	6566.18
1083.3	5261.74
1087.02	4299.03
1090.74	3632.08
1094.45	2827.88
1098.17	2357.44
1101.88	2234.77
1105.59	1972.88
1109.3	2137.77
1113.01	2064.45
1116.71	2207.93
1120.42	2217.22
1124.12	2240.32
1127.82	1376.23
1131.52	1076.97
1135.22	474.541
1138.91	350.954
1142.61	217.207
1146.3	272.308
1149.99	207.312
1153.68	46.067
1157.37	262.768
1161.06	71.682
1164.74	177.529
1168.42	90.638
1172.1	105.648
1175.78	52.61
1179.46	96.832
1183.14	37.266
1186.81	14.184
1190.48	40.891
1194.15	135.279
1197.83	28.901
1201.49	76.624
1205.16	181.893
1208.82	107.823
1212.49	45.374
1216.15	68.293
1219.81	287.543
1223.46	301.792
1227.12	355.168
1230.78	888.469
1234.43	910.934
1238.08	654.354
1241.73	742.725
1245.38	797.734
1249.03	737.32
1252.67	669.547
1256.31	587.729
1259.95	792.861
1263.6	850.947
1267.23	635.982
1270.87	678.971
1274.51	606.9
1278.14	556.227
1281.77	577.119
1285.4	463.842
1289.03	405.424
1292.66	439.883
1296.28	374.426
1299.91	277.545
1303.53	302.203
1307.15	225.725
1310.77	201.533
1314.38	260.211
1318	176.41
1321.61	194.453
1325.23	126.395
1328.84	219.557
1332.45	176.982
1336.06	181.137
1339.66	157.4
1343.27	173.193
1346.87	144.494
1350.47	212.914
1354.07	138.664
1357.67	163.646
1361.26	159.881
1364.86	90.623
1368.45	259.586
1372.04	245.408
1375.63	309.045
1379.22	244.107
1382.81	277.016
1386.39	430.764
1389.98	367.342
1393.56	444.744
1397.14	444.957
1400.72	339.955
1404.3	383.746
1407.87	285.326
1411.45	304.736
1415.02	114.451
1418.59	218.84
1422.16	81.08
1425.73	97.029
1429.29	92.385
1432.86	199.627
1436.42	90.354
1439.98	146.395
1443.54	122.783
1447.1	49.465
1450.66	0.744
1454.21	94.115
1457.77	27.102
1461.32	79.703
1464.87	30.805
1468.42	185.826
1471.96	3.961
1475.51	20.188
1479.06	110.992
1482.6	197.742
1486.14	176.516
1489.68	50.678
1493.22	85.416
1496.75	240.385
1500.29	229.785
1503.82	81.045
1507.35	171.855
1510.88	161.172
1514.41	95.227
