Measurement: Raman, 532 nm, unoriented, Raman Data Processed
Mineral: Dravite
Rruff sample: R040088
Ideal chemistry: NaMg_3_Al_6_(Si_6_O_18_)(BO_3_)_3_(OH)_3_OH
Locality: Yinnietharra Station, Pilbara, Western Australia, Australia
Source: University of Arizona Mineral Museum
Description: Brown short prismatic crystal
Measured chemistry: (Na_0.88_Ca_0.06_[box]_0.06_)(Mg_0.88_Al_0.10_Ti_0.04_Fe_0.02_)_3_Al_6.00_(B_1_O_3_)_3_Si_6.00_O_18_((OH)_0.98_F_0.02_)_4_
Raman shift (cm-1)	intensity
163.991	0
166.884	16.7237
169.776	19.6606
172.669	0.680145
175.562	6.76773
178.454	1.21765
181.347	4.73367
184.24	36.0286
187.133	43.742
190.025	75.1573
192.918	77.7112
195.811	106.024
198.703	147.844
201.596	221.794
204.489	370.257
207.381	564.299
210.274	764.66
213.167	879.117
216.06	815.27
218.952	668.221
221.845	502.781
224.738	451.031
227.63	441.268
230.523	442.646
233.416	478.691
236.309	562.539
239.201	645.778
242.094	684.835
244.987	652.751
247.879	512.336
250.772	361.038
253.665	239.286
256.557	170.31
259.45	110.546
262.343	95.5985
265.236	86.0145
268.128	79.4247
271.021	75
273.913	64.0318
276.806	45.7957
279.699	15.3401
282.592	12.9602
285.484	13.2481
288.377	1.06482
291.27	14.4208
294.162	9.51675
297.055	5.11136
299.948	3.29663
302.841	0.286591
305.733	12.7468
308.626	23.5233
311.519	54.0052
314.411	55.0359
317.304	33.876
320.197	21.516
323.089	34.4767
325.982	76.495
328.875	109.561
331.767	138.733
334.66	179.53
337.553	234.406
340.446	260.931
343.338	256.589
346.231	280.927
349.124	289.003
352.016	352.029
354.909	444.08
357.802	596.735
360.695	837.411
363.587	1076.2
366.48	1336.17
369.373	1392.31
372.265	1148.35
375.158	822.507
378.051	563.843
380.943	410.179
383.836	324.146
386.729	258.308
389.622	219.475
392.514	184.003
395.407	185.55
398.3	157.231
401.192	138.971
404.085	124.266
406.978	114.331
409.87	82.6101
412.763	74.4273
415.656	49.5877
418.548	19.992
421.441	7.82461
424.334	3.56805
427.227	7.03708
430.119	1.00137
433.012	6.82932
435.905	5.68845
438.797	2.92212
441.69	9.21582
444.583	1.69104
447.475	9.55679
450.368	4.92783
453.261	20.0927
456.154	2.47461
459.046	10.7677
461.939	5.09521
464.832	36.335
467.724	40.243
470.617	56.1897
473.51	73.7201
476.402	93.6082
479.295	122.6
482.188	137.428
485.08	179.927
487.973	188.099
490.866	174.702
493.759	173.614
496.651	166.613
499.544	130.639
502.437	129.147
505.329	102.3
508.222	82.0189
511.115	65.3242
514.008	44.9111
516.9	41.1668
519.793	50.817
522.686	35.3973
525.578	52.8635
528.471	72.8405
531.364	59.8498
534.256	83.5525
537.149	73.609
540.042	64.6991
542.934	57.6874
545.827	47.2965
548.72	44.0726
551.612	32.304
554.505	36.4722
557.398	23.387
560.291	12.7494
563.183	18.4234
566.076	15.679
568.969	8.93167
571.861	14.1031
574.754	3.4559
577.647	1.31876
580.54	5.57315
583.432	8.1886
586.325	3.73364
589.218	9.90692
592.11	10.2237
595.003	0.334686
597.896	2.08179
600.788	4.57632
603.681	0.945007
606.574	1.3692
609.467	11.9065
612.359	18.7195
615.252	25.9522
618.145	26.3396
621.037	44.7617
623.93	57.919
626.823	86.2626
629.715	115.586
632.608	154.308
635.501	107.065
638.394	51.9941
641.286	49.0388
644.179	82.7596
647.072	81.4924
649.964	109.046
652.857	131.78
655.75	150.91
658.642	170.784
661.535	205.954
664.428	225.323
667.321	277.823
670.213	348.282
673.106	381.507
675.999	351.792
678.891	317.364
681.784	266.584
684.677	235.3
687.569	235.637
690.462	253.523
693.355	317.589
696.247	346.018
699.14	399.011
702.033	412.248
704.926	336.907
707.818	261.931
710.711	130.35
713.604	90.8158
716.496	48.0476
719.389	22.7095
722.282	0.372253
725.174	3.49051
728.067	15.2065
730.96	22.1635
733.852	9.8269
736.745	10.1695
739.638	34.9342
742.531	52.4573
745.423	97.465
748.316	169.408
751.209	196.974
754.101	259.109
756.994	286.461
759.887	271.394
762.779	237.745
765.672	194.356
768.565	190.492
771.458	194.096
774.35	207.214
777.243	246.917
780.136	300.712
783.028	345.716
785.921	365.996
788.814	380.152
791.707	362.916
794.599	359.287
797.492	306.413
800.385	293.944
803.277	291.971
806.17	331.332
809.063	392.001
811.955	425.251
814.848	445.725
817.741	408.909
820.634	338.086
823.526	277.836
826.419	207.107
829.312	170.761
832.204	122.021
835.097	118.109
837.99	86.6317
840.882	69.6103
843.775	46.6905
846.668	42.6202
849.561	11.4278
852.453	0.764771
855.346	1.22339
858.239	0.968567
861.131	1.69409
864.024	11.3563
866.917	0.553299
869.809	1.64479
872.702	4.06961
875.595	0.0905
878.487	6.98988
881.38	8.47356
884.273	17.1795
887.165	19.3285
890.058	9.07486
892.951	8.78114
895.844	18.2454
898.736	14.976
901.629	23.5194
904.522	26.5545
907.414	20.6955
910.307	34.6498
913.2	29.404
916.092	19.475
918.985	13.3485
921.878	18.5081
924.771	10.1251
927.663	22.2018
930.556	0.225098
933.449	3.23022
936.341	0.808289
939.234	2.31812
942.127	15.0747
945.019	26.8632
947.912	22.2285
950.805	21.8279
953.698	39.2443
956.59	44.2831
959.483	38.4512
962.376	59.8884
965.268	73.664
968.161	73.881
971.054	83.0934
973.947	79.2254
976.839	99.3382
979.732	88.6414
982.625	71.4728
985.517	47.6365
988.41	43.4006
991.303	19.3979
994.195	18.8911
997.088	7.48083
999.981	9.35584
1002.87	10.9703
1005.77	15.5285
1008.66	20.8465
1011.55	50.1747
1014.44	65.2686
1017.34	88.3531
1020.23	120.461
1023.12	158.52
1026.02	177.128
1028.91	209.064
1031.8	229.588
1034.69	227.516
1037.59	242.087
1040.48	231.366
1043.37	250.627
1046.26	240.016
1049.16	235.827
1052.05	227.513
1054.94	216.065
1057.84	207.686
1060.73	215.633
1063.62	215.108
1066.51	207.841
1069.41	202.372
1072.3	180.463
1075.19	146.225
1078.08	106.407
1080.98	77.5947
1083.87	64.2443
1086.76	41.3775
1089.65	20.2247
1092.55	24.5766
1095.44	15.8093
1098.33	19.5797
1101.22	10.4036
1104.12	15.7532
1107.01	0.012238
1109.9	6.66818
1112.8	7.20325
1115.69	6.74493
1118.58	7.29742
1121.47	0.462616
1124.37	6.43274
1127.26	0.344177
1130.15	0.675171
1133.05	6.87857
1135.94	6.0979
1138.83	9.08594
1141.72	8.56699
1144.62	2.20175
1147.51	4.38669
1150.4	13.7721
1153.29	3.83176
1156.19	26.0442
1159.08	18.406
1161.97	20.1569
1164.87	23.2209
1167.76	22.3629
1170.65	26.9001
1173.54	24.9907
1176.43	14.4037
1179.33	20.4357
1182.22	22.3651
1185.11	24.677
1188.01	7.69919
1190.9	20.0785
1193.79	24.4444
1196.68	22.3774
1199.58	5.81134
1202.47	5.87601
1205.36	18.984
1208.26	11.8134
1211.15	15.8318
1214.04	19.066
1216.93	15.6194
1219.83	38.6008
1222.72	48.3316
1225.61	40.9051
1228.5	35.5695
1231.4	34.1577
1234.29	47.1578
1237.18	54.6254
1240.08	35.4944
1242.97	33.0444
1245.86	40.353
1248.75	24.9939
1251.65	13.7952
1254.54	31.3483
1257.43	18.3862
1260.32	19.6039
1263.22	25.5266
1266.11	10.4884
1269	15.6158
1271.89	20.5998
1274.79	12.5347
1277.68	0.663086
1280.57	22.0472
1283.46	12.0958
1286.36	6.82431
1289.25	1.96976
