Measurement: Raman, 780 nm, unoriented, Raman Data Processed
Mineral: Dumortierite
Rruff sample: R060069
Ideal chemistry: AlAl_6_BSi_3_O_18_
Locality: Dehesa, San Diego County, California, USA
Source: University of Arizona Mineral Museum
Description: Radial aggregate of purple acicular crystals
Measured chemistry: (Al_6.89_Ti_0.11_)_Σ=7_(BO_3_)(Si_2.89_Al_0.11_)_Σ=1_O_4_)_3_O_3_ ; B not measured but estimated by difference and charge balance
Raman shift (cm-1)	intensity
154.796	0
157.689	0.103973
160.582	2.97723
163.474	2.22043
166.367	1.30695
169.26	1.60941
172.152	1.84827
175.045	2.46997
177.938	3.4956
180.831	1.57544
183.723	4.96054
186.616	7.12765
189.509	10.2522
192.401	16.7091
195.294	20.743
198.187	15.2508
201.079	14.4156
203.972	12.9276
206.865	14.5624
209.757	13.0402
212.65	9.48544
215.543	9.10324
218.436	5.76285
221.328	1.45749
224.221	4.7771
227.114	2.14899
230.006	0.416412
232.899	3.40961
235.792	2.80191
238.685	2.56549
241.577	5.76401
244.47	8.86795
247.363	8.56586
250.255	12.7596
253.148	15.0465
256.041	19.0549
258.933	25.3578
261.826	35.2691
264.719	29.9145
267.611	25.781
270.504	24.3965
273.397	28.5446
276.29	25.3174
279.182	25.9233
282.075	25.3359
284.968	23.2081
287.86	24.0988
290.753	21.4297
293.646	18.4591
296.538	15.5593
299.431	10.0626
302.324	7.20935
305.217	4.11768
308.109	2.37564
311.002	0.107208
313.895	0.615387
316.787	1.2814
319.68	0.111694
322.573	0.842834
325.466	1.30926
328.358	3.09769
331.251	2.53079
334.144	8.33356
337.036	10.6174
339.929	13.4686
342.822	16.0969
345.714	18.1864
348.607	16.8179
351.5	20.385
354.392	21.8759
357.285	23.8533
360.178	29.1989
363.071	29.3048
365.963	29.3524
368.856	29.4849
371.749	30.1224
374.641	30.1876
377.534	26.3351
380.427	26.7756
383.32	26.0218
386.212	22.2088
389.105	23.8146
391.998	21.0078
394.89	20.4725
397.783	18.0495
400.676	18.0847
403.568	16.2076
406.461	14.2591
409.354	12.1576
412.247	8.98395
415.139	8.65305
418.032	6.45386
420.925	2.73523
423.817	3.64725
426.71	1.67142
429.603	2.42865
432.495	1.08557
435.388	0.032379
438.281	0.254669
441.173	1.78436
444.066	1.84634
446.959	0.742645
449.852	2.45779
452.744	1.4621
455.637	3.09103
458.53	2.69772
461.422	4.67337
464.315	5.75043
467.208	5.5592
470.101	7.54974
472.993	5.64615
475.886	9.71115
478.779	9.4559
481.671	11.1168
484.564	11.1373
487.457	12.6449
490.349	13.1113
493.242	13.7409
496.135	13.2336
499.027	12.538
501.92	11.2727
504.813	12.1169
507.705	14.214
510.598	12.1499
513.491	8.62585
516.384	6.86737
519.276	5.21127
522.169	4.21994
525.062	3.05661
527.955	1.92468
530.847	0.957336
533.74	0.934418
536.633	1.07864
539.525	1.53204
542.418	1.41019
545.311	1.60367
548.203	4.49786
551.096	5.86896
553.989	7.77634
556.881	6.87961
559.774	6.82675
562.667	6.74463
565.56	4.8132
568.452	4.35346
571.345	3.79535
574.238	4.04239
577.13	2.7858
580.023	1.85013
582.916	1.07156
585.808	0.796143
588.701	0.148285
591.594	0.680511
594.486	1.42667
597.379	0.479614
600.272	0.521027
603.165	3.07611
606.057	2.42706
608.95	3.23431
611.843	3.32513
614.735	4.57181
617.628	3.48584
620.521	4.03153
623.413	5.18182
626.306	7.11404
629.199	6.34656
632.092	7.97842
634.984	8.16394
637.877	7.02008
640.77	7.92447
643.662	5.7829
646.555	5.71017
649.448	3.44028
652.341	4.98093
655.233	3.66702
658.126	4.08798
661.019	4.06284
663.911	1.37558
666.804	4.19379
669.697	1.44269
672.589	2.63651
675.482	1.20429
678.375	1.02179
681.268	0.308563
684.16	0.112
687.053	0.288666
689.946	1.07349
692.838	2.91959
695.731	4.97394
698.624	5.10153
701.516	4.99655
704.409	5.93472
707.302	7.18454
710.194	3.21372
713.087	3.4057
715.98	1.20358
718.873	1.20184
721.765	0.294922
724.658	1.3251
727.551	2.31763
730.443	1.17438
733.336	2.69962
736.229	4.01352
739.121	4.0358
742.014	3.33868
744.907	3.73016
747.8	2.16992
750.692	3.7963
753.585	2.01697
756.478	2.19345
759.37	1.39261
762.263	0.104431
765.156	0.499084
768.048	1.3183
770.941	0.074524
773.834	0.060272
776.727	0.291931
779.619	0.587463
782.512	0.565948
785.405	0.538177
788.297	1.65369
791.19	0.256699
794.083	0.009705
796.976	1.10217
799.868	1.87151
802.761	0.804062
805.654	2.06576
808.546	4.32092
811.439	4.96407
814.332	4.07925
817.224	3.86443
820.117	3.6004
823.01	3.68506
825.903	3.98209
828.795	4.61655
831.688	2.96593
834.581	4.82283
837.473	3.82513
840.366	3.84927
843.259	4.23262
846.151	3.01482
849.044	3.0679
851.937	2.35466
854.83	1.14114
857.722	1.99388
860.615	0.174713
863.508	0.921295
866.4	1.56988
869.293	0.619049
872.186	1.16176
875.078	0.533844
877.971	0.474411
880.864	0.398636
883.756	1.16748
886.649	0.597031
889.542	0.192429
892.435	0.415329
895.327	1.32251
898.22	0.945175
901.113	1.10088
904.005	2.202
906.898	1.5706
909.791	2.46861
912.683	4.17108
915.576	3.86227
918.469	4.02487
921.362	7.06807
924.254	5.87035
927.147	5.79922
930.04	7.36646
932.932	7.37503
935.825	9.05424
938.718	8.8643
941.611	9.6844
944.503	10.2808
947.396	9.9944
950.289	8.69182
953.181	8.56523
956.074	7.57298
958.967	4.75671
961.859	4.00761
964.752	3.50992
967.645	1.07393
970.538	1.00333
973.43	0.067383
976.323	0.624863
979.216	0.300201
982.108	0.26384
985.001	1.23602
987.894	1.08832
990.786	0.506714
993.679	0.621109
996.572	2.9691
999.465	1.35506
1002.36	0.623413
1005.25	2.18481
1008.14	2.00984
1011.03	1.34528
1013.93	1.06335
1016.82	1.54629
1019.71	1.81053
1022.61	1.38127
1025.5	0.150925
1028.39	1.39062
1031.28	0.301392
1034.18	0.110123
1037.07	0.621338
1039.96	0.314789
1042.86	1.15337
1045.75	0.064957
1048.64	1.37753
1051.53	0.589508
1054.43	1.10812
1057.32	0.862778
1060.21	2.83107
1063.1	1.40424
1066	1.76692
1068.89	2.00717
1071.78	1.47453
1074.67	2.17865
1077.57	1.25293
1080.46	1.38831
1083.35	2.1828
1086.24	1.22336
1089.14	1.28345
1092.03	0.717957
1094.92	1.62997
1097.82	1.17986
1100.71	0.610016
1103.6	1.42688
1106.49	1.12242
1109.39	0.94342
1112.28	0.507126
1115.17	0.193161
1118.07	1.28937
1120.96	0.110519
1123.85	1.18681
1126.74	0.897186
1129.64	2.04985
1132.53	0.990067
1135.42	0.747131
1138.31	0.214737
1141.21	1.03397
1144.1	1.13919
1146.99	1.1472
1149.88	2.02365
1152.78	1.45471
1155.67	1.51474
1158.56	1.02464
1161.46	2.06181
1164.35	3.57718
1167.24	3.02408
1170.13	2.95186
1173.03	3.49577
1175.92	2.97494
1178.81	2.36139
1181.7	0.680954
1184.6	1.4384
1187.49	1.73436
1190.38	2.30083
1193.28	1.61249
1196.17	1.2684
1199.06	0.57666
1201.95	1.76474
1204.85	1.49236
1207.74	0.731064
1210.63	2.77492
1213.52	0.960297
1216.42	1.02309
1219.31	0.205902
1222.2	0.147385
1225.1	0.393982
1227.99	0.003235
1230.88	0.60524
1233.77	1.91797
1236.67	1.12578
1239.56	0.080338
1242.45	1.31543
1245.34	2.18727
1248.24	2.44243
1251.13	0.800568
1254.02	2.3777
1256.91	0.440613
1259.81	1.49191
1262.7	3.06398
1265.59	1.26991
1268.49	1.03857
1271.38	0.871902
1274.27	1.0056
