Measurement: Raman, 532 nm, unoriented, Raman Data Processed
Mineral: Dundasite
Rruff sample: R060760
Ideal chemistry: Pb^2+^Al_2_(CO_3_)_2_(OH)_4_H_2_O
Locality: Daoping mine, Guangxi, China
Source: Michael Scott
Description: Spherical aggregates of pale green acicular crystals, associated with colorless cerussite, anglesite, and blue linarite R120094.
Raman shift (cm-1)	intensity
156.683	0
159.576	13.4963
162.469	26.1692
165.361	63.625
168.254	119.66
171.147	162.17
174.039	182.771
176.932	140.333
179.825	129.751
182.718	107.611
185.61	123.263
188.503	112.908
191.396	101.211
194.288	101.751
197.181	55.3259
200.074	35.3625
202.966	19.8098
205.859	9.45142
208.752	1.23828
211.645	4.65186
214.537	12.5229
217.43	15.5259
220.323	51.1987
223.215	67.7109
226.108	89.564
229.001	141.239
231.893	223.44
234.786	226.092
237.679	137.34
240.572	39.8154
243.464	23.0664
246.357	10.0859
249.25	4.83398
252.142	8.30127
255.035	6.42725
257.928	13.4995
260.82	5.09131
263.713	0.625488
266.606	0.710449
269.499	15.9653
272.391	7.14697
275.284	25.7344
278.177	28.6064
281.07	47.4761
283.962	39.2139
286.855	51.1758
289.748	70.7627
292.64	63.102
295.533	40.8828
298.426	45.6191
301.318	55.4858
304.211	38.9536
307.104	38.478
309.997	50.6035
312.889	47.8989
315.782	57.4292
318.675	58.3237
321.567	36.6792
324.46	5.66797
327.353	7.13623
330.245	0.030762
333.138	7.45312
336.031	0.276367
338.923	9.42383
341.816	4.44824
344.709	1.56103
347.602	12.751
350.494	0.124512
353.387	1.2749
356.28	7.97656
359.173	18.9863
362.065	20.4839
364.958	15.814
367.851	2.50391
370.743	19.1963
373.636	25.8599
376.529	18.7231
379.421	30.9976
382.314	32.6343
385.207	47.5713
388.099	32.1011
390.992	49.8442
393.885	44.4565
396.778	43.4634
399.67	67.2451
402.563	56.0073
405.456	53.7256
408.348	54.8037
411.241	40.9126
414.134	42.541
417.026	31.0952
419.919	56.3989
422.812	59.313
425.705	64.417
428.597	69.3413
431.49	70.4336
434.383	79.7451
437.276	68.1816
440.168	63.8628
443.061	60.959
445.954	41.7808
448.846	37.9463
451.739	24.5098
454.632	15.831
457.524	12.6309
460.417	11.1348
463.31	0.392578
466.202	8.66113
469.095	10.314
471.988	14.4346
474.881	13.4395
477.773	14.3418
480.666	13.5381
483.559	11.4634
486.451	2.54541
489.344	8.92969
492.237	8.76709
495.13	8.16992
498.022	24.0732
500.915	26.3721
503.808	40.9438
506.7	30.7876
509.593	29.1104
512.486	29.4614
515.379	28.9741
518.271	14.5483
521.164	13.7637
524.057	13.9517
526.949	25.6045
529.842	10.9712
532.735	8.68359
535.627	10.9712
538.52	17.6465
541.413	37.7124
544.306	50.1123
547.198	40.0352
550.091	42.856
552.984	31.7783
555.876	35.2412
558.769	35.7769
561.662	41.9624
564.554	25.291
567.447	52.104
570.34	52.2437
573.232	42.5825
576.125	39.356
579.018	27.7666
581.911	23.0205
584.803	17.6787
587.696	35.7017
590.589	17.5898
593.481	16.7002
596.374	15.2559
599.267	1.31982
602.159	12.353
605.052	10.6641
607.945	4.84375
610.838	0.097168
613.73	2.56006
616.623	1.32764
619.516	7.5625
622.409	1.75537
625.301	13.7202
628.194	2.87695
631.087	2.68506
633.979	3.3916
636.872	2.84033
639.765	11.8613
642.657	17.9956
645.55	30.9058
648.443	19.6104
651.336	18.4995
654.228	18.1733
657.121	4.22314
660.014	13.25
662.906	4.37451
665.799	6.6167
668.692	10.4355
671.585	12.98
674.477	18.1934
677.37	25.5312
680.263	19.062
683.155	26.5464
686.048	12.1602
688.941	17.8481
691.833	18.7773
694.726	16.3955
697.619	27.6108
700.511	34.6504
703.404	52.5962
706.297	51.1289
709.19	50.4155
712.082	34.4961
714.975	44.2188
717.868	44.313
720.76	36.9775
723.653	63.5049
726.546	37.874
729.438	52.4429
732.331	49.0073
735.224	46.1636
738.117	25.0112
741.009	28.2109
743.902	23.0156
746.795	16.8413
749.687	27.2485
752.58	49.125
755.473	35.6855
758.366	8.60547
761.258	13.0791
764.151	4.10352
767.044	19.9189
769.936	15.561
772.829	24.1001
775.722	0.018555
778.615	2.67627
781.507	4.30566
784.4	3.50391
787.293	0.873535
790.185	5.44482
793.078	17.3721
795.971	15.6343
798.863	4.16797
801.756	17.3413
804.649	6.08984
807.542	11.2192
810.434	24.4434
813.327	19.4311
816.22	27.2075
819.112	28.3506
822.005	26.3828
824.898	34.5254
827.79	37.8774
830.683	35.6929
833.576	31.0962
836.469	22.1641
839.361	20.5952
842.254	52.5415
845.147	37.9697
848.039	36.665
850.932	19.7398
853.825	22.1265
856.717	16.6514
859.61	22.8877
862.503	15.8013
865.396	12.2881
868.288	7.33691
871.181	15.1279
874.074	11.0527
876.966	5.79443
879.859	1.12793
882.752	3.56494
885.644	0.251465
888.537	18.6758
891.43	12.0044
894.323	18.3223
897.215	17.3511
900.108	24.0654
903.001	25.6123
905.894	25.3779
908.786	20.8999
911.679	36.3901
914.572	37.4136
917.464	29.8921
920.357	26.6567
923.25	12.626
926.142	6.80029
929.035	18.9429
931.928	15.3628
934.821	16.3379
937.713	19.4785
940.606	18.8232
943.499	12.2315
946.391	3.64844
949.284	5.26269
952.177	14.6491
955.069	8.65381
957.962	17.5542
960.855	21.397
963.748	15.4273
966.64	3.93603
969.533	25.2046
972.426	23.4058
975.318	25.7021
978.211	44.2773
981.104	43.229
983.996	22.5102
986.889	44.3193
989.782	33.708
992.675	37.8926
995.567	24.4898
998.46	21.6055
1001.35	19.0933
1004.25	22.6719
1007.14	4.03223
1010.03	2.58643
1012.92	12.0889
1015.82	17.3657
1018.71	12.6416
1021.6	0.66748
1024.49	1.63184
1027.39	10.7998
1030.28	19.2646
1033.17	12.0815
1036.07	16.4556
1038.96	7.65304
1041.85	3.69287
1044.74	13.0586
1047.64	12.186
1050.53	39.8975
1053.42	23.4829
1056.31	28.1826
1059.21	36.9517
1062.1	46.1206
1064.99	42.8916
1067.88	52.5942
1070.78	71.3374
1073.67	101.917
1076.56	143.597
1079.46	210.227
1082.35	268.057
1085.24	342.144
1088.13	402.272
1091.03	416.749
1093.92	374.425
1096.81	278.472
1099.7	202.22
1102.6	138.694
1105.49	93.5229
1108.38	52.3882
1111.28	45.9853
1114.17	43.0102
1117.06	50.4228
1119.95	36.3232
1122.85	37.1475
1125.74	10.041
1128.63	23.751
1131.52	23.8428
1134.42	23.3149
1137.31	21.3213
1140.2	15.3667
1143.1	46.3481
1145.99	14.1606
1148.88	25.2222
1151.77	17.8999
1154.67	17.7339
1157.56	13.6685
1160.45	9.65674
1163.34	17.2812
1166.24	11.4941
1169.13	21.5737
1172.02	23.8789
1174.91	11.9346
1177.81	8.88525
1180.7	10.1675
1183.59	4.50537
1186.49	5.41602
1189.38	3.1665
1192.27	0.736328
1195.16	1.82199
1198.06	6.21777
1200.95	9.11719
1203.84	2.17969
1206.73	23.3794
1209.63	10.7607
1212.52	11.0679
1215.41	16.5059
1218.31	8.60205
1221.2	31.7358
1224.09	25.332
1226.98	23.5708
1229.88	15.6523
1232.77	33.4922
1235.66	21.7769
1238.55	11.5923
1241.45	28.877
1244.34	33.3789
1247.23	31.7391
1250.12	55.8252
1253.02	37.415
1255.91	31.2212
1258.8	34.5889
1261.7	22.2246
1264.59	11.3779
1267.48	11.7637
1270.37	27.3184
1273.27	5.87646
1276.16	11.5156
1279.05	1.30225
1281.94	17.269
1284.84	1.34717
1287.73	15.0898
1290.62	10.4692
1293.52	15.7285
1296.41	18.7314
1299.3	21.48
1302.19	0.068848
