Measurement: Raman, 532 nm, unoriented, Raman Data Processed
Mineral: Dwornikite
Rruff sample: R070379
Ideal chemistry: Ni^2+^S^6+^O_4_H_2_O
Locality: Lipovka Mine (Lipovskaya Mine; Lipovaya Mine), Lipovka pegmatite field, Rezh District, Central Urals, Urals Region, Russia
Source: Michael Scott
Description: Grayish green coating on acicular millerite
Raman shift (cm-1)	intensity
163.161	0
166.054	1.43213
168.946	22.8984
171.839	28.3586
174.732	10.3093
177.625	32.4553
180.517	56.897
183.41	54.2886
186.303	64.3618
189.195	57.9092
192.088	61.8337
194.981	74.6746
197.874	93.7322
200.766	75.792
203.659	53.032
206.552	114.069
209.444	79.2424
212.337	116.535
215.23	139.463
218.122	119.327
221.015	100.74
223.908	92.8994
226.8	26.3623
229.693	45.1824
232.586	64.0481
235.479	59.0176
238.371	42.7366
241.264	93.426
244.157	62.7239
247.049	77.9985
249.942	89.0881
252.835	42.1223
255.727	22.9429
258.62	58.2961
261.513	56.5977
264.406	11.6309
267.298	6.7644
270.191	30.6926
273.084	15.9287
275.976	11.8154
278.869	0.684326
281.762	75.2551
284.655	99.0335
287.547	84.3727
290.44	118.956
293.333	156.883
296.225	170.595
299.118	195.845
302.011	221.499
304.904	151.415
307.796	174.965
310.689	190.652
313.582	190.119
316.474	150.525
319.367	120.783
322.26	95.7053
325.152	122.332
328.045	80.0964
330.938	97.8755
333.83	64.6382
336.723	101.219
339.616	93.4626
342.509	100.201
345.401	90.9546
348.294	66.1289
351.187	89.5383
354.079	45.4785
356.972	53.2803
359.865	62.2971
362.757	28.7891
365.65	55.7822
368.543	13.5854
371.436	29.145
374.328	23.3594
377.221	25.9392
380.114	6.28955
383.006	18.9482
385.899	35.9375
388.792	15.0928
391.685	41.061
394.577	4.8501
397.47	24.2915
400.363	13.6748
403.255	50.0557
406.148	2.31982
409.041	9.3877
411.933	26.1987
414.826	3.50684
417.719	6.13232
420.611	99.7637
423.504	71.0356
426.397	138.254
429.29	165.255
432.182	247.817
435.075	257.268
437.968	355.903
440.86	377.072
443.753	520.726
446.646	516.687
449.538	660.066
452.431	784.646
455.324	839.208
458.217	914.21
461.109	908.996
464.002	920.566
466.895	864.244
469.787	817.355
472.68	738.727
475.573	613.101
478.466	518.074
481.358	426.254
484.251	286.756
487.144	232.199
490.036	159.569
492.929	143.073
495.822	212.992
498.714	252.755
501.607	531.34
504.5	754.385
507.393	1089.83
510.285	1472.86
513.178	1905.45
516.071	2317.96
518.963	2757.39
521.856	3078.41
524.749	3246.48
527.641	3317.5
530.534	3200.29
533.427	2918.92
536.32	2751.85
539.212	2524.75
542.105	2206.85
544.998	1954.12
547.89	1734.48
550.783	1384.26
553.676	1156.29
556.568	985.511
559.461	647.751
562.354	453.329
565.247	318.897
568.139	223.192
571.032	116.081
573.925	64.2378
576.817	21.9546
579.71	34.082
582.603	23.0869
585.495	24.8237
588.388	18.7329
591.281	42.7993
594.174	63.1865
597.066	23.3418
599.959	6.729
602.852	1.26611
605.744	15.6509
608.637	24.6748
611.53	51.9458
614.423	67.6738
617.315	76.2686
620.208	94.4561
623.101	111.609
625.993	65.5102
628.886	42.2685
631.779	99.2764
634.671	117.939
637.564	130.603
640.457	147.764
643.35	111.927
646.242	128.952
649.135	74.4048
652.028	153.279
654.92	64.3081
657.813	118.075
660.706	72.7886
663.598	72.3833
666.491	98.311
669.384	112.783
672.277	94.6426
675.169	86.9634
678.062	62.8062
680.955	95.6479
683.847	80.8965
686.74	100.366
689.633	76.4058
692.525	20.5239
695.418	103.099
698.311	69.0019
701.204	75.4326
704.096	123.48
706.989	49.6348
709.882	87.0337
712.774	100.394
715.667	46.7627
718.56	22.6157
721.452	48.5801
724.345	19.3569
727.238	7.92822
730.131	11.9497
733.023	50.7607
735.916	91.5371
738.809	2.42773
741.701	56.2822
744.594	38.0845
747.487	29.5107
750.38	0.761719
753.272	54.8789
756.165	16.1616
759.058	35.0557
761.95	59.5034
764.843	53.9053
767.736	41.895
770.628	11.7168
773.521	27.6807
776.414	60.7935
779.307	87.8208
782.199	68.9146
785.092	31.2358
787.985	66.4585
790.877	53.7056
793.77	11.706
796.663	48.4829
799.555	85.4424
802.448	88.2524
805.341	70.4517
808.234	79.1582
811.126	80.6587
814.019	65.0337
816.912	128.867
819.804	23.9683
822.697	54.6274
825.59	8.32324
828.482	32.2329
831.375	78.3154
834.268	85.5215
837.16	24.1279
840.053	51.7139
842.946	43.6143
845.839	2.84131
848.731	58.394
851.624	18.0479
854.517	9.34717
857.409	45.0278
860.302	0.942871
863.195	46.4487
866.087	31.6733
868.98	18.6729
871.873	17.2178
874.766	66.6231
877.658	39.8833
880.551	24.7808
883.444	12.5361
886.337	24.5645
889.229	49.8267
892.122	70.8345
895.015	66.5718
897.907	118.031
900.8	35.3086
903.693	78.3535
906.585	43.4404
909.478	49.2207
912.371	15.4863
915.264	33.5649
918.156	26.4111
921.049	96.3198
923.942	16.877
926.834	60.9341
929.727	41.6733
932.62	71.3569
935.512	58.8442
938.405	78.6123
941.298	25.6792
944.191	1.23291
947.083	32.0767
949.976	73.4907
952.869	30.2671
955.761	60.396
958.654	76.2427
961.547	44.2134
964.439	52.3945
967.332	91.6758
970.225	54.8672
973.117	129.2
976.01	101.236
978.903	117.261
981.796	123.996
984.688	41.3223
987.581	122.639
990.474	36.9907
993.366	100.409
996.259	68.6953
999.152	25.2236
1002.04	18.9111
1004.94	62.0913
1007.83	57.1504
1010.72	78.8101
1013.62	73.6689
1016.51	71.9795
1019.4	76.2305
1022.29	139.357
1025.19	133.672
1028.08	73.7578
1030.97	130.001
1033.86	42.1182
1036.76	47.4858
1039.65	82.0391
1042.54	64.4526
1045.43	103.165
1048.33	84.8584
1051.22	87.6509
1054.11	124.656
1057.01	73.4922
1059.9	19.3115
1062.79	51.7485
1065.68	34.5938
1068.58	11.0771
1071.47	31.8545
1074.36	72.2227
1077.26	72.7588
1080.15	30.7979
1083.04	54.2524
1085.93	23.3179
1088.83	14.6821
1091.72	40.98
1094.61	53.436
1097.5	47.6514
1100.4	25.2827
1103.29	8.63086
1106.18	14.1514
1109.07	85.9038
1111.97	36.6035
1114.86	44.4102
1117.75	24.3818
1120.64	44.9219
1123.54	95.0117
1126.43	0.435547
1129.32	12.1323
1132.22	57.709
1135.11	16.3208
1138	11.356
1140.89	37.9477
1143.79	43.5664
1146.68	70.5029
1149.57	80.7642
1152.46	2.36084
1155.36	102.221
1158.25	77.0606
1161.14	74.0244
1164.04	44.5889
1166.93	71.7388
1169.82	50.7793
1172.71	43.77
1175.61	54.6895
1178.5	38.0288
1181.39	24.4419
1184.29	60.6714
1187.18	107.512
1190.07	15.4414
1192.96	26.1382
1195.86	36.7041
1198.75	51.7871
1201.64	23.8613
1204.53	54.8687
1207.43	16.207
1210.32	61.8315
1213.21	48.3447
1216.1	46.0757
1219	0.03418
1221.89	70.9541
1224.78	7.62646
1227.67	46.1084
1230.57	39.2217
1233.46	2.46631
1236.35	27.9321
1239.25	5.7876
1242.14	76.7251
1245.03	17.1577
1247.92	72.7788
1250.82	22.7915
1253.71	34.855
1256.6	111.949
1259.49	81.7959
1262.39	9.21973
1265.28	23.7871
1268.17	29.04
1271.07	65.2466
1273.96	87.814
1276.85	78.6738
1279.74	30.2407
1282.64	75.2749
1285.53	71.4131
1288.42	1.24121
1291.32	30.5459
1294.21	73.9541
1297.1	85.6499
1299.99	54.604
1302.88	29.9043
1305.78	78.9551
1308.67	46.042
