Measurement: Raman, 785 nm, unoriented, Raman Data Processed
Mineral: Dwornikite
Rruff sample: R070379
Ideal chemistry: Ni^2+^S^6+^O_4_H_2_O
Locality: Lipovka Mine (Lipovskaya Mine; Lipovaya Mine), Lipovka pegmatite field, Rezh District, Central Urals, Urals Region, Russia
Source: Michael Scott
Description: Grayish green coating on acicular millerite
Raman shift (cm-1)	intensity
192.855	0
195.748	33.4036
198.64	0.991394
201.533	36.5598
204.426	15.2452
207.318	9.74036
210.211	35.9492
213.104	8.75385
215.996	35.4231
218.889	51.2705
221.782	36.4827
224.674	62.4637
227.567	70.7672
230.46	92.6973
233.353	107.553
236.245	130.063
239.138	166.799
242.031	168.907
244.923	239.778
247.816	413.764
250.709	447.491
253.601	241.728
256.494	104.515
259.387	58.3255
262.28	36.5917
265.172	8.29523
268.065	1.52698
270.958	7.82996
273.85	7.73059
276.743	5.03265
279.636	13.2987
282.529	2.90167
285.421	21.2054
288.314	55.8589
291.207	58.8807
294.099	90.6703
296.992	133.596
299.885	157.228
302.777	164.111
305.67	174.663
308.563	137.78
311.455	110.197
314.348	92.4043
317.241	60.2434
320.134	32.6956
323.026	26.8304
325.919	33.023
328.812	26.8782
331.704	18.5334
334.597	20.7082
337.49	43.2018
340.382	35.4688
343.275	41.3082
346.168	53.3208
349.061	61.8996
351.953	61.2293
354.846	55.3674
357.739	55.6746
360.631	32.6188
363.524	49.1269
366.417	13.1209
369.31	52.7535
372.202	92.4189
375.095	85.1301
377.988	125.01
380.88	104.026
383.773	108.313
386.666	79.3656
389.558	37.5861
392.451	10.4079
395.344	17.2334
398.236	10.6716
401.129	4.64111
404.022	0.81842
406.915	1.29981
409.807	16.3705
412.7	0.746338
415.593	10.324
418.485	5.56897
421.378	12.2801
424.271	25.3655
427.163	42.5361
430.056	13.1846
432.949	22.6275
435.842	52.5031
438.734	70.5659
441.627	79.7899
444.52	75.4826
447.412	113.463
450.305	122.848
453.198	124.13
456.091	139.868
458.983	136.748
461.876	123.025
464.769	120.587
467.661	120.854
470.554	104.284
473.447	89.6199
476.339	89.0565
479.232	79.9667
482.125	45.1976
485.017	47.016
487.91	28.7256
490.803	14.9778
493.696	44.8663
496.588	32.3652
499.481	58.2798
502.374	95.205
505.266	148.405
508.159	212.404
511.052	300.03
513.944	376.412
516.837	463.489
519.73	519.646
522.623	549.276
525.515	574.65
528.408	543.606
531.301	495.827
534.193	474.996
537.086	417.719
539.979	362.049
542.871	289.93
545.764	254.035
548.657	228.229
551.55	170.85
554.442	150.967
557.335	123.003
560.228	66.6827
563.12	72.1649
566.013	49.2817
568.906	7.90314
571.798	4.73529
574.691	5.74683
577.584	2.49414
580.477	5.80371
583.369	1.2326
586.262	2.96063
589.155	15.7139
592.047	5.37775
594.94	15.4266
597.833	14.2825
600.726	12.3624
603.618	11.8618
606.511	0.161804
609.404	2.73523
612.296	12.9786
615.189	2.22766
618.082	6.91626
620.974	35.68
623.867	26.2127
626.76	22.1134
629.653	25.2541
632.545	25.9832
635.438	30.2537
638.331	26.8397
641.223	21.2873
644.116	16.5112
647.009	19.6426
649.901	28.7565
652.794	4.39331
655.687	21.7772
658.58	19.1719
661.472	23.673
664.365	26.8727
667.258	21.0066
670.15	2.59003
673.043	14.8801
675.936	9.13489
678.828	24.0222
681.721	6.29962
684.614	33.009
687.506	20.7606
690.399	23.9554
693.292	10.8073
696.185	24.0235
699.077	16.2191
701.97	5.612
704.863	37.9733
707.755	30.7071
710.648	18.6595
713.541	24.1588
716.433	26.225
719.326	29.881
722.219	14.5809
725.112	35.209
728.004	11.5272
730.897	16.8099
733.79	28.5198
736.682	16.6534
739.575	4.63989
742.468	41.7617
745.361	11.9885
748.253	18.4915
751.146	1.91894
754.039	21.6728
756.931	50.0474
759.824	5.08508
762.717	16.7754
765.609	20.0783
768.502	23.0673
771.395	17.6827
774.288	5.31635
777.18	25.8541
780.073	21.8879
782.966	19.1354
785.858	10.7025
788.751	12.9981
791.644	32.6204
794.536	7.68835
797.429	11.6273
800.322	8.66089
803.215	27.9319
806.107	34.9177
809	23.6461
811.893	21.8705
814.785	32.647
817.678	15.3607
820.571	8.73419
823.463	23.2918
826.356	18.15
829.249	26.4299
832.141	34.8196
835.034	28.8225
837.927	34.2978
840.82	9.14862
843.712	12.4464
846.605	18.7853
849.498	33.1504
852.39	2.36536
855.283	0.996124
858.176	21.8996
861.068	26.0702
863.961	16.7191
866.854	37.1851
869.747	34.8049
872.639	25.713
875.532	32.1494
878.425	15.9631
881.317	19.7212
884.21	24.5008
887.103	11.1225
889.995	4.78519
892.888	29.2664
895.781	8.3887
898.674	4.51984
901.566	13.4967
904.459	18.7524
907.352	29.726
910.244	39.1503
913.137	22.7124
916.03	5.94266
918.923	9.48556
921.815	1.65329
924.708	24.7281
927.601	5.20078
930.493	22.7636
933.386	1.62482
936.279	21.3565
939.171	19.644
942.064	21.9722
944.957	15.318
947.85	5.73422
950.742	22.4488
953.635	16.0642
956.528	28.3048
959.42	38.523
962.313	30.3888
965.206	15.0579
968.098	20.6148
970.991	24.4634
973.884	18.8814
976.777	50.5737
979.669	95.9273
982.562	94.5022
985.455	84.858
988.347	55.8263
991.24	29.9309
994.133	24.8273
997.025	25.1695
999.918	24.909
1002.81	8.55936
1005.7	29.5971
1008.6	29.4735
1011.49	13.4445
1014.38	26.0573
1017.27	24.5479
1020.17	29.2724
1023.06	28.1642
1025.95	47.3448
1028.85	55.1923
1031.74	26.4141
1034.63	27.2952
1037.52	28.0591
1040.42	19.6523
1043.31	9.93799
1046.2	22.0558
1049.09	9.61441
1051.99	7.54529
1054.88	23.8647
1057.77	19.6259
1060.66	24.1386
1063.56	1.00742
1066.45	26.1445
1069.34	0.648499
1072.24	18.02
1075.13	11.6333
1078.02	28.9759
1080.91	29.2051
1083.81	14.7662
1086.7	33.1325
1089.59	17.0854
1092.48	10.4413
1095.38	8.24057
1098.27	27.4593
1101.16	29.0367
1104.06	32.5047
1106.95	34.5839
1109.84	16.2615
1112.73	4.71567
1115.63	29.014
1118.52	24.6356
1121.41	4.21741
1124.3	12.6551
1127.2	8.18365
1130.09	23.9029
1132.98	28.6146
1135.88	22.5879
1138.77	4.49442
1141.66	4.44098
1144.55	27.9824
1147.45	15.3819
1150.34	16.8815
1153.23	8.01242
1156.12	3.35059
1159.02	23.2025
1161.91	20.0389
1164.8	17.9039
1167.69	7.94406
1170.59	5.51361
1173.48	0.305542
1176.37	24.7705
1179.27	15.9123
1182.16	16.7029
1185.05	6.39194
1187.94	1.62891
1190.84	7.98257
1193.73	13.0458
1196.62	4.7814
1199.51	13.6365
1202.41	11.7413
1205.3	11.1779
1208.19	24.306
1211.09	1.40485
1213.98	13.9161
1216.87	5.95499
1219.76	3.26135
1222.66	0.854919
1225.55	34.1773
1228.44	0
