Measurement: Raman, 532 nm, unoriented, Raman Data Processed
Mineral: Dypingite
Rruff sample: R060758
Ideal chemistry: Mg_5_(CO_3_)_4_(OH)_2_5H_2_O
Locality: Snarum, Norway
Source: Michael Scott
Description: Globular aggregates of radially-divergent pearly white flaky crystals
Raman shift (cm-1)	intensity
165.877	0
168.77	3.84961
171.663	25.084
174.555	16.6133
177.448	62.3887
180.341	218.01
183.234	405.75
186.126	459.078
189.019	424.744
191.912	438.779
194.804	281.857
197.697	264.875
200.59	236.023
203.482	298.879
206.375	453.176
209.268	421.406
212.161	226.922
215.053	214.004
217.946	363.879
220.839	457.066
223.731	217.305
226.624	245.16
229.517	405.785
232.41	341.516
235.302	199.16
238.195	130.106
241.088	408.668
243.98	342.719
246.873	582.523
249.766	404.25
252.658	326.34
255.551	149.82
258.444	121.387
261.337	202.738
264.229	302.641
267.122	332.043
270.015	247.262
272.907	182.793
275.8	333.188
278.693	317.719
281.585	329.762
284.478	420.394
287.371	254.574
290.264	187.531
293.156	82.5352
296.049	141.348
298.942	45.0234
301.834	186.332
304.727	370.051
307.62	313.41
310.512	350.359
313.405	364.652
316.298	131.988
319.19	69.6875
322.083	15.2148
324.976	278.5
327.868	280.211
330.761	275.707
333.654	229.742
336.547	214.324
339.439	317.926
342.332	60.7969
345.225	74.3242
348.117	107.434
351.01	377.394
353.903	273.082
356.796	160.57
359.688	129.066
362.581	67.1758
365.474	39.5234
368.366	133.277
371.259	105.949
374.152	163.586
377.044	100.856
379.937	276.961
382.83	86.5781
385.723	170.199
388.615	229.266
391.508	313.277
394.401	80.3008
397.293	10.3008
400.186	34.043
403.079	137.379
405.971	90.3359
408.864	227.34
411.757	110.035
414.649	328.684
417.542	449.492
420.435	325.414
423.328	266.965
426.22	147.852
429.113	147.211
432.006	335.332
434.898	315.414
437.791	477.812
440.684	529.551
443.576	569.188
446.469	818.426
449.362	622.582
452.255	666.5
455.147	432.312
458.04	235.512
460.933	238.922
463.825	264.016
466.718	253.191
469.611	407.68
472.503	373.883
475.396	173.434
478.289	46.8555
481.182	107.375
484.074	422.07
486.967	408.504
489.86	167.703
492.752	61.457
495.645	16.2617
498.538	26.8203
501.43	4.03125
504.323	154.762
507.216	297.547
510.108	333.34
513.001	368.856
515.894	816.754
518.787	945.477
521.679	1187.72
524.572	1407.47
527.465	1539.23
530.357	1354.48
533.25	1259.57
536.143	900.57
539.035	712.371
541.928	940.82
544.821	882.703
547.714	775.176
550.606	494.746
553.499	426.246
556.392	186.176
559.284	56.8281
562.177	180.223
565.07	232.106
567.962	350.356
570.855	350.176
573.748	154.559
576.641	60.4492
579.533	50.3633
582.426	84.0859
585.319	126.035
588.211	215.324
591.104	100.352
593.997	260.625
596.889	65.1523
599.782	313.898
602.675	188.519
605.568	329.125
608.46	279.492
611.353	474.562
614.246	510.918
617.138	486.309
620.031	490.156
622.924	678.188
625.816	642.582
628.709	466.008
631.602	31.7656
634.495	36.0664
637.387	69.9219
640.28	98.7891
643.173	78.6875
646.065	35.4883
648.958	436.519
651.851	608.367
654.743	523.188
657.636	529.719
660.529	390.906
663.422	205.398
666.314	212.707
669.207	347.266
672.1	371.492
674.992	90.9219
677.885	149.18
680.778	250.496
683.67	343.059
686.563	484.723
689.456	320.664
692.348	358.738
695.241	426.738
698.134	291.582
701.027	363.012
703.919	243.594
706.812	113.699
709.705	18.0273
712.597	4.04688
715.49	252.406
718.383	463.434
721.275	262.137
724.168	385.004
727.061	329.137
729.954	267.336
732.846	289.383
735.739	318.953
738.632	237.734
741.524	439.688
744.417	469.391
747.31	440.031
750.202	462.914
753.095	134.016
755.988	238.453
758.881	234.648
761.773	68.1797
764.666	66.1172
767.559	176.934
770.451	369.871
773.344	301.723
776.237	84.8906
779.13	116.102
782.022	336.117
784.915	318.598
787.808	211.144
790.7	308.938
793.593	344.555
796.486	500.293
799.378	408.402
802.271	319.613
805.164	314.398
808.056	115.293
810.949	198.305
813.842	202.996
816.735	21.9609
819.627	4.05859
822.52	26.7656
825.413	291.121
828.305	245.41
831.198	162.074
834.091	233.68
836.983	129.848
839.876	137.191
842.769	192.644
845.662	360.57
848.554	456.777
851.447	179.797
854.34	15.582
857.232	64.0664
860.125	356.551
863.018	387.535
865.91	440.633
868.803	142.625
871.696	67.1055
874.588	189.34
877.481	150.68
880.374	248.223
883.266	262.301
886.159	426.09
889.052	602.41
891.945	563.481
894.837	869.668
897.73	978.074
900.623	421.137
903.515	425.793
906.408	308.453
909.301	257.34
912.193	144.836
915.086	137.332
917.979	41.4062
920.872	236.508
923.764	438.258
926.657	752.172
929.55	637.852
932.442	552.672
935.335	258.344
938.228	408.117
941.12	440.961
944.013	132.148
946.906	7.76562
949.799	4.84375
952.691	32.0859
955.584	121.695
958.477	185.344
961.369	43.3516
964.262	201.945
967.155	111.055
970.048	128.273
972.94	227.32
975.833	406.82
978.726	672.75
981.618	1141.81
984.511	1363.41
987.404	2172.14
990.296	2842.77
993.189	2152.98
996.082	806.938
998.975	359.914
1001.87	609.672
1004.76	321.477
1007.65	241.539
1010.54	162.445
1013.44	242.391
1016.33	292.289
1019.22	27.5234
1022.12	125.242
1025.01	502.258
1027.9	562.07
1030.79	205.844
1033.69	219.836
1036.58	309.312
1039.47	565.445
1042.37	243.969
1045.26	179.812
1048.15	168.664
1051.04	244.039
1053.94	504.203
1056.83	605.602
1059.72	601.93
1062.61	151.914
1065.51	55.8203
1068.4	14.9922
1071.29	2.53906
1074.18	257.414
1077.08	146.516
1079.97	13.2188
1082.86	173.766
1085.76	581.398
1088.65	437.289
1091.54	666.086
1094.43	570.438
1097.33	674.836
1100.22	815.672
1103.11	790.188
1106	721.172
1108.9	658.391
1111.79	372.242
1114.68	96.1016
1117.58	357.445
1120.47	24.5156
1123.36	86.1641
1126.25	207.297
1129.15	526.234
1132.04	789.789
1134.93	496.766
1137.82	543.805
1140.72	423.898
1143.61	509.102
1146.5	43.5312
1149.39	91.0234
1152.29	307.625
1155.18	411.492
1158.07	275.328
1160.97	295.812
1163.86	291.164
1166.75	50.9219
1169.64	30.9844
1172.54	305.984
1175.43	485.344
1178.32	575.07
1181.21	355.57
1184.11	592.422
1187	410.711
1189.89	166.727
1192.79	80.4219
1195.68	141.109
1198.57	69.1875
1201.46	18.0859
1204.36	111.234
1207.25	191.805
1210.14	194.781
1213.03	294.789
1215.93	106.266
1218.82	29.3828
1221.71	54.5234
1224.61	257.844
1227.5	151.891
1230.39	323.18
1233.28	403.57
1236.18	631.211
1239.07	286.484
1241.96	236.992
1244.85	400.258
1247.75	549.633
1250.64	357.75
1253.53	5.94531
