Measurement: Raman, 785 nm, unoriented, Raman Data Processed
Mineral: Dypingite
Rruff sample: R060758
Ideal chemistry: Mg_5_(CO_3_)_4_(OH)_2_5H_2_O
Locality: Snarum, Norway
Source: Michael Scott
Description: Globular aggregates of radially-divergent pearly white flaky crystals
Raman shift (cm-1)	intensity
189.506	0
192.399	0.560669
195.292	258.989
198.184	230.959
201.077	305.632
203.97	345.922
206.862	56.3909
209.755	108.633
212.648	8.26288
215.54	116.282
218.433	130.013
221.326	119.64
224.219	137.132
227.111	146.392
230.004	98.1669
232.897	152.949
235.789	181.158
238.682	214.41
241.575	239.83
244.467	117.808
247.36	129.148
250.253	110.341
253.146	177.709
256.038	181.933
258.931	194.173
261.824	221.625
264.716	250.156
267.609	106.684
270.502	72.2163
273.394	111.239
276.287	188.656
279.18	242.367
282.073	329.791
284.965	431.625
287.858	450.514
290.751	221.375
293.643	179.714
296.536	13.9609
299.429	82.1925
302.321	248.959
305.214	412.084
308.107	482.087
311	352.388
313.892	190.606
316.785	217.411
319.678	31.0385
322.57	107.901
325.463	296.545
328.356	307.187
331.248	299.569
334.141	259.685
337.034	165.937
339.927	74.454
342.819	73.5675
345.712	15.8289
348.605	172.344
351.497	224.534
354.39	420.997
357.283	226.067
360.175	37.967
363.068	41.8335
365.961	21.9999
368.853	265.088
371.746	278.912
374.639	323.521
377.532	211.259
380.424	157.121
383.317	171.381
386.21	45.3217
389.102	39.5015
391.995	121.248
394.888	145.918
397.78	152.004
400.673	125.202
403.566	0.803772
406.459	4.42688
409.351	6.45563
412.244	79.5547
415.137	63.3956
418.029	228.907
420.922	181.452
423.815	175.556
426.708	235.546
429.6	252.719
432.493	216.038
435.386	122.418
438.278	278.316
441.171	410.155
444.064	608.602
446.957	792.181
449.849	642.278
452.742	533.632
455.635	383.974
458.527	276.301
461.42	384.294
464.313	489.925
467.205	426.582
470.098	259.284
472.991	101.49
475.883	0.665955
478.776	1.40018
481.669	142.887
484.561	35.6116
487.454	99.1635
490.347	146.046
493.24	128.651
496.132	131.417
499.025	18.6674
501.918	132.257
504.81	188.347
507.703	135.873
510.596	337.585
513.489	546.088
516.381	719.684
519.274	981.643
522.167	1374.39
525.059	1468.17
527.952	1649.76
530.845	1640.07
533.737	1596.22
536.63	1560.62
539.523	1603.33
542.416	1514.93
545.308	1334.87
548.201	818.798
551.094	527.074
553.986	449.101
556.879	311.415
559.772	265.417
562.664	189.929
565.557	100.997
568.45	52.712
571.343	10.5182
574.235	31.2142
577.128	0.149343
580.021	37.7323
582.913	69.0108
585.806	10.2684
588.699	20.0821
591.591	13.7012
594.484	31.1323
597.377	20.8685
600.269	14.4428
603.162	32.8295
606.055	152.749
608.948	170.607
611.84	193.006
614.733	97.1245
617.626	170.836
620.518	180.289
623.411	192.065
626.304	194.759
629.196	86.8668
632.089	152.82
634.982	72.3056
637.875	64.3596
640.767	61.2551
643.66	46.2342
646.553	57.9719
649.445	67.8115
652.338	42.1174
655.231	64.8584
658.123	111.526
661.016	163.929
663.909	62.937
666.802	13.5009
669.694	27.9455
672.587	37.0894
675.48	111.502
678.372	96.8727
681.265	13.4812
684.158	35.1313
687.05	1.26174
689.943	6.70678
692.836	76.3342
695.729	150.347
698.621	11.3718
701.514	64.0829
704.407	132.336
707.299	11.1256
710.192	104.203
713.085	7.72325
715.977	84.8899
718.87	0.852196
721.763	26.2984
724.656	83.7987
727.548	85.1553
730.441	15.6766
733.334	32.1121
736.226	8.91061
739.119	36.1751
742.012	28.648
744.904	158.666
747.797	91.8836
750.69	89.5755
753.583	134.822
756.475	163.719
759.368	62.5953
762.261	62.4333
765.153	202.306
768.046	57.6204
770.939	37.9269
773.831	78.4376
776.724	105.231
779.617	27.1752
782.51	53.1193
785.402	44.9751
788.295	80.1699
791.188	95.2165
794.08	75.1208
796.973	65.7399
799.866	65.6595
802.758	46.76
805.651	1.96897
808.544	61.8907
811.437	40.0824
814.329	62.3129
817.222	14.149
820.115	90.3034
823.007	75.1981
825.9	37.3754
828.793	34.5717
831.685	76.5451
834.578	27.7769
837.471	122.741
840.364	66.6635
843.256	6.49632
846.149	62.3869
849.042	68.6423
851.934	9.78268
854.827	109.631
857.72	33.5957
860.612	19.3388
863.505	34.169
866.398	56.2469
869.291	37.4909
872.183	84.2538
875.076	60.1661
877.969	2.20026
880.861	0.058882
883.754	54.6162
886.647	36.9131
889.539	54.43
892.432	4.04896
895.325	4.75203
898.218	35.8582
901.11	5.36681
904.003	30.7473
906.896	4.12592
909.788	45.1901
912.681	52.0526
915.574	46.7365
918.466	49.9724
921.359	100.692
924.252	1.6277
927.145	40.3489
930.037	29.7688
932.93	51.5128
935.823	3.21042
938.715	2.35158
941.608	6.71386
944.501	8.74327
947.393	50.1093
950.286	11.6709
953.179	52.2862
956.072	54.1345
958.964	4.96474
961.857	43.6521
964.75	57.314
967.642	62.7012
970.535	116.775
973.428	122.638
976.32	287.313
979.213	337.028
982.106	706.776
984.999	1459.16
987.891	2882.78
990.784	4207.32
993.677	2304.95
996.569	674.207
999.462	271.958
1002.36	141.225
1005.25	100.228
1008.14	43.6193
1011.03	3.78968
1013.93	5.5657
1016.82	83.8861
1019.71	104.223
1022.6	71.1309
1025.5	18.2392
1028.39	86.4984
1031.28	32.0145
1034.17	15.0935
1037.07	7.75767
1039.96	21.9061
1042.85	7.57346
1045.74	8.0065
1048.64	83.5829
1051.53	30.3919
1054.42	85.1914
1057.32	101.314
1060.21	133.073
1063.1	43.0307
1065.99	67.8942
1068.89	26.3629
1071.78	64.2235
1074.67	86.1276
1077.57	125.565
1080.46	189.632
1083.35	213.963
1086.24	203.452
1089.14	241.817
1092.03	227.795
1094.92	252.073
1097.81	191.954
1100.71	300.819
1103.6	222.464
1106.49	206.03
1109.38	243.907
1112.28	168.436
1115.17	131.316
1118.06	142.128
1120.95	187.271
1123.85	145.407
1126.74	77.1528
1129.63	139.152
1132.53	39.8354
1135.42	98.2303
1138.31	18.2356
1141.2	41.5226
1144.1	13.5481
1146.99	29.5287
1149.88	84.7272
1152.78	22.0195
1155.67	6.33588
1158.56	59.0644
1161.45	63.2628
1164.35	6.68164
1167.24	20.8061
1170.13	48.2358
1173.02	30.6844
1175.92	1.77848
1178.81	35.569
1181.7	38.1775
1184.6	21.281
1187.49	68.347
1190.38	15.0581
1193.27	27.777
1196.17	56.0088
1199.06	7.18385
1201.95	1.24122
1204.84	24.6347
1207.74	74.5031
1210.63	81.7542
1213.52	3.22029
1216.41	82.4346
1219.31	13.1473
1222.2	38.0068
1225.09	3.98962
1227.98	52.7109
1230.88	99.2205
1233.77	49.5634
1236.66	34.0729
1239.56	59.6903
1242.45	0.764621
1245.34	58.0771
1248.23	55.3118
1251.13	29.1927
1254.02	3.68258
1256.91	74.072
1259.81	22.5133
1262.7	71.9187
1265.59	134.676
1268.48	18.6774
1271.38	43.2738
