Measurement: Raman, 785 nm, unoriented, Raman Data Processed
Mineral: Dypingite
Rruff sample: R070086
Ideal chemistry: Mg_5_(CO_3_)_4_(OH)_2_5H_2_O
Locality: Clear Creek, New Idria District, San Benito County, California, USA
Source: James Shigley
Description: Colorless acicular crystals forming spherical aggregates associated with colorless sprays of acicular artinite and green massive chrysotile
Raman shift (cm-1)	intensity
173.379	0
176.271	28.792
179.164	18.9524
182.057	79.72
184.949	113.067
187.842	99.5161
190.735	95.0478
193.627	133.668
196.52	130.068
199.413	204.204
202.306	244.901
205.198	224.912
208.091	214.395
210.984	169.87
213.876	143.462
216.769	153.947
219.662	220.384
222.555	197.736
225.447	189.375
228.34	220.03
231.233	185.757
234.125	185.273
237.018	164.964
239.911	187.89
242.804	210.715
245.696	217.711
248.589	171.935
251.482	178.77
254.374	172.126
257.267	145.052
260.16	124.559
263.052	154.449
265.945	130.929
268.838	91.8889
271.731	24.0647
274.623	59.6797
277.516	13.2898
280.409	6.66211
283.301	8.29883
286.194	31.7966
289.087	48.2341
291.979	36.0037
294.872	64.7583
297.765	30.7117
300.658	26.7263
303.55	32.5754
306.443	39.5991
309.336	67.5693
312.228	67.7481
315.121	64.1631
318.014	31.7446
320.906	79.6589
323.799	97.5117
326.692	50.105
329.584	89.8398
332.477	50.8435
335.37	22.4429
338.262	0.674072
341.155	28.6272
344.048	7.33032
346.941	38.7844
349.833	0.321045
352.726	25.4294
355.619	7.69531
358.511	28.3682
361.404	8.99097
364.297	23.1062
367.19	25.7964
370.082	2.66772
372.975	36.3384
375.868	30.105
378.76	49.9678
381.653	0.664551
384.546	48.8201
387.438	20.7895
390.331	22.8816
393.224	19.9219
396.116	31.8069
399.009	44.0066
401.902	51.6223
404.795	21.0596
407.687	15.8701
410.58	42.7131
413.473	48.9463
416.365	14.208
419.258	39.404
422.151	32.0823
425.043	56.0185
427.936	13.3481
430.829	37.3137
433.722	41.4228
436.614	32.8745
439.507	62.7783
442.4	3.71533
445.292	45.2205
448.185	1.29272
451.078	18.2734
453.971	51.0996
456.863	36.7602
459.756	41.9902
462.649	67.3008
465.541	66.4219
468.434	41.6096
471.327	51.166
474.219	50.2715
477.112	20.2185
480.005	6.97436
482.898	20.103
485.79	45.5891
488.683	13.6956
491.576	25.1668
494.468	65.7415
497.361	30.2566
500.254	31.8938
503.147	27.6013
506.039	17.1401
508.932	10.1006
511.825	3.71045
514.717	40.4153
517.61	19.3503
520.503	18.9746
523.395	15.3901
526.288	46.1352
529.181	11.2571
532.073	9.76245
534.966	28.439
537.859	61.6482
540.752	36.8115
543.644	39.8113
546.537	46.707
549.43	23.9627
552.322	28.6384
555.215	38.1069
558.108	28.7063
561	21.302
563.893	29.4536
566.786	45.5662
569.678	37.2556
572.571	1.0332
575.464	49.5161
578.357	7.31226
581.249	35.1306
584.142	28.0466
587.035	58.085
589.927	37.8232
592.82	70.2222
595.713	28.988
598.606	31.7402
601.498	58.2046
604.391	83.8884
607.284	28.4109
610.176	31.8054
613.069	16.5991
615.962	8.3374
618.854	2.1311
621.747	20.3604
624.64	28.2161
627.533	14.721
630.425	20.4507
633.318	22.8901
636.211	11.7676
639.103	36.7961
641.996	41.5188
644.889	17.26
647.781	9.28955
650.674	16.8821
653.567	50.7375
656.46	38.1897
659.352	73.9678
662.245	27.0723
665.138	40.6277
668.03	24.4072
670.923	25.3843
673.816	46.7373
676.708	58.4087
679.601	4.97827
682.494	13.6809
685.386	37.6977
688.279	9.54785
691.172	24.5156
694.065	39.2165
696.957	71.8274
699.85	77.3584
702.743	94.1086
705.635	96.4028
708.528	106.24
711.421	118.498
714.313	81.4827
717.206	109.624
720.099	129.565
722.992	121.259
725.884	123.978
728.777	126.827
731.67	134.607
734.562	109.257
737.455	92.4746
740.348	82.5354
743.24	42.6929
746.133	76.5666
749.026	86.1899
751.919	50.6677
754.811	112.773
757.704	93.9104
760.597	99.8967
763.489	85.2422
766.382	48.4714
769.275	55.4177
772.168	38.2185
775.06	43.5874
777.953	22.1382
780.846	31.1064
783.738	51.2839
786.631	39.647
789.524	35.1995
792.416	71.3789
795.309	7.46826
798.202	9.21191
801.095	11.1636
803.987	26.5024
806.88	19.1606
809.773	42.7678
812.665	29.5652
815.558	34.696
818.451	31.6121
821.343	13.7307
824.236	47.1245
827.129	36.261
830.021	27.9321
832.914	23.8186
835.807	58.7053
838.7	40.1438
841.592	18.9031
844.485	32.2593
847.378	11.1086
850.27	15.7559
853.163	40.5701
856.056	31.4946
858.948	32.6648
861.841	74.9172
864.734	11.6729
867.627	46.877
870.519	47.3716
873.412	61.0781
876.305	47.0903
879.197	0.368652
882.09	22.7588
884.983	52.4863
887.875	6.27832
890.768	29.3508
893.661	27.2324
896.554	52.3811
899.446	39.4514
902.339	33.4055
905.232	2.39893
908.125	5.17773
911.017	16.5112
913.91	24.4814
916.803	9.79834
919.695	37.5449
922.588	9.33032
925.481	28.939
928.373	30.3286
931.266	10.4355
934.159	31.4697
937.052	23.6399
939.944	23.5369
942.837	29.3395
945.73	26.9504
948.622	27.1982
951.515	25.1303
954.408	19.726
957.3	30.9496
960.193	10.9933
963.086	13.3928
965.979	58.6333
968.871	33.5745
971.764	2.82861
974.657	2.90417
977.549	41.1356
980.442	65.9376
983.335	20.665
986.227	22.1769
989.12	51.6902
992.013	14.8843
994.905	43.0846
997.798	47.1312
1000.69	41.5293
1003.58	43.7645
1006.48	13.1517
1009.37	6.56628
1012.26	24.6348
1015.15	57.7308
1018.05	15.9519
1020.94	24.5094
1023.83	27.3469
1026.72	8.1311
1029.62	24.7804
1032.51	8.34155
1035.4	10.4056
1038.3	20.8492
1041.19	35.6365
1044.08	19.3539
1046.97	31.9885
1049.87	4.28113
1052.76	21.9933
1055.65	32.6938
1058.55	27.484
1061.44	4.41602
1064.33	38.1483
1067.22	47.9606
1070.12	20.7194
1073.01	53.5104
1075.9	57.2341
1078.79	96.2506
1081.69	76.0444
1084.58	158.742
1087.47	183.773
1090.37	191.609
1093.26	217.462
1096.15	262.81
1099.04	254.994
1101.93	303.322
1104.83	379.391
1107.72	492.847
1110.61	721.629
1113.51	1028.48
1116.4	1528.88
1119.29	2031.34
1122.18	1953.47
1125.08	1341.52
1127.97	739.473
1130.86	334.729
1133.76	197.221
1136.65	118.463
1139.54	39.1831
1142.43	51.759
1145.33	36.0874
1148.22	51.3881
1151.11	51.7991
1154	59.2036
1156.9	36.1071
1159.79	24.4004
1162.68	38.1998
1165.58	10.4819
1168.47	38.5892
1171.36	4.58887
1174.25	25.5745
1177.15	7.80969
1180.04	12.843
1182.93	1.30872
1185.82	10.2721
1188.72	22.6685
1191.61	12.7554
1194.5	0.048706
1197.39	27.9042
1200.29	72.1385
1203.18	2.29565
1206.07	35.3539
1208.96	19.53
1211.86	58.2258
1214.75	42.0204
1217.64	24.7253
1220.54	38.4029
1223.43	61.3925
1226.32	3.92444
1229.21	25.1713
1232.11	52.7565
1235	28.942
1237.89	3.87817
1240.79	39.8344
1243.68	11.5655
