Measurement: Raman, 532 nm, unoriented, Raman Data Processed
Mineral: Dypingite
Rruff sample: R070086
Ideal chemistry: Mg_5_(CO_3_)_4_(OH)_2_5H_2_O
Locality: Clear Creek, New Idria District, San Benito County, California, USA
Source: James Shigley
Description: Colorless acicular crystals forming spherical aggregates associated with colorless sprays of acicular artinite and green massive chrysotile
Raman shift (cm-1)	intensity
159.823	0
163.198	117.853
166.573	262.022
169.947	393.107
173.322	438.791
176.697	374.297
180.072	480.945
183.447	554.402
186.821	595.947
190.196	587.781
193.571	706.098
196.946	529.393
200.321	646.869
203.696	665.576
207.07	699.615
210.445	561.697
213.82	649.756
217.195	554.207
220.57	597.168
223.945	499.732
227.319	570.924
230.694	435.777
234.069	435.885
237.444	386.103
240.819	514.309
244.193	410.76
247.568	401.049
250.943	473.58
254.318	371.752
257.693	280.373
261.067	292.092
264.442	221.519
267.817	159.455
271.192	211.027
274.567	67.5547
277.942	47.7891
281.316	23.709
284.691	10.4395
288.066	34.9121
291.441	130.363
294.816	10.2715
298.19	4.55664
301.565	42.3184
304.94	25.0527
308.315	75.7969
311.69	192.92
315.065	135.613
318.439	139.41
321.814	96.1465
325.189	192.883
328.564	176.227
331.939	138.252
335.313	21.4316
338.688	70.0273
342.063	74.4824
345.438	70.3477
348.813	87.6211
352.188	55.0508
355.562	74.9805
358.937	6.35938
362.312	76.418
365.687	105.769
369.062	124.574
372.437	128.422
375.811	22.6211
379.186	114.188
382.561	79.2891
385.936	131.644
389.31	66.2773
392.685	158.809
396.06	173.785
399.435	174.688
402.81	226.484
406.185	42.5352
409.559	72.0352
412.934	51.8828
416.309	131.738
419.684	108.887
423.059	139.574
426.434	138.734
429.808	182.32
433.183	212.332
436.558	194.777
439.933	95.9102
443.308	160.148
446.683	46.4297
450.057	160.438
453.432	220.918
456.807	311.238
460.182	316.316
463.557	254.027
466.931	210.039
470.306	100.496
473.681	159.613
477.056	68.1602
480.431	102.195
483.805	76.1133
487.18	130.023
490.555	54.8906
493.93	174.781
497.305	137.281
500.68	132.383
504.054	52.9102
507.429	147.469
510.804	241.844
514.179	95.2852
517.554	128.809
520.928	227.992
524.303	218.481
527.678	184.531
531.053	82.9961
534.428	111.617
537.803	100.519
541.177	48.7969
544.552	24.8359
547.927	62.1953
551.302	91.6953
554.677	19.0352
558.052	119.594
561.426	89.2188
564.801	53.5078
568.176	123.016
571.551	51.2188
574.926	51.9961
578.3	22.332
581.675	40.4062
585.05	84.9492
588.425	153.324
591.8	37.082
595.174	108.148
598.549	228.945
601.924	22.5742
605.299	51.1016
608.674	78.4453
612.048	8.55469
615.423	179.203
618.798	43.0938
622.173	26.7148
625.548	83.4688
628.923	118.195
632.297	300.176
635.672	260.402
639.047	278.527
642.422	320.082
645.797	193.527
649.172	280.059
652.546	316.617
655.921	300.484
659.296	397.316
662.671	265.184
666.046	277.519
669.42	251.699
672.795	377.715
676.17	206.34
679.545	358.543
682.92	202.789
686.294	183.883
689.669	152.742
693.044	62.7148
696.419	275.258
699.794	83.2539
703.169	199.492
706.543	169.867
709.918	240.082
713.293	62.1133
716.668	342.902
720.043	298.695
723.418	146.477
726.792	196.883
730.167	280.152
733.542	305.035
736.917	78
740.292	73.3828
743.666	163.481
747.041	28.6953
750.416	185.527
753.791	365.723
757.166	211.711
760.54	82.3125
763.915	238.762
767.29	188.262
770.665	28.9727
774.04	32.9961
777.415	143.758
780.789	5.69531
784.164	160.961
787.539	131.809
790.914	115.465
794.289	6.77734
797.663	41.8594
801.038	242.379
804.413	19.4492
807.788	258.703
811.163	77.3359
814.538	132.629
817.912	91.7461
821.287	178.637
824.662	117.117
828.037	122.598
831.412	62.4375
834.787	255.727
838.161	129.91
841.536	29.0352
844.911	174.348
848.286	418.801
851.661	141.086
855.035	91.3633
858.41	269.473
861.785	133.656
865.16	44.0977
868.535	273.848
871.909	70.4609
875.284	189.477
878.659	33.6016
882.034	341.019
885.409	182.699
888.784	157.816
892.158	55.7305
895.533	193.281
898.908	126.481
902.283	337.344
905.658	285.859
909.033	233.309
912.407	113.703
915.782	341.352
919.157	225.34
922.532	341.738
925.907	145.519
929.281	23.5
932.656	149.352
936.031	219.992
939.406	13.3203
942.781	201.531
946.155	104.289
949.53	154.758
952.905	19.6172
956.28	63.9141
959.655	421.531
963.029	84.7031
966.404	49.1172
969.779	16.8516
973.154	222.438
976.529	87.7812
979.904	267.281
983.279	342.109
986.653	214.539
990.028	281.328
993.403	245.289
996.778	203.711
1000.15	82.7109
1003.53	210.312
1006.9	285.461
1010.28	258.516
1013.65	147.977
1017.03	295.203
1020.4	285.508
1023.78	245.852
1027.15	270.836
1030.53	70.9141
1033.9	118.211
1037.28	51.5703
1040.65	34.3516
1044.03	89.5391
1047.4	172.156
1050.78	256.172
1054.15	144.102
1057.52	73.5703
1060.9	9.78125
1064.27	85.5
1067.65	143.648
1071.02	210.648
1074.4	380.75
1077.77	327.43
1081.15	436.953
1084.52	395.773
1087.9	668.797
1091.27	792.891
1094.65	962.5
1098.02	990.695
1101.4	1046.53
1104.77	1312.65
1108.15	1935.44
1111.52	3127.34
1114.9	4956.36
1118.27	6212.98
1121.65	6196.25
1125.02	4000.86
1128.4	2183.25
1131.77	818.68
1135.14	441.109
1138.52	389.062
1141.89	288.336
1145.27	119.234
1148.64	223.859
1152.02	19.8359
1155.39	85.1172
1158.77	77.1328
1162.14	127.734
1165.52	245.531
1168.89	207.984
1172.27	118.219
1175.64	126.68
1179.02	51.6016
1182.39	51.0469
1185.77	184.219
1189.14	216.453
1192.52	286.203
1195.89	251.797
1199.27	167.656
1202.64	31.3359
1206.02	97.7031
1209.39	113.727
1212.77	95.6953
1216.14	163.727
1219.52	294.008
1222.89	68.0625
1226.27	181.102
1229.64	205.82
1233.02	101.102
1236.39	215.836
1239.77	73.5
1243.14	100.133
1246.51	311.18
1249.89	287.469
1253.26	206.234
1256.64	394.734
1260.01	174.375
1263.39	362.508
1266.76	187.008
1270.14	285.297
1273.51	324.43
1276.89	365.477
1280.26	303.938
1283.64	382.922
1287.01	438.438
1290.39	439.305
1293.76	243.602
1297.14	43.6406
1300.51	194.602
1303.89	211.141
1307.26	12.75
1310.64	295.461
1314.01	160.094
1317.38	0
