Measurement: Raman, 532 nm, unoriented, Raman Data Processed
Mineral: Eastonite
Rruff sample: R100078
Ideal chemistry: KAlMg_2_(Si_2_Al_2_)O_10_(OH)_2_
Locality: C.K. Williams & Co. quarry, Northampton County, Pennsylvania, USA
Source: Jeff Weissman
Description: Yellowish-green platy
Raman shift (cm-1)	intensity
173.898	0
176.791	1.55615
179.684	40.1626
182.577	131.317
185.469	299.252
188.362	473.844
191.255	717.194
194.147	795.148
197.04	506.616
199.933	248.898
202.825	159.714
205.718	117.145
208.611	87.4419
211.504	65.6289
214.396	52.3926
217.289	76.6113
220.182	78.854
223.074	87.8359
225.967	81.8306
228.86	121.061
231.752	138.605
234.645	137.78
237.538	114.442
240.43	58.9155
243.323	8.354
246.216	1.97217
249.109	3.11279
252.001	0.374512
254.894	7.98535
257.787	1.04444
260.679	11.7095
263.572	4.70264
266.465	29.1963
269.358	49.4678
272.25	35.0737
275.143	58.001
278.036	62.6641
280.928	81.6768
283.821	40.3286
286.714	47.207
289.606	39.6855
292.499	23.7017
295.392	1.67529
298.284	9.11523
301.177	16.1504
304.07	10.624
306.963	12.3071
309.855	8.86328
312.748	1.88916
315.641	12.1431
318.533	71.5903
321.426	87.605
324.319	111.894
327.212	127.176
330.104	158.648
332.997	177.342
335.89	241.453
338.782	273.934
341.675	333.997
344.568	347.926
347.46	352.96
350.353	377.498
353.246	382.839
356.139	368.098
359.031	293.844
361.924	287.139
364.817	253.234
367.709	237.286
370.602	178.15
373.495	189.708
376.387	217.652
379.28	304.995
382.173	389.838
385.065	465.606
387.958	550.968
390.851	703.041
393.744	818.243
396.636	626.084
399.529	239.327
402.422	85.9648
405.314	60.9502
408.207	39.165
411.1	41.8174
413.993	58.6904
416.885	43.8193
419.778	23.7666
422.671	32.4395
425.563	35.7002
428.456	16.126
431.349	23.6152
434.241	39.6035
437.134	37.335
440.027	28.3555
442.92	8.16992
445.812	15.9971
448.705	5.84277
451.598	5.55859
454.49	0.423828
457.383	9.87012
460.276	35.0059
463.168	24.2959
466.061	26.7559
468.954	4.54297
471.846	20.3301
474.739	22.6641
477.632	9.37695
480.525	23.1104
483.417	30.5088
486.31	5.05566
489.203	12.6455
492.095	14.2266
494.988	35.3467
497.881	37.9746
500.774	56.3603
503.666	54.71
506.559	35.2324
509.452	27.123
512.344	19.666
515.237	17.9863
518.13	9.16602
521.022	21.6377
523.915	30.6934
526.808	38.9639
529.701	15.627
532.593	32.8506
535.486	45.7549
538.379	33.1875
541.271	32.5234
544.164	17.4062
547.057	6.03809
549.949	30.4629
552.842	13.084
555.735	5.52832
558.628	15.751
561.52	11.5508
564.413	11.5176
567.306	14.6016
570.198	18.6035
573.091	0.639648
575.984	18.3408
578.876	23.4658
581.769	0.483398
584.662	22.2617
587.554	49.6426
590.447	28.6113
593.34	27.3018
596.232	9.22949
599.125	7.72559
602.018	4.02148
604.911	25.002
607.803	48.7344
610.696	49.3779
613.589	46.7168
616.481	40.1553
619.374	41.6367
622.267	25.7236
625.159	43.3916
628.052	46.4111
630.945	61.3828
633.838	76.5439
636.73	85.1631
639.623	82.6992
642.516	71.8008
645.408	94.4961
648.301	125.769
651.194	164.458
654.087	205.18
656.979	206.095
659.872	259.316
662.765	318.462
665.657	382.604
668.55	485.237
671.443	662.677
674.335	851.569
677.228	1063.69
680.121	1220.71
683.014	1338.73
685.906	1353.72
688.799	1357.82
691.692	1251.4
694.584	974.562
697.477	683.052
700.37	495.09
703.263	381.289
706.155	334.462
709.048	337.599
711.941	329.709
714.833	231.659
717.726	129.754
720.619	69.3603
723.511	48.5781
726.404	42.209
729.297	41.8027
732.189	2.63184
735.082	17.3584
737.975	5.30859
740.868	3.31348
743.76	15.3086
746.653	1.40723
749.546	19.668
752.438	10.9196
755.331	7.46777
758.224	10.8525
761.116	15.5977
764.009	46.1846
766.902	46.0088
769.795	32.7783
772.687	38.5205
775.58	32.3291
778.473	16.2256
781.365	21.7324
784.258	17.6025
787.151	27.8711
790.043	35.7578
792.936	46.793
795.829	28.1152
798.722	28.082
801.614	20.6699
804.507	7.73828
807.4	13.1699
810.292	6.78125
813.185	6.80469
816.078	31.1387
818.971	32.1357
821.863	50.9346
824.756	50.6406
827.649	53.4268
830.541	57.5498
833.434	45.1514
836.327	27.9639
839.219	7.31152
842.112	19.7344
845.005	30.5684
847.898	22.0352
850.79	28.6855
853.683	16.0479
856.576	16.9756
859.468	20.3359
862.361	43.5088
865.254	19.7236
868.146	11.4873
871.039	24.8271
873.932	50.1103
876.824	31.792
879.717	22.9697
882.61	8.68848
885.503	1.78125
888.395	21.3418
891.288	9.66406
894.181	26.0908
897.073	32.7041
899.966	34.1397
902.859	36.5137
905.751	37.2949
908.644	35.7529
911.537	12.4287
914.43	3.6709
917.322	49.7666
920.215	64.0068
923.108	45.667
926	39.0469
928.893	49.0361
931.786	20.0908
934.678	21.3535
937.571	6.86133
940.464	20.6035
943.357	4.9707
946.249	26.5537
949.142	11.1582
952.035	27.6543
954.927	44.0381
957.82	53.0996
960.713	30.2686
963.606	25.0166
966.498	2.69531
969.391	19.0371
972.284	8.41699
975.176	29.1016
978.069	63.668
980.962	56.8174
983.854	52.0801
986.747	51.2891
989.64	58.6133
992.533	46.7315
995.425	10.1377
998.318	4.62598
1001.21	14.6836
1004.1	2.96387
1007	27.5537
1009.89	32.0361
1012.78	27.1562
1015.67	27.9199
1018.57	29.0664
1021.46	53.1963
1024.35	36.3975
1027.24	56.4775
1030.14	66.6865
1033.03	89.3994
1035.92	123.733
1038.82	89.2461
1041.71	45.2324
1044.6	40.7705
1047.49	20.2119
1050.39	20.2666
1053.28	43.9688
1056.17	45.5234
1059.07	24.3037
1061.96	7.71191
1064.85	14.8818
1067.74	4.8291
1070.63	31.9082
1073.53	32.8867
1076.42	77.0215
1079.31	87.1992
1082.21	117.902
1085.1	79.46
1087.99	50.9297
1090.88	60.8975
1093.78	84.1025
1096.67	53.7812
1099.56	60.0986
1102.45	70.8555
1105.35	69.916
1108.24	61.5147
1111.13	48.2783
1114.03	19.3252
1116.92	18.5342
1119.81	20.4404
1122.7	24.4941
1125.6	5.92969
1128.49	8.62598
1131.38	8.50391
1134.28	5.39062
1137.17	11.0947
1140.06	25.7539
1142.95	3.10156
1145.85	7.55859
1148.74	16.1719
1151.63	15.3555
1154.52	43.6074
1157.42	48.2158
1160.31	19.2676
1163.2	11.3027
1166.09	20.2998
1168.99	32.0498
1171.88	45.0566
1174.77	35.9688
1177.66	20.6035
1180.56	3.36719
1183.45	25.4961
1186.34	24.8203
1189.24	29.8801
1192.13	25.7441
1195.02	18.7451
1197.91	47.792
1200.81	56.5781
1203.7	22.6904
1206.59	36.0537
1209.48	66.6074
1212.38	83.3066
1215.27	62.874
1218.16	41.6318
1221.06	31.4521
1223.95	38.2559
1226.84	26.3408
1229.73	32.3545
1232.63	38.0195
1235.52	44.8037
1238.41	23.3477
1241.31	24.6387
1244.2	12.8789
1247.09	25.1328
1249.98	44.9668
1252.88	53.0986
1255.77	44.1016
1258.66	42.4092
1261.55	25.5938
1264.45	23.5693
1267.34	29.9082
1270.23	36.456
1273.12	46.0596
1276.02	14.0938
1278.91	0.169922
1281.8	10.1035
1284.69	1.21484
1287.59	13.1189
1290.48	4.62891
1293.37	2.7334
1296.27	40.0029
1299.16	64.5098
1302.05	36.9219
