Measurement: Raman, 785 nm, unoriented, Raman Data Processed
Mineral: Edgarite
Rruff sample: R060850
Ideal chemistry: Fe^3+^Nb^3+^_3_S^2-^_6_
Locality: Kukisvumchorr Mountain, Khibina massif, Kola, Russia
Source: Michael Scott
Description: Dark gray coating on pyrrhotite
Raman shift (cm-1)	intensity
196.256	0
199.148	20.199
202.041	37.0776
204.934	11.8023
207.826	15.0095
210.719	96.605
213.612	176.451
216.504	220.887
219.397	346.493
222.29	436.008
225.183	395.577
228.075	184.199
230.968	81.4324
233.861	43.3635
236.753	28.9902
239.646	9.65894
242.539	26.3154
245.431	59.5383
248.324	5.72241
251.217	17.0356
254.109	11.2156
257.002	105.787
259.895	121.684
262.788	142.815
265.68	166.981
268.573	205.513
271.466	216.769
274.358	305.469
277.251	338.335
280.144	432.216
283.036	473.479
285.929	505.581
288.822	463.068
291.715	433.826
294.607	519.338
297.5	602.668
300.393	665.552
303.285	707.539
306.178	767.54
309.071	805.727
311.964	825.794
314.856	803.111
317.749	816.39
320.642	805.437
323.534	753.162
326.427	786.841
329.32	727.425
332.212	739.137
335.105	919.629
337.998	1193.58
340.891	1498.53
343.783	1178.51
346.676	697.501
349.569	625.024
352.461	366.269
355.354	317.109
358.247	329.698
361.139	492.433
364.032	814.626
366.925	1443.71
369.818	2371.03
372.71	3413.45
375.603	4470.71
378.496	4772.09
381.388	3800.8
384.281	2376.22
387.174	1261.8
390.067	693.522
392.959	435.5
395.852	256.784
398.745	149.383
401.637	78.4321
404.53	76.0483
407.423	9.35107
410.315	69.606
413.208	31.8154
416.101	36.4605
418.993	33.2798
421.886	8.3457
424.779	2.55859
427.672	0.329102
430.564	12.9326
433.457	15.6484
436.35	20.6548
439.242	22.7007
442.135	93.582
445.028	80.3745
447.921	9.91846
450.813	40.8999
453.706	57.7715
456.599	57.2559
459.491	72.6538
462.384	102.206
465.277	117.461
468.169	33.9966
471.062	74.0254
473.955	44.2598
476.848	44.1489
479.74	78.5515
482.633	74.7324
485.526	36.9729
488.418	101.221
491.311	70.8652
494.204	57.3745
497.096	68.2954
499.989	23.8157
502.882	22.8154
505.774	37.231
508.667	58.531
511.56	82.9673
514.453	49.7598
517.345	63.773
520.238	50.0605
523.131	91.2512
526.023	18.3523
528.916	51.4395
531.809	55.4036
534.702	3.66724
537.594	10.7461
540.487	37.7356
543.38	58.4265
546.272	26.9507
549.165	4.30371
552.058	60.5251
554.95	63.4219
557.843	46.5273
560.736	75.2971
563.629	48.1611
566.521	32.5061
569.414	15.4231
572.307	52.9539
575.199	14.9102
578.092	35.0669
580.985	5.50195
583.877	64.95
586.77	62.0303
589.663	69.4346
592.556	81.2236
595.448	23.6902
598.341	69.7515
601.234	53.511
604.126	68.5347
607.019	18.6079
609.912	94.0425
612.804	67.1472
615.697	1.53613
618.59	22.5427
621.482	66.7014
624.375	107.443
627.268	51.5657
630.161	53.1611
633.053	16.3984
635.946	52.3543
638.839	56.8206
641.731	45.4099
644.624	8.37549
647.517	53.7727
650.409	46.489
653.302	31.7363
656.195	31.0171
659.088	62.5464
661.98	3.38452
664.873	10.8904
667.766	31.0176
670.658	50.5972
673.551	60.241
676.444	95.7285
679.337	84.2964
682.229	53.936
685.122	58.4778
688.015	79.1877
690.907	96.8286
693.8	38.7422
696.693	88.5405
699.585	86.9282
702.478	56.5449
705.371	15.5344
708.264	22.4829
711.156	56.8376
714.049	11.272
716.942	46.562
719.834	50.521
722.727	67.4534
725.62	8.4458
728.513	42.574
731.405	63.6501
734.298	0.560547
737.191	20.283
740.083	51.9873
742.976	97.5193
745.869	52.8613
748.761	58.4219
751.654	92.4243
754.547	66.3884
757.439	42.9551
760.332	65.7173
763.225	48.3318
766.118	45.8962
769.01	53.6323
771.903	68.0007
774.796	84.7656
777.688	19.7183
780.581	64.3665
783.474	33.8091
786.366	60.0427
789.259	115.913
792.152	130.651
795.045	106.89
797.937	80.7415
800.83	17.2029
803.723	36.5745
806.615	50.0012
809.508	37.0273
812.401	102.461
815.293	51.116
818.186	65.3752
821.079	14.5185
823.972	28.6394
826.864	38.8247
829.757	44.4412
832.65	29.9141
835.542	65.0347
838.435	18.3284
841.328	44.5952
844.221	62.7908
847.113	60.502
850.006	60.2764
852.899	90.0444
855.791	50.8638
858.684	116.055
861.577	37.6094
864.469	20.523
867.362	51.0735
870.255	46.6809
873.148	22.3013
876.04	76.1677
878.933	68.2024
881.826	44.8545
884.718	77.6724
887.611	17.7964
890.504	45.9238
893.396	12.0947
896.289	5.87598
899.182	57.197
902.074	63.0911
904.967	86.3284
907.86	25.6482
910.753	38.5581
913.645	25.9697
916.538	33.6301
919.431	65.2661
922.323	41.3257
925.216	43.719
928.109	81.4744
931.001	3.79394
933.894	68.971
936.787	103.103
939.68	100.018
942.572	61.0012
945.465	40.9883
948.358	48.3687
951.25	65.7036
954.143	94.5794
957.036	69.783
959.928	46.6585
962.821	139.073
965.714	114.513
968.607	72.4043
971.499	76.4541
974.392	98.2351
977.285	29.321
980.177	39.0523
983.07	76.5803
985.963	46.8245
988.856	41.1575
991.748	24.5581
994.641	5.93896
997.534	48.8257
1000.43	78.27
1003.32	30.0698
1006.21	110.742
1009.1	79.552
1012	21.1609
1014.89	56.4507
1017.78	84.7466
1020.67	19.1025
1023.57	1.39526
1026.46	9.94678
1029.35	31.9627
1032.25	62.5256
1035.14	85.1711
1038.03	54.7986
1040.92	44.0288
1043.82	34.5305
1046.71	83.7275
1049.6	76.9407
1052.49	40.6272
1055.39	43.7986
1058.28	54.4294
1061.17	48.0591
1064.07	16.3345
1066.96	44.5076
1069.85	35.0842
1072.74	59.4312
1075.64	21.3735
1078.53	45.167
1081.42	48.8687
1084.32	34.8372
1087.21	42.7065
1090.1	48.5359
1092.99	78.811
1095.88	104.538
1098.78	47.7017
1101.67	79.1196
1104.56	55.6577
1107.46	1.40601
1110.35	14.9287
1113.24	44.2778
1116.13	47.0767
1119.03	52.282
1121.92	57.0874
1124.81	7.49634
1127.7	39.2773
1130.6	69.5835
1133.49	58.6077
1136.38	14.6814
1139.28	55.8945
1142.17	49.0137
1145.06	3.82397
1147.95	41.3862
1150.85	64.4443
1153.74	1.84131
1156.63	16.5215
1159.53	29.3957
1162.42	41.6582
1165.31	79.0007
1168.2	32.9668
1171.1	37.269
1173.99	64.3415
1176.88	45.6738
1179.77	63.4109
1182.67	61.6951
1185.56	44.7283
1188.45	33.8787
1191.35	5.86816
1194.24	55.0669
1197.13	70.8086
1200.02	77.5886
1202.91	15.0955
1205.81	69.8
1208.7	47.3159
1211.59	76.0159
1214.49	104.846
1217.38	63.6697
1220.27	106.562
1223.16	54.1121
1226.06	83.6069
1228.95	117.011
1231.84	83.8269
1234.73	97.8894
1237.63	27.7969
1240.52	39.919
1243.41	83.2119
1246.31	60.9187
1249.2	31.8733
1252.09	82.2371
1254.98	37.2234
1257.88	13.4937
1260.77	92.575
1263.66	0.976807
