Measurement: Raman, 532 nm, unoriented, Raman Data Processed
Mineral: Edgarite
Rruff sample: R060850
Ideal chemistry: Fe^3+^Nb^3+^_3_S^2-^_6_
Locality: Kukisvumchorr Mountain, Khibina massif, Kola, Russia
Source: Michael Scott
Description: Dark gray coating on pyrrhotite
Raman shift (cm-1)	intensity
231.927	18.6964
234.82	7.17059
237.713	19.3054
240.606	0.266357
243.498	21.5908
246.391	14.7954
249.284	34.5309
252.176	40.0309
255.069	70.751
257.962	107.733
260.854	124.077
263.747	155.088
266.64	152.856
269.532	182.07
272.425	205.538
275.318	220.778
278.211	251.79
281.103	259.919
283.996	299.565
286.889	292.962
289.781	266.348
292.674	330.51
295.567	325.377
298.459	335.487
301.352	323.951
304.245	351.679
307.137	385.301
310.03	378.432
312.923	367.213
315.816	363.483
318.708	343.857
321.601	309.752
324.494	312.38
327.386	345.748
330.279	336.622
333.172	372.885
336.065	433.757
338.957	564.688
341.85	788.788
344.743	954.928
347.635	1059.38
350.528	899.65
353.421	527.873
356.313	286.578
359.206	220.482
362.099	232.209
364.991	358.291
367.884	509.621
370.777	667.125
373.67	880.222
376.562	991.533
379.455	935.43
382.348	709.042
385.24	395.223
388.133	184.509
391.026	88.2631
393.918	44.5551
396.811	6.8122
399.704	13.392
402.597	19.704
405.489	25.2032
408.382	5.57849
411.275	10.0785
414.167	10.9504
417.06	11.9835
419.953	2.41852
422.846	11.1504
425.738	9.8576
428.631	14.2124
431.524	35.8033
434.416	40.1785
437.309	44.9935
440.202	50.2578
443.094	38.457
445.987	49.2314
448.88	69.8003
451.772	70.1936
454.665	82.7333
457.558	61.399
460.45	85.3133
463.343	63.568
466.236	57.5961
469.129	86.9446
472.021	72.5236
474.914	39.8551
477.807	49.4664
480.699	36.9512
483.592	41.2088
486.485	15.7277
489.377	25.4415
492.27	20.8163
495.163	38.6218
498.056	38.0545
500.948	38.1975
503.841	31.5878
506.734	16.0159
509.626	26.4952
512.519	37.3066
515.412	23.8011
518.304	4.26373
521.197	24.8736
524.09	32.4438
526.983	31.3422
529.875	8.38684
532.768	21.7153
535.661	27.0631
538.553	25.4246
541.446	6.4389
544.339	5.47583
547.231	4.38135
550.124	17.2638
553.017	17.8261
555.909	7.54285
558.802	26.5231
561.695	8.62451
564.588	9.06537
567.48	3.87653
570.373	15.5958
573.266	14.3836
576.158	27.6581
579.051	2.44708
581.944	22.1064
584.837	8.26733
587.729	17.9782
590.622	15.5459
593.515	22.622
596.407	3.37488
599.3	18.0879
602.193	35.0282
605.085	9.94269
607.978	5.40997
610.871	13.9378
613.764	46.4257
616.656	21.1251
619.549	26.9542
622.442	22.8882
625.334	30.9291
628.227	49.4531
631.12	10.8174
634.012	34.506
636.905	42.2945
639.798	13.6187
642.691	14.2175
645.583	9.94299
648.476	9.29584
651.369	15.3973
654.261	26.0935
657.154	22.7453
660.047	19.3704
662.939	40.5593
665.832	47.4243
668.725	8.04559
671.617	10.0638
674.51	27.744
677.403	10.1149
680.296	6.75519
683.188	3.8493
686.081	52.4016
688.974	57.1448
691.866	13.278
694.759	17.7568
697.652	16.8489
700.544	20.4876
703.437	26.2696
706.33	6.60669
709.222	22.2943
712.115	7.23932
715.008	12.4675
717.901	1.40417
720.793	18.8229
723.686	14.1548
726.579	22.1705
729.471	30.9243
732.364	0.809387
735.257	44.7485
738.149	24.3511
741.042	42.1367
743.935	54.85
746.828	32.347
749.72	29.992
752.613	18.6169
755.506	8.56024
758.398	25.6834
761.291	15.5161
764.184	14.1788
767.077	2.69989
769.969	32.4487
772.862	16.3721
775.755	13.1085
778.647	36.1427
781.54	6.13989
784.433	14.9551
787.325	26.6257
790.218	18.9131
793.111	24.4293
796.004	20.9194
798.896	30.6196
801.789	18.8165
804.682	31.3928
807.574	28.7202
810.467	2.60687
813.36	21.3035
816.252	52.0532
819.145	36.3141
822.038	46.1555
824.931	12.2784
827.823	7.71783
830.716	35.0984
833.609	9.49072
836.501	4.62524
839.394	37.6685
842.287	29.66
845.179	15.5828
848.072	18.5909
850.965	16.7758
853.857	15.8123
856.75	16.2472
859.643	16.641
862.535	29.5542
865.428	24.312
868.321	31.5983
871.214	28.0373
874.106	39.7977
876.999	35.586
879.892	25.1984
882.784	4.13965
885.677	10.3584
888.57	17.907
891.462	31.9684
894.355	30.2068
897.248	47.0359
900.141	6.01239
903.033	28.7265
905.926	27.237
908.819	8.58997
911.711	21.5158
914.604	23.819
917.497	56.1814
920.389	10.7306
923.282	11.1992
926.175	28.3343
929.068	27.5111
931.96	28.4849
934.853	21.7263
937.746	21.2676
940.638	38.0355
943.531	40.8318
946.424	19.4311
949.317	25.1559
952.209	13.5092
955.102	11.1605
957.995	42.9299
960.887	34.6312
963.78	39.009
966.673	16.4086
969.565	29.1369
972.458	8.11261
975.351	29.9554
978.244	44.2658
981.136	13.8453
984.029	59.2884
986.922	27.6431
989.814	25.6403
992.707	0.388062
995.6	29.4886
998.492	6.92371
1001.38	20.5976
1004.28	16.3349
1007.17	30.3645
1010.06	35.2332
1012.96	33.0626
1015.85	27.5172
1018.74	15.4619
1021.63	49.5101
1024.53	18.7993
1027.42	39.7284
1030.31	22.3345
1033.2	20.2117
1036.1	49.5009
1038.99	12.0533
1041.88	38.5136
1044.78	16.5453
1047.67	58.3964
1050.56	21.751
1053.45	49.4665
1056.35	51.4032
1059.24	27.7727
1062.13	32.7014
1065.02	27.0632
1067.92	23.1139
1070.81	14.4703
1073.7	35.4164
1076.6	12.0921
1079.49	5.45972
1082.38	30.5936
1085.27	34.7981
1088.17	4.08203
1091.06	33.1805
1093.95	18.7709
1096.84	27.4869
1099.74	60.5893
1102.63	23.5071
1105.52	15.4107
1108.41	32.5706
1111.31	27.1683
1114.2	14.2914
1117.09	34.4987
1119.99	16.4508
1122.88	36.5523
1125.77	25.1688
1128.66	26.0045
1131.56	14.8006
1134.45	17.6307
1137.34	42.0893
1140.23	42.4067
1143.13	20.5343
1146.02	34.2714
1148.91	52.6365
1151.81	23.5132
1154.7	16.3747
1157.59	9.73163
1160.48	31.4017
1163.38	18.0847
1166.27	7.33173
1169.16	15.3436
1172.05	36.634
1174.95	14.6241
1177.84	25.3717
1180.73	25.3917
1183.62	31.1758
1186.52	47.2198
1189.41	17.8242
1192.3	39.0917
1195.2	13.9564
1198.09	27.3036
1200.98	56.7428
1203.87	49.0046
1206.77	14.4125
1209.66	31.3812
1212.55	10.6051
1215.44	26.4793
1218.34	63.9506
1221.23	21.5922
1224.12	67.9963
1227.02	40.5588
1229.91	33.0727
1232.8	63.021
1235.69	40.7606
1238.59	34.8848
1241.48	46.0549
1244.37	30.3732
1247.26	36.9636
1250.16	62.2315
1253.05	51.5254
1255.94	47.2705
1258.84	53.0864
1261.73	14.988
