Measurement: Raman, 785 nm, unoriented, Raman Data Processed
Mineral: Edingtonite
Rruff sample: R040110
Ideal chemistry: Ba(Si_3_Al_2_)O_10_4H_2_O
Locality: 2350 level, Brunswick 12 mine, Bathhurst, New Brunswick, Canada
Source: National Museums of Canada
Description: Colorless rectangular prism
Measured chemistry: Ba_1.00_(Si_3.00_Al_2.00_)O_10_Â·4H_2_O
Raman shift (cm-1)	intensity
128.541	0
131.434	39.719
134.327	125.486
137.219	124.012
140.112	212.211
143.005	496.188
145.897	962.205
148.79	1582.33
151.683	2055.42
154.576	2110.82
157.468	1689.62
160.361	1207.96
163.254	912.223
166.146	768.171
169.039	644.978
171.932	523.071
174.824	442.984
177.717	380.527
180.61	331.27
183.502	249.954
186.395	279.317
189.288	182.143
192.181	137.856
195.073	159.207
197.966	142.136
200.859	121.937
203.751	84.7325
206.644	53.0181
209.537	55.8489
212.429	68.2517
215.322	46.6251
218.215	69.1089
221.108	92.6814
224	130.36
226.893	198.19
229.786	301.231
232.678	471.258
235.571	561.607
238.464	349.009
241.357	123.089
244.249	33.9877
247.142	4.33167
250.035	23.3934
252.927	40.9694
255.82	19.4282
258.713	14.8308
261.605	6.9967
264.498	15.8456
267.391	23.2694
270.284	88.9836
273.176	126.227
276.069	145.725
278.962	146.601
281.854	93.5331
284.747	82.2756
287.64	56.342
290.532	60.3588
293.425	40.0518
296.318	50.2579
299.211	37.2004
302.103	91.8945
304.996	85.8027
307.889	83.9247
310.781	91.1875
313.674	74.4919
316.567	41.0403
319.459	8.54639
322.352	11.1329
325.245	6.87671
328.137	4.63403
331.03	34.7848
333.923	31.4814
336.816	13.4348
339.708	72.0593
342.601	47.0966
345.494	82.9908
348.386	92.8625
351.279	90.7535
354.172	84.9589
357.065	79.3738
359.957	91.3745
362.85	61.4033
365.743	47.8506
368.635	33.0701
371.528	32.7593
374.421	51.6951
377.313	80.2729
380.206	85.3646
383.099	56.7506
385.991	71.5272
388.884	65.8351
391.777	61.6229
394.67	55.0646
397.562	79.4902
400.455	129.15
403.348	139.791
406.24	123.58
409.133	112.692
412.026	130.204
414.918	129.554
417.811	159.444
420.704	160.046
423.597	237.958
426.489	264.064
429.382	339.596
432.275	332.783
435.167	312.557
438.06	278.147
440.953	217.976
443.846	107.195
446.738	66.8456
449.631	13.2454
452.524	7.61487
455.416	15.7789
458.309	18.48
461.202	30.7158
464.094	7.94641
466.987	6.59241
469.88	39.8636
472.772	45.8414
475.665	99.4413
478.558	127.256
481.451	166.825
484.343	238.022
487.236	338.102
490.129	366.36
493.021	414.12
495.914	445.431
498.807	467.533
501.7	474.826
504.592	491.919
507.485	557.745
510.378	735.945
513.27	1122.61
516.163	1726.37
519.056	2672.48
521.948	4049.67
524.841	5680.62
527.734	7087.34
530.626	6731.02
533.519	4702.17
536.412	2830.5
539.305	1660.94
542.197	1022.77
545.09	649.131
547.983	407.858
550.875	284.717
553.768	198.925
556.661	127.623
559.553	66.288
562.446	37.129
565.339	44.0712
568.232	10.9763
571.124	1.08398
574.017	5.16479
576.91	4.91833
579.802	34.8157
582.695	37.7521
585.588	48.6509
588.481	66.9565
591.373	66.3468
594.266	99.8252
597.159	107.339
600.051	62.7784
602.944	73.4947
605.837	69.166
608.729	21.9745
611.622	30.7849
614.515	12.3774
617.408	5.92114
620.3	4.6167
623.193	1.04211
626.086	3.30005
628.978	15.7889
631.871	22.8241
634.764	0.455566
637.656	10.5602
640.549	9.17639
643.442	3.81665
646.335	36.2815
649.227	53.5214
652.12	63.9605
655.013	82.7179
657.905	58.7521
660.798	73.2598
663.691	33.4205
666.583	18.7565
669.476	30.3375
672.369	19.0754
675.261	33.6307
678.154	11.2549
681.047	35.6222
683.94	38.9495
686.832	73.4896
689.725	65.9592
692.618	105.009
695.51	144.424
698.403	185.977
701.296	236.18
704.188	308.805
707.081	324.258
709.974	278.313
712.867	266.224
715.759	203.145
718.652	147.49
721.545	111.365
724.437	129.857
727.33	85.8425
730.223	52.8636
733.115	47.02
736.008	48.2914
738.901	16.9801
741.794	9.77734
744.686	24.4416
747.579	25.301
750.472	10.4193
753.364	23.7069
756.257	23.6303
759.15	21.3223
762.043	50.3325
764.935	43.051
767.828	17.8948
770.721	22.9083
773.613	35.6943
776.506	12.6271
779.399	4.74158
782.291	20.2881
785.184	12.9211
788.077	26.8707
790.97	20.3658
793.862	9.29956
796.755	2.56213
799.648	11.8483
802.54	0.744141
805.433	24.8539
808.326	19.3197
811.218	8.64563
814.111	19.9514
817.004	31.8651
819.896	34.5641
822.789	27.454
825.682	35.3754
828.575	31.0341
831.467	13.4512
834.36	32.5475
837.253	37.8683
840.145	39.1727
843.038	12.6671
845.931	55.5551
848.823	3.43213
851.716	26.4562
854.609	24.3538
857.502	22.5938
860.394	15.7251
863.287	25.8585
866.18	24.0169
869.072	20.2122
871.965	17.3822
874.858	25.9553
877.75	38.9425
880.643	40.5195
883.536	11.1001
886.429	18.0349
889.321	3.85852
892.214	8.03528
895.107	46.7423
897.999	14.8904
900.892	7.75012
903.785	15.9789
906.678	16.4273
909.57	34.6943
912.463	28.3566
915.356	2.23035
918.248	4.20435
921.141	7.21362
924.034	16.1569
926.926	15.2383
929.819	9.89087
932.712	14.8646
935.605	29.6628
938.497	18.2063
941.39	54.6713
944.283	82.2035
947.175	101.944
950.068	172.525
952.961	197.654
955.853	194.044
958.746	196.314
961.639	156.51
964.532	125.699
967.424	137.239
970.317	127.282
973.21	137.131
976.102	189.288
978.995	235.231
981.888	289.898
984.78	365.796
987.673	410.442
990.566	452.312
993.458	493.323
996.351	491.051
999.244	364.133
1002.14	225.185
1005.03	166.521
1007.92	66.981
1010.82	26.0671
1013.71	20.2994
1016.6	9.67737
1019.49	2.50427
1022.38	14.3314
1025.28	15.978
1028.17	8.20032
1031.06	26.1942
1033.96	39.9066
1036.85	70.8569
1039.74	126.887
1042.63	178.05
1045.53	287.841
1048.42	434.026
1051.31	547.459
1054.2	614.378
1057.1	552.392
1059.99	432.179
1062.88	308.824
1065.78	212.404
1068.67	157.092
1071.56	108.115
1074.45	81.1184
1077.35	35.0936
1080.24	36.7751
1083.13	43.8688
1086.03	40.1302
1088.92	50.5056
1091.81	81.8842
1094.7	99.0072
1097.6	128.652
1100.49	113.688
1103.38	124.52
1106.27	100.668
1109.17	89.4269
1112.06	30.6446
1114.95	20.4625
1117.85	0.059326
1120.74	3.1626
1123.63	18.2942
1126.52	42.8967
1129.41	15.558
1132.31	13.1785
1135.2	41.7615
1138.09	16.8003
1140.99	41.5476
1143.88	42.671
1146.77	59.3121
1149.66	52.6491
1152.56	24.2266
1155.45	22.1873
1158.34	2.22205
1161.23	1.17432
1164.13	15.0348
1167.02	27.8919
1169.91	39.8304
1172.81	11.67
1175.7	19.0272
1178.59	20.2557
1181.48	39.9511
1184.38	13.2465
1187.27	9.448
1190.16	15.6567
1193.06	29.7771
1195.95	23.2209
1198.84	28.7007
1201.73	33.9954
1204.63	24.5507
1207.52	7.05737
1210.41	26.1547
1213.3	17.271
1216.2	0.562744
1219.09	20.542
