Measurement: Raman, 532 nm, unoriented, Raman Data Processed
Mineral: Edingtonite
Rruff sample: R040110
Ideal chemistry: Ba(Si_3_Al_2_)O_10_4H_2_O
Locality: 2350 level, Brunswick 12 mine, Bathhurst, New Brunswick, Canada
Source: National Museums of Canada
Description: Colorless rectangular prism
Measured chemistry: Ba_1.00_(Si_3.00_Al_2.00_)O_10_Â·4H_2_O
Raman shift (cm-1)	intensity
120.772	0
124.147	147.542
127.522	742.471
130.897	1725.53
134.272	2762.74
137.647	2722.4
141.021	2292.48
144.396	2199.81
147.771	2568.12
151.146	3162.14
154.521	3245.91
157.895	2445.02
161.27	1666.27
164.645	1083.51
168.02	726.726
171.395	518.205
174.77	401.674
178.144	295.71
181.519	192.944
184.894	91.2026
188.269	87.791
191.644	14.9077
195.018	28.3862
198.393	31.0532
201.768	37.7761
205.143	55.3507
208.518	17.6868
211.893	3.7561
215.267	104.044
218.642	246.387
222.017	468.411
225.392	900.549
228.767	1638.38
232.142	2693.55
235.516	3301.16
238.891	1771.69
242.266	613.697
245.641	244.84
249.016	50.9032
252.39	23.632
255.765	5.38525
259.14	6.08923
262.515	23.6997
265.89	36.5289
269.264	58.592
272.639	103.579
276.014	120.311
279.389	77.4913
282.764	46.1191
286.139	20.9775
289.513	12.271
292.888	40.4006
296.263	47.2625
299.638	102.091
303.013	211.83
306.387	259.547
309.762	302.442
313.137	309.417
316.512	225.752
319.887	121.561
323.262	94.5153
326.636	21.6237
330.011	6.17969
333.386	78.313
336.761	116.46
340.136	130.483
343.51	247.203
346.885	334.413
350.26	332.904
353.635	419.909
357.01	496.777
360.385	444.428
363.759	336.128
367.134	146.469
370.509	37.9358
373.884	9.03882
377.259	18.4456
380.634	89.4133
384.008	67.9097
387.383	69.2898
390.758	22.2041
394.133	58.5049
397.507	98.3049
400.882	221.02
404.257	312.946
407.632	281.606
411.007	312.319
414.382	356.673
417.756	489.955
421.131	623.667
424.506	866.858
427.881	1081.12
431.256	1196.4
434.63	1218.48
438.005	978.862
441.38	692.327
444.755	485.45
448.13	302.489
451.505	149.24
454.879	50.6494
458.254	4.48144
461.629	25.5742
465.004	59.3259
468.379	39.9397
471.753	20.5161
475.128	84.9641
478.503	139.202
481.878	256.671
485.253	387.291
488.628	590.451
492.002	625.902
495.377	699.757
498.752	777.739
502.127	857.952
505.502	997.74
508.877	1371.97
512.251	2254.87
515.626	4015.08
519.001	7001.77
522.376	10911.9
525.751	15089.6
529.125	16337.2
532.5	11869
535.875	6587.16
539.25	3603.41
542.625	2104.85
546	1208.27
549.374	743.921
552.749	431.455
556.124	268.966
559.499	130.867
562.874	47.294
566.248	48.8289
569.623	15.5623
572.998	22.79
576.373	26.4126
579.748	76.355
583.122	113.763
586.497	180.624
589.872	273.589
593.247	352.478
596.622	404.367
599.997	446.307
603.371	364.043
606.746	264.013
610.121	122.536
613.496	77.0205
616.871	7.57397
620.245	15.6052
623.62	27.9763
626.995	8.66968
630.37	10.2012
633.745	17.3037
637.12	52.1831
640.494	125.502
643.869	214.881
647.244	340.237
650.619	507.155
653.994	578.223
657.369	587.94
660.743	444.572
664.118	296.193
667.493	199.899
670.868	137.977
674.243	90.61
677.617	83.6865
680.992	57.7685
684.367	63.346
687.742	138.247
691.117	170.365
694.491	302.252
697.866	481.364
701.241	648.502
704.616	852.163
707.991	970.797
711.365	896.297
714.74	795.939
718.115	641.015
721.49	432.119
724.865	290.957
728.24	177.552
731.614	140.235
734.989	74.7673
738.364	48.7721
741.739	32.3101
745.114	17.1209
748.489	5.9845
751.863	24.7366
755.238	21.1729
758.613	14.5479
761.988	32.1069
765.363	65.7319
768.737	48.2895
772.112	77.0067
775.487	37.0185
778.862	12.9596
782.237	8.08032
785.611	23.7068
788.986	42.7555
792.361	18.8669
795.736	5.15649
799.111	18.8332
802.486	33.9452
805.86	13.7429
809.235	8.65124
812.61	10.6918
815.985	39.8077
819.36	29.4821
822.735	21.0908
826.109	15.1545
829.484	43.9718
832.859	41.0671
836.234	45.1189
839.609	21.4658
842.983	7.06274
846.358	28.8428
849.733	58.9031
853.108	43.0553
856.483	35.3209
859.857	47.7063
863.232	62.8456
866.607	67.7862
869.982	58.687
873.357	34.3378
876.732	47.8688
880.106	30.1442
883.481	38.1127
886.856	40.0123
890.231	53.4005
893.606	15.127
896.981	44.3525
900.355	0.646851
903.73	0.509155
907.105	36.5641
910.48	2.11511
913.855	6.67944
917.229	18.7206
920.604	11.9319
923.979	13.4706
927.354	25.6189
930.729	30.0786
934.104	0.029053
937.478	73.4109
940.853	121.8
944.228	204.541
947.603	338.401
950.978	492.036
954.352	572.643
957.727	517.096
961.102	373.947
964.477	298.382
967.852	276.886
971.226	297.384
974.601	421.673
977.976	523.511
981.351	648.428
984.726	789.469
988.101	907.407
991.475	1106.31
994.85	987.857
998.225	798.912
1001.6	495.434
1004.98	245.029
1008.35	123.072
1011.72	12.2737
1015.1	28.1792
1018.47	6.61768
1021.85	12.0249
1025.22	34.2795
1028.6	75.8608
1031.97	169.03
1035.35	277.144
1038.72	432.922
1042.1	720.035
1045.47	1124.5
1048.85	1682.5
1052.22	1999.84
1055.6	1972.04
1058.97	1595.9
1062.35	1115.21
1065.72	738.89
1069.1	556.443
1072.47	321.44
1075.85	237.895
1079.22	204.03
1082.6	204.921
1085.97	176.872
1089.35	229.886
1092.72	344.585
1096.1	430.61
1099.47	551.866
1102.84	491.206
1106.22	412.617
1109.59	227.827
1112.97	157.359
1116.34	76.7527
1119.72	41.959
1123.09	2.60742
1126.47	28.2327
1129.84	1.82422
1133.22	4.31519
1136.59	3.65894
1139.97	19.0691
1143.34	0.213623
1146.72	24.3757
1150.09	12.6479
1153.47	25.1457
1156.84	31.8884
1160.22	46.8738
1163.59	5.79419
1166.97	28.9817
1170.34	31.9551
1173.72	3.51367
1177.09	21.1094
1180.46	38.167
1183.84	23.2625
1187.21	34.7927
1190.59	0.083496
1193.96	65.0925
1197.34	51.217
1200.71	38.956
1204.09	59.3555
1207.46	44.9658
1210.84	55.3096
1214.21	51.717
1217.59	57.529
1220.96	64.9092
1224.34	46.1216
1227.71	57.6484
1231.09	40.5295
1234.46	61.5867
1237.84	42.0344
1241.21	38.0083
1244.59	43.1897
1247.96	15.2541
1251.34	6.36572
1254.71	27.4658
1258.09	36.1484
1261.46	22.3831
1264.84	0.97876
1268.21	2.60376
1271.59	6.30322
1274.96	26.1318
1278.34	9.87256
1281.71	33.7937
1285.08	45.418
1288.46	71.4011
1291.83	55.2244
1295.21	58.5703
1298.58	55.8296
1301.96	27.2564
