Measurement: Raman, 514 nm, unoriented, Raman Data Processed
Mineral: Edingtonite
Rruff sample: R040110
Ideal chemistry: Ba(Si_3_Al_2_)O_10_4H_2_O
Locality: 2350 level, Brunswick 12 mine, Bathhurst, New Brunswick, Canada
Source: National Museums of Canada
Description: Colorless rectangular prism
Measured chemistry: Ba_1.00_(Si_3.00_Al_2.00_)O_10_Â·4H_2_O
Raman shift (cm-1)	intensity
107.3	0
111.473	223.846
115.644	1510.29
119.813	2379.6
123.981	2490.21
128.146	2493.41
132.309	2859.96
136.47	3283.85
140.63	5287.19
144.787	5288.76
148.942	6090.76
153.096	7136.06
157.247	6718.4
161.396	4779.52
165.544	3249.03
169.689	2017.79
173.833	1319.81
177.974	787.807
182.114	388.376
186.251	480.063
190.387	314.337
194.52	187.707
198.652	156.295
202.782	166.84
206.909	215.723
211.035	66.983
215.159	6.431
219.281	98.515
223.4	280.83
227.518	37.452
231.634	494.483
235.748	852.621
239.86	473.748
243.97	290.531
248.079	89.512
252.185	68.176
256.289	96.289
260.391	97.271
264.492	92.031
268.59	107.963
272.687	213.707
276.781	108.504
280.874	193.576
284.964	529.941
289.053	438.529
293.14	565.492
297.225	360.777
301.308	452.211
305.389	542.137
309.468	722.066
313.545	815.762
317.62	886.885
321.693	687.746
325.765	806.332
329.834	704.762
333.902	753.756
337.967	825.506
342.031	957.125
346.093	1256
350.153	1593.81
354.21	2312.88
358.267	3067.62
362.321	2865.02
366.373	2265.42
370.423	1655.99
374.471	1060.74
378.518	775.143
382.563	806.117
386.605	706.783
390.646	549.801
394.685	741.797
398.722	763.049
402.757	940.338
406.79	1078.39
410.821	996.156
414.851	918.877
418.878	1187.41
422.904	1844.81
426.927	2162.97
430.949	2350
434.969	2549.68
438.987	2088.18
443.003	1187.5
447.018	981.75
451.03	496.615
455.041	550.496
459.049	67.842
463.056	47.143
467.061	61.678
471.064	98.674
475.065	106.566
479.064	12.611
483.062	167.039
487.057	321.371
491.051	403.391
495.043	516.998
499.032	853.441
503.02	1303.15
507.007	2166.66
510.991	3175.04
514.973	5510.34
518.954	10880.6
522.933	22637.7
526.91	38711.9
530.885	38613.1
534.858	22213.3
538.829	11786.9
542.799	6267.24
546.766	3716.6
550.732	2473.18
554.696	1700.21
558.658	1161.19
562.618	656.008
566.576	483.736
570.533	525.434
574.488	291.408
578.44	238.121
582.391	435.383
586.341	203.084
590.288	324.328
594.233	60.912
598.177	421.666
602.119	206.354
606.059	284.814
609.997	85.852
613.933	435.486
617.868	363.518
621.801	478.434
625.731	411.07
629.66	755.82
633.588	809.947
637.513	423.303
641.437	674.875
645.358	873.676
649.278	1428.55
653.196	1753.24
657.113	2306.36
661.027	2008.89
664.94	1167.6
668.851	1033.91
672.76	768.287
676.667	675.322
680.572	656.84
684.476	749.779
688.378	385.938
692.278	643.143
696.176	1042.68
700.072	884.389
703.967	1258.43
707.86	1641.14
711.751	1830.55
715.64	1575.57
719.527	1258.65
723.413	875.934
727.297	380.012
731.179	431.654
735.059	171.02
738.937	345.467
742.814	63.104
746.689	431.104
750.562	189.176
754.433	64.994
758.303	134.33
762.17	71.506
766.036	127.928
769.901	151.555
773.763	136.309
777.624	57.58
781.482	115.146
785.339	89.318
789.195	70.031
793.048	68.225
796.9	143.955
800.75	109.203
804.598	22.904
808.445	248.6
812.289	37.816
816.132	192.658
819.973	28.85
823.813	65.207
827.65	50.908
831.486	324.35
835.32	123.602
839.152	485.609
842.983	551.564
846.812	505.406
850.639	193.855
854.464	147.172
858.288	652.201
862.11	202.021
865.93	451.551
869.748	325.713
873.564	524.562
877.379	287.137
881.192	202.436
885.004	347.418
888.813	419.057
892.621	299.246
896.427	329.338
900.232	518.836
904.034	325.984
907.835	406.422
911.634	299.977
915.432	411.562
919.227	28.516
923.021	378.105
926.813	395.812
930.604	405.59
934.393	278.754
938.18	160.117
941.965	383.398
945.749	632.789
949.53	679.602
953.311	1016.56
957.089	969.367
960.866	635.773
964.641	696.141
968.414	662.531
972.185	487.836
975.955	525.746
979.723	668.57
983.49	906.137
987.254	1444.54
991.017	1681.8
994.779	1469.06
998.538	1486.99
1002.3	1413.63
1006.05	956.805
1009.81	816.008
1013.56	827.004
1017.31	638.145
1021.06	626.082
1024.81	563.754
1028.55	777.176
1032.3	1109.22
1036.04	1344.41
1039.78	1423.93
1043.52	1566.36
1047.26	2283.84
1050.99	3813.36
1054.73	4279.06
1058.46	3400.52
1062.19	2830.68
1065.92	2109.01
1069.65	2297.03
1073.37	1743.66
1077.1	1401.97
1080.82	963.824
1084.54	1731.94
1088.26	1941.57
1091.97	914.113
1095.69	592.363
1099.4	654.211
1103.12	189.852
1106.83	231.234
1110.54	47.414
1114.24	79.031
1117.95	120.34
1121.65	252.477
1125.35	468.695
1129.06	297.941
1132.75	363.227
1136.45	57.539
1140.15	594.805
1143.84	5.762
1147.53	104.895
1151.22	28.168
1154.91	350.664
1158.6	6.164
1162.28	71.18
1165.97	214.367
1169.65	191.477
1173.33	15.234
1177.01	505.852
1180.69	299.711
1184.36	544.113
1188.04	242.324
1191.71	206.387
1195.38	84.891
1199.05	351.219
1202.71	419.148
1206.38	481.988
1210.04	87.406
1213.71	456.348
1217.37	504.754
1221.03	400.586
1224.68	203.852
1228.34	623.652
1231.99	560.672
1235.65	527.09
1239.3	1010.16
1242.95	654.66
1246.59	311.195
1250.24	203.656
1253.88	347.207
1257.53	198.34
1261.17	543.051
1264.81	550.441
1268.45	402.395
1272.08	40.207
1275.72	83.645
1279.35	9.414
1282.98	552.352
1286.61	523.172
1290.24	440.418
1293.87	267.121
1297.49	461.02
1301.11	429.23
1304.73	258.73
1308.36	356.75
1311.97	626.586
1315.59	5.41
1319.2	420.301
1322.82	332.035
1326.43	210.348
1330.04	12.516
1333.65	601.004
1337.26	266.695
1340.86	141.914
1344.47	46.621
1348.07	0.793
