Measurement: Raman, 532 nm, unoriented, Raman Data Processed
Mineral: Effenbergerite
Rruff sample: R150110
Ideal chemistry: BaCu^2+^Si_4_O_10_
Locality: Synthetic
Source: Yan Chen and Shouhua Feng
Description: Blue powder
Raman shift (cm-1)	intensity
89.7832	0
93.158	255.431
96.5328	244.53
99.9077	136.35
103.282	103.072
106.657	20.9978
110.032	11.2441
113.407	6.97217
116.782	155.626
120.157	235.724
123.531	301.995
126.906	360.363
130.281	331.161
133.656	191.084
137.031	71.6915
140.405	64.0734
143.78	1.19873
147.155	16.6099
150.53	14.3081
153.905	34.5001
157.28	63.8256
160.654	59.5446
164.029	75.7853
167.404	80.7647
170.779	54.9598
174.154	56.2305
177.528	63.3535
180.903	63.5596
184.278	74.8202
187.653	90.2401
191.028	81.5417
194.403	90.9889
197.777	88.6315
201.152	89.7134
204.527	84.451
207.902	70.5776
211.277	74.1674
214.651	68.001
218.026	78.5121
221.401	88.2815
224.776	68.2893
228.151	56.1068
231.525	54.5702
234.9	51.6779
238.275	43.6116
241.65	41.9733
245.025	31.0123
248.4	35.8923
251.774	26.8309
255.149	13.584
258.524	6.82056
261.899	13.3472
265.274	0.551514
268.649	9.08423
272.023	6.5592
275.398	6.245
278.773	6.97937
282.148	9.41846
285.523	6.9552
288.897	1.04639
292.272	2.64331
295.647	3.03638
299.022	5.8562
302.397	6.56165
305.772	13.8195
309.146	11.809
312.521	25.509
315.896	19.6064
319.271	16.9233
322.646	13.2626
326.02	27.5125
329.395	19.75
332.77	22.739
336.145	20.8828
339.52	19.1433
342.894	17.6891
346.269	1.13013
349.644	3.39148
353.019	7.93115
356.394	7.13
359.769	3.53723
363.143	17.9257
366.518	48.4843
369.893	71.071
373.268	101.59
376.643	166.523
380.017	197.053
383.392	199.267
386.767	148.672
390.142	77.0161
393.517	43.223
396.892	25.5072
400.266	34.4113
403.641	60.1812
407.016	102.303
410.391	174.559
413.766	272.959
417.14	423.425
420.515	603.987
423.89	689.009
427.265	556.124
430.64	381.167
434.014	239.524
437.389	183.269
440.764	141.502
444.139	98.8854
447.514	85.4026
450.889	50.3135
454.263	32.3203
457.638	37.1571
461.013	18.6528
464.388	7.15418
467.763	21.2465
471.137	20.7429
474.512	8.83398
477.887	4.83594
481.262	8.3385
484.637	5.34448
488.012	4.65369
491.386	1.20654
494.761	6.86853
498.136	8.04919
501.511	2.62476
504.886	2.34167
508.26	1.32519
511.635	2.1416
515.01	5.52014
518.385	2.33679
521.76	6.88428
525.135	13.5472
528.509	1.24451
531.884	8.78052
535.259	3.22131
538.634	8.80945
542.009	12.965
545.384	19.0958
548.758	34.7107
552.133	46.7654
555.508	53.728
558.883	59.8297
562.258	44.5747
565.632	37.5674
569.007	20.9316
572.382	17.6384
575.757	13.2356
579.132	17.2546
582.506	17.542
585.881	22.3372
589.256	24.3262
592.631	23.4348
596.006	14.8373
599.381	19.4158
602.755	10.7023
606.13	14.033
609.505	11.8669
612.88	19.6046
616.255	15.5096
619.63	12.765
623.004	5.70471
626.379	9.74072
629.754	4.60132
633.129	6.67566
636.504	6.74475
639.878	2.78735
643.253	3.37622
646.628	6.07373
650.003	3.62024
653.378	17.155
656.752	18.5146
660.127	14.0299
663.502	18.6786
666.877	11.6995
670.252	7.73206
673.626	8.91357
677.001	3.29016
680.376	8.69006
683.751	6.93921
687.126	15.9688
690.501	10.6502
693.875	0.022095
697.25	0.800781
700.625	2.51343
704	8.8728
707.375	12.6127
710.75	9.73938
714.124	13.0093
717.499	1.50879
720.874	0.623291
724.249	22.6674
727.624	7.26379
730.998	15.0415
734.373	12.6683
737.748	20.3932
741.123	19.4282
744.498	22.6393
747.872	22.6373
751.247	25.8746
754.622	12.5841
757.997	25.001
761.372	24.8789
764.747	25.9611
768.121	30.6122
771.496	32.9891
774.871	28.826
778.246	36.4258
781.621	29.0955
784.995	54.7533
788.37	57.6486
791.745	58.3235
795.12	33.2451
798.495	21.7581
801.87	9.16748
805.244	12.4309
808.619	10.7892
811.994	2.34302
815.369	4.77612
818.744	1.92346
822.119	7.28552
825.493	8.11633
828.868	6.58008
832.243	7.54724
835.618	1.82642
838.993	3.81238
842.367	12.3412
845.742	11.6974
849.117	10.3929
852.492	9.94092
855.867	0.559448
859.241	17.8419
862.616	6.10461
865.991	12.6146
869.366	10.9611
872.741	6.55212
876.115	1.99561
879.49	1.03943
882.865	4.32117
886.24	10.405
889.615	14.2833
892.99	23.2556
896.364	14.8457
899.739	4.90076
903.114	15.0756
906.489	7.4115
909.864	6.94299
913.239	9.29224
916.613	13.2816
919.988	4.90723
923.363	11.082
926.738	25.1965
930.113	12.3301
933.487	28.1436
936.862	10.6802
940.237	7.01453
943.612	20.6951
946.987	10.6238
950.361	7.41272
953.736	19.1979
957.111	16.5101
960.486	15.067
963.861	22.5877
967.236	28.2866
970.61	38.171
973.985	39.015
977.36	42.8215
980.735	33.4526
984.11	51.3458
987.485	61.3046
990.859	59.5985
994.234	69.4727
997.609	59.0758
1000.98	44.7011
1004.36	36.2606
1007.73	29.3091
1011.11	19.6294
1014.48	32.6827
1017.86	13.3956
1021.23	10.47
1024.61	9.40479
1027.98	0.059326
1031.36	1.31934
1034.73	3.54651
1038.11	7.51392
1041.48	6.3761
1044.86	2.7312
1048.23	9.59277
1051.61	10.5078
1054.98	4.71863
1058.36	11.4064
1061.73	17.6045
1065.11	14.9961
1068.48	25.9609
1071.86	32.6421
1075.23	45.4493
1078.6	68.4955
1081.98	93.2644
1085.35	142.855
1088.73	207.454
1092.1	274.421
1095.48	329.679
1098.85	342.027
1102.23	295.753
1105.6	209.182
1108.98	149.512
1112.35	106.345
1115.73	76.9418
1119.1	40.1054
1122.48	34.0404
1125.85	21.0775
1129.23	11.2687
1132.6	5.87781
1135.98	20.1437
1139.35	12.4519
1142.73	7.83667
1146.1	6.79736
1149.48	3.95569
1152.85	15.6841
1156.22	17.4587
1159.6	8.99121
1162.97	6.12231
1166.35	1.13245
1169.72	0.518066
1173.1	12.1867
1176.47	4.34497
1179.85	8.22363
1183.22	4.01965
1186.6	7.22876
1189.97	15.0448
1193.35	4.76526
1196.72	12.634
1200.1	11.6713
1203.47	5.38061
1206.85	5.14209
1210.22	6.26636
1213.6	1.00708
1216.97	6.4491
1220.35	2.0846
1223.72	6.68835
1227.1	4.35193
1230.47	3.61523
1233.85	12.4627
1237.22	8.4071
1240.6	6.61731
1243.97	8.95471
1247.35	11.2533
1250.72	18.9238
1254.1	23.0228
1257.47	13.8356
1260.85	31.1798
1264.22	6.84119
1267.59	14.1404
1270.97	8.75244
1274.34	9.09436
1277.72	18.1886
1281.09	7.62659
1284.47	6.50915
1287.84	17.2148
1291.22	11.4493
1294.59	4.14868
1297.97	1.46484
1301.34	0.034485
