Measurement: Raman, 780 nm, unoriented, Raman Data Processed
Mineral: Ekanite
Rruff sample: R100158
Ideal chemistry: Ca_2_ThSi_8_O_20_
Locality: Ratnapura District, Sri Lanka
Source: William W. Pinch
Description: Brown cut gemstone (metamict)
Raman shift (cm-1)	intensity
165.816	0
168.708	0.811768
171.601	1.39575
174.494	3.39722
177.386	3.46979
180.279	4.31366
183.172	3.79254
186.065	6.8717
188.957	3.16779
191.85	0.323547
194.743	2.39331
197.635	1.74005
200.528	0.21936
203.421	1.75311
206.313	2.62653
209.206	1.93091
212.099	4.4613
214.992	9.57129
217.884	5.14764
220.777	7.143
223.67	4.0238
226.562	5.44672
229.455	4.39117
232.348	6.71484
235.24	10.919
238.133	12.0695
241.026	15.9706
243.918	18.8145
246.811	10.8067
249.704	8.97284
252.597	7.12952
255.489	0.718933
258.382	2.43042
261.275	1.57831
264.167	1.20099
267.06	5.19659
269.953	4.48474
272.846	4.27643
275.738	6.37921
278.631	8.41065
281.524	15.6742
284.416	23.8551
287.309	29.3013
290.202	21.2655
293.094	10.8583
295.987	5.47424
298.88	5.16266
301.772	1.63184
304.665	6.79712
307.558	1.34393
310.45	1.34491
313.343	3.46136
316.236	7.88251
319.129	2.32849
322.021	0.864868
324.914	3.89862
327.807	9.52301
330.699	5.67816
333.592	8.80658
336.485	7.89624
339.377	5.74261
342.27	3.15601
345.163	8.39123
348.056	5.61182
350.948	3.40094
353.841	2.22998
356.734	2.81726
359.626	5.42041
362.519	3.43683
365.412	3.03046
368.305	3.44641
371.197	8.70245
374.09	9.80688
376.983	9.33166
379.875	8.99676
382.768	4.992
385.661	2.40942
388.553	1.02313
391.446	0.093201
394.339	0.720093
397.231	3.31677
400.124	0.155579
403.017	2.11786
405.909	0.104248
408.802	4.70093
411.695	0.853577
414.588	3.79767
417.48	1.94135
420.373	4.4162
423.266	2.17389
426.158	2.84393
429.051	4.71869
431.944	5.81506
434.837	6.42224
437.729	6.73047
440.622	1.85113
443.515	0.853027
446.407	7.36041
449.3	7.17328
452.193	2.70068
455.085	4.98206
457.978	7.87665
460.871	10.2817
463.764	5.85864
466.656	5.90057
469.549	4.53229
472.442	2.76941
475.334	6.23187
478.227	4.40216
481.12	1.81427
484.012	5.54169
486.905	4.18054
489.798	0.4422
492.69	2.02026
495.583	2.41992
498.476	5.43903
501.369	2.92902
504.261	2.86249
507.154	3.3689
510.047	4.30475
512.939	0.279724
515.832	4.97858
518.725	4.07343
521.617	2.11603
524.51	2.81201
527.403	5.46344
530.296	0.429077
533.188	0.502869
536.081	2.85681
538.974	0.393005
541.866	1.79553
544.759	3.32178
547.652	0.209106
550.544	4.78046
553.437	6.70276
556.33	2.47247
559.222	3.43121
562.115	2.51172
565.008	2.12714
567.901	0.944763
570.793	4.88245
573.686	3.85791
576.579	3.17212
579.471	0.857544
582.364	2.22919
585.257	3.63934
588.149	4.57391
591.042	5.72809
593.935	5.54651
596.828	11.2288
599.72	8.74927
602.613	9.28656
605.506	13.2995
608.398	11.5515
611.291	11.0633
614.184	10.1832
617.077	6.97211
619.969	13.7252
622.862	10.6192
625.755	9.18463
628.647	9.24615
631.54	7.77264
634.433	7.66809
637.325	10.7482
640.218	6.3194
643.111	10.7067
646.004	6.78302
648.896	7.46759
651.789	10.0441
654.682	8.05524
657.574	13.4595
660.467	12.0259
663.36	13.0767
666.252	11.3856
669.145	8.84168
672.038	6.94183
674.931	7.81317
677.823	3.75678
680.716	6.03876
683.609	5.46216
686.501	4.52045
689.394	1.31946
692.287	5.1413
695.179	2.97015
698.072	3.68842
700.965	0.677673
703.857	1.80334
706.75	0.275513
709.643	1.94318
712.535	1.93341
715.428	3.83154
718.321	4.81055
721.214	2.61395
724.106	4.26154
726.999	3.93237
729.892	4.36316
732.784	6.02814
735.677	5.03754
738.57	4.67853
741.462	3.60114
744.355	5.02533
747.248	6.8562
750.141	4.11334
753.033	4.80377
755.926	6.84839
758.819	6.37164
761.711	3.51086
764.604	4.67346
767.497	1.97876
770.389	7.72253
773.282	0.525085
776.175	2.2027
779.068	3.56671
781.96	2.00537
784.853	1.99689
787.746	4.85443
790.638	4.57245
793.531	6.02545
796.424	10.9553
799.317	9.07361
802.209	6.22687
805.102	16.0659
807.995	20.7999
810.887	31.2737
813.78	49.1611
816.673	57.4767
819.565	42.5877
822.458	25.6005
825.351	16.6585
828.244	8.7326
831.136	7.36939
834.029	4.79529
836.922	4.57007
839.814	4.57098
842.707	0.965698
845.6	4.59778
848.492	2.51776
851.385	3.30682
854.278	3.27838
857.17	3.49945
860.063	1.69208
862.956	1.80591
865.849	3.41266
868.741	2.38147
871.634	1.57983
874.527	4.07428
877.419	2.86914
880.312	5.22833
883.205	3.4704
886.097	8.53857
888.99	4.5636
891.883	2.42658
894.775	3.22229
897.668	0.937988
900.561	1.08411
903.454	0.492126
906.346	1.7157
909.239	0.792542
912.132	0.741333
915.024	4.17712
917.917	4.5553
920.81	2.39612
923.702	0.126831
926.595	2.51562
929.488	3.81445
932.381	4.60693
935.273	0.157593
938.166	1.15064
941.059	6.86298
943.951	2.92175
946.844	7.34198
949.737	2.55981
952.63	4.7583
955.522	2.29694
958.415	4.71185
961.308	2.53516
964.2	0.084106
967.093	2.07257
969.986	5.04675
972.878	0.424011
975.771	2.64093
978.664	1.13666
981.557	1.11609
984.449	5.14917
987.342	3.12897
990.235	11.0682
993.127	16.4092
996.02	8.21533
998.913	2.7721
1001.8	0.668213
1004.7	3.89691
1007.59	0.263306
1010.48	1.67889
1013.38	3.0365
1016.27	1.28174
1019.16	0.954041
1022.05	3.27887
1024.95	5.94806
1027.84	5.89539
1030.73	6.10144
1033.62	4.30591
1036.52	6.04511
1039.41	7.85583
1042.3	10.1854
1045.2	10.4987
1048.09	5.44299
1050.98	5.65283
1053.87	3.19824
1056.77	6.00946
1059.66	4.07672
1062.55	7.16638
1065.44	6.82788
1068.34	6.83307
1071.23	4.15875
1074.12	6.07159
1077.02	4.07056
1079.91	1.64612
1082.8	3.42407
1085.69	2.48663
1088.59	3.88348
1091.48	5.37811
1094.37	2.16211
1097.26	6.46875
1100.16	3.05463
1103.05	2.94977
1105.94	0.854065
1108.84	5.56598
1111.73	1.27014
1114.62	4.5271
1117.51	2.10199
1120.41	1.62939
1123.3	0.55658
1126.19	1.37744
1129.08	2.39996
1131.98	1.67181
1134.87	2.34662
1137.76	2.50714
1140.65	3.70258
1143.55	3.93237
1146.44	4.35565
1149.33	2.17731
1152.23	4.56335
1155.12	6.97821
1158.01	4.0741
1160.9	1.72546
1163.8	9.13989
1166.69	11.6317
1169.58	5.35797
1172.47	7.39349
1175.37	6.80572
1178.26	9.8042
1181.15	6.72522
1184.05	3.38495
1186.94	6.18176
1189.83	6.11719
1192.72	5.02368
1195.62	8.6651
1198.51	7.16217
1201.4	3.36786
1204.29	2.32715
1207.19	3.72693
1210.08	8.26343
1212.97	4.0813
1215.87	4.7702
1218.76	2.17853
1221.65	1.44049
1224.54	0.94342
1227.44	3.21625
1230.33	5.06
1233.22	4.73938
1236.11	5.52508
1239.01	3.81091
1241.9	5.05005
1244.79	2.82776
1247.68	0.601868
1250.58	2.52472
1253.47	4.92731
1256.36	1.15155
1259.26	4.5517
1262.15	3.20258
1265.04	2.22681
1267.93	2.09454
1270.83	2.05182
1273.72	1.52832
1276.61	6.37085
1279.5	0.362305
1282.4	3.14435
