Measurement: Raman, 532 nm, unoriented, Raman Data Processed
Mineral: Ekanite
Rruff sample: R080036
Ideal chemistry: Ca_2_ThSi_8_O_20_
Locality: Unknown
Description: Dark green faceted gemstone (metamict)
Raman shift (cm-1)	intensity
143.373	0
146.748	3.15698
150.123	15.1418
153.497	23.7415
156.872	27.2991
160.247	15.2178
163.622	2.41797
166.997	9.06934
170.371	13.0518
173.746	16.9348
177.121	20.2725
180.496	22.2512
183.871	16.7058
187.245	18.4419
190.62	19.3962
193.995	8.23267
197.37	1.75488
200.745	0.79126
204.119	0.501221
207.494	0.184814
210.869	1.37256
214.244	0.886719
217.619	2.16797
220.994	9.69043
224.368	5.57007
227.743	1.94605
231.118	1.99414
234.493	0.900146
237.868	1.61572
241.243	1.21655
244.617	8.22705
247.992	10.6206
251.367	12.4961
254.742	13.7075
258.117	18.645
261.491	13.1218
264.866	2.28394
268.241	4.45361
271.616	9.17725
274.991	7.19775
278.365	7.55542
281.74	4.64233
285.115	10.0969
288.49	8.55029
291.865	12.7878
295.24	13.6377
298.614	6.48682
301.989	10.894
305.364	12.6479
308.739	13.5354
312.114	12.0584
315.488	13.9002
318.863	21.4587
322.238	16.9006
325.613	9.06421
328.988	16.6165
332.363	19.792
335.737	19.9702
339.112	22.8225
342.487	28.0312
345.862	20.2607
349.237	16.6802
352.611	15.677
355.986	21.2883
359.361	19.9976
362.736	15.6543
366.111	12.4697
369.486	14.7248
372.86	18.2483
376.235	10.1067
379.61	3.54688
382.985	7.86914
386.36	2.67041
389.734	6.60767
393.109	1.93018
396.484	1.6189
399.859	4.30933
403.234	4.45117
406.608	2.11768
409.983	3.92798
413.358	0.541748
416.733	0.200928
420.108	0.450928
423.483	2.09058
426.857	7.11768
430.232	11.6345
433.607	14.0803
436.982	5.14185
440.357	8.61938
443.731	15.9783
447.106	19.5432
450.481	18.6565
453.856	17.9609
457.231	14.9324
460.606	12.4448
463.98	11.8306
467.355	15.0007
470.73	20.6113
474.105	20.6379
477.48	15.0195
480.854	18.167
484.229	15.7812
487.604	14.9512
490.979	16.95
494.354	16.9636
497.728	16.3579
501.103	22.1697
504.478	17.8462
507.853	17.0024
511.228	15.0002
514.603	11.5752
517.977	5.09473
521.352	0.309326
524.727	4.43237
528.102	2.17798
531.477	5.2085
534.851	4.74951
538.226	5.81396
541.601	6.52612
544.976	8.98193
548.351	16.5752
551.726	14.2615
555.1	10.0935
558.475	3.14282
561.85	9.46973
565.225	5.72485
568.6	2.73633
571.975	5.11865
575.349	5.41382
578.724	6.6062
582.099	3.58203
585.474	3.36719
588.849	3.28149
592.223	4.24194
595.598	10.1443
598.973	12.6094
602.348	13.7869
605.723	13.9111
609.097	3.60901
612.472	5.2218
615.847	9.96399
619.222	4.28137
622.597	7.33386
625.972	2.59863
629.346	2.15063
632.721	3.97632
636.096	0.930908
639.471	1.04443
642.846	5.14978
646.221	7.33044
649.595	8.79748
652.97	10.0725
656.345	14.447
659.72	19.0092
663.095	22.4355
666.469	20.2383
669.844	18.6766
673.219	24.5599
676.594	27.1837
679.969	34.4327
683.343	25.7338
686.718	17.1752
690.093	20.8911
693.468	26.7017
696.843	22.6989
700.217	19.333
703.592	15.7374
706.967	15.0978
710.342	18.2318
713.717	15.8086
717.092	11.3922
720.466	12.1483
723.841	9.57593
727.216	5.98413
730.591	3.61731
733.966	2.94238
737.341	0.546875
740.715	1.9176
744.09	5.2417
747.465	1.34814
750.84	0.302612
754.215	3.34021
757.589	4.19226
760.964	4.91064
764.339	9.27246
767.714	7.5437
771.089	15.2784
774.463	17.7472
777.838	22.1091
781.213	21.454
784.588	24.7141
787.963	27.3695
791.337	25.8829
794.712	30.9506
798.087	34.3341
801.462	29.2598
804.837	27.8414
808.212	23.209
811.586	21.041
814.961	15.6827
818.336	16.9232
821.711	11.7869
825.086	14.9498
828.461	11.2119
831.835	8.54639
835.21	8.05688
838.585	4.91431
841.96	1.55139
845.335	1.43469
848.709	5.09705
852.084	3.43933
855.459	3.578
858.834	1.7915
862.209	1.24268
865.583	0.361694
868.958	4.11169
872.333	8.04199
875.708	1.48999
879.083	2.36755
882.458	2.46692
885.832	8.96643
889.207	1.58533
892.582	10.3575
895.957	5.48926
899.332	10.3694
902.707	5.65295
906.081	8.94373
909.456	3.26221
912.831	2.78687
916.206	4.3844
919.581	9.90344
922.955	9.91223
926.33	11.9989
929.705	9.66333
933.08	10.9918
936.455	6.9082
939.83	0.346069
943.204	1.2782
946.579	2.46008
949.954	3.60693
953.329	2.49377
956.704	6.38049
960.078	4.55566
963.453	5.30713
966.828	1.20459
970.203	2.00952
973.578	7.0116
976.952	8.68445
980.327	2.48938
983.702	5.12524
987.077	1.7273
990.452	4.79272
993.827	2.83752
997.201	4.44055
1000.58	2.90381
1003.95	10.5797
1007.33	9.25793
1010.7	8.88196
1014.08	17.7385
1017.45	19.582
1020.83	22.1973
1024.2	24.7146
1027.58	23.0523
1030.95	36.7059
1034.32	36.5101
1037.7	42.6574
1041.07	44.5044
1044.45	49.3633
1047.82	50.4198
1051.2	56.3091
1054.57	51.1891
1057.95	54.6235
1061.32	53.91
1064.7	49.4529
1068.07	54.6774
1071.45	48.4749
1074.82	45.5023
1078.2	43.7399
1081.57	39.4236
1084.95	32.6664
1088.32	25.7007
1091.7	20.2972
1095.07	18.7229
1098.45	7.58118
1101.82	3.76074
1105.19	2.14551
1108.57	1.35706
1111.94	0.775513
1115.32	2.1062
1118.69	0.692139
1122.07	1.61292
1125.44	0.406494
1128.82	4.40649
1132.19	0.478638
1135.57	0.966431
1138.94	4.00745
1142.32	4.75452
1145.69	10.1897
1149.07	12.9558
1152.44	14.1882
1155.82	13.3857
1159.19	16.4133
1162.57	13.566
1165.94	18.059
1169.32	20.8036
1172.69	20.6346
1176.07	19.4773
1179.44	20.0308
1182.82	16.5706
1186.19	17.2858
1189.57	16.8018
1192.94	11.3763
1196.32	13.3928
1199.69	13.2793
1203.07	13.3401
1206.44	12.9523
1209.82	12.2186
1213.19	9.21033
1216.56	10.7262
1219.94	9.81885
1223.31	10.6908
1226.69	11.0035
1230.06	7.44019
1233.44	14.4022
1236.81	8.40784
1240.19	5.20447
1243.56	5.46338
1246.94	7.30286
1250.31	5.65442
1253.69	3.08801
1257.06	6.03101
1260.44	2.76355
1263.81	1.57886
1267.19	0.177612
1270.56	1.45483
1273.94	8.20532
1277.31	0.968994
1280.69	2.54639
1284.06	3.45947
1287.44	2.6405
1290.81	1.76709
1294.18	0.452271
1297.56	2.76917
1300.93	5.18408
1304.31	0.454468
