Measurement: Raman, 780 nm, unoriented, Raman Data Processed
Mineral: Ekanite
Rruff sample: R080036
Ideal chemistry: Ca_2_ThSi_8_O_20_
Locality: Unknown
Description: Dark green faceted gemstone (metamict)
Raman shift (cm-1)	intensity
140.253	0
143.146	0.009277
146.039	2.38477
148.931	18.8481
151.824	25.7378
154.717	22.6377
157.609	21.4194
160.502	16.0781
163.395	10.9712
166.287	18.2412
169.18	12.5317
172.073	17.4907
174.966	22.7632
177.858	20.4912
180.751	12.3594
183.644	12.877
186.536	16.1851
189.429	22.7876
192.322	13.9199
195.214	19.5142
198.107	13.7607
201	12.6001
203.893	9.62842
206.785	16.2432
209.678	16.875
212.571	18.9775
215.463	11.5493
218.356	20.1265
221.249	20.374
224.142	19.7021
227.034	13.5679
229.927	20.6128
232.82	15.2822
235.712	1.67481
238.605	7.35693
241.498	7.13965
244.39	4.63428
247.283	3.93848
250.176	11.7173
253.069	2.8418
255.961	1.70166
258.854	2.60938
261.747	2.97315
264.639	1.2583
267.532	2.0669
270.425	4.5459
273.317	17.5107
276.21	11.8267
279.103	19.0371
281.995	4.05225
284.888	10.8525
287.781	10.0361
290.674	5.98438
293.566	7.0459
296.459	10.2964
299.352	5.91211
302.244	12.1616
305.137	4.79834
308.03	2.2876
310.923	3.34277
313.815	8.28857
316.708	5.26318
319.601	5.03662
322.493	3.93994
325.386	13.1148
328.279	5.57324
331.171	6.61182
334.064	4.62305
336.957	7.9292
339.849	14.3198
342.742	14.9907
345.635	10.8955
348.527	12.9458
351.42	24.1724
354.313	18.7803
357.206	17.6982
360.098	19.3843
362.991	12.834
365.884	10.8096
368.776	11.0742
371.669	9.11426
374.562	4.83057
377.454	8.66992
380.347	9.0918
383.24	5.22607
386.133	3.44141
389.025	4.38623
391.918	5.20068
394.811	4.92725
397.703	0.895996
400.596	5.48584
403.489	7.18359
406.382	2.58301
409.274	5.44678
412.167	0.351074
415.06	12.7773
417.952	14.7046
420.845	16.3262
423.738	25.7993
426.63	28.5064
429.523	28.8154
432.416	24.834
435.308	34.8179
438.201	39.5361
441.094	50.8989
443.987	46.2647
446.879	51.0747
449.772	46.5801
452.665	42.6328
455.557	44.5098
458.45	43.2466
461.343	47.0132
464.236	44.478
467.128	48.6489
470.021	42.3696
472.914	49.9268
475.806	43.2388
478.699	41.8799
481.592	37.3701
484.484	34.1357
487.377	32.7607
490.27	29.4102
493.163	30.2046
496.055	31.644
498.948	32.3613
501.841	28.1802
504.733	21.8296
507.626	24.6401
510.519	18.8267
513.411	15.5312
516.304	9.19727
519.197	9.50684
522.09	1.89844
524.982	1.41602
527.875	2.38281
530.768	6.7168
533.66	8.74316
536.553	1.77637
539.446	1.65772
542.338	5.19385
545.231	4.47412
548.124	2.97363
551.016	1.61035
553.909	6.19043
556.802	1.25147
559.695	3.64014
562.587	4.51562
565.48	0.175293
568.373	6.12158
571.265	5.49658
574.158	5.29785
577.051	2.66602
579.943	6.33545
582.836	4.31299
585.729	1.82178
588.621	15.4204
591.514	8.67236
594.407	17.3862
597.3	13.1406
600.192	13.3267
603.085	15.061
605.978	19.6431
608.87	12.6294
611.763	13.7559
614.656	13.1421
617.548	7.93408
620.441	11.5322
623.334	13.2471
626.227	14.5063
629.119	11.1484
632.012	4.99072
634.905	4.40869
637.797	8.57959
640.69	6.09717
643.583	11.3828
646.476	7.88721
649.368	10.1973
652.261	11.1914
655.154	12.6968
658.046	7.06348
660.939	9.98389
663.832	6.99463
666.724	0.416504
669.617	7.71973
672.51	9.54736
675.403	19.2773
678.295	15.6816
681.188	12.5146
684.081	12.0513
686.973	11.2671
689.866	8.17529
692.759	6.03906
695.651	8.77734
698.544	13.438
701.437	12.7085
704.33	9.61914
707.222	3.07666
710.115	6.77197
713.008	9.06348
715.9	10.8271
718.793	15.4028
721.686	13.4468
724.578	7.69775
727.471	3.82861
730.364	6.03711
733.256	11.229
736.149	3.08789
739.042	2.96875
741.935	5.24658
744.827	5.75195
747.72	11.7236
750.613	9.48096
753.505	9.1167
756.398	5.28369
759.291	1.34375
762.183	0.604004
765.076	3.32666
767.969	0.171387
770.862	0.867188
773.754	0.747559
776.647	6.521
779.54	10.8018
782.432	7.81055
785.325	12.5249
788.218	11.9722
791.111	13.624
794.003	13.6294
796.896	16.9072
799.789	18.0117
802.681	12.6846
805.574	9.2832
808.467	18.8828
811.359	29.9155
814.252	29.7612
817.145	14.2266
820.038	21.606
822.93	15.917
825.823	14.8911
828.716	15.7871
831.608	16.2651
834.501	12.9321
837.394	16.7554
840.286	11.6606
843.179	14.0713
846.072	10.8003
848.965	3.91748
851.857	8.0166
854.75	6.95557
857.643	0.791992
860.535	8.40088
863.428	3.33887
866.321	9.71533
869.213	12.376
872.106	4.57812
874.999	5.38916
877.891	0.961914
880.784	0.441406
883.677	2.52051
886.569	5.25684
889.462	0.680176
892.355	6.41016
895.248	11.7725
898.14	5.35254
901.033	3.07275
903.926	1.88379
906.818	0.509277
909.711	1.14404
912.604	0.452148
915.496	4.65381
918.389	1.17432
921.282	3.77978
924.175	2.5459
927.067	1.62451
929.96	12.6704
932.853	6.75732
935.745	8.34033
938.638	1.26025
941.531	7.62012
944.423	9.03711
947.316	12.7417
950.209	11.8608
953.102	15.7388
955.994	5.0708
958.887	4.86231
961.78	4.15137
964.672	8.36523
967.565	4.47998
970.458	4.0874
973.351	1.76514
976.243	5.46289
979.136	3.50952
982.029	0.178467
984.921	2.72217
987.814	7.3584
990.707	8.75195
993.599	6.85352
996.492	4.87158
999.385	2.03418
1002.28	5.13135
1005.17	2.1626
1008.06	3.90991
1010.96	11.2043
1013.85	6.47339
1016.74	17.0327
1019.63	14.3928
1022.53	24.8462
1025.42	27.4551
1028.31	28.2432
1031.2	27.688
1034.1	39.2161
1036.99	31.8884
1039.88	37.2649
1042.78	39.2302
1045.67	38.2075
1048.56	34.6235
1051.45	44.1589
1054.35	43.4175
1057.24	40.4685
1060.13	40.7808
1063.02	40.7971
1065.92	43.6169
1068.81	44.0476
1071.7	49.0388
1074.6	38.0088
1077.49	40.5049
1080.38	29.3411
1083.27	36.0903
1086.17	30.9229
1089.06	29.3726
1091.95	24.8259
1094.84	14.8323
1097.74	12.7639
1100.63	7.68945
1103.52	16.4751
1106.41	2.96265
1109.31	4.18481
1112.2	8.31055
1115.09	3.65137
1117.98	1.90796
1120.88	11.4485
1123.77	1.25464
1126.66	1.13525
1129.56	0.458496
1132.45	10.0657
1135.34	3.87842
1138.23	11.7495
1141.13	11.0945
1144.02	18.7483
1146.91	20.1314
1149.81	22.1333
1152.7	24.5669
1155.59	16.8555
1158.48	23.874
1161.38	30.9043
1164.27	25.4885
1167.16	24.854
1170.05	29.4363
1172.95	27.5093
1175.84	26.2974
1178.73	27.2119
1181.62	34.4453
1184.52	27.4617
1187.41	29.6196
1190.3	30.3625
1193.2	24.457
1196.09	21.6924
1198.98	24.4304
1201.87	30.2395
1204.77	28.0847
1207.66	19.8103
1210.55	17.8923
1213.44	16.7156
1216.34	18.0754
1219.23	13.0764
1222.12	3.68677
1225.02	3.52222
1227.91	5.80469
1230.8	13.0203
1233.69	12.3784
1236.59	13.5457
1239.48	10.8386
1242.37	12.3037
1245.26	3.73901
1248.16	11.1416
1251.05	6.58838
1253.94	6.66504
1256.84	13.104
1259.73	6.96069
1262.62	4.61133
1265.51	0.046143
1268.41	8.92505
1271.3	7.86597
1274.19	11.4214
1277.08	4.91675
1279.98	12.2388
1282.87	5.17993
1285.76	0.168945
