Measurement: Raman, 532 nm, unoriented, Raman Data Processed
Mineral: Ekanite
Rruff sample: R100158
Ideal chemistry: Ca_2_ThSi_8_O_20_
Locality: Ratnapura District, Sri Lanka
Source: William W. Pinch
Description: Brown cut gemstone (metamict)
Raman shift (cm-1)	intensity
191.315	0
194.208	13.6494
197.101	14.6301
199.994	11.4438
202.886	1.68066
205.779	3.11182
208.672	11.6919
211.565	22.094
214.457	14.2856
217.35	13.4939
220.243	6.51978
223.135	18.8665
226.028	16.2156
228.921	17.0046
231.813	3.04663
234.706	6.79272
237.599	27.8435
240.492	24.7805
243.384	31.2634
246.277	29.2539
249.17	28.594
252.062	27.5132
254.955	16.8953
257.848	24.7227
260.74	10.4246
263.633	15.7544
266.526	23.5842
269.418	15.6133
272.311	7.90186
275.204	10.2918
278.097	8.51685
280.989	1.65503
283.882	8.09644
286.775	7.02319
289.667	18.8242
292.56	15.2014
295.453	6.18945
298.346	10.7224
301.238	2.80664
304.131	16.4023
307.024	7.30249
309.916	22.0334
312.809	25.6904
315.702	34.6865
318.594	41.2798
321.487	21.5605
324.38	24.3379
327.273	37.2217
330.165	39.9119
333.058	15.0938
335.951	19.3662
338.843	5.71704
341.736	18.8259
344.629	15.8364
347.522	18.2834
350.414	16.7087
353.307	18.1602
356.2	21.1423
359.092	22.6487
361.985	21.5896
364.878	29.6609
367.77	22.1184
370.663	29.0064
373.556	29.3957
376.449	31.2061
379.341	37.0784
382.234	34.8728
385.127	49.6091
388.019	54.1934
390.912	69.0371
393.805	74.6143
396.697	84.2551
399.59	72.1992
402.483	73.6963
405.376	60.6077
408.268	45.2529
411.161	23.7175
414.054	18.6582
416.946	23.6628
419.839	17.0068
422.732	7.63745
425.625	6.98071
428.517	14.9338
431.41	10.4297
434.303	10.5823
437.195	20.9131
440.088	10.0427
442.981	9.76367
445.873	3.62256
448.766	11.0444
451.659	8.14282
454.551	6.19824
457.444	6.55322
460.337	1.1648
463.23	10.4937
466.122	10.8813
469.015	1.33057
471.908	12.5093
474.8	9.01562
477.693	9.82471
480.586	3.25464
483.479	2.40991
486.371	5.25781
489.264	12.1741
492.157	20.0073
495.049	30.4014
497.942	39.3713
500.835	39.5679
503.728	52.2651
506.62	58.9475
509.513	69.6885
512.406	88.199
515.298	93.1638
518.191	96.24
521.084	82.4629
523.976	76.3721
526.869	66.075
529.762	56.1514
532.654	45.3398
535.547	32.7698
538.44	31.9983
541.333	34.2629
544.225	21.1306
547.118	18.0488
550.011	19.2556
552.903	15.2835
555.796	6.67847
558.689	6.13477
561.582	4.92285
564.474	4.48144
567.367	12.5786
570.26	16.1209
573.152	4.44751
576.045	1.27734
578.938	6.0022
581.83	1.29858
584.723	1.8916
587.616	13.156
590.509	12.6201
593.401	10.0083
596.294	7.27417
599.187	13.686
602.079	18.386
604.972	20.2564
607.865	13.9153
610.758	25.9097
613.65	21.6277
616.543	17.2883
619.436	25.1885
622.328	29.3945
625.221	52.7454
628.114	50.6255
631.006	63.2261
633.899	68.8709
636.792	78.6108
639.684	95.3032
642.577	89.541
645.47	74.4082
648.363	52.3252
651.255	34.6892
654.148	32.4236
657.041	30.5532
659.933	36.219
662.826	11.5508
665.719	6.30762
668.612	8.46875
671.504	2.4209
674.397	20.0393
677.29	7.16016
680.182	8.96875
683.075	13.9531
685.968	19.374
688.861	31.6355
691.753	20.7654
694.646	14.9429
697.539	12.3755
700.431	8.86963
703.324	15.1199
706.217	18.1846
709.109	10.313
712.002	9.74902
714.895	12.1733
717.788	9.74707
720.68	9.91431
723.573	7.0459
726.466	3.44702
729.358	0.706787
732.251	6.65796
735.144	6.59106
738.036	5.11084
740.929	11.5544
743.822	2.15649
746.715	5.49951
749.607	1.02441
752.5	13.6013
755.393	8.1394
758.285	12.1716
761.178	13.0967
764.071	21.5872
766.963	23.5166
769.856	15.1079
772.749	14.0207
775.642	13.9641
778.534	15.3332
781.427	21.6245
784.32	15.6902
787.212	9.70483
790.105	16.6829
792.998	15.2576
795.89	21.3831
798.783	20.1106
801.676	29.8479
804.569	21.5916
807.461	21.6916
810.354	15.4348
813.247	12.6494
816.139	8.58496
819.032	12.6116
821.925	26.1802
824.818	6.56958
827.71	13.4104
830.603	14.5513
833.496	8.97339
836.388	2.85767
839.281	8.29956
842.174	15.7432
845.067	8.63062
847.959	1.6106
850.852	4.66333
853.745	13.8826
856.637	4.64893
859.53	1.79394
862.423	18.8335
865.315	4.13428
868.208	8.65503
871.101	26.8023
873.994	21.9858
876.886	19.926
879.779	23.9268
882.672	11.0303
885.564	13.1218
888.457	11.7009
891.35	19.9202
894.242	13.4185
897.135	30.2632
900.028	23.698
902.92	31.063
905.813	29.2551
908.706	34.3801
911.599	25.3672
914.491	20.8186
917.384	22.7947
920.277	32.7266
923.169	29.6868
926.062	45.5193
928.955	42.456
931.847	48.5125
934.74	41.0994
937.633	24.1494
940.526	3.43091
943.418	8.92651
946.311	0.079834
949.204	1.77124
952.096	5.06836
954.989	18.9233
957.882	10.7805
960.775	23.6287
963.667	15.2229
966.56	20.6445
969.453	35.8923
972.345	26.7266
975.238	40.2205
978.131	27.9807
981.024	24.219
983.916	14.9302
986.809	22.0547
989.702	22.6138
992.594	18.3374
995.487	20.8318
998.38	16.5549
1001.27	22.4123
1004.16	16.5618
1007.06	1.63477
1009.95	10.0388
1012.84	17.9597
1015.74	23.1526
1018.63	24.1492
1021.52	18.051
1024.41	21.8821
1027.31	6.60449
1030.2	17.1148
1033.09	15.5149
1035.98	17.5867
1038.88	16.9854
1041.77	26.7505
1044.66	12.3975
1047.56	16.4739
1050.45	12.6924
1053.34	24.4397
1056.23	26.0518
1059.13	21.6028
1062.02	21.1719
1064.91	8.14819
1067.81	5.48315
1070.7	11.5515
1073.59	17.4612
1076.48	22.3254
1079.38	14.3748
1082.27	9.39966
1085.16	16.6592
1088.05	10.1553
1090.95	6.20776
1093.84	4.39404
1096.73	7.88965
1099.62	5.49951
1102.52	6.62158
1105.41	7.97339
1108.3	10.2063
1111.19	11.1929
1114.09	4.12207
1116.98	5.60571
1119.87	7.71997
1122.77	2.29663
1125.66	0.111328
1128.55	1.45068
1131.44	6.41528
1134.34	4.65112
1137.23	3.15332
1140.12	0.330322
1143.02	2.16943
1145.91	5.20459
1148.8	2.91748
1151.69	6.61157
1154.59	0.855225
1157.48	2.979
1160.37	0.672119
1163.26	7.0271
1166.16	13.9817
1169.05	7.60303
1171.94	14.8188
1174.84	13.5356
1177.73	13.3467
1180.62	14.3352
1183.51	4.02832
1186.4	12.3091
1189.3	17.5666
1192.19	19.7044
1195.08	11.814
1197.98	15.5405
1200.87	18.491
1203.76	10.23
1206.65	7.87231
1209.55	17.8743
1212.44	13.3716
1215.33	14.5256
1218.22	0.047852
1221.12	15.1687
1224.01	18.3699
1226.9	6.73657
1229.8	12.9211
1232.69	3.6416
1235.58	2.95654
1238.47	1.9856
1241.37	3.47876
1244.26	13.0007
1247.15	13.5391
1250.05	15.3313
1252.94	6.47681
1255.83	8.51758
1258.72	9.78735
1261.62	12.7109
1264.51	14.4348
1267.4	6.5625
1270.29	10.4761
1273.19	5.38477
1276.08	14.4172
1278.97	12.4905
1281.87	9.19409
1284.76	15.8972
1287.65	13.1121
1290.54	14.8357
1293.43	2.96216
1296.33	15.0762
1299.22	7.57031
1302.11	0.033936
