Measurement: Raman, 780 nm, unoriented, Raman Data Processed
Mineral: Ekatite
Rruff sample: R110136
Ideal chemistry: (Fe^3+^,Fe^2+^,Zn^2+^)_12_(As^3+^O_3_)_6_(As^3+^O_3_,SiO_3_OH)_2_(OH)_6_
Locality: Tsumeb, Namibia
Source: William W. Pinch
Description: Radiating aggregate of thin black prismatic crystals
Raman shift (cm-1)	intensity
187.545	0
190.437	8.33051
193.33	22.2165
196.223	1.69641
199.115	28.572
202.008	12.3405
204.901	86.9404
207.794	168.379
210.686	328.376
213.579	649.511
216.472	951.628
219.364	1086.7
222.257	745.893
225.15	422.123
228.042	210.256
230.935	157.591
233.828	95.5395
236.721	56.5759
239.613	98.1245
242.506	16.8719
245.399	80.0241
248.291	31.5755
251.184	55.8912
254.077	38.3457
256.969	88.3277
259.862	27.9898
262.755	123.585
265.648	196.105
268.54	241.309
271.433	264.71
274.326	436.815
277.218	521.689
280.111	656.23
283.004	686.875
285.897	630.331
288.789	472.818
291.682	339.985
294.575	330.679
297.467	251.774
300.36	146.881
303.253	121.954
306.145	78.6849
309.038	56.7766
311.931	40.8839
314.824	0.949402
317.716	6.90497
320.609	10.8021
323.502	12.679
326.394	2.56012
329.287	13.3267
332.18	0.3349
335.072	5.30273
337.965	14.2619
340.858	46.6395
343.75	5.94891
346.643	36.4139
349.536	29.9788
352.429	19.1156
355.321	56.3341
358.214	54.7781
361.107	51.2594
364	47.8403
366.892	75.0883
369.785	94.2387
372.678	87.381
375.57	106.187
378.463	130.618
381.356	114.825
384.248	130.782
387.141	123.215
390.034	162.764
392.926	174.887
395.819	152.811
398.712	133.904
401.605	99.3171
404.497	59.413
407.39	50.5021
410.283	39.8663
413.175	22.357
416.068	53.3436
418.961	16.0723
421.853	19.6273
424.746	16.4341
427.639	7.64343
430.532	49.9554
433.424	14.5726
436.317	49.9241
439.21	11.7471
442.102	34.6822
444.995	56.8339
447.888	44.8543
450.781	46.1098
453.673	60.9682
456.566	36.8351
459.459	39.1307
462.351	55.8465
465.244	70.7567
468.137	100.781
471.029	57.8815
473.922	135.694
476.815	82.4017
479.707	132.322
482.6	124.253
485.493	125.536
488.386	80.3154
491.278	135.304
494.171	129.961
497.064	103.287
499.956	83.9734
502.849	115.688
505.742	91.4312
508.635	114.287
511.527	47.9119
514.42	73.149
517.313	72.3403
520.205	82.5644
523.098	75.954
525.991	97.9466
528.883	44.7423
531.776	35.0074
534.669	49.7686
537.562	32.8721
540.454	26.9137
543.347	51.0502
546.24	0.912964
549.132	63.5413
552.025	40.2388
554.918	23.2586
557.81	31.7405
560.703	37.2064
563.596	39.9406
566.489	18.7102
569.381	13.2005
572.274	57.4895
575.167	10.7973
578.059	47.3532
580.952	19.7794
583.845	31.3359
586.737	16.2853
589.63	72.5804
592.523	66.2085
595.415	71.6182
598.308	68.6205
601.201	76.7325
604.094	46.4675
606.986	56.0229
609.879	26.3702
612.772	73.4001
615.664	31.2681
618.557	54.6569
621.45	34.6897
624.342	38.1054
627.235	40.8416
630.128	37.8655
633.021	24.6299
635.913	45.8326
638.806	67.3045
641.699	82.3286
644.591	67.3948
647.484	25.4175
650.377	20.1035
653.269	30.9181
656.162	71.9752
659.055	32.9605
661.948	17.263
664.84	77.2688
667.733	45.2991
670.626	3.91515
673.518	29.5785
676.411	41.1525
679.304	7.48361
682.197	58.7567
685.089	23.3441
687.982	6.20602
690.875	3.83023
693.767	4.33577
696.66	6.44019
699.553	41.1648
702.445	36.2284
705.338	48.452
708.231	44.6251
711.124	9.91226
714.016	46.0529
716.909	35.7384
719.802	25.5422
722.694	23.9349
725.587	30.0012
728.48	7.03517
731.372	26.9049
734.265	56.5122
737.158	49.6871
740.051	13.1194
742.943	13.2281
745.836	61.4918
748.729	24.4826
751.621	49.4978
754.514	17.1581
757.407	38.6022
760.299	27.9675
763.192	41.6238
766.085	19.346
768.977	33.3548
771.87	44.2342
774.763	8.54392
777.656	49.4174
780.548	49.3723
783.441	46.5753
786.334	0.04483
789.226	38.2689
792.119	53.8927
795.012	44.1707
797.904	41.3784
800.797	15.5263
803.69	38.7984
806.583	33.9182
809.475	43.5161
812.368	18.4405
815.261	55.3322
818.153	22.7963
821.046	73.9314
823.939	49.4398
826.832	52.1852
829.724	63.4454
832.617	36.086
835.51	49.0417
838.402	46.7276
841.295	54.6624
844.188	39.0518
847.08	56.5143
849.973	46.6434
852.866	38.2023
855.759	3.47376
858.651	47.1844
861.544	33.1141
864.437	31.1228
867.329	48.0805
870.222	39.7712
873.115	61.5907
876.007	30.9554
878.9	40.1027
881.793	23.2327
884.686	42.8213
887.578	27.1111
890.471	23.008
893.364	33.9132
896.256	7.64343
899.149	12.2405
902.042	17.0097
904.934	54.5887
907.827	81.748
910.72	8.93432
913.612	11.4166
916.505	18.9535
919.398	4.75027
922.291	21.4287
925.183	5.01938
928.076	58.2191
930.969	33.7217
933.861	49.5751
936.754	15.1715
939.647	27.2223
942.539	7.98312
945.432	9.05364
948.325	16.5598
951.218	18.0257
954.11	43.4286
957.003	45.9742
959.896	47.6018
962.788	55.3573
965.681	46.9321
968.574	4.72571
971.466	27.1059
974.359	19.8495
977.252	70.0085
980.145	33.1292
983.037	25.6014
985.93	10.2098
988.823	12.5243
991.715	47.1789
994.608	23.2834
997.501	20.8495
1000.39	16.2339
1003.29	24.9589
1006.18	24.3737
1009.07	40.3175
1011.96	10.0385
1014.86	47.4407
1017.75	23.2654
1020.64	30.5196
1023.53	18.4698
1026.43	29.5066
1029.32	20.6791
1032.21	10.2477
1035.11	20.7203
1038	16.4933
1040.89	9.99621
1043.78	30.6339
1046.68	14.6668
1049.57	29.9318
1052.46	73.853
1055.36	6.19653
1058.25	7.72081
1061.14	54.5919
1064.03	33.6663
1066.93	30.4836
1069.82	36.9619
1072.71	10.2955
1075.6	20.3662
1078.5	47.1241
1081.39	54.1322
1084.28	29.8726
1087.17	40.9416
1090.07	16.43
1092.96	21.1642
1095.85	42.7122
1098.74	7.48415
1101.64	5.60957
1104.53	7.23509
1107.42	16.0096
1110.32	13.8094
1113.21	7.69444
1116.1	21.7219
1118.99	31.9921
1121.89	13.691
1124.78	18.8602
1127.67	13.4385
1130.57	31.0447
1133.46	13.5067
1136.35	22.8846
1139.24	44.0152
1142.14	29.6399
1145.03	38.0044
1147.92	35.8234
1150.81	40.3763
1153.71	29.2342
1156.6	50.5519
1159.49	25.2493
1162.38	27.0928
1165.28	4.7654
1168.17	8.35168
1171.06	33.0899
1173.96	34.8436
1176.85	14.5664
1179.74	5.34125
1182.63	23.3319
1185.53	34.499
1188.42	21.2942
1191.31	42.1097
1194.2	12.76
1197.1	37.9697
1199.99	37.4354
1202.88	50.3594
1205.78	40.4221
1208.67	25.2927
1211.56	53.7473
1214.45	15.5738
1217.35	36.205
1220.24	38.4754
1223.13	35.9729
1226.02	24.7445
1228.92	29.7955
1231.81	41.7319
1234.7	28.8808
1237.6	51.9931
1240.49	21.5522
1243.38	5.83495
1246.27	52.8288
1249.17	34.8581
1252.06	34.7482
1254.95	42.4991
1257.84	31.0199
1260.74	17.7074
1263.63	67.3954
1266.52	54.8909
1269.41	43.9188
1272.31	44.6291
1275.2	53.4504
1278.09	33.8857
1280.98	20.658
1283.88	0.149551
