Measurement: Raman, 780 nm, unoriented, Raman Data Processed
Mineral: Elbaite
Rruff sample: R060562
Ideal chemistry: Na(Al_1.5_Li_1.5_)Al_6_(Si_6_O_18_)(BO_3_)_3_(OH)_3_OH
Locality: unknown
Source: Gemological Institute of America
Description: Blue colored polished fragment
Measured chemistry: (Na_0.68_Ca_0.20_[box]_0.12_)(Li_1.20_Al_1.12_Fe^2+^_0.50_Mn_0.18_)Al_6_(BO_3_)_3_[Si_6_O_18_]((OH)_0.80_F_0.20_)_4_
Raman shift (cm-1)	intensity
102.813	0
106.187	4.79073
109.562	9.38515
112.937	0.165924
116.312	0.049149
119.687	2.98947
123.061	7.24847
126.436	6.99526
129.811	11.2458
133.186	11.6416
136.561	11.1798
139.936	7.08942
143.31	2.82544
146.685	3.6485
150.06	2.51302
153.435	4.05505
156.81	3.55879
160.185	1.68101
163.559	0.684586
166.934	1.54266
170.309	3.02913
173.684	0.929352
177.059	2.72024
180.433	2.41565
183.808	0.942993
187.183	0.452545
190.558	0.565292
193.933	1.71658
197.307	3.19972
200.682	5.46492
204.057	9.40141
207.432	12.7134
210.807	18.5993
214.181	29.0354
217.556	40.8225
220.931	52.9051
224.306	58.5201
227.681	50.8751
231.056	46.5824
234.43	38.8514
237.805	38.9791
241.18	37.4197
244.555	32.767
247.93	23.1513
251.304	19.8356
254.679	14.7652
258.054	10.3488
261.429	11.0273
264.804	9.68138
268.178	11.125
271.553	10.0919
274.928	11.9238
278.303	10.0751
281.678	6.64543
285.053	6.41965
288.427	1.97838
291.802	0.106598
295.177	1.88673
298.552	1.61691
301.927	0.583832
305.301	0.873505
308.676	2.6252
312.051	5.48093
315.426	7.25623
318.801	9.60466
322.175	11.8656
325.55	13.6695
328.925	18.4876
332.3	17.2577
335.675	18.9878
339.05	20.9897
342.424	26.3321
345.799	26.8067
349.174	28.2637
352.549	30.821
355.924	33.6626
359.298	40.0132
362.673	53.7591
366.048	71.3366
369.423	104.596
372.798	128.183
376.173	107.835
379.547	75.4185
382.922	48.348
386.297	36.2422
389.672	26.7088
393.047	20.1747
396.421	20.251
399.796	21.9955
403.171	26.1261
406.546	30.6652
409.921	29.7055
413.296	18.4084
416.67	9.30556
420.045	3.49678
423.42	1.49416
426.795	0.147491
430.17	1.00259
433.544	1.56808
436.919	0.221741
440.294	1.71579
443.669	1.04555
447.044	3.0546
450.418	3.19377
453.793	4.18051
457.168	5.87198
460.543	5.88069
463.918	8.49159
467.293	4.70491
470.667	5.14903
474.042	10.0153
477.417	10.7137
480.792	10.507
484.167	12.0642
487.541	17.4735
490.916	20.6618
494.291	22.3951
497.666	25.9182
501.041	28.0006
504.416	28.761
507.79	30.0386
511.165	29.0617
514.54	31.4857
517.915	31.2211
521.29	28.7952
524.664	34.3421
528.039	35.4755
531.414	32.7071
534.789	31.2797
538.164	30.2655
541.538	27.1821
544.913	24.0316
548.288	19.9341
551.663	17.2959
555.038	14.5403
558.413	11.7442
561.787	8.37654
565.162	5.14932
568.537	4.96303
571.912	3.03935
575.287	2.3432
578.661	3.15143
582.036	1.07124
585.411	1.27017
588.786	0.293579
592.161	1.1189
595.535	1.7433
598.91	0.12468
602.285	1.80479
605.66	2.70636
609.035	3.18271
612.41	4.76488
615.784	4.85324
619.159	6.14319
622.534	13.548
625.909	16.2541
629.284	22.9752
632.658	26.8811
636.033	22.9455
639.408	17.4326
642.783	13.7875
646.158	11.1333
649.533	9.19551
652.907	8.44342
656.282	6.5638
659.657	6.28336
663.032	4.77924
666.407	2.42365
669.781	0.330032
673.156	0.302307
676.531	0.739517
679.906	0.101913
683.281	0.804947
686.655	2.55544
690.03	7.73482
693.405	12.208
696.78	23.1763
700.155	34.6094
703.53	42.7069
706.904	47.6328
710.279	45.459
713.654	32.0007
717.029	18.2133
720.404	13.1715
723.778	7.46864
727.153	6.33046
730.528	7.01358
733.903	8.08427
737.278	10.0499
740.653	10.9078
744.027	14.9724
747.402	20.3259
750.777	24.4827
754.152	24.5068
757.527	19.9554
760.901	14.3927
764.276	11.5269
767.651	11.071
771.026	6.19586
774.401	6.02185
777.775	6.79353
781.15	3.97182
784.525	1.9174
787.9	0.211914
791.275	0.352371
794.649	0.794968
798.024	1.72449
801.399	0.826767
804.774	0.676285
808.149	0.906418
811.524	1.47987
814.898	1.69499
818.273	3.72531
821.648	1.56203
825.023	2.33575
828.398	4.77362
831.773	6.74861
835.147	4.2872
838.522	7.03662
841.897	5.44118
845.272	8.72406
848.647	9.44019
852.021	8.03093
855.396	6.83936
858.771	8.07579
862.146	7.37012
865.521	7.12489
868.895	4.3177
872.27	5.69218
875.645	5.02202
879.02	3.86389
882.395	2.28082
885.769	3.50316
889.144	0.502441
892.519	1.2542
895.894	0.038437
899.269	0.224487
902.644	3.61467
906.018	0.008957
909.393	0.080368
912.768	0.346268
916.143	0.033722
919.518	2.04134
922.893	0.681641
926.267	1.14484
929.642	0.298904
933.017	0.835129
936.392	0.08522
939.767	1.93401
943.141	1.10077
946.516	3.44025
949.891	1.31195
953.266	1.89308
956.641	3.32889
960.015	4.51767
963.39	4.95711
966.765	4.64658
970.14	2.90227
973.515	4.30794
976.889	3.84152
980.264	3.41612
983.639	1.14712
987.014	1.12074
990.389	1.2252
993.764	2.12028
997.138	2.43376
1000.51	0.797104
1003.89	4.31641
1007.26	2.85779
1010.64	2.49741
1014.01	3.80098
1017.39	3.9763
1020.76	4.31407
1024.14	1.42946
1027.51	2.81558
1030.89	3.9514
1034.26	4.96136
1037.64	9.68323
1041.01	13.3821
1044.39	20.3651
1047.76	23.0106
1051.13	30.2118
1054.51	34.7841
1057.88	36.4468
1061.26	32.7052
1064.63	27.4758
1068.01	22.8752
1071.38	16.4331
1074.76	13.2157
1078.13	11.2808
1081.51	12.3739
1084.88	12.3445
1088.26	10.4233
1091.63	8.80011
1095.01	7.879
1098.38	6.20493
1101.76	4.57155
1105.13	3.20441
1108.51	2.46526
1111.88	1.39194
1115.26	1.2391
1118.63	2.93332
1122.01	0.732483
1125.38	2.28557
1128.76	0.187042
1132.13	0.248413
1135.51	1.19269
1138.88	0.654007
1142.26	0.345886
1145.63	2.44078
1149.01	0.342834
1152.38	1.08859
1155.76	2.75662
1159.13	1.20476
1162.5	5.11395
1165.88	2.37872
1169.25	3.58078
1172.63	1.50089
1176	3.95962
1179.38	2.06242
1182.75	3.88506
1186.13	3.97972
1189.5	4.41638
1192.88	3.46527
1196.25	4.78378
1199.63	4.81128
1203	4.85747
1206.38	3.26523
1209.75	4.416
1213.13	3.28326
1216.5	5.44057
1219.88	4.36935
1223.25	2.66844
1226.63	1.86206
1230	2.33113
1233.38	0.231384
1236.75	2.3326
1240.12	1.79054
1243.5	1.6541
1246.88	1.07535
1250.25	0.560013
1253.62	2.41006
1257	1.45523
1260.37	1.71045
1263.75	0.694366
1267.12	1.97836
1270.5	0.519165
1273.87	0.095825
1277.25	1.51776
1280.62	1.36058
1284	0.39743
