Measurement: Raman, 785 nm, unoriented, Raman Data Processed
Mineral: Ellenbergerite
Rruff sample: R070395
Ideal chemistry: Mg_6_(Mg,Ti^4+^,Zr^4+^,[box])_2_(Al,Mg)_6_Si_8_O_28_(OH)_10_
Locality: Case Parigi, Martiniana Po, Varaita Valley, Dora Maira Massif, Cuneo Province, Piedmont, Italy
Source: Michael Scott
Description: Purple grain associated with a white platy chlorite mineral
Raman shift (cm-1)	intensity
180.802	0
183.695	6.82233
186.587	138.334
189.48	252.389
192.373	456.361
195.265	466.2
198.158	661.548
201.051	591.797
203.944	692.638
206.836	649.747
209.729	589.368
212.622	470.794
215.514	368.441
218.407	436.281
221.3	462.215
224.192	449.055
227.085	425.815
229.978	255.26
232.87	377.318
235.763	332.421
238.656	480.673
241.549	505.54
244.441	403.835
247.334	147.135
250.227	16.3971
253.119	35.644
256.012	61.9499
258.905	7.70952
261.798	68.4773
264.69	191.106
267.583	117.678
270.476	147.444
273.368	81.1299
276.261	19.1011
279.154	81.8501
282.046	121.408
284.939	358.348
287.832	495.434
290.724	591.34
293.617	683.648
296.51	762.915
299.403	381.688
302.295	259.854
305.188	111.979
308.081	14.9718
310.973	26.6739
313.866	44.7978
316.759	63.8114
319.651	53.0731
322.544	252.222
325.437	511.673
328.33	667.585
331.222	855.81
334.115	853.641
337.008	812.894
339.9	680.033
342.793	714.005
345.686	432.06
348.579	384.181
351.471	441.361
354.364	387.421
357.257	219.392
360.149	138.021
363.042	15.2277
365.935	12.9347
368.827	35.0092
371.72	20.6171
374.613	27.4138
377.505	1.41675
380.398	11.4057
383.291	36.2684
386.184	29.319
389.076	92.7802
391.969	130.183
394.862	286.173
397.754	482.384
400.647	512.313
403.54	836.493
406.433	941.003
409.325	1095.04
412.218	1346.54
415.111	1529.44
418.003	1770.75
420.896	1865.02
423.789	1984.74
426.681	1751.39
429.574	1663.86
432.467	1384.55
435.36	1145.8
438.252	1066.09
441.145	831.657
444.038	745.136
446.93	632.54
449.823	618.129
452.716	484.51
455.608	339.009
458.501	264.388
461.394	294.072
464.286	151.096
467.179	139.975
470.072	44.9216
472.965	10.9373
475.857	27.4043
478.75	35.1262
481.643	5.31061
484.535	24.4858
487.428	150.016
490.321	244.211
493.214	339.971
496.106	331.396
498.999	290.349
501.892	461.482
504.784	673.885
507.677	687.664
510.57	786.919
513.462	900.884
516.355	911.518
519.248	680.218
522.14	715.442
525.033	688.376
527.926	789.999
530.819	664.926
533.711	867.431
536.604	569.074
539.497	513.214
542.389	281.033
545.282	396.308
548.175	392.77
551.067	380.716
553.96	462.257
556.853	433.94
559.745	397.643
562.638	364.125
565.531	283.361
568.424	295.199
571.316	247.124
574.209	132.993
577.102	106.37
579.994	170.123
582.887	262.144
585.78	175.033
588.673	239.734
591.565	275.226
594.458	245.664
597.351	165.84
600.243	261.754
603.136	97.3483
606.029	8.25433
608.921	12.4926
611.814	31.406
614.707	22.1809
617.6	21.2327
620.492	4.09312
623.385	2.12012
626.278	10.3749
629.17	4.59264
632.063	47.9134
634.956	165.615
637.848	157.16
640.741	272.997
643.634	273.161
646.527	354.463
649.419	328.947
652.312	403.889
655.205	432.24
658.097	406.603
660.99	415.578
663.883	375.216
666.775	302.035
669.668	315.184
672.561	229.598
675.454	134.252
678.346	178.241
681.239	28.0015
684.132	137.317
687.024	42.4018
689.917	37.7193
692.81	0.494134
695.702	82.0906
698.595	47.9508
701.488	150.074
704.381	3.84307
707.273	49.2928
710.166	0.720835
713.059	115.42
715.951	57.7213
718.844	19.1079
721.737	22.7875
724.63	89.3201
727.522	53.8732
730.415	58.9462
733.308	50.1804
736.2	54.3577
739.093	80.8852
741.986	73.1262
744.878	104.248
747.771	110.482
750.664	103.76
753.557	110.533
756.449	86.4276
759.342	27.6154
762.235	8.85334
765.127	63.9336
768.02	3.54147
770.913	45.5167
773.805	26.7492
776.698	19.7914
779.591	41.7914
782.484	11.9531
785.376	15.2058
788.269	21.9635
791.162	3.88062
794.054	1.16486
796.947	23.2277
799.84	13.5796
802.732	23.9148
805.625	64.028
808.518	0.126255
811.41	69.6664
814.303	92.0473
817.196	157.183
820.089	54.485
822.981	83.0887
825.874	147.33
828.767	286.019
831.659	254.407
834.552	343.666
837.445	427.384
840.337	484.802
843.23	550.035
846.123	641.379
849.016	691.035
851.908	718.039
854.801	845.094
857.694	804.459
860.586	804.87
863.479	816.322
866.372	670.46
869.264	660.978
872.157	572.607
875.05	521.287
877.943	438.498
880.835	509.96
883.728	633.003
886.621	618.764
889.513	771.173
892.406	701.261
895.299	723.926
898.192	780.826
901.084	783.581
903.977	743.039
906.87	746.926
909.762	689.363
912.655	753.049
915.548	597.95
918.44	605.66
921.333	427.273
924.226	364.038
927.119	196.775
930.011	218.789
932.904	143.062
935.797	41.3422
938.689	52.6241
941.582	0.030655
944.475	36.0367
947.367	3.86018
950.26	6.66671
953.153	43.4323
956.045	21.2196
958.938	20.7964
961.831	15.4081
964.724	40.7438
967.616	45.1086
970.509	2.58507
973.402	77.0106
976.294	198.733
979.187	240.704
982.08	203.469
984.972	194.024
987.865	146.944
990.758	304.46
993.651	293.321
996.543	321.527
999.436	284.285
1002.33	260.296
1005.22	250.953
1008.11	230.987
1011.01	227.624
1013.9	136.143
1016.79	48.7998
1019.68	43.6354
1022.58	8.93139
1025.47	16.4957
1028.36	23.3409
1031.26	0.049677
1034.15	17.9585
1037.04	23.0954
1039.93	117.231
1042.83	53.4652
1045.72	75.3583
1048.61	135.807
1051.51	162.53
1054.4	210.447
1057.29	168.294
1060.18	398.611
1063.08	340.572
1065.97	386.031
1068.86	422.648
1071.75	299.573
1074.65	235.246
1077.54	67.3173
1080.43	133.255
1083.32	81.0357
1086.22	112.196
1089.11	31.6886
1092	36.5748
1094.89	30.5653
1097.79	77.8721
1100.68	105.791
1103.57	73.1653
1106.47	5.1867
1109.36	72.2382
1112.25	49.115
1115.14	82.66
1118.04	41.9521
1120.93	59.8588
1123.82	146.6
1126.71	99.9218
1129.61	72.5683
1132.5	130.9
1135.39	162.99
1138.29	69.5644
1141.18	98.9139
1144.07	107.818
1146.96	61.0924
1149.86	80.983
1152.75	73.6343
1155.64	11.9076
1158.53	78.8229
1161.43	83.2566
1164.32	11.6272
1167.21	27.2327
1170.11	17.3546
1173	21.1618
1175.89	0.885626
1178.78	1.42277
1181.68	16.9266
1184.57	3.54782
1187.46	6.20456
1190.35	21.2723
1193.25	109.059
1196.14	77.677
1199.03	115.409
1201.92	181.044
1204.82	260.33
1207.71	286.577
1210.6	331.918
1213.5	421.727
1216.39	508.784
1219.28	611.869
1222.17	744.566
1225.07	729.014
1227.96	622.77
1230.85	323.665
1233.74	198.219
1236.64	107.129
1239.53	16.6543
1242.42	8.67836
