Measurement: Raman, 532 nm, unoriented, Raman Data Processed
Mineral: Ellenbergerite
Rruff sample: R070395
Ideal chemistry: Mg_6_(Mg,Ti^4+^,Zr^4+^,[box])_2_(Al,Mg)_6_Si_8_O_28_(OH)_10_
Locality: Case Parigi, Martiniana Po, Varaita Valley, Dora Maira Massif, Cuneo Province, Piedmont, Italy
Source: Michael Scott
Description: Purple grain associated with a white platy chlorite mineral
Raman shift (cm-1)	intensity
163.643	0
166.536	16.4544
169.429	470.146
172.321	706.149
175.214	746.482
178.107	488.921
180.999	561.986
183.892	605.958
186.785	668.302
189.678	762.435
192.57	745.865
195.463	715.432
198.356	855.342
201.248	826.663
204.141	829.73
207.034	828.632
209.926	569.541
212.819	592.071
215.712	495.585
218.605	701.873
221.497	457.229
224.39	266.741
227.283	437.657
230.175	273.998
233.068	435.693
235.961	382.087
238.853	184.284
241.746	167.053
244.639	135.98
247.532	1.5766
250.424	20.3318
253.317	39.7997
256.21	175.879
259.102	128.282
261.995	146.498
264.888	18.3698
267.781	100.966
270.673	13.7401
273.566	51.1739
276.459	57.2674
279.351	29.6349
282.244	44.5821
285.137	15.0907
288.029	59.4102
290.922	66.2944
293.815	174.517
296.707	140.249
299.6	216.807
302.493	123.313
305.386	157.549
308.278	256.604
311.171	276.954
314.064	166.993
316.956	152.134
319.849	279.049
322.742	442.549
325.635	207.93
328.527	332.317
331.42	230.152
334.313	145.01
337.205	249.634
340.098	214.028
342.991	104.738
345.883	201.577
348.776	204.842
351.669	92.3904
354.562	51.5955
357.454	122.284
360.347	81.0037
363.24	51.3508
366.132	103.835
369.025	145.709
371.918	35.2774
374.81	33.712
377.703	174.513
380.596	69.4494
383.488	189.182
386.381	110.003
389.274	10.1319
392.167	115.456
395.059	296.689
397.952	215.906
400.845	172.012
403.737	499.726
406.63	547.243
409.523	676.13
412.416	765.143
415.308	1012.95
418.201	985.836
421.094	1187.3
423.986	995.646
426.879	888.306
429.772	1019.82
432.664	745.288
435.557	790.092
438.45	578.462
441.343	643.782
444.235	556.486
447.128	430.71
450.021	430.718
452.913	550.74
455.806	326.497
458.699	267.768
461.591	175.572
464.484	10.988
467.377	38.8359
470.27	3.03796
473.162	22.7715
476.055	21.1998
478.948	42.2341
481.84	4.16596
484.733	5.58411
487.626	56.4036
490.519	59.4335
493.411	45.0979
496.304	108.081
499.197	81.8835
502.089	128.049
504.982	259.01
507.875	11.8978
510.767	119.787
513.66	237.137
516.553	151.622
519.446	304.362
522.338	309.067
525.231	142.881
528.124	272.646
531.016	180.9
533.909	85.7671
536.802	187.656
539.694	218.201
542.587	131.029
545.48	160.379
548.372	309.224
551.265	198.501
554.158	192.149
557.051	17.4573
559.943	285.477
562.836	70.7476
565.729	111.806
568.621	63.8292
571.514	42.8008
574.407	17.368
577.299	25.4018
580.192	22.4813
583.085	183.806
585.978	75.8891
588.87	122.071
591.763	45.1708
594.656	40.1934
597.548	57.8683
600.441	235.166
603.334	129.293
606.227	84.4081
609.119	36.6513
612.012	163.154
614.905	153.527
617.797	68.8506
620.69	19.6821
623.583	9.22302
626.476	93.6535
629.368	327.752
632.261	289.074
635.154	291.209
638.046	213.145
640.939	508.315
643.832	568.011
646.724	510.554
649.617	624.62
652.51	690.462
655.403	623.926
658.295	521.504
661.188	495.423
664.081	512.438
666.973	529.891
669.866	269.411
672.759	275.841
675.651	264.469
678.544	174.321
681.437	225.629
684.33	234.135
687.222	83.7388
690.115	200.138
693.008	147.717
695.9	178.406
698.793	83.6358
701.686	114.456
704.578	230.485
707.471	25.5394
710.364	258.207
713.256	180.686
716.149	28.3245
719.042	124.241
721.935	17.2794
724.827	65.7925
727.72	98.2933
730.613	80.449
733.505	100.65
736.398	101.562
739.291	13.3956
742.183	58.1644
745.076	34.7636
747.969	166.729
750.862	210.14
753.754	162.011
756.647	269.201
759.54	124.952
762.432	274.53
765.325	319.965
768.218	105.49
771.111	164.114
774.003	18.4091
776.896	131.758
779.789	1.40219
782.681	32.887
785.574	85.0065
788.467	150.655
791.359	77.5827
794.252	263.793
797.145	53.7921
800.038	10.5029
802.93	15.6075
805.823	24.6926
808.716	107.722
811.608	2.57388
814.501	8.43418
817.394	204.821
820.286	148.038
823.179	72.506
826.072	99.1366
828.965	43.7947
831.857	48.3048
834.75	6.37436
837.643	212.873
840.535	157.175
843.428	181.932
846.321	149.067
849.213	319.397
852.106	263.039
854.999	251.771
857.891	326.379
860.784	325.538
863.677	107.706
866.57	257.55
869.462	61.9151
872.355	94.3309
875.248	314.583
878.14	31.0798
881.033	149.042
883.926	254.906
886.819	327.582
889.711	333.427
892.604	460.825
895.497	776.836
898.389	628.092
901.282	927.024
904.175	795.725
907.067	800.491
909.96	776.083
912.853	700.213
915.746	625.521
918.638	550.05
921.531	409.221
924.424	310.766
927.316	121.108
930.209	93.235
933.102	208.101
935.995	4.87152
938.887	26.6641
941.78	19.9356
944.673	151.347
947.565	37.5876
950.458	0.282816
953.351	115.559
956.243	142.626
959.136	34.5709
962.029	259.113
964.922	132.715
967.814	99.473
970.707	131.497
973.6	25.3825
976.492	245.171
979.385	221.557
982.278	219.686
985.17	121.773
988.063	379.298
990.956	224.101
993.848	201.05
996.741	313.58
999.634	170.573
1002.53	127.59
1005.42	349.252
1008.31	201.619
1011.21	43.4818
1014.1	68.9662
1016.99	190.424
1019.88	124.189
1022.78	317.479
1025.67	32.3158
1028.56	5.38086
1031.45	398.185
1034.35	5.89817
1037.24	100.323
1040.13	126.805
1043.02	121.582
1045.92	358.926
1048.81	370.537
1051.7	98.6801
1054.6	145.124
1057.49	260.359
1060.38	220.568
1063.27	329.104
1066.17	265.87
1069.06	235.701
1071.95	377.12
1074.84	120.168
1077.74	272.975
1080.63	161.021
1083.52	159.766
1086.41	133.063
1089.31	124.064
1092.2	354.005
1095.09	162.854
1097.99	159.43
1100.88	31.9414
1103.77	171.672
1106.66	80.4776
1109.56	94.8257
1112.45	17.5935
1115.34	15.5245
1118.23	100.709
1121.13	112.444
1124.02	24.4541
1126.91	107.445
1129.81	223.264
1132.7	372.07
1135.59	86.0266
1138.48	60.5565
1141.38	358.128
1144.27	119.798
1147.16	59.0287
1150.05	232.634
1152.95	121.092
1155.84	92.1724
1158.73	310.886
1161.62	211.024
1164.52	229.864
1167.41	197.377
1170.3	18.9867
1173.2	279.04
1176.09	351.892
1178.98	39.2591
1181.87	4.14278
1184.77	238.831
1187.66	186.936
1190.55	174.922
1193.44	61.5702
1196.34	64.2609
1199.23	46.904
1202.12	18.4667
1205.02	4.11856
1207.91	39.17
1210.8	74.7714
1213.69	84.29
1216.59	50.5608
1219.48	300.359
1222.37	172.145
1225.27	108.459
1228.16	73.0119
1231.05	99.8508
1233.94	73.0222
1236.84	186.153
1239.73	226.507
1242.62	118.433
1245.51	44.7808
1248.41	208.027
1251.3	262.129
1254.19	380.869
1257.08	277.629
1259.98	188.3
1262.87	72.4192
1265.76	137.207
1268.65	68.4351
1271.55	370.63
1274.44	201.475
1277.33	243.75
1280.23	220.209
1283.12	451.146
1286.01	541.487
1288.9	41.7968
1291.8	281.776
1294.69	314.776
1297.58	326.342
1300.47	356.684
1303.37	67.554
1306.26	198.199
1309.15	430.774
1312.05	76.7807
1314.94	0
