Measurement: Raman, 785 nm, unoriented, Raman Data Processed
Mineral: Elpasolite
Rruff sample: R061029
Ideal chemistry: K_2_NaAlF_6_
Locality: Le Cetine mine, Rosia, Siena Province, Tuscany, Italy
Source: Michael Scott
Description: Colorless cubic crystals associated with colorless blades of gypsum
Raman shift (cm-1)	intensity
180.346	0
183.239	7.85596
186.131	164.5
189.024	383
191.917	704.001
194.81	898.65
197.702	1045.07
200.595	1144.06
203.488	1182.04
206.38	1053.56
209.273	868.175
212.166	706.843
215.058	601.98
217.951	515.829
220.844	460.436
223.737	288.291
226.629	220.542
229.522	175.8
232.415	153.858
235.307	101.528
238.2	43.4873
241.093	86.1577
243.985	36.3433
246.878	20.666
249.771	0.772949
252.663	9.12598
255.556	26.646
258.449	11.1616
261.342	35.8789
264.234	36.0483
267.127	12.8828
270.02	53.7461
272.912	26.8755
275.805	13.1987
278.698	64.3726
281.591	22.9072
284.483	74.1836
287.376	17.3276
290.269	69.2471
293.161	20.835
296.054	8.12646
298.947	111.499
301.839	144.04
304.732	201.794
307.625	295.298
310.517	247.581
313.41	340.291
316.303	503.59
319.196	958.143
322.088	1571.03
324.981	2446.78
327.874	1574.15
330.766	613.143
333.659	363.096
336.552	191.01
339.445	129.081
342.337	89.1348
345.23	78.0474
348.123	81.9702
351.015	133.887
353.908	115.196
356.801	94.5459
359.693	60.541
362.586	22.9238
365.479	28.6318
368.372	16.5098
371.264	42.7954
374.157	124.964
377.05	132.38
379.942	186.835
382.835	160.86
385.728	244.512
388.62	217.325
391.513	116.351
394.406	109.002
397.299	89.3149
400.191	161.71
403.084	1.74512
405.977	38.4639
408.869	1.17139
411.762	16.5044
414.655	80.9189
417.548	112.952
420.44	152.034
423.333	129.909
426.226	120.224
429.118	157.252
432.011	127.464
434.904	104.112
437.796	144.893
440.689	131.653
443.582	152.523
446.474	167.996
449.367	106.581
452.26	63.6597
455.153	43.752
458.045	87.9941
460.938	71.7109
463.831	7.83203
466.723	70.5303
469.616	68.0093
472.509	32.855
475.401	33.312
478.294	38.6484
481.187	5.84863
484.08	37.6943
486.972	30.562
489.865	58.4663
492.758	93.6206
495.65	81.8984
498.543	3.17773
501.436	15.8472
504.329	65.4189
507.221	0.902344
510.114	18.2295
513.007	50.02
515.899	87.6655
518.792	87.7481
521.685	66.209
524.577	112.542
527.47	144.75
530.363	164.974
533.255	157.838
536.148	226.033
539.041	253.519
541.934	400.123
544.826	649.238
547.719	1226.9
550.612	2379.04
553.504	4094.58
556.397	6248.17
559.29	6458.75
562.183	3386.61
565.075	1430.36
567.968	607.057
570.861	360.286
573.753	177.407
576.646	80.2085
579.539	52.6773
582.431	26.5049
585.324	33.6948
588.217	14.312
591.11	17.001
594.002	14.2637
596.895	4.70508
599.788	1.52295
602.68	29.4663
605.573	53.8848
608.466	71.314
611.358	63.5278
614.251	69.334
617.144	59.0474
620.037	69.875
622.929	91.5059
625.822	65.1245
628.715	137.365
631.607	86.2993
634.5	79.9585
637.393	98.0957
640.285	148.69
643.178	85.5029
646.071	105.383
648.963	154.169
651.856	53.4492
654.749	123.374
657.642	65.9258
660.534	84.4814
663.427	146.318
666.32	82.9819
669.212	80.7134
672.105	35.5972
674.998	29.0215
677.89	61.7627
680.783	15.1763
683.676	4.13818
686.569	42.9077
689.461	29.606
692.354	8.99951
695.247	23.0498
698.139	57.2895
701.032	88.375
703.925	33.5581
706.817	2.29883
709.71	30.0845
712.603	7.3291
715.496	9.41455
718.388	35.7026
721.281	14.8765
724.174	3.34766
727.066	36.1357
729.959	14.0107
732.852	9.1377
735.745	41.1284
738.637	8.60107
741.53	47.1372
744.423	4.17578
747.315	70.6279
750.208	50.1909
753.101	0.914063
755.993	71.9194
758.886	33.1504
761.779	74.4849
764.672	32.544
767.564	98.4175
770.457	83.9766
773.35	100.35
776.242	122.32
779.135	46.1001
782.028	136.836
784.92	87.8662
787.813	160.664
790.706	158.242
793.598	122.094
796.491	96.834
799.384	57.77
802.277	67.0527
805.169	81.9707
808.062	109.394
810.955	140.057
813.847	153.736
816.74	126.442
819.633	140.954
822.525	117.144
825.418	69.3643
828.311	74.3731
831.204	53.5195
834.096	94.3315
836.989	44.2749
839.882	12.1055
842.774	51.9819
845.667	13.8335
848.56	30.479
851.453	6.11475
854.345	37.1787
857.238	28.5435
860.131	25.8472
863.023	26.146
865.916	23.9092
868.809	9.83398
871.702	32.2353
874.594	4.6416
877.487	38.3618
880.38	18.104
883.272	13.4502
886.165	29.2398
889.058	12.4575
891.95	74.1977
894.843	49.0151
897.736	51.7275
900.629	61.0498
903.521	7.28662
906.414	79.0674
909.307	55.8579
912.199	58.1987
915.092	36.9448
917.985	60.4224
920.877	1.60254
923.77	29.374
926.663	103.994
929.556	121.614
932.448	75.7173
935.341	42.1069
938.234	63.2588
941.126	53.1401
944.019	24.4429
946.912	39.1465
949.804	78.1411
952.697	79.9365
955.59	61.3901
958.482	28.5703
961.375	92.0688
964.268	113.039
967.161	106.607
970.053	106.612
972.946	117.313
975.839	106.91
978.731	123.351
981.624	224.568
984.517	226.153
987.409	228.498
990.302	180.428
993.195	273.25
996.088	256.456
998.98	314.003
1001.87	321.729
1004.77	344.795
1007.66	352.995
1010.55	262.571
1013.44	178.967
1016.34	159.16
1019.23	183.269
1022.12	125.232
1025.02	78.2725
1027.91	84.2519
1030.8	26.4795
1033.69	27.0083
1036.59	5.39648
1039.48	3.65381
1042.37	83.8247
1045.26	25.9277
1048.16	92.0884
1051.05	15.7271
1053.94	14.831
1056.83	44.9062
1059.73	12.5127
1062.62	53.4351
1065.51	25.0869
1068.4	128.901
1071.3	276.528
1074.19	328.269
1077.08	445.415
1079.98	629.888
1082.87	777.7
1085.76	1000.9
1088.65	1197.49
1091.55	1482.92
1094.44	1804.59
1097.33	2014.99
1100.22	2377.7
1103.12	2693.66
1106.01	3139.34
1108.9	3616.61
1111.8	4015.34
1114.69	4731.4
1117.58	5403.83
1120.47	6062.55
1123.37	7101.16
1126.26	8211.39
1129.15	9119.57
1132.05	9913.33
1134.94	10776.2
1137.83	11186.8
1140.72	11572
1143.62	11593.6
1146.51	11098.3
1149.4	10302.6
1152.29	9003.19
1155.19	7483.71
1158.08	6038.25
1160.97	4586.9
1163.86	3370.78
1166.76	2213.37
1169.65	1403.51
1172.54	766.028
1175.43	269.797
1178.33	58.7539
1181.22	241.857
1184.11	354.691
1187.01	248.467
1189.9	26.5654
1192.79	358.131
1195.68	913.742
1198.58	1564.41
1201.47	2729.34
1204.36	3913.27
1207.26	5553.65
1210.15	7564.64
1213.04	9563.75
1215.93	11400.6
1218.83	13030.9
1221.72	13729.1
1224.61	13825.1
1227.5	13657.4
1230.4	12882.6
1233.29	11465.3
1236.18	9869
1239.07	8026.28
1241.97	6221.52
1244.86	4438.38
1247.75	2805.78
1250.64	1427.39
1253.54	397.826
1256.43	51.9824
