Measurement: Raman, 780 nm, unoriented, Raman Data Processed
Mineral: Elpidite
Rruff sample: R060200
Ideal chemistry: Na_2_Zr^4+^Si_6_O_15_3H_2_O
Locality: Poudrette Quarry, Mont Saint-Hilaire, Rouville County, Quebec, Canada
Source: Royal Ontario Museum
Description: Tan colored columnar aggregate of elongated prismatic fibers
Raman shift (cm-1)	intensity
136.664	0
139.557	0.100731
142.449	4.57579
145.342	5.61346
148.235	5.33584
151.127	7.92083
154.02	13.2515
156.913	16.2698
159.806	19.5298
162.698	21.274
165.591	25.5931
168.484	27.9111
171.376	27.1295
174.269	17.887
177.162	15.5355
180.054	6.48898
182.947	2.82524
185.84	0.26212
188.733	1.26699
191.625	0.193428
194.518	1.54178
197.411	0.161818
200.303	0.246447
203.196	1.00485
206.089	0.316033
208.982	2.63877
211.874	4.7566
214.767	5.98551
217.66	9.58357
220.552	7.91995
223.445	8.6647
226.338	10.5734
229.23	12.4025
232.123	14.924
235.016	17.912
237.909	23.5061
240.801	28.3388
243.694	30.6828
246.587	31.8458
249.479	29.5571
252.372	23.4405
255.265	21.9181
258.157	16.3238
261.05	9.54625
263.943	4.24402
266.836	2.13591
269.728	1.35286
272.621	1.70569
275.514	0.894231
278.406	0.333344
281.299	3.95979
284.192	4.38404
287.084	4.25152
289.977	1.76553
292.87	2.28541
295.762	5.46944
298.655	1.16039
301.548	1.76309
304.441	2.61829
307.333	0.501776
310.226	1.18882
313.119	0.355029
316.011	0.069143
318.904	0.186278
321.797	0.021651
324.69	0.033398
327.582	1.45202
330.475	0.373681
333.368	4.06326
336.26	4.64174
339.153	2.71287
342.046	2.75327
344.938	5.36503
347.831	4.55233
350.724	3.711
353.616	6.38737
356.509	7.45694
359.402	4.76505
362.295	7.9977
365.187	2.24386
368.08	5.3907
370.973	4.8773
373.865	4.05026
376.758	3.24222
379.651	2.16201
382.543	0.877744
385.436	2.71334
388.329	2.67986
391.222	0.981032
394.114	2.64899
397.007	0.315644
399.9	0.009604
402.792	0.396791
405.685	1.15656
408.578	0.365245
411.471	0.31804
414.363	0.079876
417.256	0.169194
420.149	1.80076
423.041	2.09717
425.934	4.03197
428.827	3.85667
431.719	2.71907
434.612	0.460583
437.505	2.03791
440.397	2.85469
443.29	1.8032
446.183	1.09921
449.076	4.26515
451.968	0.463953
454.861	5.73957
457.754	6.2626
460.646	11.1364
463.539	14.2991
466.432	18.6018
469.325	23.3339
472.217	26.0789
475.11	23.6991
478.003	15.8621
480.895	4.73841
483.788	4.45397
486.681	0.522841
489.573	2.66172
492.466	0.097023
495.359	0.241959
498.252	0.213461
501.144	4.61666
504.037	2.55032
506.93	4.90473
509.822	7.70703
512.715	10.9
515.608	9.49537
518.5	12.712
521.393	15.582
524.286	21.8195
527.178	23.1517
530.071	29.7223
532.964	29.455
535.857	26.1205
538.749	16.73
541.642	9.942
544.535	5.21087
547.427	1.84814
550.32	1.51132
553.213	0.206425
556.106	0.03147
558.998	0.180167
561.891	0.431243
564.784	0.067633
567.676	0.078083
570.569	1.03303
573.462	2.42951
576.354	1.38146
579.247	1.88506
582.14	2.87224
585.033	1.11498
587.925	4.02681
590.818	2.29876
593.711	0.039331
596.603	2.0358
599.496	1.41154
602.389	0.563338
605.281	2.27211
608.174	2.78633
611.067	2.42346
613.96	1.47829
616.852	2.24996
619.745	3.88391
622.638	1.80611
625.53	0.065799
628.423	0.374063
631.316	2.09464
634.208	3.58626
637.101	2.50674
639.994	2.42496
642.886	0.16252
645.779	1.10513
648.672	0.064315
651.565	1.89896
654.457	0.355208
657.35	1.32501
660.243	0.18681
663.135	0.137304
666.028	0.808457
668.921	0.226121
671.813	0.639137
674.706	0.658542
677.599	3.2982
680.492	3.90983
683.384	4.35214
686.277	5.84894
689.17	4.37535
692.062	7.747
694.955	10.5113
697.848	10.3726
700.74	9.83871
703.633	14.5343
706.526	12.9502
709.419	11.4731
712.311	11.2908
715.204	11.1203
718.097	12.5608
720.989	9.81576
723.882	7.9967
726.775	3.82893
729.668	7.19084
732.56	6.21473
735.453	4.33168
738.346	5.06206
741.238	3.96984
744.131	2.43184
747.024	3.68165
749.916	2.49498
752.809	0.280317
755.702	2.00689
758.595	0.337488
761.487	1.56422
764.38	0.700909
767.273	1.89462
770.165	1.96208
773.058	2.02486
775.951	2.3749
778.843	2.7497
781.736	1.48513
784.629	0.311739
787.521	0.178586
790.414	0.237777
793.307	0.106108
796.2	0.173705
799.092	0.050434
801.985	1.20654
804.878	0.157403
807.77	1.87134
810.663	2.24122
813.556	3.57803
816.448	0.250025
819.341	0.38826
822.234	1.01016
825.127	2.45598
828.019	1.19406
830.912	0.052902
833.805	1.94741
836.697	1.31861
839.59	3.99565
842.483	4.44351
845.375	0.213549
848.268	1.05553
851.161	2.50048
854.053	2.20776
856.946	1.56185
859.839	0.937253
862.732	2.40247
865.624	3.37267
868.517	4.53883
871.41	3.06936
874.302	6.00582
877.195	8.45728
880.088	10.0304
882.981	10.2188
885.873	7.5851
888.766	7.08638
891.659	5.36819
894.551	3.01623
897.444	0.141602
900.337	4.3404
903.229	1.27133
906.122	0.406781
909.015	1.71571
911.908	0.18442
914.8	0.972936
917.693	0.029823
920.586	0.074059
923.478	0.236663
926.371	0.156373
929.264	0.988737
932.156	0.38292
935.049	0.836456
937.942	0.603149
940.835	1.83992
943.727	4.19374
946.62	1.08259
949.513	2.24649
952.405	2.93164
955.298	1.69211
958.191	0.121998
961.083	2.30518
963.976	2.52563
966.869	4.24444
969.761	8.68035
972.654	14.0741
975.547	19.0931
978.44	24.9771
981.332	33.618
984.225	38.5127
987.118	40.3536
990.01	45.8894
992.903	50.2579
995.796	50.1376
998.688	44.6485
1001.58	41.287
1004.47	39.6537
1007.37	33.7157
1010.26	27.5144
1013.15	22.6123
1016.04	18.9318
1018.94	14.7554
1021.83	12.6402
1024.72	5.96596
1027.62	4.39046
1030.51	1.75266
1033.4	2.59365
1036.29	3.32765
1039.19	0.16767
1042.08	0.235591
1044.97	0.279441
1047.87	0.426216
1050.76	0.202309
1053.65	0.796482
1056.54	0.003035
1059.43	0.661599
1062.33	0.082563
1065.22	0.01285
1068.11	1.38702
1071.01	1.97097
1073.9	0.051397
1076.79	0.580527
1079.68	2.08163
1082.58	0.948428
1085.47	3.51682
1088.36	1.05327
1091.26	2.9598
1094.15	2.68109
1097.04	1.97409
1099.93	1.96992
1102.83	0.75447
1105.72	0.284976
1108.61	0.030081
1111.5	1.88954
1114.4	3.04679
1117.29	3.93846
1120.18	1.8271
1123.08	0.06053
1125.97	0.427118
1128.86	3.93705
1131.75	2.29372
1134.64	0.462494
1137.54	2.90015
1140.43	3.48063
1143.32	5.14428
1146.22	3.8929
1149.11	7.86256
1152	7.07241
1154.89	7.93014
1157.79	10.9224
1160.68	6.73256
1163.57	1.43571
1166.46	1.19019
1169.36	0.295899
1172.25	1.68371
1175.14	0.708032
1178.04	2.63481
1180.93	0.698451
1183.82	0.048714
1186.71	0.117785
1189.61	0.258368
1192.5	0.144591
1195.39	0.306817
1198.29	0.665536
1201.18	1.84479
1204.07	0.618208
1206.96	0.199231
1209.86	1.76774
1212.75	3.03488
1215.64	0.155102
1218.53	0.070745
1221.43	2.02096
1224.32	0.543432
1227.21	2.76135
1230.1	2.35708
1233	0.965324
1235.89	0.056425
1238.78	2.04295
1241.67	1.196
1244.57	2.06334
1247.46	2.69134
1250.35	2.86712
1253.25	3.17919
1256.14	3.60136
1259.03	3.33397
1261.92	1.52875
1264.82	0.206376
1267.71	4.21659
1270.6	2.46666
1273.49	4.55487
1276.39	3.55968
1279.28	2.58718
1282.17	0.960636
1285.07	0
