Measurement: Raman, 785 nm, unoriented, Raman Data Processed
Mineral: Emeleusite
Rruff sample: R061034
Ideal chemistry: Na_2_LiFe^3+^Si_6_O_15_
Locality: Igdlutalig, Ilimaussaq, Greenland
Source: Michael Scott
Description: Light pink massive associated with albite and aegirine, co-type specimen
Measured chemistry: (Na_1.57_K_0.43_)_Σ=2_Li_1.00_(Fe^3+^_0.77_Al_0.18_Ti_0.02_Mg_0.02_)_Σ=1_Si_6.00_O_15_; (lighter areas) Li estimated by difference; dark: albite
Raman shift (cm-1)	intensity
145.151	0
148.044	393.21
150.937	536.797
153.83	217.352
156.722	16.5137
159.615	68.5142
162.508	316.195
165.4	463.196
168.293	602.638
171.186	655.003
174.078	537.404
176.971	471.629
179.864	429.628
182.757	492.231
185.649	515.713
188.542	546.848
191.435	426.71
194.327	380.041
197.22	388.09
200.113	375.371
203.006	392.131
205.898	418.176
208.791	364.544
211.684	299.006
214.576	141.153
217.469	163.559
220.362	145.053
223.254	147.583
226.147	57.5185
229.04	30.043
231.933	43.2622
234.825	49.4082
237.718	16.9795
240.611	15.8105
243.503	31.0479
246.396	36.0772
249.289	3.13379
252.181	0.289063
255.074	39.0225
257.967	78.5107
260.86	61.9541
263.752	122.831
266.645	133.377
269.538	150.973
272.43	138.512
275.323	30.0869
278.216	107.758
281.108	135.066
284.001	386.862
286.894	546.789
289.786	588.718
292.679	481.878
295.572	185.225
298.465	194.712
301.357	177.929
304.25	239.841
307.143	147.852
310.035	130.856
312.928	69.6582
315.821	24.4648
318.714	29.6455
321.606	54.6592
324.499	127.266
327.392	159.027
330.284	228.096
333.177	160.31
336.07	124.986
338.962	205.986
341.855	112.552
344.748	154.566
347.64	201.995
350.533	162.456
353.426	214.315
356.319	176
359.211	69.9561
362.104	44.4863
364.997	14.6963
367.889	45.9443
370.782	128.699
373.675	190.747
376.567	144.024
379.46	111.125
382.353	38.3486
385.246	91.9795
388.138	9.83984
391.031	31.0498
393.924	47.1748
396.816	107.782
399.709	144.047
402.602	29.1934
405.495	32.4316
408.387	13.4482
411.28	36.544
414.173	167.12
417.065	236.721
419.958	155.442
422.851	292.042
425.743	375.582
428.636	620.448
431.529	861.084
434.421	799.012
437.314	558.181
440.207	346.94
443.1	342.579
445.992	419.844
448.885	349.973
451.778	350.29
454.671	332.067
457.563	213.56
460.456	136.455
463.349	128.55
466.241	217.764
469.134	341.428
472.027	517.836
474.919	853.416
477.812	1040.18
480.705	827.262
483.598	343.238
486.49	109.404
489.383	136.451
492.276	150.201
495.168	158.008
498.061	266.066
500.954	560.713
503.846	969.023
506.739	1364.2
509.632	1165.09
512.524	639.031
515.417	309.906
518.31	262.971
521.203	147.301
524.095	100.184
526.988	32.6309
529.881	20.7188
532.773	21.3789
535.666	86.709
538.559	116.512
541.452	22.1973
544.344	163.07
547.237	70.4941
550.13	1.85352
553.022	68.6035
555.915	116.332
558.808	147.096
561.7	100.109
564.593	148.273
567.486	47.2773
570.379	2.43945
573.271	24.4512
576.164	31.7051
579.057	160.857
581.949	176.541
584.842	219.758
587.735	84.9766
590.627	136.092
593.52	80.5527
596.413	0.248047
599.306	89.2266
602.198	184.586
605.091	261.84
607.984	368.842
610.876	370.172
613.769	250.219
616.662	352.871
619.554	380.725
622.447	359.342
625.34	397.754
628.232	470.111
631.125	405.49
634.018	531.266
636.911	485.156
639.803	330.76
642.696	344.812
645.589	280.264
648.481	237.992
651.374	328
654.267	254.816
657.159	324.344
660.052	258.543
662.945	193.602
665.838	61.3086
668.73	2.99023
671.623	114.066
674.516	40.3887
677.408	194.891
680.301	53.4219
683.194	91.707
686.087	38.998
688.979	50.7891
691.872	33.3359
694.765	174.93
697.657	178.6
700.55	167.238
703.443	36.3711
706.335	41.2129
709.228	34.6836
712.121	11.7871
715.014	157.545
717.906	43.7402
720.799	67.7871
723.692	126.93
726.584	79.7266
729.477	7.97266
732.37	3.02148
735.262	43.5508
738.155	77.5625
741.048	95.6191
743.941	105.15
746.833	149.785
749.726	183.184
752.619	56.5605
755.511	199.066
758.404	263.246
761.297	392.357
764.189	398.518
767.082	384.059
769.975	557.807
772.867	457.443
775.76	406.164
778.653	468.773
781.546	513.449
784.438	530.676
787.331	619.674
790.224	638.543
793.116	640.684
796.009	543.762
798.902	626.678
801.794	630.314
804.687	506.352
807.58	742.762
810.473	582.977
813.365	825.168
816.258	731.481
819.151	589.469
822.043	466.516
824.936	592.93
827.829	392.352
830.722	339.918
833.614	366.461
836.507	210.883
839.4	168.242
842.292	203.098
845.185	126.879
848.078	296.961
850.971	144.977
853.863	108.141
856.756	56.625
859.649	85.3242
862.541	88.168
865.434	53.6914
868.327	2.64453
871.219	77.8359
874.112	106.914
877.005	35.4531
879.898	117.898
882.79	152.219
885.683	192.664
888.576	187.746
891.468	90.1836
894.361	306.422
897.254	13.2305
900.146	118.324
903.039	157.445
905.932	173.199
908.824	275.152
911.717	263.981
914.61	94.1602
917.503	108.875
920.395	240.043
923.288	115.922
926.181	153.691
929.073	222.766
931.966	313.574
934.859	278.731
937.751	62.6953
940.644	10.3125
943.537	63.6445
946.43	32.4219
949.322	205.301
952.215	118.512
955.108	157.559
958	92.3867
960.893	288.965
963.786	143.371
966.678	206.996
969.571	241.012
972.464	265.688
975.357	196.438
978.249	57.9453
981.142	107.254
984.035	110.266
986.927	0.347656
989.82	217.664
992.713	66.6953
995.606	98.2852
998.498	416.375
1001.39	560.922
1004.28	695.863
1007.18	763.805
1010.07	498.453
1012.96	615.371
1015.85	401.215
1018.75	277.133
1021.64	232.5
1024.53	222.039
1027.42	218.637
1030.32	331.496
1033.21	366.859
1036.1	205.688
1039	291.5
1041.89	263.285
1044.78	310.977
1047.67	221.43
1050.57	108.731
1053.46	107.289
1056.35	178.156
1059.24	87.1328
1062.14	10.4766
1065.03	34.6719
1067.92	28.4219
1070.82	49.3789
1073.71	180.449
1076.6	113.508
1079.49	57.4453
1082.39	198.609
1085.28	20.1328
1088.17	74.5781
1091.07	273.281
1093.96	426.578
1096.85	363.109
1099.74	459.188
1102.63	250.59
1105.53	239.875
1108.42	237.258
1111.31	333.062
1114.21	371.309
1117.1	376.191
1119.99	384.699
1122.88	396.754
1125.78	443.191
1128.67	386.863
1131.56	359.281
1134.45	302.379
1137.35	170.238
1140.24	298.504
1143.13	135.961
1146.03	45.7305
1148.92	75.3906
1151.81	33.75
1154.7	194.008
1157.6	210.969
1160.49	141.238
1163.38	311.773
1166.28	162.766
1169.17	207.676
1172.06	65.3438
1174.95	149.301
1177.85	106.93
1180.74	67.8242
1183.63	38.0977
1186.52	136.211
1189.42	72.6094
1192.31	60.2461
1195.2	256.992
1198.09	259.824
1200.99	390.844
1203.88	219.664
1206.77	248.758
1209.66	128.223
1212.56	179.781
1215.45	340.504
1218.34	315.578
1221.24	210.363
1224.13	350.047
1227.02	215.856
1229.91	279.777
1232.81	253.195
1235.7	308.086
1238.59	354.82
1241.48	408.363
1244.38	378.043
1247.27	212.242
1250.16	277.699
1253.06	92.4531
1255.95	137.664
1258.84	57.6914
1261.73	270.348
1264.63	25.1953
