Measurement: Raman, 532 nm, unoriented, Raman Data Processed
Mineral: Englishite
Rruff sample: R060825
Ideal chemistry: K_3_Na_2_Ca_10_Al_15_(OH)_7_(PO_4_)_21_26H_2_O
Locality: Clay Canyon, Fairfield, Utah County, Utah, USA
Source: Michael Scott
Description: Compressed aggregate of colorless to white pearly, platy crystals
Raman shift (cm-1)	intensity
139.361	0
142.254	129.304
145.146	311.367
148.039	361.751
150.932	236.069
153.824	210.07
156.717	143.914
159.61	192.27
162.503	285.364
165.395	410.435
168.288	411.906
171.181	426.73
174.073	556.099
176.966	706.219
179.859	825.327
182.751	924.61
185.644	931.143
188.537	906.713
191.43	842.57
194.322	753.596
197.215	676.011
200.108	620.126
203	649.535
205.893	561.252
208.786	555.88
211.678	540.818
214.571	478.912
217.464	531.462
220.357	542.875
223.249	472.532
226.142	485.569
229.035	555.15
231.927	541.255
234.82	527.791
237.713	523.856
240.605	541.309
243.498	573.075
246.391	517.379
249.284	528.128
252.176	405.646
255.069	391.987
257.962	404.801
260.854	392.613
263.747	383.177
266.64	398.017
269.532	409.229
272.425	391.698
275.318	362.147
278.211	324.539
281.103	321.585
283.996	324.209
286.889	313.896
289.781	282.194
292.674	284.759
295.567	174.636
298.459	120.238
301.352	138.314
304.245	144.028
307.138	170.104
310.03	155.529
312.923	124.472
315.816	124.22
318.708	16.583
321.601	85.417
324.494	68.521
327.386	19.039
330.279	12.663
333.172	39.925
336.065	14.717
338.957	23.947
341.85	29.467
344.743	59.542
347.635	35.188
350.528	7.325
353.421	21.769
356.313	19.51
359.206	16.215
362.099	8.617
364.991	33.82
367.884	43.026
370.777	70.902
373.67	126.198
376.562	110.932
379.455	178.213
382.348	173.344
385.24	263.299
388.133	340.292
391.026	443.262
393.918	516.564
396.811	603.593
399.704	578.75
402.597	666.538
405.489	715.614
408.382	745.796
411.275	756.285
414.167	690.99
417.06	629.764
419.953	591.78
422.845	438.67
425.738	437.518
428.631	480.469
431.524	427.677
434.416	483.944
437.309	533.659
440.202	471.51
443.094	481.356
445.987	483.285
448.88	432.161
451.772	492.406
454.665	499.522
457.558	416.252
460.451	384.983
463.343	425.096
466.236	504.104
469.129	561.694
472.021	621.247
474.914	714.612
477.807	686.428
480.699	614.119
483.592	594.351
486.485	511.739
489.378	470.432
492.27	341.744
495.163	289.228
498.056	244.939
500.948	292.555
503.841	283.642
506.734	267.526
509.626	321.688
512.519	284.003
515.412	325.299
518.305	357.428
521.197	373.276
524.09	278.169
526.983	260.603
529.875	246.32
532.768	282.761
535.661	250.342
538.553	313.241
541.446	322.205
544.339	375.377
547.231	365.961
550.124	350.52
553.017	370.181
555.909	386.064
558.802	355.988
561.695	347.122
564.588	310.808
567.48	303.761
570.373	305.003
573.266	326.795
576.158	382.268
579.051	415.823
581.944	501.287
584.836	620.499
587.729	606.445
590.622	606.424
593.515	669.063
596.407	580.477
599.3	562.239
602.193	561.082
605.085	490.234
607.978	481.755
610.871	511.593
613.763	473.03
616.656	427.047
619.549	446.07
622.442	432.914
625.334	396.191
628.227	435.233
631.12	390.45
634.012	297.452
636.905	313.768
639.798	279.015
642.69	310.15
645.583	320.849
648.476	353.744
651.369	297.007
654.261	401.498
657.154	364.531
660.047	367.104
662.939	356.053
665.832	394.119
668.725	367.05
671.617	416.602
674.51	293.022
677.403	228.485
680.296	271.414
683.188	166.438
686.081	215.653
688.974	100.872
691.866	92.682
694.759	33.366
697.652	0.602
700.544	7.812
703.437	72.86
706.33	69.106
709.222	82.886
712.115	58.923
715.008	54.197
717.901	61.801
720.793	56.303
723.686	52.529
726.579	52.055
729.471	46.675
732.364	35.791
735.257	48.366
738.149	4.179
741.042	2.918
743.935	34.786
746.828	30.57
749.72	5.17
752.613	4.124
755.506	19.382
758.398	25.286
761.291	71.45
764.184	67.818
767.076	33.855
769.969	56.341
772.862	89.232
775.755	6.364
778.647	63.079
781.54	74.44
784.433	44.795
787.325	62.647
790.218	48.758
793.111	105.766
796.003	133.565
798.896	105.532
801.789	63.592
804.682	41.403
807.574	14.426
810.467	69.852
813.36	58.246
816.252	4.603
819.145	1.674
822.038	5.617
824.93	33.657
827.823	21.973
830.716	53.774
833.609	34.093
836.501	24.594
839.394	45.538
842.287	60.229
845.179	8.628
848.072	45.22
850.965	66.137
853.857	118.073
856.75	57.547
859.643	11.24
862.536	55.08
865.428	30.898
868.321	20.496
871.214	14.949
874.106	26.898
876.999	62.893
879.892	85.103
882.784	50.077
885.677	44.722
888.57	50.942
891.463	209.326
894.355	150.142
897.248	182.563
900.141	103.813
903.033	142.694
905.926	167.491
908.819	193.539
911.711	182.979
914.604	220.153
917.497	385.881
920.39	541.209
923.282	745.406
926.175	923.584
929.068	1001.86
931.96	1075.81
934.853	954.011
937.746	827.079
940.638	664.246
943.531	432.29
946.424	329.098
949.317	268.889
952.209	264.204
955.102	262.299
957.995	321.316
960.887	433.378
963.78	598.342
966.673	575.312
969.565	665.66
972.458	917.661
975.351	1093.74
978.244	1440.13
981.136	1741.98
984.029	1886.19
986.922	1932.53
989.814	1970.8
992.707	1879.62
995.6	1692.41
998.492	1610.88
1001.38	1525.5
1004.28	1399.46
1007.17	1307.46
1010.06	1253.7
1012.96	1279.13
1015.85	1354.28
1018.74	1340.59
1021.63	1416.28
1024.53	1659.16
1027.42	1813.89
1030.31	1912.86
1033.2	2120.67
1036.1	2240.55
1038.99	2271.83
1041.88	2208.22
1044.78	2069.52
1047.67	1761.78
1050.56	1623.62
1053.45	1418.19
1056.35	1334.92
1059.24	1208.27
1062.13	1076.84
1065.02	906.636
1067.92	830.933
1070.81	713.791
1073.7	704.992
1076.6	543.725
1079.49	486.324
1082.38	382.265
1085.27	364.859
1088.17	396.097
1091.06	379.282
1093.95	363.002
1096.84	398.956
1099.74	452.122
1102.63	470.114
1105.52	471.479
1108.41	384.989
1111.31	402.064
1114.2	371.664
1117.09	418.688
1119.99	342.991
1122.88	463.785
1125.77	444.112
1128.66	480.575
1131.56	480.217
1134.45	382.115
1137.34	353.588
1140.23	296.442
1143.13	193.535
1146.02	158.579
1148.91	99.514
1151.81	115.278
1154.7	86.553
1157.59	156.505
1160.48	131.619
1163.38	32.843
1166.27	12.207
1169.16	30.484
1172.05	36.793
1174.95	143.302
1177.84	93.797
1180.73	124.12
1183.62	169.829
1186.52	64.374
1189.41	70.562
1192.3	0.02
1195.2	54.578
1198.09	102.798
1200.98	16.162
1203.87	33.862
1206.77	31.067
1209.66	12.882
1212.55	36.073
1215.44	44.109
1218.34	72.436
1221.23	78.944
1224.12	88.625
1227.02	36.56
1229.91	76.383
1232.8	23.588
1235.69	88.109
1238.59	84.923
1241.48	22.911
1244.37	18.641
1247.26	77.837
1250.16	49.152
1253.05	85.583
1255.94	0.477
1258.84	48.773
1261.73	50.827
1264.62	0.008
1267.51	9.402
1270.41	54.303
1273.3	168.013
1276.19	71.01
1279.08	36.978
1281.98	36.446
1284.87	8.391
