Measurement: Raman, 785 nm, unoriented, Raman Data Processed
Mineral: Englishite
Rruff sample: R060825
Ideal chemistry: K_3_Na_2_Ca_10_Al_15_(OH)_7_(PO_4_)_21_26H_2_O
Locality: Clay Canyon, Fairfield, Utah County, Utah, USA
Source: Michael Scott
Description: Compressed aggregate of colorless to white pearly, platy crystals
Raman shift (cm-1)	intensity
192.881	117.238
195.774	163.07
198.666	142.604
201.559	63.359
204.452	75.646
207.344	5.675
210.237	58.673
213.13	73.466
216.023	87.556
218.915	69.556
221.808	19.511
224.701	18.913
227.593	51.016
230.486	59.142
233.379	0.084
236.271	0.947
239.164	13.384
242.057	38.566
244.95	5.639
247.842	16.94
250.735	13.379
253.628	55.367
256.52	22.564
259.413	60.55
262.306	35.121
265.198	13.658
268.091	9.656
270.984	5.425
273.877	42.363
276.769	74.908
279.662	102.466
282.555	169.763
285.447	150.076
288.34	89.367
291.233	64.244
294.125	71.272
297.018	80.637
299.911	88.368
302.804	49.584
305.696	61.33
308.589	66.177
311.482	29.957
314.374	23.173
317.267	23.075
320.16	13.916
323.052	66.379
325.945	10.185
328.838	65.316
331.731	18.006
334.623	13.953
337.516	12.525
340.409	35.509
343.301	19.361
346.194	57.171
349.087	43.196
351.979	59.724
354.872	61.68
357.765	87.553
360.658	55.79
363.55	87.136
366.443	36.321
369.336	7.847
372.228	8.212
375.121	80.935
378.014	59.56
380.906	53.739
383.799	30.798
386.692	98.407
389.585	104.988
392.477	144.672
395.37	227.108
398.263	263.999
401.155	297.175
404.048	348.659
406.941	350.066
409.833	335.414
412.726	321.767
415.619	291.24
418.512	263.592
421.404	230.579
424.297	164.875
427.19	191.762
430.082	140.21
432.975	123.094
435.868	139.863
438.76	210.124
441.653	224.755
444.546	250.592
447.439	267.988
450.331	235.287
453.224	264.605
456.117	224.698
459.009	260.396
461.902	236.649
464.795	227.515
467.688	316.083
470.58	339.684
473.473	415.309
476.366	397.86
479.258	389.667
482.151	365.872
485.044	275.658
487.936	234.25
490.829	250.559
493.722	201.769
496.615	206.873
499.507	169.8
502.4	228.716
505.293	220.749
508.185	247.44
511.078	244.073
513.971	210.573
516.864	271.961
519.756	235.549
522.649	250.716
525.542	173.781
528.434	192.244
531.327	185.345
534.22	191.789
537.112	201.973
540.005	248.246
542.898	249.881
545.791	278.237
548.683	281.665
551.576	339.237
554.469	318.17
557.361	309.751
560.254	303.027
563.147	254.949
566.039	194.064
568.932	195.495
571.825	212.032
574.718	230.648
577.61	302.778
580.503	339.09
583.396	397.478
586.288	401.442
589.181	473.663
592.074	507.779
594.966	474.77
597.859	415.126
600.752	377.961
603.644	382.227
606.537	325.783
609.43	241.688
612.323	264.949
615.215	221.687
618.108	209.674
621.001	242.853
623.893	122.01
626.786	131.252
629.679	101.09
632.571	117.486
635.464	80.493
638.357	100.594
641.25	78.016
644.142	91.721
647.035	50.885
649.928	38.518
652.82	63.899
655.713	45.602
658.606	70.18
661.498	127.875
664.391	65.414
667.284	95.372
670.177	150.285
673.069	153.813
675.962	104.389
678.855	118.47
681.747	71.816
684.64	48.575
687.533	40.877
690.425	47.188
693.318	17.51
696.211	41.26
699.104	15.348
701.996	6.883
704.889	15.902
707.782	11.685
710.674	31.444
713.567	5.852
716.46	9
719.352	4.254
722.245	7.23
725.138	23.495
728.031	30.967
730.923	42.91
733.816	6.295
736.709	1.278
739.601	4.041
742.494	2.487
745.387	61.8
748.279	41.629
751.172	3.962
754.065	21.291
756.958	7.147
759.85	21.083
762.743	22.473
765.636	13.663
768.528	30.273
771.421	0.804
774.314	25.023
777.206	55.054
780.099	2.819
782.992	7.567
785.885	21.163
788.777	10.118
791.67	29.868
794.563	18.517
797.455	17.939
800.348	10.537
803.241	16.388
806.133	24.499
809.026	22.573
811.919	44.934
814.812	11.673
817.704	45.578
820.597	32.842
823.49	41.777
826.382	47.925
829.275	22.48
832.168	3.146
835.06	21.114
837.953	17.845
840.846	4.243
843.739	17.876
846.631	37.749
849.524	5.238
852.417	46.694
855.309	12.5
858.202	25.099
861.095	24.031
863.987	2.679
866.88	12.159
869.773	21.512
872.666	27.191
875.558	0.568
878.451	20.163
881.344	38.924
884.237	3.461
887.129	8.025
890.022	21.047
892.915	32.939
895.807	9.232
898.7	12.419
901.593	60.823
904.485	87.102
907.378	72.692
910.271	117.337
913.164	124.838
916.056	170.733
918.949	330.663
921.842	416.276
924.734	472.345
927.627	620.065
930.52	691.534
933.412	684.253
936.305	583.208
939.198	502.047
942.091	358.666
944.983	219.011
947.876	132.719
950.769	103.408
953.661	58.663
956.554	117.197
959.447	137.002
962.339	233.638
965.232	335.864
968.125	262.271
971.018	316.791
973.91	413.768
976.803	601.325
979.696	776.492
982.588	972.286
985.481	1070.51
988.374	1036.86
991.266	930.046
994.159	844.088
997.052	844.204
999.945	747.406
1002.84	657.269
1005.73	614.787
1008.62	537.612
1011.51	523.734
1014.41	523.91
1017.3	587.687
1020.19	638.841
1023.09	712.433
1025.98	835.323
1028.87	949.599
1031.76	1061.35
1034.66	1197.79
1037.55	1294.95
1040.44	1376.46
1043.34	1245.83
1046.23	1169.59
1049.12	1052.98
1052.01	934.383
1054.91	822.086
1057.8	746.081
1060.69	621.179
1063.58	550.855
1066.48	483.673
1069.37	423.952
1072.26	337.319
1075.15	312.539
1078.05	230.138
1080.94	233.05
1083.83	181.968
1086.72	100.046
1089.62	134.279
1092.51	92.809
1095.4	69.555
1098.3	108.68
1101.19	75.027
1104.08	63.699
1106.97	65.31
1109.87	114.408
1112.76	93.652
1115.65	94.385
1118.55	105.8
1121.44	125.594
1124.33	149.862
1127.22	193.968
1130.12	169.797
1133.01	143.873
1135.9	162.863
1138.79	107.431
1141.69	50.167
1144.58	17.802
1147.47	14.73
1150.37	4.276
1153.26	0.565
1156.15	21.05
1159.04	55.942
1161.94	33.558
1164.83	42.024
1167.72	72.495
1170.61	53.726
1173.51	31.152
1176.4	7.299
1179.29	20.846
1182.18	64.27
1185.08	54.806
1187.97	57.837
1190.86	77.064
1193.76	66.789
1196.65	49.65
1199.54	47.377
1202.43	92.675
1205.33	51.319
1208.22	23.752
1211.11	5.936
1214	18.647
1216.9	19.073
1219.79	14.441
1222.68	10.591
1225.58	5.69
1228.47	22.465
1231.36	41.066
1234.25	21.569
1237.15	47.717
1240.04	13.951
1242.93	45.054
1245.82	31.382
1248.72	7.853
1251.61	17.218
1254.5	42.308
1257.39	2.932
1260.29	35.501
1263.18	40.296
1266.07	19.848
