Measurement: Raman, 780 nm, unoriented, Raman Data Processed
Mineral: Enstatite
Rruff sample: R100093
Ideal chemistry: MgSiO_3_
Locality: Hunan Province, China
Source: William W. Pinch
Description: Massive green polished slab
Raman shift (cm-1)	intensity
154.208	0
157.101	0.016865
159.994	1.42949
162.887	1.01694
165.779	1.15272
168.672	0.399639
171.565	1.29503
174.457	0.536282
177.35	0.794964
180.243	0.142826
183.135	0.890751
186.028	1.18547
188.921	1.58468
191.814	0.02837
194.706	1.51914
197.599	1.39871
200.492	1.48391
203.384	5.0388
206.277	5.36416
209.17	6.84915
212.062	9.6216
214.955	11.3989
217.848	13.3322
220.74	16.0799
223.633	18.3294
226.526	18.4235
229.419	18.5046
232.311	16.7926
235.204	13.0658
238.097	9.11309
240.989	6.98104
243.882	3.672
246.775	3.72222
249.667	3.98395
252.56	2.96161
255.453	0.233171
258.346	0.351578
261.238	0.791498
264.131	0.959795
267.024	0.512781
269.916	0.286154
272.809	1.21106
275.702	0.059418
278.594	0.415527
281.487	0.044731
284.38	0.239038
287.273	0.82531
290.165	0.188629
293.058	1.76741
295.951	1.69311
298.843	0.706964
301.736	2.0378
304.629	3.53599
307.522	5.24417
310.414	4.93608
313.307	5.58222
316.2	7.20029
319.092	7.6694
321.985	9.43712
324.878	10.7645
327.77	11.5905
330.663	14.4348
333.556	15.5648
336.449	15.7509
339.341	16.1074
342.234	15.7171
345.127	13.13
348.019	11.0328
350.912	8.79427
353.805	8.54666
356.697	7.62938
359.59	7.94268
362.483	8.51887
365.375	8.25887
368.268	8.57151
371.161	9.4663
374.054	7.80308
376.946	8.4179
379.839	8.02313
382.732	6.84406
385.624	6.11634
388.517	4.69855
391.41	6.13465
394.303	5.93863
397.195	4.9238
400.088	3.89651
402.981	2.80796
405.873	1.66615
408.766	2.01324
411.659	0.86305
414.551	0.539625
417.444	0.31353
420.337	0.353296
423.229	0.805069
426.122	0.114454
429.015	0.449669
431.908	0.606762
434.8	0.385103
437.693	0.908075
440.586	0.485518
443.478	0.945692
446.371	1.11575
449.264	0.228321
452.156	0.996435
455.049	1.0616
457.942	1.36225
460.835	1.95671
463.727	0.111826
466.62	1.83285
469.513	1.19075
472.405	1.4676
475.298	2.02089
478.191	1.21506
481.084	0.357365
483.976	1.89381
486.869	0.831486
489.762	0.836607
492.654	0.660929
495.547	0.015749
498.44	1.05248
501.332	1.57725
504.225	0.80858
507.118	2.22795
510.01	1.91695
512.903	2.47599
515.796	2.46083
518.689	2.30015
521.581	2.76774
524.474	2.15064
527.367	2.67326
530.259	1.74639
533.152	3.44972
536.045	3.03774
538.938	1.54908
541.83	1.70326
544.723	3.3218
547.616	3.12512
550.508	3.09434
553.401	2.8852
556.294	3.59015
559.186	4.0903
562.079	4.80662
564.972	5.32785
567.865	3.20103
570.757	3.30658
573.65	3.44087
576.543	2.36029
579.435	0.472132
582.328	1.22448
585.221	0.804455
588.114	0.376884
591.006	0.164398
593.899	0.494484
596.792	0.346466
599.684	1.18162
602.577	0.720835
605.47	0.079836
608.362	0.441158
611.255	0.948217
614.148	0.314079
617.04	0.755344
619.933	1.26973
622.826	1.11538
625.719	2.22466
628.611	2.1264
631.504	2.90453
634.397	4.05352
637.289	4.50876
640.182	6.53481
643.075	9.59323
645.967	11.612
648.86	14.0468
651.753	19.2464
654.646	21.3616
657.538	22.4873
660.431	24.7415
663.324	27.6288
666.216	31.2708
669.109	37.8039
672.002	41.8648
674.894	47.2066
677.787	46.7805
680.68	42.7601
683.573	36.0812
686.465	25.5546
689.358	19.9491
692.251	15.1386
695.143	10.4992
698.036	8.24097
700.929	6.18565
703.822	5.16103
706.714	3.72842
709.607	3.85568
712.5	2.46447
715.392	2.36167
718.285	1.917
721.178	2.03818
724.07	2.32094
726.963	1.65101
729.856	1.10389
732.749	0.634922
735.641	0.795589
738.534	0.698444
741.427	0.57958
744.319	0.129549
747.212	0.702152
750.105	1.14843
752.997	0.556028
755.89	0.128983
758.783	0.611084
761.676	0.135979
764.568	1.31727
767.461	0.09197
770.354	1.12507
773.246	0.249363
776.139	0.315887
779.032	0.392469
781.924	1.13331
784.817	0.224037
787.71	0.292969
790.602	1.96531
793.495	1.04015
796.388	1.23723
799.281	2.03957
802.173	1.67721
805.066	1.86864
807.959	1.3562
810.851	1.31547
813.744	2.50989
816.637	1.51425
819.529	2.36723
822.422	2.28805
825.315	1.62953
828.208	2.24423
831.1	1.0958
833.993	2.49287
836.886	1.16114
839.778	2.53451
842.671	1.74772
845.564	2.51135
848.457	2.56302
851.349	2.0453
854.242	2.51957
857.135	2.38609
860.027	1.78499
862.92	2.19215
865.813	1.7987
868.705	2.45097
871.598	1.01965
874.491	1.26878
877.384	1.87353
880.276	0.566956
883.169	0.612579
886.062	0.583063
888.954	0.027452
891.847	1.64769
894.74	1.63585
897.632	0.7148
900.525	0.195917
903.418	0.058832
906.311	1.00906
909.203	0.327982
912.096	0.303209
914.989	1.80929
917.881	1.06501
920.774	1.11844
923.667	1.46826
926.559	0.36323
929.452	0.597076
932.345	1.65343
935.237	2.38828
938.13	2.02243
941.023	1.68267
943.916	2.08382
946.808	1.72501
949.701	1.50333
952.594	1.25471
955.486	0.987768
958.379	0.216124
961.272	0.137434
964.164	0.644239
967.057	0.393431
969.95	0.592241
972.843	0.239038
975.735	2.00337
978.628	2.51941
981.521	4.52211
984.413	8.53663
987.306	11.58
990.199	16.6438
993.091	23.2065
995.984	28.4658
998.877	32.1544
1001.77	32.4373
1004.66	27.5656
1007.55	21.2159
1010.45	15.9142
1013.34	11.679
1016.23	9.14442
1019.13	5.70509
1022.02	5.83393
1024.91	5.68523
1027.8	4.60354
1030.7	3.66321
1033.59	3.13549
1036.48	2.36236
1039.38	2.00411
1042.27	2.20623
1045.16	0.201208
1048.05	1.15092
1050.94	0.916261
1053.84	0.966413
1056.73	1.29744
1059.62	0.969641
1062.52	1.02414
1065.41	0.207134
1068.3	0.676456
1071.19	0.683469
1074.09	0.522912
1076.98	1.13647
1079.87	0.777442
1082.77	0.078135
1085.66	0.287358
1088.55	0.604545
1091.44	0.188036
1094.34	0.48555
1097.23	0.328076
1100.12	0.097054
1103.01	0.055013
1105.91	1.10848
1108.8	0.369537
1111.69	0.520957
1114.59	1.09939
1117.48	0.725868
1120.37	0.844274
1123.26	0.938056
1126.16	0.301126
1129.05	0.526134
1131.94	0.861334
1134.83	0.163191
1137.73	1.42886
1140.62	0.571783
1143.51	0.385142
1146.4	0.016102
1149.3	0.595615
1152.19	0.89324
1155.08	0.356891
1157.97	1.75297
1160.87	1.59512
1163.76	0.746604
1166.65	0.508996
1169.55	1.21832
1172.44	1.12241
1175.33	0.488659
1178.22	0.834927
1181.12	0.493845
1184.01	0.864167
1186.9	0.488116
1189.8	1.9128
1192.69	0.524023
1195.58	1.47276
1198.47	1.49724
1201.37	0.956831
1204.26	1.33533
1207.15	1.07787
1210.04	1.45144
1212.94	1.57202
1215.83	1.10558
1218.72	1.67868
1221.62	0.695125
1224.51	1.34932
1227.4	1.45836
1230.29	0.971546
1233.19	0.5015
1236.08	1.45756
1238.97	0.71057
1241.86	0.204399
1244.76	1.28705
1247.65	2.09808
1250.54	0.731082
1253.43	1.40481
1256.33	1.87158
1259.22	1.5592
1262.11	0.074666
1265.01	0.974941
1267.9	0.465001
1270.79	0.739767
1273.68	1.46192
1276.58	0.831239
1279.47	0.782044
1282.36	1.36542
1285.25	0.447088
