Measurement: Raman, 785 nm, unoriented, Raman Data Processed
Mineral: Epistilbite
Rruff sample: R061105
Ideal chemistry: Ca_3_(Si_18_Al_6_)O_48_16H_2_O
Locality: Berufiord, Iceland
Source: Michael Scott
Description: Globular aggregate of thin tabular peach and white fibrous crystals
Measured chemistry: (Ca_2.38_Na_1.04_K_0.09_)_Σ=3.51_(Si_18.11_Al_5.89_)O_48·_11.38H_2_O ; = lighter gray phase : (Na_2.91_Ca_0.13_K_0.12_)_Σ=3.16_Ca_2.00_Al_7.29_Si_28.85_O_72_·16.19H_2_O = darker gray phase = heulandite-Na
Raman shift (cm-1)	intensity
117.772	0
120.665	5.30402
123.558	23.1783
126.451	229.586
129.343	522.912
132.236	641.374
135.129	595.317
138.021	534.75
140.914	675.578
143.807	1017.59
146.699	1206.08
149.592	1118.63
152.485	985.737
155.377	878.648
158.27	678.892
161.163	643.341
164.056	582.331
166.948	544.959
169.841	479.612
172.734	466.79
175.626	414.518
178.519	360.244
181.412	327.896
184.304	300.431
187.197	267.036
190.09	227.607
192.983	226.198
195.875	154.787
198.768	158.774
201.661	151.251
204.553	135.459
207.446	89.8389
210.339	62.111
213.232	26.6098
216.124	39.1276
219.017	2.94165
221.91	23.5923
224.802	16.7637
227.695	19.8919
230.588	7.36529
233.48	19.2688
236.373	14.9813
239.266	28.4189
242.159	0.374939
245.051	18.8356
247.944	7.09766
250.837	2.21631
253.729	12.8001
256.622	21.1351
259.515	2.69635
262.407	29.988
265.3	28.8082
268.193	4.76862
271.086	11.9401
273.978	12.7546
276.871	3.46399
279.764	10.6352
282.656	1.14282
285.549	10.2607
288.442	13.7931
291.334	70.5973
294.227	81.5922
297.12	85.7115
300.012	120.463
302.905	133.985
305.798	118.633
308.691	94.1097
311.583	98.4191
314.476	108.624
317.369	80.6436
320.261	67.8722
323.154	71.6289
326.047	60.1247
328.94	62.7729
331.832	20.6584
334.725	3.70233
337.618	6.10046
340.51	12.4414
343.403	10.0237
346.296	24.343
349.188	21.2006
352.081	0.171997
354.974	1.0838
357.866	39.4398
360.759	72.0554
363.652	49.7863
366.545	78.5975
369.437	151.33
372.33	203.964
375.223	221.841
378.115	309.329
381.008	418.285
383.901	516.03
386.793	648.994
389.686	756.381
392.579	883.307
395.472	939.758
398.364	988.005
401.257	919.183
404.15	846.945
407.042	799.452
409.935	700.558
412.828	651.812
415.72	596.249
418.613	526.228
421.506	523.426
424.399	543.531
427.291	528.084
430.184	533.888
433.077	523.16
435.969	566.387
438.862	547.99
441.755	517.428
444.647	471.849
447.54	460.995
450.433	417.225
453.325	400.06
456.218	426.564
459.111	467.42
462.004	541.682
464.896	618.289
467.789	702.28
470.682	748.571
473.574	688.433
476.467	627.477
479.36	408.462
482.252	299.38
485.145	165.538
488.038	135.748
490.931	70.2932
493.823	25.6693
496.716	6.20373
499.609	2.45081
502.501	9.22632
505.394	18.499
508.287	7.13977
511.18	7.53571
514.072	6.09589
516.965	10.2254
519.858	8.46161
522.75	26.3087
525.643	14.7999
528.536	26.1284
531.428	17.8173
534.321	30.7656
537.214	32.8171
540.106	37.2238
542.999	28.1983
545.892	29.0447
548.785	60.6513
551.677	42.4175
554.57	42.6741
557.463	51.9835
560.355	35.0574
563.248	12.4727
566.141	10.8689
569.034	18.2061
571.926	33.7435
574.819	20.9943
577.712	52.2869
580.604	37.5356
583.497	37.0415
586.39	39.1054
589.282	29.0858
592.175	24.2563
595.068	31.8202
597.96	28.2162
600.853	41.0362
603.746	32.8657
606.639	26.7912
609.531	30.19
612.424	28.9041
615.317	41.652
618.209	66.3256
621.102	32.9118
623.995	43.894
626.888	38.4439
629.78	46.1289
632.673	32.0126
635.566	29.6804
638.458	15.6015
641.351	7.03271
644.244	4.3667
647.136	16.0614
650.029	19.9812
652.922	14.5869
655.814	13.4876
658.707	0.498199
661.6	15.0222
664.493	27.2408
667.385	3.71463
670.278	3.32938
673.171	1.87814
676.063	9.44867
678.956	31.4448
681.849	15.1153
684.741	4.40125
687.634	14.0111
690.527	6.03738
693.42	15.368
696.312	8.29947
699.205	12.0088
702.098	8.89264
704.99	17.2794
707.883	38.3318
710.776	0.797363
713.668	16.2393
716.561	21.6416
719.454	36.9298
722.346	12.0059
725.239	12.682
728.132	5.82568
731.025	3.2518
733.917	5.1301
736.81	38.1572
739.703	23.9526
742.595	11.1654
745.488	18.262
748.381	10.4529
751.274	22.4564
754.166	11.1538
757.059	37.317
759.952	25.5764
762.844	38.6022
765.737	19.1567
768.63	45.4999
771.522	53.5147
774.415	43.437
777.308	71.8425
780.201	78.3963
783.093	64.244
785.986	66.0844
788.879	87.0411
791.771	84.9512
794.664	85.3167
797.557	113.78
800.449	144.716
803.342	153.741
806.235	173.795
809.128	191.019
812.02	156.297
814.913	130.994
817.806	128.487
820.698	97.7811
823.591	77.3598
826.484	67.4853
829.376	23.2932
832.269	33.5633
835.162	31.361
838.054	14.6955
840.947	11.1351
843.84	6.69708
846.733	0.144318
849.625	12.5415
852.518	17.8707
855.411	5.87381
858.303	7.88763
861.196	3.74808
864.089	22.0149
866.981	11.8574
869.874	2.57929
872.767	15.1631
875.659	2.90735
878.552	15.2487
881.445	31.8033
884.338	4.38605
887.23	12.7296
890.123	5.52399
893.016	15.12
895.908	6.79214
898.801	16.9332
901.694	16.7979
904.587	42.5146
907.479	24.4309
910.372	22.9333
913.265	1.04929
916.157	10.0555
919.05	4.60562
921.943	15.2819
924.835	6.55875
927.728	17.292
930.621	4.4277
933.514	29.6113
936.406	21.6433
939.299	7.33542
942.192	30.4234
945.084	9.61163
947.977	6.20691
950.87	38.9138
953.763	20.4528
956.655	30.6214
959.548	7.44498
962.441	32.7647
965.333	15.6942
968.226	46.0843
971.119	18.0735
974.011	30.4408
976.904	21.1423
979.797	13.1346
982.689	43.0215
985.582	40.0689
988.475	20.957
991.368	6.92563
994.26	16.5945
997.153	28.6622
1000.05	41.5173
1002.94	10.1601
1005.83	23.6137
1008.72	27.0756
1011.62	15.1945
1014.51	32.8915
1017.4	33.0997
1020.29	0.872711
1023.19	12.0479
1026.08	28.5201
1028.97	26.366
1031.87	5.3544
1034.76	38.5289
1037.65	17.2364
1040.54	30.4055
1043.44	39.7068
1046.33	23.6104
1049.22	27.5136
1052.11	11.0938
1055.01	24.4519
1057.9	15.3618
1060.79	31.4284
1063.68	5.62604
1066.58	8.41443
1069.47	10.9845
1072.36	18.2914
1075.26	32.2124
1078.15	16.4056
1081.04	16.3038
1083.93	58.3903
1086.83	28.5951
1089.72	36.816
1092.61	26.2328
1095.51	8.3346
1098.4	9.10883
1101.29	11.5138
1104.18	33.2328
1107.08	42.7334
1109.97	37.3809
1112.86	18.2762
1115.75	53.0024
1118.65	49.2926
1121.54	70.2117
1124.43	57.1289
1127.32	55.8135
1130.22	71.213
1133.11	63.2696
1136	66.4271
1138.89	46.2056
1141.79	54.1926
1144.68	44.3059
1147.57	57.6877
1150.47	61.506
1153.36	52.354
1156.25	46.4507
1159.14	54.4025
1162.04	56.8509
1164.93	41.5044
1167.82	34.2918
1170.71	21.6081
1173.61	41.1834
1176.5	27.293
1179.39	17.8169
1182.29	24.1197
1185.18	31.9139
1188.07	27.9091
1190.96	22.9654
1193.86	3.70242
1196.75	17.3581
1199.64	38.4955
1202.54	18.558
1205.43	5.81378
1208.32	1.4743
1211.21	6.3179
1214.11	21.4924
1217	3.46158
1219.89	0.739899
1222.78	15.2987
1225.68	18.2175
1228.57	0.661133
1231.46	14.5674
1234.35	0.372742
