Measurement: Raman, 532 nm, unoriented, Raman Data Processed
Mineral: Epistilbite
Rruff sample: R061105
Ideal chemistry: Ca_3_(Si_18_Al_6_)O_48_16H_2_O
Locality: Berufiord, Iceland
Source: Michael Scott
Description: Globular aggregate of thin tabular peach and white fibrous crystals
Measured chemistry: (Ca_2.38_Na_1.04_K_0.09_)_Σ=3.51_(Si_18.11_Al_5.89_)O_48·_11.38H_2_O ; = lighter gray phase : (Na_2.91_Ca_0.13_K_0.12_)_Σ=3.16_Ca_2.00_Al_7.29_Si_28.85_O_72_·16.19H_2_O = darker gray phase = heulandite-Na
Raman shift (cm-1)	intensity
122.047	0
125.422	579.827
128.797	945.77
132.171	936.01
135.546	672.981
138.921	498.941
142.296	275.722
145.671	344.699
149.045	273.514
152.42	247.45
155.795	194.117
159.17	102.343
162.545	151.266
165.919	150.368
169.294	170.926
172.669	198.019
176.044	189.898
179.419	176.493
182.794	175.635
186.168	161.139
189.543	68.106
192.918	41.0449
196.293	65.4771
199.668	21.8486
203.042	37.5332
206.417	9.79785
209.792	28.9858
213.167	5.76953
216.542	16.4004
219.917	21.9956
223.291	12.3267
226.666	13.5283
230.041	8.33594
233.416	13.1323
236.791	23.2925
240.165	66.4551
243.54	80.7192
246.915	92.4631
250.29	139.047
253.665	142.327
257.039	118.272
260.414	126.599
263.789	70.2446
267.164	63.7285
270.539	77.3521
273.913	115.431
277.288	75.6885
280.663	97.8892
284.038	90.8701
287.413	123.937
290.788	172.233
294.162	208.063
297.537	240.415
300.912	249.49
304.287	231.639
307.662	239.444
311.036	162.028
314.411	201.754
317.786	158.794
321.161	106.829
324.536	77.604
327.911	65.2935
331.285	4.21826
334.66	1.18408
338.035	39.9727
341.41	63.248
344.785	10.585
348.159	51.3252
351.534	9.77295
354.909	67.1416
358.284	123.279
361.659	200.62
365.034	294.33
368.408	435.103
371.783	512.215
375.158	747.235
378.533	1047.18
381.908	1320.88
385.282	1706.23
388.657	2069.82
392.032	2348.1
395.407	2570.19
398.782	2554.26
402.156	2528.69
405.531	2314.26
408.906	2189.08
412.281	2092.77
415.656	1742.73
419.031	1646.59
422.405	1636.44
425.78	1690.94
429.155	1716.51
432.53	1667.74
435.905	1731.64
439.279	1733.03
442.654	1637.52
446.029	1453.85
449.404	1361.84
452.779	1336.18
456.154	1480.55
459.528	1542.69
462.903	1786.4
466.278	2002.23
469.653	2145.86
473.028	2015.53
476.402	1672.09
479.777	1202.85
483.152	781.461
486.527	411.538
489.902	263.27
493.276	100.395
496.651	3.01172
500.026	4.04834
503.401	4.47705
506.776	17.7944
510.151	77.4312
513.525	44.1826
516.9	32.4639
520.275	12.5469
523.65	81.8838
527.025	68.686
530.399	91.9863
533.774	35.3857
537.149	110.168
540.524	98.2988
543.899	102.471
547.274	115.085
550.648	206.41
554.023	131.888
557.398	178.797
560.773	167.24
564.148	180.756
567.522	92.6362
570.897	63.4946
574.272	92.7466
577.647	97.145
581.022	171.808
584.396	122.37
587.771	126.317
591.146	111.641
594.521	141.073
597.896	75.9937
601.271	86.5977
604.645	95.4741
608.02	103.461
611.395	110.158
614.77	105.779
618.145	120.185
621.519	160.922
624.894	198.059
628.269	147.706
631.644	133.517
635.019	35.081
638.394	13.8989
641.768	0.814941
645.143	50.8359
648.518	37.5308
651.893	54.751
655.268	17.1909
658.642	36.6582
662.017	80.7817
665.392	47.1089
668.767	0.47998
672.142	49.228
675.516	19.1675
678.891	15.8452
682.266	24.4966
685.641	49.2256
689.016	65.0928
692.391	63.4111
695.765	67.6045
699.14	73.8208
702.515	33.5342
705.89	29.75
709.265	63.4331
712.639	8.33301
716.014	4.46338
719.389	4.00244
722.764	2.24316
726.139	50.873
729.514	1.11377
732.888	4.49658
736.263	2.73047
739.638	28.2812
743.013	16.8755
746.388	55.3145
749.762	75.5644
753.137	67.2329
756.512	90.5376
759.887	71.0874
763.262	82.3799
766.636	124.945
770.011	175.464
773.386	174.25
776.761	134.224
780.136	183.872
783.51	164.01
786.885	232.309
790.26	278.588
793.635	306.75
797.01	390.51
800.385	457.646
803.759	479.081
807.134	477.021
810.509	471.583
813.884	363.223
817.259	263.92
820.634	285.621
824.008	275.939
827.383	165.451
830.758	107.785
834.133	59.7315
837.508	83.3223
840.882	24.4844
844.257	16.9448
847.632	45.709
851.007	58.106
854.382	15.7485
857.756	12.7031
861.131	11.5459
864.506	74.0644
867.881	10.6226
871.256	32.1411
874.63	14.8691
878.005	61.4522
881.38	35.1392
884.755	59.2632
888.13	43.8408
891.505	88.2012
894.879	71.7178
898.254	26.8608
901.629	37.4785
905.004	86.6113
908.379	40.1133
911.754	50.8325
915.128	1.17969
918.503	69.0498
921.878	55.981
925.253	83.8144
928.628	80.4717
932.002	60.708
935.377	54.3218
938.752	73.5449
942.127	52.0347
945.502	19.9517
948.876	61.4551
952.251	34.6055
955.626	38.4297
959.001	62.395
962.376	46.6484
965.75	50.7197
969.125	53.4775
972.5	23.2886
975.875	4.104
979.25	0.09082
982.625	19.1064
985.999	14.544
989.374	94.4497
992.749	25.8145
996.124	53.291
999.499	82.7192
1002.87	17.5947
1006.25	76.2827
1009.62	16.3218
1013	9.26758
1016.37	42.793
1019.75	68.4585
1023.12	75.2783
1026.5	130.369
1029.87	69.5019
1033.25	79.5444
1036.62	39.4893
1040	88.9985
1043.37	67.4482
1046.75	5.29346
1050.12	35.8857
1053.5	36.0727
1056.87	28.6836
1060.24	42.9556
1063.62	31.4097
1066.99	15.334
1070.37	20.8193
1073.74	108.743
1077.12	55.0903
1080.49	29.7822
1083.87	23.2129
1087.24	10.3506
1090.62	2.13281
1093.99	6.93408
1097.37	76.0606
1100.74	95.2661
1104.12	140.878
1107.49	166.58
1110.87	194.93
1114.24	227.843
1117.62	232.574
1120.99	213.768
1124.37	235.103
1127.74	308.409
1131.12	250.134
1134.49	212.447
1137.87	324.666
1141.24	278.662
1144.62	316.091
1147.99	221.49
1151.37	165.784
1154.74	309.704
1158.12	260.208
1161.49	210.022
1164.87	247.133
1168.24	216.474
1171.61	191.882
1174.99	137.124
1178.36	145.385
1181.74	147.884
1185.11	195.155
1188.49	191.144
1191.86	71.0723
1195.24	82.7168
1198.61	77.2031
1201.99	103.001
1205.36	39.2227
1208.74	27.21
1212.11	115.339
1215.49	100.22
1218.86	29.3013
1222.24	30.1416
1225.61	27.7617
1228.99	77.2642
1232.36	18.874
1235.74	23.0366
1239.11	24.8569
1242.48	9.47217
1245.86	56.4971
1249.23	20.9419
1252.61	79.1489
1255.98	84.4209
1259.36	116.559
1262.73	81.582
1266.11	83.3701
1269.48	94.833
1272.86	101.181
1276.23	75.3052
1279.61	75.1152
1282.98	55.7236
1286.36	22.0342
