Measurement: Raman, 532 nm, unoriented, Raman Data Processed
Mineral: Erionite-K
Rruff sample: R061104
Ideal chemistry: K_10_(Si_26_Al_10_O_72_)30H_2_O
Locality: Chase Creek, Falkland, British Columbia, Canada
Source: Michael Scott
Description: A cavity lined with randomly oriented colorless prismatic crystals
Raman shift (cm-1)	intensity
173.805	0
176.698	103.514
179.591	77.5234
182.483	58.2793
185.376	66.0508
188.269	52.0117
191.162	149.576
194.054	94.2832
196.947	92.875
199.84	168.072
202.732	163.533
205.625	101.016
208.518	157.197
211.411	243.117
214.303	198.768
217.196	116.178
220.089	233.266
222.981	283.6
225.874	235.684
228.767	366.062
231.659	272.074
234.552	253.82
237.445	237.148
240.338	187.375
243.23	288.6
246.123	176.525
249.016	175.055
251.908	183.012
254.801	73.3359
257.694	148.062
260.586	170.045
263.479	26.6035
266.372	189.445
269.264	105.049
272.157	120.627
275.05	78.2617
277.943	85.1055
280.835	113.127
283.728	61.793
286.621	15.3125
289.514	120.894
292.406	33.7012
295.299	185.148
298.192	40.3281
301.084	66.418
303.977	46.9219
306.87	110.781
309.762	85.3828
312.655	104.539
315.548	209.94
318.44	215.598
321.333	191.703
324.226	121.914
327.119	99.4414
330.011	204.217
332.904	214.553
335.797	195.613
338.689	216.572
341.582	253.93
344.475	135.443
347.368	176.537
350.26	161.935
353.153	41.8164
356.046	27.1855
358.938	99.5312
361.831	82.8926
364.724	48.7578
367.616	7.4043
370.509	136.072
373.402	100.174
376.295	194.81
379.187	53.1816
382.08	52.1426
384.973	0.550781
387.865	6.78516
390.758	99.9805
393.651	75.0176
396.543	18.4121
399.436	57.7773
402.329	18.6953
405.221	16.5371
408.114	83.6289
411.007	0.005859
413.9	119.953
416.792	3.24609
419.685	149.426
422.578	195.805
425.47	129.949
428.363	348.227
431.256	256.291
434.149	294.734
437.041	314.469
439.934	251.404
442.827	314.09
445.719	392.01
448.612	430.414
451.505	482.449
454.397	690.914
457.29	788.178
460.183	884.633
463.075	1054.59
465.968	1122.68
468.861	1175.01
471.754	1301.67
474.646	1282.67
477.539	1388.73
480.432	1505.2
483.324	1413.59
486.217	1630.85
489.11	1299.72
492.003	1137.09
494.895	994.646
497.788	773.248
500.681	535.322
503.573	457.926
506.466	312.342
509.359	263.699
512.251	122.83
515.144	124.82
518.037	7.49414
520.93	59.2832
523.822	45.8652
526.715	3.6582
529.608	53.3438
532.5	37.9238
535.393	11.127
538.286	113.168
541.178	24.6562
544.071	71.0371
546.964	262.406
549.857	99.7812
552.749	145.93
555.642	295.869
558.535	231.375
561.427	214.607
564.32	264.641
567.213	196.791
570.106	117.76
572.998	116.272
575.891	244.15
578.784	58.5156
581.676	53.3184
584.569	51.832
587.462	1.75
590.354	103.336
593.247	0.226563
596.14	43.0234
599.033	22.4453
601.925	131.254
604.818	30.2148
607.711	120.34
610.603	88.7578
613.496	106.32
616.389	74.2539
619.281	101.766
622.174	115.074
625.067	114.109
627.96	177.441
630.852	132.348
633.745	196.465
636.638	186.352
639.53	224.016
642.423	274.566
645.316	190.148
648.208	349.144
651.101	181.812
653.994	399.762
656.886	284.293
659.779	319.199
662.672	376.477
665.565	276.211
668.457	335.051
671.35	227.117
674.243	264.688
677.135	159.727
680.028	324.406
682.921	118.922
685.813	157.66
688.706	147.117
691.599	55.6836
694.492	207.828
697.384	55.0742
700.277	89.6016
703.17	77.6562
706.062	121.883
708.955	38.4766
711.848	236.203
714.74	87.4336
717.633	188.793
720.526	57.9844
723.419	91.1758
726.311	149.668
729.204	142.863
732.097	79.5898
734.99	168.973
737.882	125.285
740.775	111.066
743.668	121.609
746.56	11.3984
749.453	4.04297
752.346	79.7617
755.238	146.535
758.131	1.39844
761.024	0.015625
763.917	183.922
766.809	199.715
769.702	132.637
772.595	171.16
775.487	63.2539
778.38	281.16
781.273	99.0391
784.165	134.973
787.058	156.262
789.951	142.391
792.843	167.746
795.736	98.832
798.629	179.707
801.522	197.457
804.414	240.801
807.307	154.504
810.2	227.508
813.092	109.348
815.985	327.801
818.878	210.293
821.77	223.773
824.663	120.285
827.556	152.863
830.449	105.203
833.341	10.8633
836.234	55.8164
839.127	75.3438
842.019	121.457
844.912	102.199
847.805	53.6445
850.697	67.2656
853.59	80.3008
856.483	120.398
859.376	12.6914
862.268	79.8477
865.161	40.6016
868.054	163.106
870.946	17.5391
873.839	118.938
876.732	70.0039
879.625	118.109
882.517	53.5859
885.41	123.531
888.303	166.164
891.195	86.0781
894.088	226.273
896.981	30.6094
899.874	71.1602
902.766	54.4297
905.659	249.356
908.552	191.59
911.444	180.148
914.337	40.1016
917.23	131.273
920.122	199.086
923.015	64.8672
925.908	58.3789
928.801	94.5742
931.693	28.082
934.586	231.93
937.479	109.402
940.371	69.6758
943.264	176.695
946.157	286.309
949.049	14.2422
951.942	137.144
954.835	138.082
957.727	116.379
960.62	39.3164
963.513	118.738
966.406	157.301
969.298	104.297
972.191	7.36719
975.084	75.0703
977.976	193.277
980.869	11.4414
983.762	71.582
986.654	62.1172
989.547	221.996
992.44	71.5312
995.333	202.106
998.225	127.574
1001.12	160.082
1004.01	156.633
1006.9	157.387
1009.8	75.3711
1012.69	97.8164
1015.58	50.332
1018.47	145.926
1021.37	56.3711
1024.26	288.688
1027.15	185.648
1030.05	174.356
1032.94	133.027
1035.83	48.7617
1038.72	53.4141
1041.62	72.6602
1044.51	178.734
1047.4	116.336
1050.29	99.5625
1053.19	95.6523
1056.08	135.172
1058.97	47.2852
1061.87	138.836
1064.76	91.4609
1067.65	137.184
1070.54	25.9492
1073.44	40.1836
1076.33	119.602
1079.22	158.457
1082.11	102.094
1085.01	162.914
1087.9	84.5039
1090.79	93.8984
1093.68	102.176
1096.58	210.965
1099.47	243.734
1102.36	218.289
1105.26	40.9883
1108.15	133.562
1111.04	106.137
1113.93	91.8008
1116.83	225.367
1119.72	27.1055
1122.61	231.231
1125.5	285.418
1128.4	303.769
1131.29	159.777
1134.18	237.484
1137.08	180.141
1139.97	361.641
1142.86	202.836
1145.75	105.648
1148.65	216.754
1151.54	291.625
1154.43	141.781
1157.32	335.613
1160.22	210.191
1163.11	328.375
1166	304.019
1168.89	282.16
1171.79	184.398
1174.68	201.043
1177.57	249.434
1180.46	111.461
1183.36	274.215
1186.25	156.613
1189.14	194.012
1192.04	250.246
1194.93	137.633
1197.82	373.938
1200.71	52.6289
1203.61	200.312
1206.5	2.62891
1209.39	4.53906
1212.29	107.184
1215.18	38.1172
1218.07	41.8594
1220.96	63.4766
1223.86	13.5234
1226.75	150.969
1229.64	54.168
1232.53	84.6133
1235.43	100.062
1238.32	160.41
1241.21	29.8359
1244.11	22.4531
1247	134.832
1249.89	124.199
1252.78	113.059
1255.68	201.742
1258.57	4.54688
1261.46	188.289
1264.35	40.957
1267.25	33.5469
1270.14	99.5469
1273.03	278.504
1275.92	233.984
1278.82	179.652
1281.71	152.434
1284.6	255.812
1287.49	105.769
1290.39	140.301
1293.28	3.9375
1296.17	16.2461
