Measurement: Raman, 785 nm, unoriented, Raman Data Processed
Mineral: Eriochalcite
Rruff sample: R070026
Ideal chemistry: Cu^2+^Cl_2_2H_2_O
Locality: Tolbachik Volcano, Kamchatka Peninsula, Russia
Source: Michael Scott
Description: Pale bluish-green effluorescence
Raman shift (cm-1)	intensity
152.165	0
155.058	31.1716
157.951	3.19351
160.843	21.038
163.736	14.2301
166.629	20.963
169.521	19.4183
172.414	33.0607
175.307	40.5537
178.2	40.4905
181.092	61.0027
183.985	45.609
186.878	42.326
189.77	62.4702
192.663	63.3218
195.556	58.8751
198.448	59.8318
201.341	34.232
204.234	74.0977
207.126	80.0188
210.019	74.3803
212.912	66.186
215.805	53.3826
218.697	68.6877
221.59	80.3101
224.483	77.2566
227.375	52.9384
230.268	63.4253
233.161	38.787
236.054	41.6965
238.946	54.3406
241.839	46.2363
244.732	35.3742
247.624	56.1854
250.517	57.352
253.41	52.271
256.302	36.3177
259.195	70.4797
262.088	47.0044
264.981	29.964
267.873	41.3638
270.766	42.9159
273.659	34.0607
276.551	25.2684
279.444	37.1482
282.337	4.20801
285.229	31.8113
288.122	25.1984
291.015	30.7034
293.908	12.4114
296.8	15.5801
299.693	34.4122
302.586	4.44818
305.478	13.2354
308.371	28.4609
311.264	13.3265
314.156	6.30719
317.049	2.72565
319.942	1.76367
322.834	5.84534
325.727	7.08167
328.62	4.64893
331.513	3.64246
334.405	2.53174
337.298	10.7052
340.191	4.888
343.083	12.5923
345.976	32.4554
348.869	22.1567
351.762	44.1942
354.654	61.3062
357.547	74.5573
360.44	56.1234
363.332	50.403
366.225	35.0403
369.118	45.8496
372.01	33.2377
374.903	7.36768
377.796	21.4668
380.689	10.3688
383.581	29.0938
386.474	36.1196
389.367	14.9166
392.259	24.9088
395.152	36.2031
398.045	17.2766
400.938	25.4799
403.83	33.8218
406.723	31.015
409.616	45.775
412.508	22.0493
415.401	5.01132
418.294	0.128052
421.186	28.2642
424.079	4.56708
426.972	3.99896
429.865	12.3517
432.757	29.0931
435.65	1.56906
438.543	8.6279
441.435	29.0624
444.328	28.6092
447.221	56.5038
450.113	36.1988
453.006	23.4057
455.899	18.8955
458.791	14.7571
461.684	9.82776
464.577	6.37271
467.47	11.9904
470.362	25.6089
473.255	7.76035
476.148	9.10022
479.04	9.00519
481.933	27.9041
484.826	42.0964
487.719	40.3789
490.611	32.3473
493.504	62.9044
496.397	91.653
499.289	123.98
502.182	129.017
505.075	171.838
507.967	151.356
510.86	155.754
513.753	165.179
516.645	123.386
519.538	129.831
522.431	97.7791
525.324	66.7322
528.216	64.6239
531.109	40.149
534.002	37.8167
536.894	23.648
539.787	28.0002
542.68	26.4183
545.572	0.245911
548.465	21.5485
551.358	4.103
554.251	20.2777
557.143	21.092
560.036	3.82239
562.929	28.0107
565.821	15.0688
568.714	20.5792
571.607	18.1783
574.5	30.8834
577.392	36.2617
580.285	71.3059
583.178	23.8802
586.07	39.0643
588.963	24.416
591.856	37.5737
594.748	55.7341
597.641	30.9601
600.534	57.87
603.427	49.31
606.319	33.3355
609.212	21.6373
612.105	38.4823
614.997	18.7781
617.89	17.1098
620.783	11.9326
623.675	14.1307
626.568	19.5285
629.461	10.2996
632.354	7.69873
635.246	18.2866
638.139	22.7063
641.032	36.7869
643.924	4.73352
646.817	21.7334
649.71	7.93689
652.602	26.6012
655.495	1.82593
658.388	8.30026
661.28	24.7264
664.173	30.2956
667.066	19.474
669.959	28.5822
672.851	19.5679
675.744	15.769
678.637	23.2415
681.529	26.7322
684.422	32.4138
687.315	32.481
690.208	21.0503
693.1	21.9602
695.993	47.2199
698.886	47.252
701.778	23.0385
704.671	29.4062
707.564	6.33066
710.457	37.1793
713.349	24.9905
716.242	10.404
719.135	38.42
722.027	3.53122
724.92	13.708
727.813	11.3926
730.705	15.8491
733.598	16.2211
736.491	21.1385
739.384	3.64932
742.276	3.72699
745.169	21.3622
748.062	15.0191
750.954	9.96054
753.847	10.6415
756.74	17.4653
759.632	7.34982
762.525	2.05582
765.418	11.6097
768.311	31.0456
771.203	7.38028
774.096	4.56586
776.989	5.57947
779.881	13.5594
782.774	1.66769
785.667	23.5143
788.559	10.566
791.452	14.5004
794.345	19.244
797.237	38.2406
800.13	66.3382
803.023	45.3777
805.916	43.5359
808.808	90.0671
811.701	58.24
814.594	87.0186
817.486	97.8693
820.379	99.3861
823.272	92.818
826.164	81.5081
829.057	61.6281
831.95	51.8258
834.843	49.6986
837.735	51.2805
840.628	53.46
843.521	64.8963
846.413	43.2811
849.306	19.636
852.199	33.4522
855.091	41.8223
857.984	0.289398
860.877	9.56107
863.77	30.9916
866.662	9.30102
869.555	14.7567
872.448	1.10486
875.34	15.2278
878.233	1.18887
881.126	20.1464
884.019	13.1059
886.911	23.9025
889.804	37.5765
892.697	60.9221
895.589	85.9773
898.482	82.2152
901.375	139.696
904.267	165.685
907.16	165.133
910.053	172.71
912.946	120.506
915.838	104.629
918.731	80.1699
921.624	45.7301
924.516	38.4474
927.409	22.2814
930.302	15.8265
933.194	26.4202
936.087	13.1066
938.98	22.0106
941.873	19.8352
944.765	39.0748
947.658	16.6018
950.551	15.5111
953.443	27.1136
956.336	19.121
959.229	14.1673
962.121	44.5346
965.014	52.6919
967.907	74.7203
970.8	72.2485
973.692	65.2878
976.585	55.7303
979.478	50.1787
982.37	42.9996
985.263	46.121
988.156	47.8063
991.048	12.6181
993.941	12.558
996.834	31.1229
999.727	14.5734
1002.62	14.3827
1005.51	27.6724
1008.4	30.6787
1011.3	2.34338
1014.19	19.8034
1017.08	0.156189
1019.98	25.244
1022.87	30.6859
1025.76	2.13196
1028.65	20.5143
1031.55	3.32767
1034.44	31.9506
1037.33	13.7388
1040.22	1.36636
1043.12	21.3729
1046.01	13.3765
1048.9	32.3414
1051.8	26.6273
1054.69	21.292
1057.58	23.0139
1060.47	21.4818
1063.37	23.5331
1066.26	32.2081
1069.15	2.24011
1072.04	2.07291
1074.94	0.906372
1077.83	5.96365
1080.72	1.55313
1083.62	54.1808
1086.51	10.6515
1089.4	37.7252
1092.29	42.0512
1095.19	18.6539
1098.08	19.4512
1100.97	20.6119
1103.86	8.28366
1106.76	16.2013
1109.65	28.2318
1112.54	0.949799
1115.43	38.3078
1118.33	39.0271
1121.22	31.9203
1124.11	26.3533
1127.01	17.6446
1129.9	36.1513
1132.79	2.50543
1135.68	20.3023
1138.58	34.6985
1141.47	17.9984
1144.36	11.1447
1147.25	19.9009
1150.15	31.033
1153.04	26.7723
1155.93	13.2652
1158.83	26.7962
1161.72	22.0684
1164.61	21.8565
1167.5	24.6703
1170.4	10.9579
1173.29	31.3874
1176.18	27.5658
1179.07	16.907
1181.97	44.5198
1184.86	29.9441
1187.75	39.5577
1190.64	5.38971
1193.54	37.4011
1196.43	37.7399
1199.32	18.1843
1202.22	36.6113
1205.11	23.7127
1208	12.7799
1210.89	29.0355
1213.79	27.4665
1216.68	1.89261
1219.57	30.0535
1222.46	12.3639
1225.36	29.8593
1228.25	28.596
1231.14	7.22946
