Measurement: Raman, 532 nm, unoriented, Raman Data Processed
Mineral: Erionite-Na
Rruff sample: R061126
Ideal chemistry: Na_10_(Si_26_Al_10_O_72_)30H_2_O
Locality: Dunseverick, Ireland
Source: Michael Scott
Description: Colorless prismatic crystals frozen in basalt nodules with chabazite
Measured chemistry: (Na_5.05_K_2.42_Ca_1.08_[box]_1.05_Mg_0.40_)_Σ=10_(Si_25.57_Al_10.43_)_Σ=36_O_72_·22.80H_2_O; H_2_O estimated by difference
Raman shift (cm-1)	intensity
165.609	0
168.502	93.0039
171.395	75.2695
174.287	76.1025
177.18	38.0762
180.073	0.832031
182.966	4.91797
185.858	43.9912
188.751	49.6046
191.644	35.0992
194.536	60.6508
197.429	111.27
200.322	49.7217
203.214	69.3184
206.107	92.4443
209	112.24
211.893	111.359
214.785	76.5049
217.678	92.3584
220.571	172.263
223.463	102.345
226.356	131.947
229.249	159.71
232.142	123.032
235.034	106.423
237.927	198.159
240.82	107.696
243.712	79.4688
246.605	113.087
249.498	67.8115
252.39	116.888
255.283	48.3926
258.176	65.7871
261.068	15.3223
263.961	34.792
266.854	44.0488
269.747	39.0615
272.639	22.0967
275.532	26.2285
278.425	24.5869
281.317	34.5303
284.21	85.3047
287.103	18.0693
289.996	65.584
292.888	24.2324
295.781	68.5889
298.674	61.1592
301.566	144.262
304.459	106.989
307.352	114.75
310.245	177.029
313.137	171.822
316.03	128.168
318.923	203.253
321.815	285.269
324.708	190.127
327.601	269.903
330.493	278.283
333.386	289.276
336.279	299.677
339.171	327.865
342.064	305.354
344.957	255.955
347.85	216.982
350.742	234.669
353.635	172.785
356.528	192.548
359.42	154.132
362.313	88.3018
365.206	110.636
368.099	86.5527
370.991	64.5762
373.884	121.138
376.777	41.9707
379.669	9.00293
382.562	37.0127
385.455	20.6016
388.347	5.15039
391.24	69.7666
394.133	40.5879
397.026	16.0762
399.918	15.7559
402.811	13.6621
405.704	76.8438
408.596	44.0166
411.489	28.6885
414.382	47.8242
417.274	46.6728
420.167	13.0596
423.06	118.196
425.952	179.826
428.845	134.331
431.738	122.881
434.631	227.96
437.523	400.469
440.416	558.442
443.309	648.398
446.201	996.402
449.094	1363.17
451.987	1656.82
454.88	2013.05
457.772	2247.81
460.665	2459.51
463.558	2558.33
466.45	2542.86
469.343	2645.84
472.236	2668.02
475.128	2797.87
478.021	2963.39
480.914	2887.71
483.807	2794.23
486.699	2327.58
489.592	1802.32
492.485	1332.08
495.377	977.183
498.27	705.611
501.163	404.228
504.055	292.716
506.948	245.755
509.841	88.5967
512.734	42.7559
515.626	24.3779
518.519	88.5635
521.412	41.2744
524.304	20.3896
527.197	61.0303
530.09	4.94727
532.982	68.0391
535.875	7.41309
538.768	138.238
541.661	133.205
544.553	348.24
547.446	364.488
550.339	503.313
553.231	705.976
556.124	634.399
559.017	620.502
561.909	554.756
564.802	494.634
567.695	242.161
570.588	254.238
573.48	95.6426
576.373	136.754
579.266	79.9961
582.158	27.0859
585.051	32.0469
587.944	8.94922
590.837	50.0938
593.729	0.068359
596.622	51.6367
599.515	19.998
602.407	3.8418
605.3	80.2129
608.193	46.1074
611.085	35.6074
613.978	111.725
616.871	67.7891
619.764	51.2461
622.656	125.9
625.549	114.66
628.442	172.32
631.334	137.588
634.227	229.231
637.12	112.484
640.013	103.885
642.905	214.09
645.798	103.807
648.691	94.6309
651.583	199.205
654.476	186.56
657.369	51.7012
660.261	165.496
663.154	138.416
666.047	94.2617
668.939	123.1
671.832	110.109
674.725	59.2305
677.618	1.57227
680.51	123.606
683.403	13.4805
686.296	133.076
689.188	78.9023
692.081	73.1543
694.974	25.6816
697.866	121.397
700.759	15.2949
703.652	74.6523
706.545	81.3516
709.437	145.769
712.33	0.363281
715.223	113.33
718.115	49.5508
721.008	37.8652
723.901	18.1016
726.793	46.75
729.686	46.9492
732.579	53.4316
735.472	161.801
738.364	4.41211
741.257	50.0391
744.15	117.969
747.042	37.5605
749.935	37.9316
752.828	116.414
755.721	132.633
758.613	49.7188
761.506	213.336
764.399	172.459
767.291	99.1426
770.184	124.397
773.077	131.76
775.969	134.867
778.862	79.8516
781.755	154.127
784.648	118.703
787.54	84.125
790.433	169.867
793.326	90.9394
796.218	142.928
799.111	173.685
802.004	191.572
804.896	219.898
807.789	116.041
810.682	91.0859
813.574	83.9629
816.467	46.6934
819.36	134.065
822.253	20.1934
825.145	149.037
828.038	51.8906
830.931	44.957
833.823	116.256
836.716	45.6055
839.609	106.283
842.501	34.8203
845.394	32.5781
848.287	19.0625
851.18	0.71875
854.072	101.266
856.965	63.1836
859.858	40.3379
862.75	111.871
865.643	61.2539
868.536	69.8262
871.428	71.8711
874.321	101.721
877.214	110.889
880.107	58.5059
882.999	0.228516
885.892	103.133
888.785	81.5977
891.678	98.4785
894.57	46.0781
897.463	43.2656
900.356	87.3086
903.248	137.18
906.141	58.0801
909.034	66.0644
911.926	46.2676
914.819	178.848
917.712	22.6719
920.605	27.7188
923.497	35.4062
926.39	74.7676
929.283	16.373
932.175	20.3477
935.068	57.8066
937.961	83.5859
940.853	43.998
943.746	44.334
946.639	12.3027
949.532	6.85156
952.424	45.7129
955.317	70.082
958.21	167.205
961.102	106.537
963.995	83.959
966.888	52.0332
969.78	46.0215
972.673	17.9258
975.566	125.762
978.458	47.6348
981.351	50.6113
984.244	142.932
987.137	107.387
990.029	90.2422
992.922	59.2266
995.815	93.4199
998.707	60.541
1001.6	136.959
1004.49	90.8926
1007.38	81.4551
1010.28	163.15
1013.17	124.57
1016.06	204.918
1018.96	175.699
1021.85	40.3574
1024.74	42.9863
1027.63	92.6367
1030.53	92.9336
1033.42	117.6
1036.31	35.8203
1039.2	173.147
1042.1	99.5996
1044.99	144.385
1047.88	49.5508
1050.78	82.3418
1053.67	92.9981
1056.56	33.0352
1059.45	7.01953
1062.35	40.4102
1065.24	44.6641
1068.13	170.502
1071.03	19.3145
1073.92	193.299
1076.81	172.305
1079.7	254.951
1082.6	241.973
1085.49	203.391
1088.38	281.242
1091.27	219.168
1094.17	229.478
1097.06	206.547
1099.95	206.93
1102.85	252.973
1105.74	191.519
1108.63	212.264
1111.52	330.197
1114.42	190.652
1117.31	203.422
1120.2	228.516
1123.09	216.471
1125.99	273.887
1128.88	254.652
1131.77	146.445
1134.66	179.527
1137.56	241.975
1140.45	150.978
1143.34	192.662
1146.23	174.144
1149.13	109.439
1152.02	123.834
1154.91	200
1157.81	189.764
1160.7	70.2988
1163.59	136.244
1166.48	113.816
1169.38	199.447
1172.27	112.92
1175.16	108.879
1178.06	45.0371
1180.95	61.2285
1183.84	42.2207
1186.73	16.8887
1189.63	16.418
1192.52	37.6543
1195.41	7.14844
1198.3	66.6719
1201.2	88.7773
1204.09	24.6172
1206.98	0.507813
1209.88	85.2793
1212.77	105.35
1215.66	33.7695
1218.55	20.791
1221.44	99.8867
1224.34	192.961
1227.23	109.662
1230.12	35.5684
1233.02	113.781
1235.91	167.697
1238.8	62.4941
1241.69	4.85742
1244.59	121.934
1247.48	58.8711
1250.37	62.502
1253.27	98.7734
1256.16	183.838
1259.05	17.668
1261.94	15.6582
1264.84	94.3594
1267.73	101.133
1270.62	49.0664
1273.51	64.8691
1276.41	143.688
1279.3	66.0293
1282.19	130.135
1285.09	117.328
1287.98	17.0117
1290.87	22.6016
1293.76	10.7207
1296.66	30.8613
