Measurement: Raman, 785 nm, unoriented, Raman Data Processed
Mineral: Erionite-Na
Rruff sample: R061126
Ideal chemistry: Na_10_(Si_26_Al_10_O_72_)30H_2_O
Locality: Dunseverick, Ireland
Source: Michael Scott
Description: Colorless prismatic crystals frozen in basalt nodules with chabazite
Measured chemistry: (Na_5.05_K_2.42_Ca_1.08_[box]_1.05_Mg_0.40_)_Σ=10_(Si_25.57_Al_10.43_)_Σ=36_O_72_·22.80H_2_O; H_2_O estimated by difference
Raman shift (cm-1)	intensity
184.304	0
187.197	133.603
190.09	151.039
192.983	111.26
195.875	1.58691
198.768	109.006
201.661	198.192
204.553	210.198
207.446	114.81
210.339	126.02
213.232	35.2695
216.124	96.165
219.017	11.668
221.91	153.609
224.802	207.868
227.695	160.112
230.588	142.909
233.48	192.293
236.373	175.722
239.266	257.916
242.159	200.885
245.051	170.329
247.944	219.178
250.837	183.904
253.729	102.173
256.622	147.686
259.515	168.289
262.407	147.741
265.3	109.144
268.193	31.7832
271.086	46.0996
273.978	56.123
276.871	99.7705
279.764	18.2559
282.656	90.7305
285.549	63.6719
288.442	8.56543
291.334	104.086
294.227	41.3672
297.12	4.77441
300.012	50.0049
302.905	17.4609
305.798	76.5713
308.691	121.379
311.583	140.317
314.476	185.715
317.369	261.693
320.261	223.764
323.154	279.188
326.047	350.525
328.94	379.853
331.832	498.249
334.725	450.177
337.618	499.643
340.51	443.049
343.403	334.989
346.296	247.85
349.188	218.156
352.081	259.601
354.974	215.707
357.866	206.137
360.759	142.701
363.652	135.202
366.545	67.9824
369.437	11.4668
372.33	16.5059
375.223	82.8789
378.115	143.263
381.008	104.641
383.901	61.2725
386.793	104.228
389.686	78.9912
392.579	13.8389
395.472	87.2441
398.364	27.2881
401.257	39.4385
404.15	3.50781
407.042	36.9414
409.935	45.2119
412.828	59.0391
415.72	17.7217
418.613	93.832
421.506	110.365
424.399	155.913
427.291	161.195
430.184	220.227
433.077	195.44
435.969	282.371
438.862	489.583
441.755	641.564
444.647	1067.44
447.54	1518.5
450.433	2006.78
453.325	2522.99
456.218	3052.55
459.111	3310.83
462.004	3544.75
464.896	3526.35
467.789	3542.18
470.682	3564.28
473.574	3506.7
476.467	3655.05
479.36	3657.59
482.252	3681.9
485.145	3131.01
488.038	2686.43
490.931	2008.92
493.823	1480.69
496.716	984.343
499.609	688.283
502.501	504.453
505.394	301.228
508.287	153.213
511.18	60.4717
514.072	90.291
516.965	14.8096
519.858	90.5596
522.75	55.6758
525.643	49.7891
528.536	20.7871
531.428	148.329
534.321	4.4834
537.214	158.237
540.106	304.749
542.999	366.768
545.892	516.904
548.785	678.373
551.677	826.724
554.57	992.95
557.463	1100.93
560.355	1094.49
563.248	1027.89
566.141	534.087
569.034	383.831
571.926	164.389
574.819	154.725
577.712	104.734
580.604	86.7266
583.497	67.5449
586.39	37.9795
589.282	75.5068
592.175	5.79297
595.068	49.7793
597.96	13.9902
600.853	43.2549
603.746	21.7959
606.639	73.3838
609.531	84.8603
612.424	91.7022
615.317	51.2617
618.209	133.44
621.102	101.923
623.995	126.814
626.888	147.065
629.78	105.619
632.673	91.082
635.566	128.56
638.458	127.016
641.351	212.259
644.244	76.1914
647.136	104.011
650.029	103.865
652.922	106.087
655.814	110.385
658.707	118.978
661.6	125.46
664.493	116.086
667.385	28.1104
670.278	55.7109
673.171	40.8232
676.063	41.4678
678.956	100.245
681.849	3.93555
684.741	81.9277
687.634	35.6953
690.527	65.5352
693.42	23.7324
696.312	62.7617
699.205	37.2383
702.098	105.575
704.99	17.4502
707.883	77.3154
710.776	76.4824
713.668	49.7285
716.561	78.9375
719.454	91.4463
722.346	118.602
725.239	71.334
728.132	135.95
731.025	131.68
733.917	149.99
736.81	105.87
739.703	66.7012
742.595	84.2119
745.488	69.2822
748.381	105.487
751.274	108.132
754.166	20.8076
757.059	75.709
759.952	114.73
762.844	87.6289
765.737	115.098
768.63	101.969
771.522	100.941
774.415	167.541
777.308	96.9668
780.201	170.051
783.093	144.464
785.986	213.796
788.879	212.888
791.771	218.948
794.664	223.625
797.557	244.401
800.449	254.006
803.342	298.698
806.235	287.402
809.128	284.572
812.02	239.075
814.913	180.414
817.806	145.239
820.698	125.439
823.591	105.088
826.484	82.6982
829.376	117.519
832.269	71.7812
835.162	38.8379
838.054	51.1602
840.947	51.0342
843.84	89.3262
846.733	46.001
849.625	74.832
852.518	37.4551
855.411	5.68262
858.303	12.8711
861.196	56.2559
864.089	61.5137
866.981	33.2803
869.874	27.3545
872.767	82.4502
875.659	100.619
878.552	95.5606
881.445	55.4883
884.338	83.4482
887.23	0.195313
890.123	38.2441
893.016	110.955
895.908	73.5684
898.801	70.7978
901.694	78.4512
904.587	66.7031
907.479	136.95
910.372	121.416
913.265	102.606
916.157	83.5412
919.05	79.5098
921.943	109.147
924.835	46.9355
927.728	42.5898
930.621	61.1426
933.514	72.3467
936.406	110.444
939.299	69.4609
942.192	33.0586
945.084	8.33301
947.977	35.7598
950.87	5.23242
953.763	60.0957
956.655	70.4268
959.548	31.4326
962.441	47.3086
965.333	36.8467
968.226	6.99414
971.119	22.2354
974.011	50.3398
976.904	13.252
979.797	5.52832
982.689	101.917
985.582	18.0273
988.475	50.4522
991.368	31.3379
994.26	82.6025
997.153	118.885
1000.05	74.3916
1002.94	66.0205
1005.83	80.6201
1008.72	78.2236
1011.62	97.668
1014.51	115.303
1017.4	12.7412
1020.29	140.281
1023.19	25.7002
1026.08	20.6484
1028.97	7.35449
1031.87	10.0918
1034.76	77.665
1037.65	99.5586
1040.54	28.0547
1043.44	14.3779
1046.33	40.6875
1049.22	59.2236
1052.11	78.4746
1055.01	73.7725
1057.9	28.7402
1060.79	43.3984
1063.68	8.76562
1066.58	66.6758
1069.47	121.261
1072.36	110.884
1075.26	98.1543
1078.15	129.268
1081.04	223.975
1083.93	149.987
1086.83	165.535
1089.72	197.062
1092.61	184.239
1095.51	183.905
1098.4	160.498
1101.29	192.956
1104.18	122.783
1107.08	191.506
1109.97	168.817
1112.86	200.166
1115.75	115.154
1118.65	128.041
1121.54	107.938
1124.43	140.603
1127.32	214.875
1130.22	195.522
1133.11	166.738
1136	109.56
1138.89	158.583
1141.79	128.839
1144.68	74.8535
1147.57	166.86
1150.47	48.1826
1153.36	75.3389
1156.25	113.027
1159.14	60.8438
1162.04	33.5654
1164.93	35.9258
1167.82	162.017
1170.71	123.119
1173.61	13.7588
1176.5	51.4629
1179.39	44.915
1182.29	73.2607
1185.18	31.5645
1188.07	48.2959
1190.96	26.8623
1193.86	39.9951
1196.75	72.2197
1199.64	9.06934
1202.54	18.9795
1205.43	3.45508
1208.32	87.9424
1211.21	90.6904
1214.11	25.9531
1217	27.7539
1219.89	103.466
1222.78	28.2607
1225.68	15.3462
1228.57	150.508
1231.46	64.4614
1234.35	8.8833
1237.25	1.7915
1240.14	40.6728
1243.03	105.587
1245.92	104.136
1248.82	41.5083
1251.71	12.4487
1254.6	75.2358
1257.5	88.9023
1260.39	2.40527
1263.28	23.4111
