Measurement: Raman, 785 nm, unoriented, Raman Data Processed
Mineral: Erionite-K
Rruff sample: R061104
Ideal chemistry: K_10_(Si_26_Al_10_O_72_)30H_2_O
Locality: Chase Creek, Falkland, British Columbia, Canada
Source: Michael Scott
Description: A cavity lined with randomly oriented colorless prismatic crystals
Raman shift (cm-1)	intensity
178.682	0
181.575	45.9102
184.467	6.52637
187.36	10.4243
190.253	30.8159
193.145	10.8218
196.038	4.74805
198.931	28.0015
201.823	87.7637
204.716	61.3472
207.609	6.02441
210.502	63.6987
213.394	17.2183
216.287	7.5249
219.18	97.7852
222.072	67.0195
224.965	59.0952
227.858	66.3452
230.75	69.0439
233.643	38.7275
236.536	24.9624
239.429	69.1572
242.321	49.709
245.214	59.2993
248.107	3.92432
250.999	35.3931
253.892	70.9487
256.785	76.0542
259.678	65.3003
262.57	87.3789
265.463	88.5991
268.356	64.271
271.248	58.9028
274.141	35.4102
277.034	30.3735
279.926	79.9429
282.819	79.3564
285.712	121.888
288.604	87.0102
291.497	90.687
294.39	77.9219
297.283	76.3501
300.175	127.659
303.068	210.375
305.961	247.992
308.853	306.57
311.746	325.172
314.639	370.073
317.531	367.079
320.424	378.758
323.317	388.094
326.21	332.841
329.102	338.877
331.995	324.787
334.888	332.019
337.78	297.589
340.673	259.181
343.566	287.604
346.459	241.111
349.351	235.813
352.244	178.395
355.137	161.738
358.029	85.011
360.922	125.184
363.815	95.4529
366.707	41.1116
369.6	44.2082
372.493	32.3501
375.385	77.0142
378.278	28.6343
381.171	13.1338
384.064	8.1311
386.956	3.10352
389.849	18.2859
392.742	13.1797
395.634	31.3477
398.527	5.47681
401.42	7.72485
404.312	6.05444
407.205	35.3423
410.098	60.533
412.99	0.267578
415.883	70.7703
418.776	99.981
421.669	182.554
424.561	257.163
427.454	228.595
430.347	262.438
433.239	333.741
436.132	237.823
439.025	314.815
441.918	316.474
444.81	375.735
447.703	476.606
450.596	567.113
453.488	641.512
456.381	804.978
459.274	910.651
462.166	1070.18
465.059	1172.04
467.952	1292.65
470.844	1434.2
473.737	1577.67
476.63	1722.7
479.523	1949.81
482.415	2186.11
485.308	2337.7
488.201	2321.93
491.093	2105.82
493.986	1777.59
496.879	1355.32
499.772	1049.51
502.664	764.861
505.557	517.476
508.45	359.707
511.342	250.098
514.235	161.61
517.128	140.411
520.02	35.8665
522.913	52.0825
525.806	0.711914
528.698	15.1099
531.591	6.43994
534.484	10.5835
537.377	9.88867
540.269	26.7078
543.162	27.4155
546.055	5.31836
548.947	42.9529
551.84	62.2014
554.733	116.939
557.625	140.559
560.518	217.448
563.411	283.876
566.304	249.698
569.196	217.203
572.089	167.504
574.982	154.637
577.874	131.697
580.767	65.7136
583.66	119.064
586.553	76.6565
589.445	97.3367
592.338	24.2336
595.231	70.8857
598.123	75.6819
601.016	20.9473
603.909	64.4524
606.801	58.2588
609.694	11.4062
612.587	13.3518
615.48	15.9109
618.372	32.0115
621.265	37.3953
624.158	4.10083
627.05	6.45337
629.943	47.5557
632.836	31.6924
635.728	23.4856
638.621	51.2532
641.514	43.5303
644.407	39.8955
647.299	0.038818
650.192	4.70825
653.085	56.5012
655.977	26.9419
658.87	8.17163
661.763	26.844
664.655	30.0713
667.548	75.5354
670.441	35.7131
673.333	30.8296
676.226	41.4536
679.119	43.2483
682.012	72.7346
684.904	70.5945
687.797	23.0579
690.69	34.8611
693.582	54.8274
696.475	34.6692
699.368	61.0261
702.26	59.1899
705.153	61.468
708.046	56.3027
710.939	21.0459
713.831	33.1868
716.724	39.1995
719.617	0.609863
722.509	1.87744
725.402	61.8887
728.295	18.5205
731.188	4.73071
734.08	19.4487
736.973	26.7419
739.866	38.0002
742.758	27.5518
745.651	25.9143
748.544	58.5938
751.436	51.2563
754.329	8.82593
757.222	64.4702
760.114	48.6938
763.007	90.7688
765.9	92.6018
768.793	53.137
771.685	82.4114
774.578	70.217
777.471	64.2258
780.363	98.177
783.256	54.0701
786.149	83.6577
789.041	84.8149
791.934	64.2983
794.827	53.6431
797.72	48.4456
800.612	36.3032
803.505	69.4783
806.398	16.5027
809.29	25.3752
812.183	101.245
815.076	7.19824
817.968	56.7026
820.861	58.8384
823.754	27.7319
826.646	18.6948
829.539	0.459717
832.432	31.647
835.325	11.1284
838.217	17.146
841.11	38.7053
844.003	51.4658
846.895	19.3616
849.788	30.2522
852.681	38.9731
855.573	25.5442
858.466	46.294
861.359	30.134
864.252	8.93917
867.144	25.1135
870.037	65.7056
872.93	31.1405
875.822	10.8592
878.715	32.2898
881.608	38.5832
884.5	18.2061
887.393	17.6255
890.286	32.3859
893.179	20.327
896.071	39.3752
898.964	7.02271
901.857	33.0383
904.75	19.2727
907.642	32.9362
910.535	14.3838
913.428	17.5403
916.32	26.4965
919.213	48.5763
922.106	16.5706
924.998	35.5142
927.891	46.4001
930.784	33.6455
933.677	43.0891
936.569	46.6299
939.462	41.0441
942.355	63.6659
945.247	33.2119
948.14	8.87964
951.033	58.9168
953.925	35.0679
956.818	0.883545
959.711	18.7743
962.603	4.53992
965.496	7.46973
968.389	52.5365
971.282	19.6067
974.174	0.862671
977.067	11.304
979.96	33.9863
982.852	35.8201
985.745	52.3514
988.638	42.1306
991.53	48.7165
994.423	42.7786
997.316	33.9808
1000.21	39.3308
1003.1	29.8189
1005.99	55.7721
1008.89	50.4595
1011.78	45.1791
1014.67	61.6266
1017.57	74.7197
1020.46	53.0706
1023.35	86.7257
1026.24	86.9266
1029.13	76.7954
1032.03	51.8389
1034.92	41.2164
1037.81	49.4197
1040.71	45.7136
1043.6	51.9438
1046.49	20.5737
1049.38	8.15991
1052.28	10.4836
1055.17	25.1431
1058.06	30.8214
1060.95	11.3217
1063.85	35.6324
1066.74	30.8586
1069.63	0.278442
1072.53	19.6737
1075.42	28.9383
1078.31	9.17517
1081.2	12.9541
1084.1	37.0093
1086.99	23.3171
1089.88	22.9636
1092.78	55.5925
1095.67	58.7322
1098.56	81.572
1101.45	41.4825
1104.35	87.386
1107.24	83.6711
1110.13	78.046
1113.02	91.5934
1115.92	82.9338
1118.81	69.5189
1121.7	47.4506
1124.6	92.8076
1127.49	56.5858
1130.38	57.7527
1133.27	83.3628
1136.16	65.2496
1139.06	58.4
1141.95	39.8623
1144.84	52.0176
1147.74	82.6497
1150.63	78.2544
1153.52	49.8026
1156.41	38.5981
1159.31	47.2467
1162.2	40.7942
1165.09	23.7788
1167.98	40.0183
1170.88	54.4557
1173.77	29.2626
1176.66	9.52161
1179.56	37.6831
1182.45	12.574
1185.34	19.6547
1188.23	12.9543
1191.13	59.6257
1194.02	10.1999
1196.91	54.5327
1199.81	42.0753
1202.7	43.7725
1205.59	53.8912
1208.48	60.5254
1211.38	72.0116
1214.27	43.3917
1217.16	33.8868
1220.05	19.697
1222.95	34.6634
1225.84	12.3019
1228.73	32.6321
1231.62	1.25244
1234.52	6.91589
