Measurement: Raman, 532 nm, unoriented, Raman Data Processed
Mineral: Erythrosiderite
Rruff sample: R120084
Ideal chemistry: K_2_Fe^3+^Cl_5_H_2_O
Locality: Mount Vesuvius, Campania, Italy
Source: Robert Jenkins
Description: Reddish-yellow unconsolidated grains, associated with yellow or pale yellow salammoniac.
Raman shift (cm-1)	intensity
201.379	0
204.272	10.178
207.164	20.0181
210.057	23.4769
212.95	21.0727
215.843	15.3543
218.735	12.743
221.628	10.5832
224.521	13.1444
227.413	13.2789
230.306	12.7697
233.199	11.6786
236.091	7.10559
238.984	3.763
241.877	0.645752
244.769	1.73151
247.662	0.661621
250.555	2.35712
253.448	2.33716
256.34	0.082275
259.233	0.408936
262.126	0.196716
265.018	2.49939
267.911	1.21533
270.804	3.50073
273.697	5.62732
276.589	10.8235
279.482	10.1463
282.375	11.4509
285.267	12.5766
288.16	19.0512
291.053	25.5168
293.945	34.3212
296.838	39.1506
299.731	45.9399
302.623	51.0125
305.516	54.6574
308.409	52.2231
311.302	47.6007
314.194	43.1087
317.087	40.4251
319.98	35.7987
322.872	37.1304
325.765	40.3432
328.658	45.9576
331.55	47.2823
334.443	38.3295
337.336	31.8209
340.229	24.2839
343.121	16.6479
346.014	7.7915
348.907	3.94519
351.799	7.12683
354.692	2.43835
357.585	4.41315
360.478	3.24268
363.37	0.303894
366.263	1.69037
369.156	2.0581
372.048	3.27277
374.941	7.55609
377.834	3.75818
380.726	5.6098
383.619	10.0322
386.512	12.5312
389.404	14.5993
392.297	12.1456
395.19	15.1514
398.083	17.1881
400.975	13.7799
403.868	16.0261
406.761	14.9289
409.653	21.0817
412.546	24.4216
415.439	19.3993
418.332	20.069
421.224	16.3428
424.117	15.5913
427.01	20.3067
429.902	21.2635
432.795	14.0803
435.688	14.8453
438.58	14.2105
441.473	11.1218
444.366	6.62646
447.259	6.71881
450.151	5.35895
453.044	4.84198
455.937	1.40997
458.829	0.655151
461.722	2.3335
464.615	0.680481
467.507	4.25971
470.4	0.352295
473.293	2.63348
476.185	1.34131
479.078	2.99481
481.971	0.637756
484.864	3.22955
487.756	2.64276
490.649	4.50446
493.542	8.73163
496.434	8.28589
499.327	6.11597
502.22	6.77832
505.113	5.03491
508.005	6.59741
510.898	4.52643
513.791	11.0571
516.683	6.22308
519.576	6.86218
522.469	8.79645
525.361	13.8391
528.254	16.4462
531.147	14.1349
534.04	14.8675
536.932	12.7019
539.825	13.9342
542.718	16.3374
545.61	19.5121
548.503	19.1199
551.396	15.8639
554.288	14.2924
557.181	12.9128
560.074	10.4829
562.967	9.52271
565.859	7.34302
568.752	6.5022
571.645	0.638184
574.537	0.343506
577.43	2.32104
580.323	5.49524
583.216	3.43958
586.108	0.724976
589.001	0.773804
591.894	2.5
594.786	1.89392
597.679	0.90918
600.572	1.94116
603.464	1.2356
606.357	1.89062
609.25	0.489624
612.142	3.18787
615.035	4.84644
617.928	3.37866
620.821	4.74304
623.713	4.25183
626.606	7.50183
629.499	8.92395
632.391	17.2793
635.284	17.298
638.177	19.2439
641.069	22.6604
643.962	25.1877
646.855	23.8335
649.747	27.0209
652.64	28.9672
655.533	30.2325
658.426	27.5342
661.318	29.5636
664.211	25.8087
667.104	20.6526
669.996	23.6462
672.889	20.4037
675.782	19.6932
678.674	16.2676
681.567	20.6752
684.46	21.8699
687.353	19.2725
690.245	20.4617
693.138	23.0802
696.031	20.9335
698.923	20.9849
701.816	19.8805
704.709	18.9871
707.601	22.2648
710.494	27.2401
713.387	28.5543
716.28	27.2534
719.172	21.3525
722.065	24.4072
724.958	28.602
727.85	28.7331
730.743	24.146
733.636	19.1029
736.529	14.9477
739.421	13.1165
742.314	3.04944
745.207	3.10498
748.099	2.6051
750.992	2.05115
753.885	3.31653
756.777	4.82678
759.67	5.96765
762.563	0.634399
765.456	5.24707
768.348	2.90991
771.241	0.461426
774.134	2.047
777.026	3.65149
779.919	5.63684
782.812	0.936401
785.704	2.58679
788.597	0.553833
791.49	1.76062
794.383	5.11084
797.275	1.26953
800.168	0.392334
803.061	1.36926
805.953	2.86768
808.846	5.10681
811.739	4.77039
814.631	4.92554
817.524	6.59375
820.417	5.3363
823.309	4.95862
826.202	1.52515
829.095	0.136597
831.988	7.35754
834.88	4.91663
837.773	4.56665
840.666	5.9541
843.558	6.37927
846.451	8.63306
849.344	3.61926
852.236	5.04858
855.129	8.08679
858.022	7.97668
860.915	6.8324
863.807	9.63086
866.7	4.17029
869.593	4.18738
872.485	3.99023
875.378	7.72852
878.271	5.16235
881.163	1.15942
884.056	7.92847
886.949	9.80115
889.842	8.5177
892.734	2.83545
895.627	5.48523
898.52	2.80542
901.412	1.24939
904.305	2.87854
907.198	4.54297
910.091	5.68213
912.983	6.0365
915.876	3.09827
918.769	7.7688
921.661	3.87512
924.554	6.22681
927.447	6.66089
930.339	7.12769
933.232	0.663574
936.125	2.23438
939.018	0.286743
941.91	8.7677
944.803	7.86267
947.696	8.01648
950.588	3.59558
953.481	6.14197
956.374	8.89929
959.266	3.66345
962.159	9.73657
965.052	9.56494
967.944	11.6913
970.837	6.97436
973.73	9.67578
976.623	8.47412
979.515	12.2145
982.408	10.0727
985.301	8.13538
988.193	11.1084
991.086	12.0753
993.979	10.3341
996.871	7.83655
999.764	3.16565
1002.66	8.12439
1005.55	5.3418
1008.44	6.10596
1011.34	2.76831
1014.23	2.77002
1017.12	0.68103
1020.01	4.8855
1022.91	6.79761
1025.8	4.35242
1028.69	1.14368
1031.58	6.97571
1034.48	5.65076
1037.37	9.12524
1040.26	3.59595
1043.15	2.43591
1046.05	3.2074
1048.94	6.92908
1051.83	5.86328
1054.73	7.92261
1057.62	12.8606
1060.51	4.84863
1063.4	11.4257
1066.3	4.82214
1069.19	6.87915
1072.08	4.1344
1074.97	2.44556
1077.87	0.338623
1080.76	4.4021
1083.65	3.0708
1086.55	0.534058
1089.44	1.20056
1092.33	3.96423
1095.22	4.01672
1098.12	8.71216
1101.01	7.01404
1103.9	3.72571
1106.79	7.28186
1109.69	3.58289
1112.58	9.80017
1115.47	8.72595
1118.37	6.54773
1121.26	3.23584
1124.15	5.26721
1127.04	2.06018
1129.94	4.70813
1132.83	1.59509
1135.72	6.26111
1138.61	8.26062
1141.51	6.14319
1144.4	2.7887
1147.29	3.41943
1150.18	8.3197
1153.08	6.12427
1155.97	5.75207
1158.86	2.39746
1161.76	0.341553
1164.65	6.88965
1167.54	6.71606
1170.43	1.71436
1173.33	3.47437
1176.22	8.33289
1179.11	8.13049
1182	11.1583
1184.9	7.66614
1187.79	12.0774
1190.68	7.08264
1193.58	7.31665
1196.47	4.80481
1199.36	7.04822
1202.25	6.94482
1205.15	11.5292
1208.04	11.1069
1210.93	12.2048
1213.82	13.182
1216.72	12.1199
1219.61	5.23987
1222.5	4.93799
1225.39	11.9377
1228.29	9.50256
1231.18	7.16077
1234.07	1.59631
1236.97	3.32227
1239.86	0.856201
1242.75	4.9375
1245.64	2.14111
1248.54	0.656616
1251.43	3.21533
1254.32	5.28748
1257.21	4.5719
1260.11	7.74951
1263	9.22107
1265.89	7.91431
1268.79	8.05676
1271.68	5.52686
1274.57	6.82239
1277.46	5.99731
1280.36	2.11511
1283.25	0.280518
1286.14	1.91333
1289.03	4.09839
1291.93	3.93286
1294.82	6.75232
1297.71	6.60303
1300.61	4.55689
