Measurement: Raman, 785 nm, unoriented, Raman Data Processed
Mineral: Eskebornite
Rruff sample: R060791
Ideal chemistry: Cu^1+^Fe^3+^Se^2-^_2_
Locality: Slavkovice Morava, Czech Republic
Source: Michael Scott
Description: Brass colored metallic massive
Measured chemistry: Cu_1.00_(Fe_0.98_Pb_0.02_)_Σ=1_(Se_1.93_S_0.07_)_Σ=2_ ; the lighter inclusions (not analyzed) contain (WDS scan only): Cu, Tl, Se, Fe
Raman shift (cm-1)	intensity
155.758	0
158.651	16.6426
161.543	646.812
164.436	582.708
167.329	640.512
170.221	962.866
173.114	542.795
176.007	76.3655
178.9	29.3472
181.792	122.537
184.685	335.424
187.578	682.717
190.47	1279.41
193.363	1857.23
196.256	1701.52
199.148	225.091
202.041	66.6869
204.934	6.18506
207.827	26.6061
210.719	31.4739
213.612	61.8543
216.505	259.794
219.397	318.947
222.29	266.72
225.183	334.309
228.076	389.826
230.968	496.058
233.861	569.849
236.754	493.711
239.646	393.638
242.539	324.678
245.432	330.496
248.324	344.325
251.217	373.391
254.11	402.838
257.003	374.22
259.895	300.276
262.788	224.8
265.681	173.325
268.573	124.81
271.466	106.638
274.359	79.8841
277.251	128.752
280.144	154.557
283.037	136.848
285.93	94.1379
288.822	75.6306
291.715	105.206
294.608	81.5774
297.5	89.9661
300.393	125.037
303.286	103.983
306.178	93.4708
309.071	145.071
311.964	55.1947
314.857	77.5627
317.749	36.8586
320.642	30.0769
323.535	26.9189
326.427	47.5831
329.32	61.0794
332.213	54.3932
335.105	71.1981
337.998	63.2919
340.891	87.9327
343.784	83.2824
346.676	80.4698
349.569	39.0226
352.462	32.8679
355.354	7.06781
358.247	2.71063
361.14	11.4084
364.033	9.06366
366.925	10.0887
369.818	41.5362
372.711	52.8094
375.603	63.3679
378.496	66.2345
381.389	60.679
384.281	29.0364
387.174	38.0617
390.067	33.5533
392.96	18.9489
395.852	2.95441
398.745	4.64832
401.638	6.18445
404.53	18.1094
407.423	1.49585
410.316	24.4983
413.208	13.6902
416.101	75.6039
418.994	27.4226
421.887	56.1685
424.779	29.8746
427.672	27.9333
430.565	43.5792
433.457	28.3451
436.35	17.2302
439.243	10.8233
442.135	29.4191
445.028	28.1523
447.921	25.5298
450.814	43.9226
453.706	45.4815
456.599	25.4009
459.492	50.2248
462.384	10.534
465.277	45.0917
468.17	21.3267
471.062	38.6816
473.955	37.2073
476.848	9.24799
479.741	11.5051
482.633	5.22443
485.526	10.8555
488.419	21.3747
491.311	45.8453
494.204	23.1668
497.097	37.3138
499.989	1.59076
502.882	16.7612
505.775	18.6835
508.668	30.3791
511.56	51.209
514.453	44.2227
517.346	14.156
520.238	22.2851
523.131	30.2318
526.024	2.90717
528.916	7.76923
531.809	5.96692
534.702	17.2409
537.594	28.2808
540.487	52.5887
543.38	18.3775
546.273	47.0234
549.165	42.2259
552.058	60.5362
554.951	46.5279
557.843	23.6197
560.736	25.7118
563.629	19.5118
566.521	1.31232
569.414	3.56177
572.307	35.9421
575.2	22.9239
578.092	46.6883
580.985	32.2637
583.878	69.1879
586.77	30.0561
589.663	28.0532
592.556	56.5925
595.448	29.545
598.341	61.5536
601.234	31.3843
604.127	23.1365
607.019	33.903
609.912	45.627
612.805	30.8326
615.697	24.6699
618.59	47.1837
621.483	24.3809
624.375	22.2047
627.268	14.7963
630.161	49.4377
633.054	32.1501
635.946	36.3428
638.839	42.6621
641.732	11.7327
644.625	34.9238
647.517	38.8732
650.41	2.88391
653.303	29.8508
656.195	10.3408
659.088	0.860046
661.981	21.8276
664.873	37.3249
667.766	20.0676
670.659	15.2993
673.552	32.6553
676.444	50.3742
679.337	28.4992
682.23	38.2645
685.122	7.13458
688.015	10.4641
690.908	2.70746
693.8	4.12744
696.693	16.7095
699.586	32.1979
702.479	18.1577
705.371	23.3781
708.264	24.8372
711.157	22.3628
714.049	37.2561
716.942	37.8772
719.835	51.3889
722.727	40.1396
725.62	34.3948
728.513	39.7404
731.406	14.3482
734.298	14.0574
737.191	1.03857
740.084	36.8758
742.976	29.9609
745.869	34.6465
748.762	18.6386
751.654	44.183
754.547	64.5725
757.44	38.239
760.333	37.1858
763.225	25.016
766.118	23.0908
769.011	9.96283
771.903	11.5916
774.796	14.023
777.689	1.31689
780.581	28.7469
783.474	60.633
786.367	56.5682
789.26	39.773
792.152	71.7131
795.045	18.5331
797.938	34.0248
800.83	2.40808
803.723	15.9377
806.616	3.7132
809.508	37.102
812.401	21.4954
815.294	46.7894
818.187	21.7902
821.079	53.1091
823.972	39.1867
826.865	20.7608
829.757	47.4406
832.65	71.4406
835.543	37.0331
838.435	63.9832
841.328	24.7206
844.221	18.4319
847.114	46.6054
850.006	19.9327
852.899	34.4881
855.792	45.2529
858.684	27.5689
861.577	17.266
864.47	37.479
867.362	28.0222
870.255	7.45447
873.148	35.186
876.041	41.9331
878.933	36.2972
881.826	28.4526
884.719	12.9747
887.611	10.5269
890.504	15.6075
893.397	8.85858
896.289	0.699646
899.182	11.9619
902.075	3.54962
904.968	34.2806
907.86	21.831
910.753	28.3396
913.646	45.5543
916.538	37.5866
919.431	23.6762
922.324	23.5159
925.216	20.1396
928.109	39.4078
931.002	24.8799
933.894	11.2589
936.787	21.6863
939.68	44.4312
942.573	45.7629
945.465	38.0744
948.358	7.70953
951.251	4.55994
954.143	32.5793
957.036	18.8683
959.929	3.51605
962.821	31.7637
965.714	9.96466
968.607	22.0222
971.5	19.7377
974.392	18.5422
977.285	36.4426
980.178	38.693
983.07	39.2324
985.963	19.3197
988.856	24.7297
991.748	28.3209
994.641	12.1921
997.534	40.3168
1000.43	53.693
1003.32	8.17029
1006.21	5.19721
1009.11	36.0825
1012	56.3156
1014.89	57.1697
1017.78	68.6978
1020.68	33.9136
1023.57	6.39874
1026.46	6.91583
1029.35	27.5111
1032.25	44.5604
1035.14	22.6406
1038.03	33.6219
1040.92	14.9285
1043.82	49.2098
1046.71	58.9422
1049.6	18.8643
1052.49	54.5317
1055.39	42.8766
1058.28	69.1585
1061.17	47.9205
1064.07	40.8256
1066.96	39.0677
1069.85	22.9077
1072.74	33.0967
1075.64	4.17413
1078.53	26.8126
1081.42	20.7608
1084.32	10.2883
1087.21	37.9174
1090.1	22.4439
1092.99	54.1375
1095.89	51.0328
1098.78	27.3341
1101.67	22.8199
1104.56	30.986
1107.46	8.25104
1110.35	39.8073
1113.24	9.28461
1116.13	9.4082
1119.03	8.5152
1121.92	24.0657
1124.81	4.59222
1127.7	12.1573
1130.6	24.6421
1133.49	19.4341
1136.38	30.5748
1139.28	52.909
1142.17	11.8322
1145.06	13.4295
1147.95	29.1762
1150.85	12.6295
1153.74	60.478
1156.63	27.4667
1159.53	40.4294
1162.42	1.30121
1165.31	41.4908
1168.2	32.8742
1171.1	32.3459
1173.99	43.9055
1176.88	43.2035
1179.77	31.6068
1182.67	47.0551
1185.56	26.4273
1188.45	6.32886
1191.35	30.2373
1194.24	29.3047
1197.13	31.2097
1200.02	61.6484
1202.92	12.0532
1205.81	45.1155
1208.7	10.7106
1211.59	61.7178
1214.49	33.1392
1217.38	46.6743
1220.27	71.9694
1223.16	57.9411
1226.06	77.9866
1228.95	65.4379
1231.84	67.18
1234.73	54.6517
1237.63	30.7012
1240.52	14.1638
1243.41	58.6575
1246.31	90.3083
1249.2	56.347
1252.09	88.4314
1254.98	73.5151
1257.88	33.9442
1260.77	23.9964
1263.66	0.39209
1266.56	0
