Measurement: Raman, 532 nm, unoriented, Raman Data Processed
Mineral: Esperite
Rruff sample: R060295
Ideal chemistry: Pb^2+^Ca_2_(Zn^2+^SiO_4_)_3_
Locality: Parker Shaft, Franklin, Sussex County, New Jersey, USA
Source: Michael Scott
Description: Tan colored massive associated with black franklinite
Measured chemistry: (Ca_1.98_Pb_0.02_)_Î£=2_Pb_1.00_Zn_3.00_(Si_1.00_O_4_)_3_
Raman shift (cm-1)	intensity
164.772	0
167.664	280.438
170.557	868.391
173.45	2234.11
176.343	4097.72
179.235	6116.42
182.128	6268.17
185.021	4073.23
187.913	1826.5
190.806	1361.02
193.699	864.406
196.591	334.75
199.484	1043.59
202.377	737.969
205.269	56.7188
208.162	236.719
211.055	87.6875
213.948	372.688
216.84	744.094
219.733	1068.61
222.626	1899.8
225.518	1595.12
228.411	659.906
231.304	230.109
234.196	273.469
237.089	756.234
239.982	994.375
242.875	1241.11
245.767	1378.16
248.66	2036.56
251.553	2215.59
254.445	1652.61
257.338	1140.56
260.231	849.391
263.123	590.516
266.016	815.359
268.909	864.047
271.802	455.328
274.694	697.047
277.587	618.609
280.48	916.141
283.372	848.328
286.265	805.516
289.158	1206.02
292.05	1454.78
294.943	1525.67
297.836	1121.8
300.729	656.875
303.621	334.922
306.514	214.219
309.407	178.984
312.299	65.0938
315.192	65.3281
318.085	149.969
320.978	239.516
323.87	13
326.763	181.422
329.656	691.062
332.548	1263.7
335.441	1435.89
338.334	1172.19
341.226	685.641
344.119	390.828
347.012	221.984
349.904	503.797
352.797	786.531
355.69	929.359
358.583	732.438
361.475	1001.16
364.368	1081.53
367.261	964.188
370.153	1095.83
373.046	1076.27
375.939	526.734
378.832	92.8594
381.724	120.766
384.617	73.0938
387.51	426.547
390.402	671.766
393.295	585.938
396.188	584.453
399.08	488.969
401.973	86.7812
404.866	189.656
407.759	725.891
410.651	923.547
413.544	1185.11
416.437	796.828
419.329	305.188
422.222	395.625
425.115	409.078
428.007	297.234
430.9	953.719
433.793	643.969
436.685	1154.12
439.578	1701.34
442.471	2346.23
445.364	2773.91
448.256	3012.61
451.149	2081.25
454.042	799.656
456.934	107.531
459.827	50.2031
462.72	81.0625
465.613	210.797
468.505	20.8281
471.398	95.3906
474.291	27.6562
477.183	35.2344
480.076	98.2656
482.969	313.297
485.861	277.828
488.754	344.578
491.647	735.688
494.539	899.125
497.432	890.078
500.325	1370.38
503.218	1573.14
506.11	1629.83
509.003	1467.58
511.896	1022.91
514.788	442.062
517.681	102.484
520.574	187.469
523.466	161.969
526.359	261.594
529.252	512.828
532.145	323.641
535.037	197.438
537.93	363.203
540.823	834.703
543.715	905.734
546.608	523.672
549.501	446.375
552.394	370.703
555.286	132.766
558.179	47.25
561.072	326.188
563.964	444.375
566.857	615.203
569.75	791.688
572.642	934.094
575.535	1188.39
578.428	1427.06
581.321	2173.39
584.213	2700.22
587.106	3175.19
589.999	3269.44
592.891	3098.02
595.784	2321.59
598.677	1074.94
601.569	768.641
604.462	787.484
607.355	737.75
610.247	1068.7
613.14	1176.08
616.033	639.672
618.926	91.1719
621.818	312.406
624.711	239.188
627.604	340.281
630.496	526.844
633.389	698.219
636.282	1058.69
639.174	1379.55
642.067	1190.77
644.96	842.141
647.852	782.781
650.745	537.141
653.638	1156.53
656.531	1470.36
659.423	1328.59
662.316	1142.44
665.209	974.016
668.101	986.422
670.994	1265.23
673.887	933.266
676.779	1060
679.672	1041.22
682.565	1415.98
685.458	1214.17
688.35	1060
691.243	1069.75
694.136	1004.39
697.028	490.969
699.921	637.688
702.814	463.047
705.707	665.641
708.599	1030.23
711.492	1179.84
714.385	970.531
717.277	1120.53
720.17	668.484
723.063	552.141
725.955	500.562
728.848	635.141
731.741	334.984
734.634	483.25
737.526	308.047
740.419	669.297
743.312	499.047
746.204	450.641
749.097	9.64062
751.99	296.547
754.882	261.703
757.775	15.1094
760.668	275.109
763.561	467
766.453	262.609
769.346	179.75
772.239	176.672
775.131	585.906
778.024	631.547
780.917	793.062
783.809	543.516
786.702	379.594
789.595	133.922
792.487	334.719
795.38	580.344
798.273	288.812
801.166	83.4219
804.058	193.125
806.951	551.797
809.844	606.938
812.736	37.625
815.629	355.422
818.522	354.641
821.415	404.078
824.307	223.969
827.2	154.625
830.093	332.797
832.985	1246.38
835.878	2364.41
838.771	3330.97
841.663	5384.06
844.556	6775.25
847.449	7370.19
850.342	5862.28
853.234	3769.55
856.127	2195.34
859.02	1555.61
861.912	1172.92
864.805	686.844
867.698	338.25
870.591	206.156
873.483	43.4531
876.376	24.3281
879.269	138.156
882.161	311
885.054	60.6719
887.947	87.7344
890.839	689.562
893.732	711.516
896.625	1159.61
899.518	1687.08
902.41	2003.97
905.303	1815.98
908.196	1313.95
911.088	1133.73
913.981	971.125
916.874	1154.05
919.766	1097.44
922.659	1023.16
925.552	974
928.444	833.438
931.337	755.047
934.23	522.297
937.123	140.375
940.015	271.625
942.908	273.703
945.801	227.266
948.693	131.109
951.586	156.406
954.479	502.688
957.371	362
960.264	217.469
963.157	269.781
966.05	409.562
968.942	353.141
971.835	241.719
974.728	97.1719
977.62	477.156
980.513	1236.3
983.406	994.531
986.298	654.297
989.191	322.906
992.084	156
994.977	489.719
997.869	665.969
1000.76	595.984
1003.65	251.484
1006.55	553.234
1009.44	831.453
1012.33	803.422
1015.23	583.391
1018.12	473.75
1021.01	872.281
1023.9	972.016
1026.8	609
1029.69	598.766
1032.58	100.359
1035.47	466.312
1038.37	376.844
1041.26	477.859
1044.15	765.656
1047.05	897.047
1049.94	574.219
1052.83	149.547
1055.72	380.938
1058.62	664.156
1061.51	507.234
1064.4	1017.48
1067.29	657.219
1070.19	778.625
1073.08	595.969
1075.97	771.672
1078.87	750.812
1081.76	700.375
1084.65	616.578
1087.54	7.96875
1090.44	125.203
1093.33	61.7344
1096.22	335.406
1099.11	814.625
1102.01	1323.34
1104.9	890.703
1107.79	415.297
1110.68	299.844
1113.58	187.844
1116.47	441.109
1119.36	570.625
1122.26	456.719
1125.15	304.141
1128.04	731.859
1130.93	822.25
1133.83	919.703
1136.72	1090.11
1139.61	796.516
1142.5	686.422
1145.4	339.797
1148.29	368.828
1151.18	442.422
1154.08	514.547
1156.97	482.078
1159.86	158.188
1162.75	205.672
1165.65	492.906
1168.54	434.219
1171.43	224.328
1174.32	32.5469
1177.22	559.125
1180.11	407.25
1183	126.641
1185.89	98.1094
1188.79	130.984
1191.68	156.281
1194.57	192.047
1197.47	444.281
1200.36	513.906
1203.25	308.312
1206.14	326.188
1209.04	145.359
1211.93	396.578
1214.82	904.828
1217.71	820.297
1220.61	553.266
1223.5	572.844
1226.39	475.5
1229.29	225.531
1232.18	305.906
1235.07	82.375
1237.96	173.531
1240.86	127.453
1243.75	128.922
1246.64	50.9531
1249.53	292.297
1252.43	451.422
1255.32	196.094
1258.21	83.6406
1261.11	170.844
1264	177.422
1266.89	47.3281
1269.78	402.641
1272.68	349.625
1275.57	586.234
1278.46	601.391
1281.35	368.578
1284.25	327.969
1287.14	389.766
1290.03	277.406
1292.92	258.391
1295.82	206.406
1298.71	188.047
1301.6	5.29688
