Measurement: Raman, 532 nm, unoriented, Raman Data Processed
Mineral: Esperite
Rruff sample: R070512
Ideal chemistry: Pb^2+^Ca_2_(Zn^2+^SiO_4_)_3_
Locality: Parker Shaft, Franklin, Sussex County, New Jersey, USA
Source: Canadian Museum of Nature
Description: Greasy white massive, co-type specimen. Structure reported in Tait et al (2010) is from this sample.
Measured chemistry: (Ca_1.86_Fe_0.07_Mn_0.04_Cr^3+^_0.02_[box]_0.01_)_Σ=2_Pb_1.00_Zn_3.00_((Si_1.00_O_4_)_3_ ; = pin #1  : (Ca_1.79_Fe_0.12_Cr^3+^_0.04_Mn_0.03_[box]_0.02_)_Σ=2_Pb_1.00_Zn_3.00_((Si_1.00_O_4_)_3_ ; = pin #2
Raman shift (cm-1)	intensity
162.071	0
164.964	245.199
167.857	4.59375
170.75	248.711
173.642	459.473
176.535	567.406
179.428	994.066
182.32	907.602
185.213	632.418
188.106	198.66
190.998	514.949
193.891	452.258
196.784	307.527
199.677	250.68
202.569	197.992
205.462	144.367
208.355	190.816
211.247	157.231
214.14	19.9062
217.033	134.441
219.925	4.88281
222.818	363.688
225.711	363.016
228.603	199.957
231.496	130.34
234.389	303.797
237.282	319.516
240.174	175.875
243.067	62.8945
245.96	301.496
248.852	205.582
251.745	403.535
254.638	393.383
257.531	369.32
260.423	428.531
263.316	361.996
266.209	690.18
269.101	640.555
271.994	570.356
274.887	567.758
277.779	490.914
280.672	294.582
283.565	173.441
286.457	6.42578
289.35	194.117
292.243	127.519
295.136	183.941
298.028	1.875
300.921	117.336
303.814	200.629
306.706	449.859
309.599	183.656
312.492	78.7734
315.385	60.4375
318.277	42.6172
321.17	57.6328
324.063	28.125
326.955	450.297
329.848	535.07
332.741	872.445
335.633	894.781
338.526	689.449
341.419	679.598
344.312	258.473
347.204	108.969
350.097	187.363
352.99	575.488
355.882	406.883
358.775	267.051
361.668	284.066
364.56	79.2539
367.453	442.547
370.346	559.988
373.238	427.254
376.131	347.754
379.024	155.258
381.917	297.809
384.809	400.191
387.702	244.289
390.595	51.9141
393.487	193.262
396.38	119.613
399.273	13.6797
402.166	59.3711
405.058	302.215
407.951	317.789
410.844	78.207
413.736	175.445
416.629	289.019
419.522	337.684
422.414	263.988
425.307	43.918
428.2	45.4922
431.092	306.887
433.985	643.414
436.878	479.656
439.771	688.398
442.663	866.41
445.556	1070.8
448.449	981.387
451.341	927.414
454.234	576.57
457.127	252.18
460.019	201.606
462.912	27.543
465.805	93.7109
468.697	44.4023
471.59	243.711
474.483	176.117
477.376	22.2148
480.268	242.164
483.161	397.375
486.054	470.117
488.946	477.133
491.839	378.281
494.732	115.246
497.625	254.984
500.517	535.84
503.41	607.254
506.303	413.555
509.195	348.832
512.088	276.5
514.981	388.707
517.873	395.481
520.766	75.9453
523.659	91.9102
526.552	15.4297
529.444	114.664
532.337	278.035
535.23	211.293
538.122	199.621
541.015	140.027
543.908	104.019
546.8	88.9766
549.693	56.8594
552.586	43.2109
555.479	21.0391
558.371	218.93
561.264	372.641
564.157	358.613
567.049	379.125
569.942	212.543
572.835	101.926
575.727	175.715
578.62	575.144
581.513	796.625
584.405	588.637
587.298	835.356
590.191	723.281
593.084	809.223
595.976	825.809
598.869	530.918
601.762	420.168
604.654	168.031
607.547	100.25
610.44	43.1289
613.332	122.035
616.225	347.523
619.118	151.617
622.011	136.652
624.903	344.223
627.796	180.043
630.689	237.297
633.581	53.9609
636.474	113.051
639.367	241.387
642.26	16.3477
645.152	154.887
648.045	173.133
650.938	196.465
653.83	223.961
656.723	359.977
659.616	435.719
662.508	133.602
665.401	465.406
668.294	383.977
671.187	297.902
674.079	72.2852
676.972	82.2383
679.865	449.762
682.757	479.285
685.65	270.043
688.543	177.422
691.435	55.2031
694.328	53.7812
697.221	276.457
700.114	192.219
703.006	263.246
705.899	567.492
708.792	365.922
711.684	384.492
714.577	644.676
717.47	583.586
720.362	500.309
723.255	383.769
726.148	219.359
729.04	181.965
731.933	117.144
734.826	122.047
737.719	10.4688
740.611	48.1875
743.504	169.961
746.397	104.699
749.289	168.176
752.182	232.523
755.075	216.613
757.967	96.168
760.86	56.6016
763.753	112.148
766.646	173.07
769.538	241.207
772.431	408.477
775.324	251.742
778.216	150.957
781.109	299.953
784.002	203.301
786.894	388.027
789.787	213.887
792.68	7.89453
795.573	189.652
798.465	303.074
801.358	291.5
804.251	295.207
807.143	185.547
810.036	208.293
812.929	195.109
815.822	174.106
818.714	101.207
821.607	129.207
824.5	255.922
827.392	360.734
830.285	348.344
833.178	453.387
836.07	692.328
838.963	911.125
841.856	1224
844.748	1770.27
847.641	1729.26
850.534	1342.24
853.427	846.184
856.319	571.106
859.212	454.231
862.105	411.824
864.997	212.231
867.89	69.2461
870.783	166.824
873.675	67.2773
876.568	14.3359
879.461	251.223
882.354	252.141
885.246	321.742
888.139	344.453
891.032	303.121
893.924	438.809
896.817	555.297
899.71	652.871
902.602	557.219
905.495	435.519
908.388	369.973
911.28	359.398
914.173	330.453
917.066	317.758
919.959	290.316
922.851	300.148
925.744	118.969
928.637	249.043
931.529	71.7812
934.422	87.7617
937.315	39.3555
940.207	249.363
943.1	212.043
945.993	130.981
948.886	170.965
951.778	285.016
954.671	105.941
957.564	181.246
960.456	132.008
963.349	21.8125
966.242	117.691
969.135	70.168
972.027	156.008
974.92	59.0508
977.813	78.4805
980.705	23.4141
983.598	168.231
986.491	228.402
989.383	101.606
992.276	12.582
995.169	20.5352
998.062	132.551
1000.95	234.945
1003.85	340.988
1006.74	255.816
1009.63	396.164
1012.52	65.6328
1015.42	302.051
1018.31	93.6758
1021.2	19.1875
1024.1	71.2969
1026.99	212.793
1029.88	129.91
1032.77	243.625
1035.67	251.055
1038.56	263.312
1041.45	164.019
1044.35	179.766
1047.24	117.766
1050.13	41.6211
1053.02	65.9375
1055.92	1.12109
1058.81	129.18
1061.7	219.738
1064.59	137.535
1067.49	121.316
1070.38	20.918
1073.27	82.1641
1076.16	180.973
1079.06	287.191
1081.95	283.656
1084.84	146.258
1087.73	100.887
1090.63	65.4492
1093.52	8.91406
1096.41	110.039
1099.31	124.184
1102.2	266.465
1105.09	157.16
1107.98	196.789
1110.88	437.144
1113.77	296.871
1116.66	290.234
1119.56	297.566
1122.45	74.668
1125.34	228.613
1128.23	322.723
1131.13	393.574
1134.02	405.867
1136.91	268.34
1139.8	104.492
1142.7	85.207
1145.59	201.883
1148.48	141.828
1151.38	203.707
1154.27	189.391
1157.16	104.996
1160.05	175.008
1162.94	96.9258
1165.84	6.85156
1168.73	9.19141
1171.62	91.3008
1174.52	221.231
1177.41	109.711
1180.3	152.5
1183.19	2.75391
1186.09	212.609
1188.98	356.09
1191.87	342.422
1194.77	235.562
1197.66	75.6211
1200.55	188.211
1203.44	110.016
1206.34	90.2539
1209.23	171.059
1212.12	93.3359
1215.01	209.062
1217.91	98.9688
1220.8	208.988
1223.69	180.246
1226.59	155.441
1229.48	99.3438
1232.37	14.3984
1235.26	159.445
1238.16	304.586
1241.05	178.812
1243.94	220.324
1246.83	243.828
1249.73	131.617
1252.62	186.137
1255.51	237.676
1258.4	301.254
1261.3	433.824
1264.19	46.3945
1267.08	63.4062
1269.97	91.9453
1272.87	198.336
1275.76	309.809
1278.65	204.488
1281.55	63.3203
1284.44	113.93
1287.33	66.3125
1290.22	17.0664
1293.12	115.867
