Measurement: Raman, 532 nm, unoriented, Raman Data Processed
Mineral: Esseneite
Rruff sample: R061123
Ideal chemistry: CaFe^3+^AlSiO_6_
Locality: Durham Ranch, South of Gillette, Sublette County, Wyoming, USA
Source: Michael Scott
Description: Reddish-brown prismatic crystals associated with gehlenite, R070478
Raman shift (cm-1)	intensity
148.709	0
151.602	12.0415
154.495	69.3881
157.387	144.381
160.28	169.667
163.173	196.589
166.065	182.282
168.958	206.984
171.851	244.797
174.744	297.363
177.636	316.474
180.529	337.844
183.422	372.912
186.314	514.133
189.207	527.765
192.1	670.983
194.993	689.143
197.885	752.326
200.778	767.685
203.671	776.182
206.563	731.911
209.456	701.943
212.349	619.707
215.241	636.936
218.134	547.599
221.027	520.263
223.919	388.274
226.812	361.199
229.705	219.812
232.598	134.568
235.49	67.823
238.383	12.2817
241.276	9.21216
244.168	6.99902
247.061	4.98486
249.954	40.4697
252.846	49.697
255.739	14.5105
258.632	8.81836
261.525	4.20288
264.417	0.05249
267.31	76.0012
270.203	65.937
273.095	92.5286
275.988	110.187
278.881	154.888
281.774	188.841
284.666	220.08
287.559	246.807
290.452	308.475
293.344	411.33
296.237	473.144
299.13	573.957
302.022	690.176
304.915	797.806
307.808	852.995
310.7	955.545
313.593	1056.66
316.486	1040.45
319.379	1233.4
322.271	1379.9
325.164	1455.52
328.057	1628
330.949	1702.18
333.842	1775.21
336.735	1766.71
339.627	1760.86
342.52	1679.8
345.413	1571.71
348.306	1402.8
351.198	1210.82
354.091	1044.85
356.984	943.818
359.876	791.748
362.769	715.064
365.662	607.47
368.555	565.618
371.447	543.728
374.34	547.977
377.233	534.329
380.125	532.207
383.018	471.939
385.911	466.722
388.803	435.26
391.696	357.117
394.589	324.739
397.481	303.067
400.374	268.589
403.267	220.97
406.16	189.725
409.052	141.618
411.945	73.2849
414.838	23.0173
417.73	3.26416
420.623	29.377
423.516	36.6682
426.409	27.6709
429.301	45.9878
432.194	16.2136
435.087	1.66675
437.979	21.3579
440.872	2.50537
443.765	11.4077
446.657	11.8748
449.55	29.9954
452.443	14.3626
455.336	106.952
458.228	80.1672
461.121	111.497
464.014	143.858
466.906	166.561
469.799	238.249
472.692	246.687
475.584	333.625
478.477	357.243
481.37	428.247
484.263	519.839
487.155	626.585
490.048	680.956
492.941	784.864
495.833	880.69
498.726	983.39
501.619	1074.42
504.512	1181.56
507.404	1285.98
510.297	1421.46
513.19	1580.63
516.082	1760.32
518.975	1916.49
521.868	2016.28
524.76	2078.16
527.653	2043.45
530.546	1944.98
533.438	1790.14
536.331	1630.67
539.224	1447.01
542.117	1360.2
545.009	1269.7
547.902	1217.98
550.795	1117.23
553.687	963.335
556.58	874.592
559.473	668.126
562.365	553.349
565.258	418.742
568.151	355.189
571.044	246.639
573.936	235.039
576.829	146.363
579.722	96.4216
582.614	70.952
585.507	11.688
588.4	12.8689
591.293	31.1125
594.185	20.8994
597.078	22.7482
599.971	34.7419
602.863	1.17871
605.756	1.04651
608.649	10.6175
611.541	45.2668
614.434	38.6692
617.327	89.9827
620.22	144.679
623.112	104.249
626.005	180.189
628.898	206.816
631.79	240.96
634.683	253.029
637.576	263.119
640.468	271.961
643.361	261.044
646.254	291.549
649.146	299.653
652.039	282.88
654.932	311.671
657.825	354.292
660.717	370.532
663.61	325.192
666.503	350.648
669.395	300.56
672.288	313.644
675.181	299.055
678.073	284.108
680.966	255.869
683.859	208.42
686.752	191.234
689.644	153.348
692.537	110.873
695.43	93.8012
698.322	46.7843
701.215	40.5283
704.108	10.6492
707	14.8469
709.893	18.4936
712.786	33.4458
715.679	18.6099
718.571	6.38391
721.464	22.8967
724.357	54.2426
727.249	54.1099
730.142	150.525
733.035	173.173
735.928	240.111
738.82	283.236
741.713	339.019
744.606	389.656
747.498	469.122
750.391	527.829
753.284	480.17
756.176	562.038
759.069	562.245
761.962	578.641
764.855	562.12
767.747	528.958
770.64	518.81
773.533	517.264
776.425	491.006
779.318	471.947
782.211	504.263
785.103	479.012
787.996	465.003
790.889	467.617
793.782	467.801
796.674	429.549
799.567	420.668
802.46	445.138
805.352	457.428
808.245	420.387
811.138	401.125
814.03	391.491
816.923	352.965
819.816	320.632
822.708	254.528
825.601	219.597
828.494	185.525
831.387	145.339
834.279	115.414
837.172	75.8591
840.065	45.0911
842.957	34.1075
845.85	26.1061
848.743	7.4729
851.636	9.90613
854.528	20.9678
857.421	12.4598
860.314	19.7389
863.206	8.51892
866.099	11.253
868.992	16.2086
871.885	6.93835
874.777	5.45325
877.67	16.0165
880.563	1.67346
883.455	3.40527
886.348	30.3872
889.241	10.3773
892.133	4.28931
895.026	18.7952
897.919	0.341309
900.812	9.63599
903.704	15.1396
906.597	109.389
909.49	97.8447
912.382	128.507
915.275	146.196
918.168	157.105
921.06	199.403
923.953	240.981
926.846	202.307
929.739	271.702
932.631	312.842
935.524	349.767
938.417	410.031
941.309	444.32
944.202	479.735
947.095	501.863
949.987	544.221
952.88	538.291
955.773	571.536
958.665	604.407
961.558	628.777
964.451	612.927
967.344	631.08
970.236	657.832
973.129	677.073
976.022	635.458
978.914	647.179
981.807	603.33
984.7	525.415
987.592	464.438
990.485	396.764
993.378	325.169
996.271	244.058
999.163	135.834
1002.06	145.03
1004.95	77.8265
1007.84	105.669
1010.73	72.2855
1013.63	40.506
1016.52	64.3031
1019.41	35.0104
1022.3	15.3679
1025.2	28.0297
1028.09	19.6992
1030.98	12.9539
1033.88	22.579
1036.77	31.8854
1039.66	28.7275
1042.55	17.4805
1045.45	40.9973
1048.34	15.6367
1051.23	38.4601
1054.12	36.0796
1057.02	34.4219
1059.91	46.5228
1062.8	42.3658
1065.69	74.1849
1068.59	46.5618
1071.48	45.575
1074.37	22.3132
1077.27	25.5247
1080.16	3.16003
1083.05	24.6787
1085.94	2.56128
1088.84	10.2878
1091.73	38.9696
1094.62	8.16492
1097.52	6.75256
1100.41	18.1133
1103.3	35.1345
1106.19	11.0983
1109.09	47.3735
1111.98	18.842
1114.87	37.6025
1117.76	23.7752
1120.66	53.9529
1123.55	33.0543
1126.44	32.0282
1129.34	67.8994
1132.23	53.2983
1135.12	39.9972
1138.01	54.2555
1140.91	46.6846
1143.8	86.1189
1146.69	76.555
1149.58	44.5704
1152.48	58.648
1155.37	65.8838
1158.26	46.2754
1161.15	45.5336
1164.05	47.901
1166.94	61.4855
1169.83	23.7763
1172.72	31.978
1175.62	26.412
1178.51	24.0201
1181.4	57.4908
1184.3	54.3407
1187.19	34.8619
1190.08	31.3738
1192.97	17.1537
1195.87	27.8495
1198.76	26.6692
1201.65	36.2474
1204.55	3.42358
1207.44	37.849
1210.33	18.1227
1213.22	6.76025
1216.12	23.9431
1219.01	45.0424
1221.9	29.2902
1224.79	21.7227
1227.69	24.5426
1230.58	31.1742
1233.47	17.089
1236.37	20.4508
1239.26	36.9043
1242.15	55.3991
1245.04	18.7246
1247.94	25.3008
1250.83	28.6775
1253.72	2.29944
1256.61	47.1782
1259.51	22.5033
1262.4	27.3042
1265.29	21.0376
1268.18	50.0942
1271.08	23.0131
1273.97	49.4497
1276.86	6.89954
1279.76	7.5592
1282.65	36.0204
1285.54	33.7343
1288.43	15.4692
1291.33	4.95276
