Measurement: Raman, 785 nm, unoriented, Raman Data Processed
Mineral: Esseneite
Rruff sample: R061123
Ideal chemistry: CaFe^3+^AlSiO_6_
Locality: Durham Ranch, South of Gillette, Sublette County, Wyoming, USA
Source: Michael Scott
Description: Reddish-brown prismatic crystals associated with gehlenite, R070478
Raman shift (cm-1)	intensity
137.31	0
140.202	32.9841
143.095	7.96631
145.988	361.485
148.88	1064.25
151.773	1670.33
154.666	1660.9
157.558	1236.51
160.451	1258.02
163.344	1333.97
166.237	1342.07
169.129	1235.51
172.022	1181.11
174.915	1102.54
177.807	1086.85
180.7	1002.02
183.593	996.017
186.485	1125.67
189.378	1187.35
192.271	1172.7
195.163	1108.63
198.056	975.034
200.949	790.428
203.842	655.376
206.734	551.037
209.627	426.776
212.52	324.975
215.412	236.594
218.305	178.449
221.198	151.984
224.09	136.375
226.983	48.9963
229.876	14.3372
232.769	35.8796
235.661	36.9873
238.554	73.3171
241.447	43.1555
244.339	100.222
247.232	26.9878
250.125	2.50537
253.018	23.5303
255.91	8.29639
258.803	59.7285
261.696	51.8735
264.588	111.858
267.481	139.047
270.374	191.698
273.266	230.635
276.159	311.111
279.052	356.642
281.945	445.476
284.837	503.607
287.73	626.252
290.623	616.204
293.515	718.32
296.408	783.649
299.301	878.751
302.193	984.715
305.086	1020.88
307.979	1129.47
310.872	1187.25
313.764	1274.87
316.657	1417.85
319.55	1504.31
322.442	1609.62
325.335	1822.3
328.228	2000.12
331.12	2145.12
334.013	2274.26
336.906	2379.14
339.798	2398.68
342.691	2317.17
345.584	2229.8
348.477	2018.73
351.369	1749.6
354.262	1549.85
357.155	1330.79
360.047	1145.77
362.94	1001.07
365.833	905.23
368.726	827.731
371.618	853.879
374.511	775.957
377.404	863.679
380.296	796.057
383.189	803.858
386.082	814.68
388.974	782.513
391.867	787.367
394.76	768.762
397.652	731.255
400.545	668.854
403.438	545.135
406.331	443.152
409.223	331.451
412.116	142.376
415.009	128.127
417.901	13.6846
420.794	59.1455
423.687	44.5896
426.579	67.3987
429.472	61.529
432.365	50.4658
435.258	29.8877
438.15	0.812988
441.043	48.5347
443.936	17.7158
446.828	86.5154
449.721	140.797
452.614	93.1628
455.507	151.194
458.399	171.727
461.292	154.878
464.185	184.987
467.077	228.842
469.97	238.995
472.863	201.619
475.755	277.178
478.648	288.62
481.541	392.682
484.433	399.032
487.326	447.111
490.219	492.317
493.112	544.718
496.004	560.662
498.897	669.111
501.79	698.416
504.682	791.198
507.575	863.653
510.468	940.805
513.361	1041.19
516.253	1146.1
519.146	1284.24
522.039	1333.26
524.931	1419.29
527.824	1476.97
530.717	1345.35
533.609	1246.19
536.502	1172.74
539.395	1091.95
542.288	1015.05
545.18	1002.02
548.073	941.31
550.966	902.461
553.858	786.778
556.751	707.274
559.644	602.903
562.536	404.904
565.429	313.863
568.322	202.642
571.215	160.605
574.107	131.839
577	76.0818
579.893	45.7034
582.785	4.70435
585.678	30.1321
588.571	53.04
591.463	22.8315
594.356	22.0815
597.249	14.5798
600.141	20.2598
603.034	20.7283
605.927	21.4912
608.82	56.415
611.712	77.8652
614.605	101.409
617.498	175.773
620.39	228.397
623.283	301.832
626.176	337.711
629.068	449.254
631.961	495.028
634.854	501.802
637.747	532.972
640.639	547.426
643.532	561.445
646.425	547.569
649.317	533.283
652.21	500.104
655.103	514.708
657.995	504.687
660.888	558.796
663.781	502.81
666.674	507.154
669.566	491.803
672.459	425.938
675.352	421.531
678.244	369.039
681.137	347.85
684.03	250.583
686.923	251.8
689.815	186.394
692.708	157.492
695.601	100.308
698.493	80.4568
701.386	54.7368
704.279	23.8142
707.171	19.7407
710.064	24.3684
712.957	13.2307
715.85	13.2996
718.742	7.97168
721.635	14.3232
724.528	4.32739
727.42	36.8857
730.313	62.9092
733.206	53.646
736.098	83.0205
738.991	129.802
741.884	150.681
744.777	167.276
747.669	253.684
750.562	265.854
753.455	277.198
756.347	274.735
759.24	330.293
762.133	380.205
765.025	352.828
767.918	295.776
770.811	368.418
773.703	339.781
776.596	363.934
779.489	355.391
782.382	384.124
785.274	364.757
788.167	359.159
791.06	415.844
793.952	428.298
796.845	415.773
799.738	426.512
802.63	431.542
805.523	424.486
808.416	461.332
811.309	427.263
814.201	357.673
817.094	346.337
819.987	351.701
822.879	275.941
825.772	265.531
828.665	171.867
831.557	147.682
834.45	130.637
837.343	56.7141
840.236	37.1262
843.128	66.0425
846.021	24.6521
848.914	61.6196
851.806	1.34424
854.699	8.03906
857.592	28.6963
860.484	10.9336
863.377	9.26807
866.27	57.9941
869.163	19.3325
872.055	10.9395
874.948	18.6946
877.841	10.8572
880.733	3.22827
883.626	4.06055
886.519	23.8794
889.411	1.09277
892.304	20.5691
895.197	10.248
898.09	35.7095
900.982	33.2398
903.875	47.1033
906.768	73.0523
909.66	110.388
912.553	124.57
915.446	165.002
918.338	176.872
921.231	222.003
924.124	227.369
927.016	247.673
929.909	324.19
932.802	358.548
935.695	476.717
938.587	558.94
941.48	613.765
944.373	690.506
947.265	712.454
950.158	738.979
953.051	737.55
955.943	677.837
958.836	684.758
961.729	685.288
964.622	665.06
967.514	637.643
970.407	614.746
973.3	658.757
976.192	586.084
979.085	581.529
981.978	493.609
984.87	432.527
987.763	364.078
990.656	321.181
993.549	249.645
996.441	193.889
999.334	137.41
1002.23	120.744
1005.12	87.3501
1008.01	75.0903
1010.9	27.2761
1013.8	55.6692
1016.69	48.4751
1019.58	35.4133
1022.48	7.35986
1025.37	3.02319
1028.26	2.21728
1031.15	5.71558
1034.05	19.2017
1036.94	6.448
1039.83	18.2354
1042.72	47.2134
1045.62	21.4612
1048.51	12.3992
1051.4	23.7229
1054.3	23.9346
1057.19	28.9866
1060.08	32.3921
1062.97	57.7393
1065.87	37.919
1068.76	45.5547
1071.65	50.5012
1074.54	47.3203
1077.44	3.51196
1080.33	36.4793
1083.22	14.5181
1086.12	4.96362
1089.01	15.019
1091.9	41.2097
1094.79	0.3479
1097.69	13.2544
1100.58	28.1623
1103.47	41.3332
1106.36	13.9121
1109.26	9.88623
1112.15	28.3814
1115.04	13.7075
1117.93	47.1509
1120.83	61.1814
1123.72	60.3997
1126.61	12.6909
1129.51	25.7317
1132.4	56.604
1135.29	86.5803
1138.18	33.5955
1141.08	35.4607
1143.97	56.6409
1146.86	46.2283
1149.75	67.9202
1152.65	29.1892
1155.54	67.2954
1158.43	77.3596
1161.33	60.0791
1164.22	78.9241
1167.11	70.7656
1170	81.7727
1172.9	45.8755
1175.79	50.9168
1178.68	49.9207
1181.57	71.1585
1184.47	44.5122
1187.36	62.4141
1190.25	85.7866
1193.14	25.3347
1196.04	75.1802
1198.93	74.1706
1201.82	78.0171
1204.72	42.8616
1207.61	69.0432
1210.5	65.3772
1213.39	63.1357
1216.29	66.1277
1219.18	27.9993
1222.07	18.4966
1224.96	50.8577
1227.86	56.261
1230.75	44.4663
1233.64	52.022
1236.54	14.0383
1239.43	13.2175
1242.32	51.4641
1245.21	0.174805
1248.11	84.8
1251	20.5566
1253.89	58.0508
1256.78	54.6943
1259.68	32.2051
1262.57	25.9702
1265.46	0
