Measurement: Raman, 514 nm, unoriented, Raman Data Processed
Mineral: Eudialyte
Rruff sample: R050230
Ideal chemistry: Na_15_Ca_6_Fe^2+^_3_Zr^4+^_3_Si(Si_25_O_73_)(O,OH,H_2_O)_3_(Cl,OH)_2_
Locality: Kipawa alkaline complex, near Sheffield Lake, Villedieu Township, Temiscamingue County, Quebec, Canada
Source: Marcus Origlieri
Description: Massive aggregate of red crystals
Measured chemistry: (Na_14.50_K_0.35_Ca_0.15_)_Σ=15_Ca_6.00_(Fe_1.86_Mn_1.01_Mg_0.13_)_Σ=3_(Zr_2.91_Ti_0.09_)_3_(Si_0.94_Nb_0.06_)_Σ=1.00_(Si_25.00_O_73_)(OH)_1.10_(H_2_O)_1.90_)_Σ=3_(Cl_1.17_(OH)_0.83_)_Σ=2_
Raman shift (cm-1)	intensity
128.146	0
132.309	238.989
136.47	1026.35
140.63	1564.81
144.787	1704.31
148.942	1187.57
153.096	948.632
157.247	729.647
161.396	751.757
165.544	535.1
169.689	116.294
173.833	89.669
177.974	192.056
182.114	349.155
186.251	1137.01
190.387	2046.02
194.52	3078.33
198.652	4162.77
202.782	5364.81
206.909	6604.1
211.035	6135.96
215.159	5269.79
219.281	4355.23
223.4	3456.14
227.518	2278.89
231.634	1115.88
235.748	427.263
239.86	299.167
243.97	114.379
248.079	256.061
252.185	353.12
256.289	499.811
260.391	474.133
264.492	861.114
268.59	943.722
272.687	1328.93
276.781	1667.5
280.874	2080.43
284.964	2248.68
289.053	2534.74
293.14	3284.68
297.225	3829.38
301.308	3878.63
305.389	4138.05
309.468	4438.8
313.545	4897.83
317.62	5510.77
321.693	5892.94
325.765	5764.22
329.834	6435.66
333.902	7062.58
337.967	7616.09
342.031	7114.74
346.093	6348.21
350.153	5723.21
354.21	5084.59
358.267	4350.39
362.321	3812.64
366.373	3326.33
370.423	2819.44
374.471	2203.96
378.518	2094.86
382.563	1943.14
386.605	1954.7
390.646	2035.44
394.685	2340.3
398.722	2409.26
402.757	2538.39
406.79	2199.95
410.821	2206.67
414.851	2232.55
418.878	2036.25
422.904	1797.11
426.927	1893.13
430.949	1879.01
434.969	1464.72
438.987	1028.12
443.003	886.013
447.018	1009.86
451.03	857.763
455.041	848.678
459.049	653.556
463.056	224.263
467.061	10.483
471.064	176.434
475.065	601.523
479.064	292.675
483.062	229.435
487.057	201.313
491.051	20.321
495.043	330.4
499.032	671.712
503.02	1128.99
507.007	1468.27
510.991	1553.6
514.973	1844.51
518.954	1772.21
522.933	1792.59
526.91	1796.31
530.885	2200.18
534.858	2806.71
538.829	3912.24
542.799	5291.64
546.766	6631.97
550.732	8775.15
554.696	11262.5
558.658	12345.7
562.618	12935.6
566.576	14426.6
570.533	14626.6
574.488	11511.8
578.44	7725.06
582.391	4956.36
586.341	3517.73
590.288	2845.16
594.233	2387.65
598.177	2570.74
602.119	2813.34
606.059	3263.86
609.997	3262.97
613.933	2919
617.868	2743.82
621.801	2663.2
625.731	3042.05
629.66	2843.74
633.588	2544.16
637.513	2523.67
641.437	2146.28
645.358	2043.84
649.278	2116.21
653.196	2654.01
657.113	3031.63
661.027	3835.18
664.94	4478.53
668.851	5064.52
672.76	5750.6
676.667	6585.52
680.572	7309.57
684.476	8094.23
688.378	8629.27
692.278	9495.4
696.176	10262.1
700.072	11111.1
703.967	10989.8
707.86	10340.9
711.751	8088.62
715.64	6463.17
719.527	5161.83
723.413	4483.62
727.297	4786.54
731.179	4902.6
735.059	5349.82
738.937	6043.2
742.814	6463.75
746.689	6475.49
750.562	5846.44
754.433	5285.6
758.303	4545.05
762.17	3874.79
766.036	3435.84
769.901	3213.24
773.763	2858.01
777.624	2390.24
781.482	2065.15
785.339	1587.22
789.195	1371.94
793.048	871.587
796.9	430.913
800.75	280.659
804.598	131.354
808.445	15.292
812.289	78.886
816.132	61.468
819.973	94.657
823.813	77.489
827.65	259.886
831.486	47.231
835.32	92.028
839.152	121.899
842.983	346.624
846.812	372.812
850.639	202.177
854.464	352.382
858.288	345.664
862.11	17.684
865.93	212.514
869.748	690.409
873.564	989.104
877.379	1157.63
881.192	1478.04
885.004	1320.35
888.813	1178.45
892.621	1363.85
896.427	1715.1
900.232	2279.39
904.034	3239.76
907.835	4728.23
911.634	6865.83
915.432	6673.59
919.227	7241.55
923.021	8325.72
926.813	9618.14
930.604	8826.83
934.393	7509.82
938.18	7835.12
941.965	7937.75
945.749	8916.71
949.53	9638.66
953.311	6857.85
957.089	5762.66
960.866	4986.74
964.641	4399.81
968.414	3852.12
972.185	3706.25
975.955	4273.36
979.723	4736.77
983.49	4307.13
987.254	4066.53
991.017	4067.39
994.779	4449.52
998.538	4570.1
1002.3	4453.65
1006.05	4627.99
1009.81	4503.72
1013.56	4480.3
1017.31	4283.74
1021.06	4472.96
1024.81	4745.93
1028.55	5105.65
1032.3	4968.25
1036.04	4853.62
1039.78	4935.7
1043.52	5105.36
1047.26	5273.39
1050.99	5867.73
1054.73	6721.45
1058.46	7785.58
1062.19	9366.1
1065.92	11008
1069.65	11023.2
1073.37	10427.6
1077.1	10462.3
1080.82	10958.4
1084.54	11284.7
1088.26	11155.2
1091.97	10890.1
1095.69	10087.1
1099.4	8442.22
1103.12	6879.45
1106.83	5447.83
1110.54	4998.59
1114.24	4554.69
1117.95	4338.24
1121.65	4560.34
1125.35	4639.88
1129.06	3805.92
1132.75	3183.43
1136.45	2165.89
1140.15	1328.52
1143.84	679.862
1147.53	438.648
1151.22	550.14
1154.91	860.569
1158.6	1468.25
1162.28	2263.65
1165.97	3388.67
1169.65	4068.06
1173.33	4438.5
1177.01	4421.89
1180.69	3974.82
1184.36	3531.17
1188.04	3119.56
1191.71	2902.19
1195.38	2450.21
1199.05	1740.66
1202.71	1407.75
1206.38	836.572
1210.04	535.622
1213.71	156.42
1217.37	37.855
1221.03	359.887
1224.68	508.273
1228.34	693.221
1231.99	1047.24
1235.65	977.559
1239.3	910.577
1242.95	837.08
1246.59	664.962
1250.24	555.567
1253.88	380.462
1257.53	333.394
1261.17	475.057
1264.81	525.754
1268.45	528.419
1272.08	515.524
1275.72	245.276
1279.35	173.984
1282.98	79.224
1286.61	129.079
1290.24	151.861
1293.87	23.43
1297.49	131.16
1301.11	20.387
1304.73	44.76
1308.36	142.146
1311.97	117.117
1315.59	176.491
1319.2	219.32
1322.82	208.671
1326.43	46.842
1330.04	23.26
1333.65	112.478
1337.26	398.841
1340.86	430.963
1344.47	408.364
1348.07	451.55
1351.67	553.923
1355.27	882.399
1358.87	1324.77
1362.46	1821.66
1366.06	1759.42
1369.65	1435.81
1373.24	878.348
1376.83	526.831
1380.42	632.062
1384	738.11
1387.59	544.873
1391.17	912.72
1394.75	1156.05
1398.33	1311.59
1401.91	955.981
1405.49	353.812
1409.06	250.104
1412.64	261.82
1416.21	293.086
1419.78	233.799
1423.35	92.016
1426.91	2.521
