Measurement: Raman, 785 nm, unoriented, Raman Data Processed
Mineral: Faizievite
Rruff sample: R070221
Ideal chemistry: Li_6_K_2_Na(Ca_6_Na)Ti^4+^_4_(Si_6_O_18_)_2_(Si_12_O_30_)F_2_
Locality: Dara-i-Pioz Glacier, Alayskiy (Alai) Range, Tien Shan Mts, Districts of the Republican Subordination, Tajikistan
Source: Michael Scott
Description: Pale brownish yellow massive associated with quartz
Measured chemistry: Li_6.00_(K_1.78_[box]_0.20_Ba_0.02_)_Σ=2_(Na_0.80_K_0.20_)_Σ=1_(Ca_6.12_Na_0.74_Sr_0.11_Mn_0.03_)_Σ=7_(Ti_3.88_Al_0.10_Nb^5+^_0.02_)_Σ=4_(Si_6.00_O_18_)_2_(Si_12.00_O_30_)(F_1.72_(OH)_0.28_)_Σ=2_; Li assumed by stoichiometry; OH by charge balance
Raman shift (cm-1)	intensity
165.374	0
168.267	69.7578
171.16	70.0137
174.052	17.792
176.945	44.5557
179.838	113.226
182.73	149.677
185.623	305.513
188.516	301.963
191.408	361.866
194.301	516.373
197.194	590.77
200.087	755.312
202.979	931.81
205.872	943.559
208.765	1088.65
211.657	1243.48
214.55	1350.79
217.443	1484.22
220.335	1652.63
223.228	1758.26
226.121	1646.23
229.013	1490.89
231.906	1391.89
234.799	1223.3
237.692	1009.87
240.584	890.562
243.477	757.124
246.37	631.327
249.262	529.788
252.155	285.806
255.048	358.965
257.941	154.163
260.833	169.303
263.726	209.117
266.619	225.366
269.511	208.294
272.404	345.401
275.297	483.771
278.19	460.664
281.082	473.882
283.975	580.891
286.868	596.952
289.76	560.802
292.653	545.467
295.546	409.514
298.438	331.949
301.331	324.891
304.224	318.558
307.116	297.207
310.009	215.079
312.902	177.565
315.795	84.5059
318.687	26.5
321.58	122.945
324.473	249.756
327.365	93.5684
330.258	40.9824
333.151	34.8945
336.043	127.666
338.936	335.838
341.829	651.639
344.721	1083.44
347.614	1512.08
350.507	1991.13
353.4	2367.18
356.292	2776.99
359.185	3010.54
362.078	3088.16
364.97	3153.9
367.863	2996.6
370.756	2912.01
373.649	2688.66
376.541	2629.05
379.434	2285.36
382.327	1910.65
385.219	1434.62
388.112	982.834
391.005	775.201
393.897	617.559
396.79	493.66
399.683	417.711
402.575	312.006
405.468	327.84
408.361	443.385
411.254	484.981
414.146	660.318
417.039	860.232
419.932	1083.98
422.824	1394.05
425.717	1704.38
428.61	2062.06
431.502	2539.38
434.395	2928.86
437.288	3239.31
440.181	3400.43
443.073	3373.34
445.966	3321.16
448.859	3128.6
451.751	2975.22
454.644	2782.11
457.537	2539.72
460.43	2377.32
463.322	2213.71
466.215	1949.73
469.108	1524.64
472	1258.39
474.893	1098.25
477.786	868.951
480.678	453.764
483.571	304.606
486.464	61.834
489.356	29.1152
492.249	47.9727
495.142	37.8359
498.035	155.672
500.927	27.5469
503.82	14.2949
506.713	20.2695
509.605	5.13672
512.498	80.5918
515.391	132.822
518.284	178.852
521.176	297.221
524.069	192.973
526.962	330.584
529.854	332.627
532.747	349.783
535.64	540.916
538.533	486.69
541.425	558.529
544.318	473.643
547.211	528.535
550.103	537.885
552.996	588.582
555.889	787.975
558.781	937.322
561.674	1025.96
564.567	1086.2
567.459	907.043
570.352	732.594
573.245	430.698
576.138	259.027
579.03	259.556
581.923	55.3477
584.816	80.6348
587.708	82.2803
590.601	74.332
593.494	57.7803
596.386	17.751
599.279	33.0557
602.172	46.3594
605.064	94.3936
607.957	14.6025
610.85	95.4853
613.743	46.2988
616.635	49.1445
619.528	88.3838
622.421	197.834
625.313	77.8418
628.206	84.0068
631.099	203.841
633.991	186.626
636.884	303.737
639.777	431.441
642.67	550.042
645.562	709.867
648.455	953.787
651.348	1020.23
654.24	921.576
657.133	759.023
660.026	737.977
662.918	634.904
665.811	570.133
668.704	527.92
671.597	471.565
674.489	435.147
677.382	301.925
680.275	315.116
683.167	237.154
686.06	171.911
688.953	64.7627
691.846	1.80762
694.738	9.5332
697.631	5.47852
700.524	35.916
703.416	70.8623
706.309	107.276
709.202	137.638
712.094	157.988
714.987	182.152
717.88	197.698
720.773	327.821
723.665	393.865
726.558	416.192
729.451	331.818
732.343	331.688
735.236	332.317
738.129	345.465
741.021	273.309
743.914	279.533
746.807	234.458
749.699	238.419
752.592	168.947
755.485	96.2803
758.378	108.193
761.27	54.7949
764.163	35.373
767.056	39.9922
769.948	44.7812
772.841	71.3633
775.734	4.67188
778.626	29.7656
781.519	55.624
784.412	57.834
787.305	64.6465
790.197	130.616
793.09	78.0801
795.983	157.101
798.875	208.251
801.768	229.126
804.661	206.288
807.553	330.677
810.446	309.381
813.339	310.567
816.232	339.842
819.124	299.392
822.017	493.475
824.91	349.138
827.802	306.326
830.695	277.151
833.588	142.499
836.481	157.9
839.373	106.378
842.266	62.6865
845.159	112.661
848.051	39.1348
850.944	10.8702
853.837	58.3027
856.729	30.25
859.622	29.7686
862.515	19.6885
865.408	46.5078
868.3	23.8955
871.193	47.9228
874.086	31.2998
876.978	46.6904
879.871	113.773
882.764	218.288
885.656	290.95
888.549	359.972
891.442	342.381
894.335	377.365
897.227	376.547
900.12	419.65
903.013	437.986
905.905	446.019
908.798	493.639
911.691	358.508
914.583	396.432
917.476	304.371
920.369	219.938
923.261	329.394
926.154	244.059
929.047	133.478
931.94	253.6
934.832	235.918
937.725	191.072
940.618	255.609
943.51	266.742
946.403	287.488
949.296	290.723
952.188	363.709
955.081	322.914
957.974	379.219
960.867	414.58
963.759	594.924
966.652	683.408
969.545	703.088
972.437	636.953
975.33	721.328
978.223	734.492
981.115	844.549
984.008	975.111
986.901	1029.58
989.794	928.324
992.686	970.5
995.579	1046.46
998.472	1002.47
1001.36	900.531
1004.26	740.682
1007.15	757.418
1010.04	691.576
1012.93	644.822
1015.83	531.824
1018.72	527.156
1021.61	551.264
1024.51	640.938
1027.4	407.709
1030.29	339.094
1033.18	271.705
1036.08	212.59
1038.97	163.201
1041.86	119.387
1044.76	53.7812
1047.65	159.67
1050.54	34.8613
1053.43	49.1328
1056.33	53.752
1059.22	15.75
1062.11	108.615
1065	151.117
1067.9	48.2031
1070.79	110.992
1073.68	1.66797
1076.58	48.2188
1079.47	55.7793
1082.36	244.315
1085.25	275.887
1088.14	302.09
1091.04	468.609
1093.93	677.766
1096.82	600.098
1099.72	777.621
1102.61	526.422
1105.5	807.504
1108.39	881.305
1111.29	935.988
1114.18	930.152
1117.07	1077
1119.96	1303.5
1122.86	1505.81
1125.75	1714.54
1128.64	1954.71
1131.54	2402.66
1134.43	2753.39
1137.32	3115.56
1140.21	3718.14
1143.11	4067.07
1146	4496.93
1148.89	5025.59
1151.79	5442.36
1154.68	5961.71
1157.57	6240.54
1160.46	6053.7
1163.36	5554.28
1166.25	5241.88
1169.14	4441.32
1172.03	3922.61
1174.93	3318.43
1177.82	2919.38
1180.71	2521.8
1183.6	2376.33
1186.5	2533.93
1189.39	2441.99
1192.28	2717.48
1195.17	2840.95
1198.07	2732.94
1200.96	2505.6
1203.85	2158.84
1206.75	1966.7
1209.64	1501.47
1212.53	1004.66
1215.42	637.805
1218.32	329.754
1221.21	286.363
1224.1	24.2227
1226.99	0.449219
1229.89	102.57
