Measurement: Raman, 780 nm, unoriented, Raman Data Processed
Mineral: Famatinite
Rruff sample: R110021
Ideal chemistry: Cu^1+^Cu^2+^_2_Sb^3+^S^2-^_4_
Locality: Mohawk mine, Goldfield, Esmeralda County, Nevada, USA
Source: William Pinch
Description: Pinkish grey, metallic massive associated with dark grey metallic massive to granular goldfieldite, R110023
Measured chemistry: Cu_3.02_(Sb_0.53_As_0.48_)_Î£=1.01_S_4_
Raman shift (cm-1)	intensity
178.351	0
181.243	0.060161
184.136	0.82122
187.029	1.77195
189.921	2.25684
192.814	1.31288
195.707	2.50972
198.6	1.4819
201.492	0.033177
204.385	1.20695
207.278	1.06766
210.17	0.830314
213.063	1.05033
215.956	0.309737
218.848	3.65275
221.741	0.146673
224.634	2.19473
227.526	0.54793
230.419	1.12324
233.312	3.22913
236.205	0.575748
239.097	1.93375
241.99	1.71562
244.883	2.77663
247.775	3.31243
250.668	2.46505
253.561	5.13931
256.454	5.79655
259.346	6.31937
262.239	10.6756
265.132	10.2055
268.024	9.41542
270.917	11.7136
273.81	10.113
276.702	7.89479
279.595	5.20526
282.488	3.29357
285.38	1.54289
288.273	0.503063
291.166	0.66814
294.059	3.54219
296.951	7.60925
299.844	11.8936
302.737	16.3265
305.629	29.8847
308.522	50.8203
311.415	70.4304
314.308	77.17
317.2	80.548
320.093	80.1667
322.986	68.8705
325.878	53.7613
328.771	29.1088
331.664	15.8027
334.556	6.2581
337.449	2.08241
340.342	0.030266
343.234	1.1858
346.127	3.94547
349.02	1.43016
351.913	4.31143
354.805	3.53282
357.698	4.27347
360.591	4.53388
363.483	2.61061
366.376	1.54463
369.269	2.53214
372.161	3.55337
375.054	0.732834
377.947	0.861691
380.839	0.659431
383.732	0.651087
386.625	0.043664
389.518	1.19829
392.41	1.61932
395.303	0.178673
398.196	0.355695
401.088	0.572028
403.981	0.351854
406.874	0.713918
409.767	0.952558
412.659	1.31761
415.552	1.84706
418.445	2.82503
421.337	0.147694
424.23	1.59745
427.123	2.86801
430.015	2.95418
432.908	1.49063
435.801	1.41339
438.693	1.52949
441.586	0.603189
444.479	4.01879
447.372	1.34492
450.264	1.94316
453.157	3.82819
456.05	2.01056
458.942	2.84265
461.835	2.03021
464.728	0.548541
467.62	1.9689
470.513	3.33709
473.406	2.31898
476.299	2.46093
479.191	2.76769
482.084	0.490189
484.977	0.422953
487.869	1.81112
490.762	2.50593
493.655	1.46899
496.547	2.26213
499.44	0.93852
502.333	2.55217
505.226	0.377402
508.118	0.457511
511.011	1.42961
513.904	1.53828
516.796	2.43901
519.689	0.967642
522.582	1.81239
525.474	0.879595
528.367	1.16121
531.26	1.63472
534.153	1.77946
537.045	1.9711
539.938	0.574084
542.831	1.23785
545.723	1.09051
548.616	2.17307
551.509	1.75036
554.401	3.52051
557.294	2.85446
560.187	1.45466
563.08	1.87604
565.972	2.87688
568.865	0.892412
571.758	2.56207
574.65	2.63865
577.543	1.19068
580.436	1.73336
583.328	2.38045
586.221	0.715817
589.114	3.53677
592.006	1.00462
594.899	0.6197
597.792	0.757517
600.685	0.103704
603.577	1.74857
606.47	2.70702
609.363	1.7214
612.255	2.02349
615.148	0.234717
618.041	2.31059
620.933	1.38162
623.826	2.14587
626.719	3.29149
629.611	1.94617
632.504	6.68482
635.397	6.55156
638.29	5.48376
641.182	7.3568
644.075	7.10671
646.968	4.86244
649.86	4.20419
652.753	3.76934
655.646	5.16461
658.538	2.77268
661.431	2.94905
664.324	4.56263
667.217	1.02745
670.109	0.418023
673.002	0.556107
675.895	1.79127
678.787	2.647
681.68	1.47983
684.573	2.47185
687.466	0.738451
690.358	3.23454
693.251	1.96003
696.144	0.807084
699.036	1.72227
701.929	2.97097
704.822	1.9505
707.714	1.32453
710.607	0.436955
713.5	2.51562
716.393	1.87144
719.285	1.85785
722.178	1.88641
725.071	2.71243
727.963	1.5357
730.856	1.46668
733.749	1.57883
736.641	0.665889
739.534	3.02285
742.427	1.74906
745.319	1.48201
748.212	2.42092
751.105	1.40236
753.998	1.93959
756.89	1.41598
759.783	0.840251
762.676	1.95931
765.568	0.199236
768.461	1.74688
771.354	1.57478
774.246	2.80311
777.139	1.98723
780.032	1.00091
782.925	1.37963
785.817	1.41534
788.71	1.12422
791.603	1.83841
794.495	1.53803
797.388	1.51042
800.281	2.95005
803.173	0.823228
806.066	1.11713
808.959	0.822929
811.851	2.44011
814.744	0.189641
817.637	1.69493
820.53	0.695929
823.422	0.21773
826.315	0.521466
829.208	0.240836
832.1	2.90587
834.993	1.5973
837.886	1.46312
840.779	1.46668
843.671	0.994349
846.564	1.97753
849.457	2.35322
852.349	2.57238
855.242	2.38115
858.135	1.21571
861.027	0.00657
863.92	1.78694
866.813	2.4288
869.706	1.45001
872.598	0.990252
875.491	3.8472
878.384	1.34654
881.276	1.35112
884.169	1.69896
887.062	2.02388
889.954	2.03805
892.847	2.82747
895.74	2.78838
898.632	1.99582
901.525	2.15813
904.418	2.27988
907.311	1.32475
910.203	0.275132
913.096	3.00208
915.989	2.45765
918.881	2.31924
921.774	1.65699
924.667	2.02029
927.559	1.53368
930.452	0.117718
933.345	0.269345
936.237	0.389011
939.13	0.276752
942.023	1.36056
944.916	2.73694
947.808	0.396855
950.701	0.599572
953.594	2.49636
956.486	2.01669
959.379	2.15619
962.272	2.17522
965.164	1.34618
968.057	0.243285
970.95	1.46862
973.843	3.09779
976.735	2.07174
979.628	2.87789
982.521	2.18548
985.413	1.647
988.306	0.788564
991.199	1.30882
994.091	1.30329
996.984	2.6841
999.877	1.82528
1002.77	2.20408
1005.66	0.853744
1008.55	1.3262
1011.45	0.569294
1014.34	2.20696
1017.23	1.46386
1020.13	1.97531
1023.02	1.54649
1025.91	3.2015
1028.8	0.814057
1031.7	2.23682
1034.59	0.324816
1037.48	1.545
1040.38	2.23994
1043.27	1.09578
1046.16	1.50356
1049.05	2.69504
1051.94	1.65554
1054.84	1.13267
1057.73	0.200226
1060.62	1.50452
1063.52	2.58259
1066.41	1.4263
1069.3	1.10716
1072.19	2.55003
1075.09	2.75258
1077.98	2.97401
1080.87	0.52055
1083.77	1.64715
1086.66	3.05679
1089.55	4.81484
1092.44	2.19679
1095.34	0.454717
1098.23	2.87568
1101.12	1.98161
1104.01	3.00288
1106.91	3.9557
1109.8	1.32268
1112.69	0.626288
1115.59	4.17001
1118.48	3.46123
1121.37	2.76777
1124.26	2.95974
1127.16	2.04074
1130.05	1.48727
1132.94	3.26844
1135.83	1.53457
1138.73	1.26773
1141.62	0.784055
1144.51	1.01599
1147.4	3.39934
1150.3	2.93793
1153.19	0.187757
1156.08	2.43076
1158.97	3.13906
1161.87	2.40247
1164.76	1.98745
1167.65	1.13152
1170.55	1.58666
1173.44	2.34584
1176.33	2.75958
1179.22	1.74766
1182.12	0.616247
1185.01	1.56178
1187.9	3.58468
1190.8	2.19573
1193.69	2.62481
1196.58	0.037945
1199.47	3.88365
1202.37	1.52226
1205.26	1.57159
1208.15	2.70245
1211.04	3.3121
1213.94	1.6105
1216.83	0.879846
1219.72	1.56289
1222.62	3.02233
1225.51	0.005712
1228.4	2.19581
1231.29	1.385
1234.18	3.73713
1237.08	2.62778
1239.97	1.82782
1242.86	2.18701
1245.76	3.60972
1248.65	1.61635
1251.54	1.16494
1254.43	3.75393
1257.33	1.38051
1260.22	1.95829
1263.11	1.71816
1266.01	0.874402
1268.9	0.953756
1271.79	1.81209
1274.68	0.683197
1277.58	1.52274
1280.47	1.9021
1283.36	0.246171
