Measurement: Raman, 532 nm, unoriented, Raman Data Processed
Mineral: Famatinite
Rruff sample: R110021
Ideal chemistry: Cu^1+^Cu^2+^_2_Sb^3+^S^2-^_4_
Locality: Mohawk mine, Goldfield, Esmeralda County, Nevada, USA
Source: William Pinch
Description: Pinkish grey, metallic massive associated with dark grey metallic massive to granular goldfieldite, R110023
Measured chemistry: Cu_3.02_(Sb_0.53_As_0.48_)_Î£=1.01_S_4_
Raman shift (cm-1)	intensity
176.852	0
179.745	0.697869
182.637	3.28151
185.53	0.938624
188.423	2.35795
191.315	2.69819
194.208	2.96768
197.101	2.74874
199.994	0.297901
202.886	2.20414
205.779	2.95016
208.672	0.98602
211.565	0.745533
214.457	4.55145
217.35	3.1258
220.243	1.47623
223.135	3.23777
226.028	0.156392
228.921	1.4577
231.813	2.13114
234.706	2.63067
237.599	2.70058
240.492	0.582094
243.384	1.40882
246.277	1.24442
249.17	0.856545
252.062	3.96094
254.955	3.83028
257.848	4.33772
260.74	5.71442
263.633	1.406
266.526	5.87223
269.418	7.26325
272.311	8.04606
275.204	7.02022
278.097	8.79986
280.989	12.3405
283.882	9.33888
286.775	4.56041
289.667	2.59133
292.56	1.87057
295.453	0.885317
298.346	3.09619
301.238	1.01451
304.131	1.35885
307.024	2.18315
309.916	3.30513
312.809	7.1064
315.702	11.9139
318.594	16.5979
321.487	27.9807
324.38	38.5284
327.273	46.8169
330.165	45.962
333.058	22.2716
335.951	9.27672
338.843	3.99625
341.736	1.52173
344.629	1.08975
347.522	3.14429
350.414	1.29662
353.307	5.10988
356.2	5.23347
359.092	7.29979
361.985	7.115
364.878	8.01935
367.77	7.54385
370.663	6.07086
373.556	5.65221
376.449	3.82965
379.341	3.67734
382.234	2.46203
385.127	0.799898
388.019	0.402657
390.912	3.07046
393.805	0.799185
396.697	0.133112
399.59	1.32326
402.483	1.17627
405.376	0.317371
408.268	0.605182
411.161	0.549351
414.054	3.00916
416.946	1.82939
419.839	2.80559
422.732	0.468497
425.625	1.24824
428.517	3.44471
431.41	0.538557
434.303	0.652619
437.195	2.59892
440.088	1.33649
442.981	0.779039
445.873	2.79438
448.766	3.59376
451.659	1.76993
454.551	3.65543
457.444	2.97154
460.337	3.07948
463.23	2.8376
466.122	1.23882
469.015	2.21357
471.908	1.72026
474.8	1.41661
477.693	2.55036
480.586	2.40909
483.479	0.573823
486.371	0.036876
489.264	2.35415
492.157	1.8818
495.049	1.71738
497.942	1.9062
500.835	0.928237
503.728	2.69078
506.62	0.851841
509.513	0.225939
512.406	1.04383
515.298	2.1132
518.191	2.18615
521.084	1.34958
523.976	2.47885
526.869	1.18111
529.762	0.84728
532.654	1.57328
535.547	2.12001
538.44	2.73826
541.333	1.20541
544.225	1.41618
547.118	1.68656
550.011	1.94244
552.903	1.77824
555.796	2.51705
558.689	2.89343
561.582	0.302709
564.474	2.27621
567.367	1.99926
570.26	1.05958
573.152	2.14756
576.045	2.36151
578.938	0.182929
581.83	1.14923
584.723	1.51469
587.616	2.00719
590.509	2.87778
593.401	0.844038
596.294	0.507695
599.187	1.50866
602.079	1.12676
604.972	2.35738
607.865	2.35836
610.758	2.4935
613.65	2.07427
616.543	0.686361
619.436	2.66138
622.328	0.958986
625.221	0.887187
628.114	3.44883
631.006	2.81054
633.899	2.2703
636.792	2.61952
639.684	2.96197
642.577	3.2746
645.47	3.28676
648.363	3.21709
651.255	4.06717
654.148	3.17683
657.041	4.22429
659.933	1.51601
662.826	2.31821
665.719	1.88671
668.612	0.968046
671.504	0.403764
674.397	1.61091
677.29	0.291017
680.182	2.48661
683.075	2.05587
685.968	1.66522
688.861	1.26693
691.753	1.21476
694.646	2.86674
697.539	2.30252
700.431	1.17192
703.324	0.695235
706.217	3.10726
709.109	2.376
712.002	0.844239
714.895	0.306842
717.788	2.8095
720.68	1.68107
723.573	1.77521
726.466	1.93717
729.358	1.88773
732.251	2.25587
735.144	1.18769
738.036	1.55631
740.929	1.34111
743.822	2.39794
746.715	1.78021
749.607	1.24786
752.5	2.93045
755.393	1.82238
758.285	1.2911
761.178	1.86536
764.071	1.29633
766.963	1.86431
769.856	0.298772
772.749	1.78289
775.642	1.16837
778.534	3.12879
781.427	1.1978
784.32	0.26405
787.212	1.56815
790.105	2.3572
792.998	1.48261
795.89	2.85248
798.783	2.15401
801.676	1.97015
804.569	1.8334
807.461	3.19171
810.354	1.22405
813.247	2.50157
816.139	0.677464
819.032	3.97952
821.925	2.08596
824.818	3.09127
827.71	2.2209
830.603	0.818331
833.496	0.73693
836.388	0.22628
839.281	2.43879
842.174	2.10164
845.067	1.3654
847.959	0.442723
850.852	1.41098
853.745	0.976016
856.637	3.88943
859.53	2.99801
862.423	1.63549
865.315	1.07457
868.208	0.127508
871.101	1.51148
873.994	1.70734
876.886	1.83922
879.779	0.986406
882.672	2.97107
885.564	1.61137
888.457	0.784289
891.35	1.25084
894.242	1.59961
897.135	2.64007
900.028	3.22965
902.92	2.54367
905.813	1.45888
908.706	1.47425
911.599	1.89151
914.491	0.927825
917.384	1.38067
920.277	2.59396
923.169	2.51273
926.062	2.38039
928.955	0.655346
931.847	2.83701
934.74	2.03642
937.633	1.54442
940.526	0.397533
943.418	2.62711
946.311	1.82643
949.204	0.273075
952.096	1.44734
954.989	0.344566
957.882	0.306826
960.775	1.64149
963.667	1.71867
966.56	0.212883
969.453	0.424985
972.345	2.57604
975.238	2.35082
978.131	1.76764
981.024	1.5005
983.916	2.11639
986.809	2.97905
989.702	1.91501
992.594	1.70413
995.487	2.55593
998.38	1.30966
1001.27	1.65635
1004.16	0.655538
1007.06	2.64015
1009.95	1.95443
1012.84	1.94955
1015.74	0.809428
1018.63	1.22553
1021.52	0.859977
1024.41	2.35649
1027.31	0.194683
1030.2	2.11363
1033.09	1.32178
1035.98	2.90842
1038.88	1.65661
1041.77	2.68884
1044.66	0.686525
1047.56	0.241338
1050.45	2.27203
1053.34	0.172932
1056.23	2.34618
1059.13	1.30404
1062.02	0.949236
1064.91	2.75188
1067.81	1.69328
1070.7	3.56105
1073.59	1.77
1076.48	3.8124
1079.38	1.04995
1082.27	3.51821
1085.16	1.02442
1088.05	2.74782
1090.95	0.433612
1093.84	1.63564
1096.73	2.84751
1099.62	0.552781
1102.52	3.53831
1105.41	3.59637
1108.3	2.87445
1111.19	2.98022
1114.09	0.95229
1116.98	1.91732
1119.87	2.78709
1122.77	1.88975
1125.66	0.206686
1128.55	3.78116
1131.44	3.55083
1134.34	2.74831
1137.23	1.08099
1140.12	1.5848
1143.02	1.64522
1145.91	1.82107
1148.8	1.54914
1151.69	2.46658
1154.59	0.95335
1157.48	1.71027
1160.37	3.72957
1163.26	1.85616
1166.16	0.463717
1169.05	0.263088
1171.94	1.50163
1174.84	0.089523
1177.73	2.2616
1180.62	0.982808
1183.51	0.068529
1186.4	2.34756
1189.3	1.5241
1192.19	2.15288
1195.08	3.11656
1197.98	1.01086
1200.87	1.74762
1203.76	0.599109
1206.65	1.56833
1209.55	2.7165
1212.44	1.25593
1215.33	3.61865
1218.22	1.44395
1221.12	1.73232
1224.01	3.04263
1226.9	2.80715
1229.8	1.36695
1232.69	1.36584
1235.58	1.97973
1238.47	3.17678
1241.37	0.081141
1244.26	3.20202
1247.15	1.79785
1250.05	1.56194
1252.94	2.18692
1255.83	2.05471
1258.72	3.77659
1261.62	3.09097
1264.51	4.34849
1267.4	1.60812
1270.29	1.64847
1273.19	2.88335
1276.08	0.377026
1278.97	1.98957
1281.87	2.93747
1284.76	2.48636
1287.65	0.540582
1290.54	4.20235
1293.43	0.995783
1296.33	2.29388
1299.22	2.50128
1302.11	0.16309
