Measurement: Raman, 532 nm, unoriented, Raman Data Processed
Mineral: Famatinite
Rruff sample: R110022
Ideal chemistry: Cu^1+^Cu^2+^_2_Sb^3+^S^2-^_4_
Locality: Quiruvilca, La Libertad Department, Peru
Source: William Pinch
Description: Pinkish grey metallic massive associated with black metallic tetrahedral tennantite R110024 on pyrite
Measured chemistry: Cu_2.99_(Sb_0.61_As_0.40_)_Î£=1.01_S_4_
Raman shift (cm-1)	intensity
179.745	0
182.637	2.99363
185.53	1.35044
188.423	6.79362
191.315	3.42075
194.208	2.91302
197.101	5.05543
199.994	3.97953
202.886	8.7949
205.779	4.21855
208.672	3.32739
211.565	2.89198
214.457	4.39486
217.35	2.53234
220.243	6.30947
223.135	6.64892
226.028	0.052465
228.921	4.33941
231.813	9.03623
234.706	8.07838
237.599	6.43339
240.492	12.4876
243.384	13.7322
246.277	18.2188
249.17	21.6438
252.062	18.5104
254.955	10.199
257.848	10.0734
260.74	8.93489
263.633	6.882
266.526	3.54863
269.418	3.25073
272.311	6.52816
275.204	10.0967
278.097	4.4801
280.989	8.45763
283.882	4.56548
286.775	0.521118
289.667	1.04294
292.56	1.31681
295.453	0.99081
298.346	3.54635
301.238	0.765387
304.131	4.50638
307.024	7.59376
309.916	12.4334
312.809	22.5059
315.702	32.4167
318.594	44.7429
321.487	67.0204
324.38	78.3682
327.273	55.534
330.165	22.6356
333.058	3.70266
335.951	6.58094
338.843	4.95976
341.736	4.74424
344.629	10.8077
347.522	13.4697
350.414	16.218
353.307	15.1533
356.2	17.6104
359.092	18.1822
361.985	16.9259
364.878	16.2114
367.77	14.8765
370.663	10.7135
373.556	9.25395
376.449	5.84311
379.341	2.60961
382.234	3.41426
385.127	3.32285
388.019	4.4131
390.912	1.77643
393.805	0.050047
396.697	5.7831
399.59	0.706537
402.483	0.173407
405.376	0.862808
408.268	2.73788
411.161	4.53753
414.054	4.45141
416.946	0.464088
419.839	5.87233
422.732	1.77065
425.625	0.586597
428.517	4.43606
431.41	7.51392
434.303	3.85029
437.195	1.57539
440.088	5.00877
442.981	1.22158
445.873	1.90161
448.766	3.4327
451.659	5.06345
454.551	1.27863
457.444	1.02026
460.337	4.79425
463.23	3.72011
466.122	0.818243
469.015	1.66181
471.908	0.377428
474.8	1.25333
477.693	3.74786
480.586	2.39665
483.479	3.60033
486.371	4.23066
489.264	3.97844
492.157	4.25258
495.049	0.037142
497.942	1.28571
500.835	3.15423
503.728	2.14427
506.62	2.67706
509.513	2.85329
512.406	5.40388
515.298	1.9826
518.191	2.14231
521.084	1.41667
523.976	1.13147
526.869	3.55307
529.762	3.47313
532.654	3.6542
535.547	7.26303
538.44	1.71557
541.333	5.91328
544.225	2.09129
547.118	3.08107
550.011	0.583704
552.903	1.91698
555.796	3.35309
558.689	4.68715
561.582	4.02258
564.474	4.83083
567.367	4.50932
570.26	3.1178
573.152	4.91379
576.045	1.33998
578.938	0.697161
581.83	4.14341
584.723	0.431927
587.616	2.84502
590.509	2.33034
593.401	2.76446
596.294	0.523619
599.187	1.15826
602.079	0.488195
604.972	0.155602
607.865	1.524
610.758	5.20947
613.65	5.80589
616.543	7.72671
619.436	5.67667
622.328	4.54593
625.221	8.12344
628.114	3.58355
631.006	7.1907
633.899	8.05937
636.792	8.93919
639.684	8.3543
642.577	12.6719
645.47	9.48083
648.363	8.52331
651.255	7.17499
654.148	9.23443
657.041	10.2033
659.933	3.47773
662.826	5.50427
665.719	4.8549
668.612	6.89479
671.504	7.82667
674.397	4.70278
677.29	4.77844
680.182	5.45653
683.075	5.51333
685.968	6.0746
688.861	11.2324
691.753	8.76222
694.646	5.88234
697.539	3.3504
700.431	8.28755
703.324	1.17826
706.217	6.15441
709.109	4.11437
712.002	4.73563
714.895	5.98557
717.788	7.76968
720.68	4.17216
723.573	3.41508
726.466	4.96636
729.358	5.71937
732.251	5.43898
735.144	6.41817
738.036	3.32562
740.929	5.66892
743.822	5.39645
746.715	1.75344
749.607	5.79974
752.5	3.93175
755.393	3.52262
758.285	5.11381
761.178	3.6676
764.071	5.54871
766.963	4.05371
769.856	3.51127
772.749	5.05708
775.642	4.64339
778.534	0.245403
781.427	2.25482
784.32	0.753813
787.212	5.84242
790.105	0.472588
792.998	3.13534
795.89	1.12401
798.783	2.36796
801.676	2.2008
804.569	6.06392
807.461	2.9872
810.354	3.87665
813.247	1.58849
816.139	1.17431
819.032	1.06576
821.925	5.73355
824.818	3.10676
827.71	4.20921
830.603	3.7338
833.496	3.07143
836.388	1.62326
839.281	0.458616
842.174	4.46473
845.067	6.2191
847.959	4.30976
850.852	3.04251
853.745	5.45331
856.637	4.48025
859.53	4.09024
862.423	2.81002
865.315	1.90715
868.208	2.47099
871.101	1.66685
873.994	4.03336
876.886	1.98011
879.779	1.31576
882.672	2.8132
885.564	5.28828
888.457	1.54092
891.35	6.75082
894.242	0.736336
897.135	4.09183
900.028	3.30896
902.92	1.57697
905.813	1.55137
908.706	2.65967
911.599	5.88646
914.491	1.02899
917.384	1.26557
920.277	1.98858
923.169	3.28114
926.062	1.21029
928.955	4.81505
931.847	0.702087
934.74	3.07199
937.633	0.485176
940.526	2.8735
943.418	2.19582
946.311	3.41503
949.204	1.80397
952.096	0.719278
954.989	1.71924
957.882	2.43192
960.775	5.1799
963.667	3.63951
966.56	5.30725
969.453	0.780178
972.345	4.42298
975.238	5.01849
978.131	1.85942
981.024	2.90003
983.916	2.63029
986.809	1.7487
989.702	4.88808
992.594	3.43423
995.487	2.2495
998.38	3.6801
1001.27	3.87684
1004.16	3.51052
1007.06	6.59321
1009.95	3.71302
1012.84	3.15209
1015.74	4.17737
1018.63	3.94323
1021.52	5.82416
1024.41	1.16546
1027.31	3.70101
1030.2	3.27462
1033.09	1.53919
1035.98	8.48585
1038.88	4.31538
1041.77	9.80615
1044.66	2.21427
1047.56	5.90162
1050.45	6.1449
1053.34	5.64644
1056.23	1.70729
1059.13	4.56061
1062.02	0.843964
1064.91	2.36944
1067.81	2.74002
1070.7	6.76923
1073.59	2.39778
1076.48	3.27427
1079.38	3.30774
1082.27	1.93056
1085.16	3.23241
1088.05	1.51395
1090.95	3.67897
1093.84	2.08413
1096.73	6.12453
1099.62	0.670744
1102.52	3.76806
1105.41	1.01329
1108.3	3.40471
1111.19	3.75981
1114.09	0.542261
1116.98	5.04049
1119.87	4.05336
1122.77	3.99253
1125.66	1.91322
1128.55	3.96944
1131.44	2.14955
1134.34	3.00899
1137.23	1.69849
1140.12	7.3316
1143.02	5.87494
1145.91	0.452467
1148.8	2.20294
1151.69	0.965687
1154.59	0.805346
1157.48	4.10349
1160.37	2.67259
1163.26	1.53664
1166.16	2.78392
1169.05	0.344288
1171.94	3.8987
1174.84	3.86382
1177.73	1.98082
1180.62	2.20739
1183.51	0.414919
1186.4	0.434576
1189.3	3.95858
1192.19	3.22903
1195.08	4.95033
1197.98	3.75083
1200.87	3.16147
1203.76	4.76469
1206.65	3.1851
1209.55	1.2642
1212.44	3.78917
1215.33	5.59518
1218.22	2.85458
1221.12	3.00977
1224.01	3.0297
1226.9	5.17216
1229.8	2.17075
1232.69	2.4326
1235.58	4.21416
1238.47	0.366211
1241.37	5.11217
1244.26	1.10171
1247.15	3.91238
1250.05	4.68347
1252.94	4.08006
1255.83	0.739887
1258.72	4.54256
1261.62	1.16544
1264.51	1.67089
1267.4	4.89779
1270.29	3.05389
1273.19	0.319729
1276.08	2.11733
1278.97	5.38073
1281.87	3.94088
1284.76	3.00493
1287.65	0.253494
1290.54	2.11944
1293.43	1.93332
1296.33	2.11396
1299.22	0.693432
1302.11	1.74119
