Measurement: Raman, 532 nm, unoriented, Raman Data Processed
Mineral: Faujasite-Ca
Rruff sample: R070462
Ideal chemistry: (Ca,Na,Mg)_2_(Si,Al)_12_O_24_15H_2_O
Locality: Table Mountain, San Bernardino County, California, USA
Source: Michael Scott
Description: Isolated colorless octahedra in basalt vesicules, associated with spherical aggregates of colorless phillipsite-Ca
Measured chemistry: (Ca_1.04_Na_0.44_Mg_0.23_K_0.04_Fe_0.03_)_Σ=1.78_(Si_8.92_Al_3.08_)_12_O_24_·4.5H_2_O ; H_2_O estimated by difference
Raman shift (cm-1)	intensity
177.636	0
180.529	136.135
183.421	78.1426
186.314	122.637
189.207	196.658
192.1	304.131
194.992	269.857
197.885	168.039
200.778	243.957
203.67	108.731
206.563	97.6875
209.456	107.129
212.348	52.8438
215.241	68.332
218.134	23.0195
221.026	20.8477
223.919	142.139
226.812	54.0371
229.705	132.432
232.597	155.432
235.49	88.9394
238.383	89.6172
241.275	159.312
244.168	194.088
247.061	314.975
249.954	250.5
252.846	215.394
255.739	242.643
258.632	196.416
261.524	245.586
264.417	325.562
267.31	337.199
270.202	357.85
273.095	285.82
275.988	354.176
278.881	343.684
281.773	343.967
284.666	388.184
287.559	448.461
290.451	473.121
293.344	493.31
296.237	457.631
299.13	463.836
302.022	393.201
304.915	465.023
307.808	419.066
310.7	415.658
313.593	351.293
316.486	403.883
319.378	313.871
322.271	296.734
325.164	218.102
328.057	235.758
330.949	96.7969
333.842	15.7734
336.735	147.033
339.627	224.932
342.52	99.7363
345.413	255.158
348.305	366.174
351.198	442.342
354.091	502.228
356.983	439.353
359.876	241.264
362.769	308.492
365.662	173.309
368.554	70.6641
371.447	107.99
374.34	50.1328
377.232	67.4336
380.125	56.8125
383.018	48.7422
385.911	56.6719
388.803	93.2012
391.696	11.9375
394.589	85.6543
397.481	32.623
400.374	53.1777
403.267	46.7969
406.159	102.713
409.052	72.4356
411.945	133.121
414.837	42.4141
417.73	9.47266
420.623	16.7148
423.516	26.2109
426.408	64.9981
429.301	51.7539
432.194	74.2676
435.086	144.08
437.979	186.277
440.872	142.768
443.764	80.2539
446.657	8.43164
449.55	64.5195
452.443	162.662
455.335	297.822
458.228	298.356
461.121	368.197
464.014	372.799
466.906	374.514
469.799	604.107
472.692	700.322
475.584	671.318
478.477	817.562
481.37	1068.13
484.262	1236.86
487.155	1484.82
490.048	1683.09
492.94	1973.83
495.833	2354.35
498.726	2698.36
501.619	2818.93
504.511	2749.83
507.404	2532.77
510.297	2288.55
513.189	1977.38
516.082	1593.89
518.975	1267.4
521.867	885.521
524.76	649.916
527.653	432.102
530.546	474.144
533.438	453.447
536.331	398.519
539.224	234.555
542.116	252.973
545.009	261.715
547.902	331.815
550.794	134.219
553.687	17.4688
556.58	97.041
559.473	38.6172
562.365	21.8184
565.258	39.0957
568.151	27.25
571.043	156.197
573.936	205.506
576.829	200.756
579.721	6.70703
582.614	19.2773
585.507	46.7695
588.4	44.3887
591.292	47.877
594.185	105.934
597.078	42.9219
599.97	143.639
602.863	160.103
605.756	78.1191
608.649	152.789
611.541	158.727
614.434	145.111
617.327	120.742
620.219	26.6406
623.112	74.8672
626.005	28.9375
628.897	6.50586
631.79	59.0156
634.683	143.965
637.576	78.6484
640.468	66.3828
643.361	83.8867
646.254	94.5449
649.146	81.4414
652.039	7.4707
654.932	73.1836
657.824	30.6094
660.717	34.7324
663.61	158.199
666.503	176.543
669.395	126.129
672.288	132.941
675.181	135.926
678.073	137.297
680.966	148.764
683.859	83.0059
686.751	50.0312
689.644	98.1328
692.537	154.068
695.43	135.176
698.322	214.928
701.215	139.777
704.108	130.359
707	117.211
709.893	63.6836
712.786	10.0293
715.678	151.43
718.571	114.168
721.464	56.6621
724.357	6.96289
727.249	95.9258
730.142	21.5352
733.035	177.348
735.927	133.17
738.82	12.6621
741.713	25.1016
744.606	85.8555
747.498	200.949
750.391	145.631
753.284	107.617
756.176	61.6797
759.069	147.129
761.962	110.805
764.854	21.4473
767.747	106.209
770.64	124.422
773.533	32.9766
776.425	56.7266
779.318	25.6895
782.211	118.361
785.103	264.547
787.996	193.506
790.889	82.6426
793.781	79.7285
796.674	10.6797
799.567	40.6016
802.46	78.2773
805.352	24.3008
808.245	131.1
811.138	6.6582
814.03	24.3262
816.923	89.7363
819.816	64.6211
822.708	118.846
825.601	110.926
828.494	126.744
831.386	118.307
834.279	93.1465
837.172	37.5781
840.065	32.9375
842.957	43.0039
845.85	138.916
848.743	160.496
851.635	119.875
854.528	75.0781
857.421	54.6602
860.313	168.994
863.206	230.033
866.099	229.654
868.992	185.328
871.884	188.387
874.777	204.525
877.67	179.713
880.562	282.457
883.455	180.9
886.348	202.248
889.24	188.789
892.133	90.7227
895.026	90.2402
897.919	142.674
900.811	24.5801
903.704	55.2402
906.597	145.199
909.489	158.572
912.382	127.447
915.275	10.2266
918.168	25.9062
921.06	105.133
923.953	40.5781
926.846	126.537
929.738	37.6836
932.631	120.877
935.524	55.3184
938.416	38.1211
941.309	3.28125
944.202	171.81
947.095	97.1523
949.987	91.1367
952.88	1.20508
955.773	10.3867
958.665	95.3906
961.558	80.6543
964.451	77.2148
967.343	54.375
970.236	207.139
973.129	108.85
976.021	436.723
978.914	96.5156
981.807	64.2598
984.7	65.1211
987.592	158.941
990.485	249.219
993.378	102.6
996.27	108.475
999.163	23.2012
1002.06	114.643
1004.95	88.4121
1007.84	176.328
1010.73	86.0703
1013.63	60.3613
1016.52	132.772
1019.41	120.047
1022.3	42.5312
1025.2	69.8691
1028.09	125.357
1030.98	330.256
1033.88	160.6
1036.77	19.7852
1039.66	32.7988
1042.55	43.0762
1045.45	108.068
1048.34	140.191
1051.23	53.5137
1054.12	112.332
1057.02	28.0898
1059.91	70.0312
1062.8	141.291
1065.69	222.266
1068.59	336.941
1071.48	297.098
1074.37	289.055
1077.27	96.7246
1080.16	147.822
1083.05	231.66
1085.94	143.863
1088.84	143.248
1091.73	174.363
1094.62	108.33
1097.52	172.352
1100.41	287.596
1103.3	222.352
1106.19	114.984
1109.09	144.065
1111.98	243.449
1114.87	243.988
1117.76	286.394
1120.66	159.846
1123.55	132.029
1126.44	94.9648
1129.34	184.242
1132.23	210.889
1135.12	118.91
1138.01	90.1562
1140.91	211.873
1143.8	195.443
1146.69	183.418
1149.58	54.543
1152.48	197.478
1155.37	131.057
1158.26	13.1523
1161.15	58.0352
1164.05	36.6973
1166.94	11.1387
1169.83	72.2891
1172.72	111.742
1175.62	152.344
1178.51	100.244
1181.4	186.441
1184.3	101.891
1187.19	259.947
1190.08	160.363
1192.97	83.3125
1195.87	71.8691
1198.76	165.207
1201.65	66.8594
1204.55	86.082
1207.44	0.130859
1210.33	70.3574
1213.22	50.4141
1216.12	254.598
1219.01	278.99
1221.9	331.941
1224.79	366.465
1227.69	265.928
1230.58	220.008
1233.47	31.9844
1236.37	136.744
1239.26	67.8965
1242.15	117.51
1245.04	42.1348
1247.94	101.383
1250.83	84.9648
1253.72	94.3633
1256.61	47.291
1259.51	36.2852
1262.4	120.252
1265.29	218.352
1268.18	215.902
1271.08	178.682
1273.97	89.1269
1276.86	113.232
1279.76	37.5371
1282.65	73.959
1285.54	121.654
1288.43	147.826
1291.33	182.596
1294.22	216.785
1297.11	123.584
1300	81.0019
