Measurement: Raman, 532 nm, unoriented, Raman Data Processed
Mineral: Faujasite-Mg
Rruff sample: R080141
Ideal chemistry: (Mg,Na,K,Ca)_2_(Si,Al)_12_O_24_15H_2_O
Locality: Limburg Quarries, Sasbach, Kaiserstuhl, Baden-Wurttemberg, Germany
Source: James Shigley
Description: Colorless octahedra in basalt vesicles
Raman shift (cm-1)	intensity
140.666	0
144.041	6.17627
147.416	1.30176
150.79	39.0591
154.165	98.5371
157.54	62.875
160.915	51.2778
164.29	35.3862
167.664	46.0371
171.039	60.6187
174.414	67.1133
177.789	101.135
181.164	92.4624
184.538	95.2524
187.913	73.9419
191.288	52.8032
194.663	39.541
198.038	10.1577
201.412	16.1943
204.787	0.563477
208.162	7.96094
211.537	30.8818
214.912	13.23
218.287	20.7886
221.661	42.3267
225.036	50.7398
228.411	45.459
231.786	56.0283
235.161	67.8584
238.536	109.456
241.91	118.877
245.285	115.099
248.66	112.133
252.035	122.515
255.41	138.129
258.784	169.653
262.159	157.792
265.534	178.235
268.909	190.946
272.284	184.425
275.659	190.76
279.033	205.621
282.408	242.38
285.783	249.765
289.158	297.182
292.533	302.648
295.907	285.44
299.282	275.9
302.657	249.549
306.032	243.137
309.407	200.758
312.781	166.273
316.156	135.323
319.531	113.916
322.906	87.8193
326.281	57.7139
329.656	51.5078
333.03	73.0615
336.405	63.6543
339.78	67.4502
343.155	61.7803
346.53	101.672
349.904	142.292
353.279	131.974
356.654	122.597
360.029	84.6562
363.404	44.8486
366.779	13.169
370.153	0.388672
373.528	16.7275
376.903	0.189453
380.278	3.03223
383.653	5.4375
387.027	17.0752
390.402	16.749
393.777	13.291
397.152	14.4707
400.527	5.95215
403.901	16.3691
407.276	0.018555
410.651	13.9746
414.026	17.8994
417.401	2.15234
420.776	7.67285
424.15	8.73145
427.525	8.85547
430.9	12.5264
434.275	10.249
437.65	4.60156
441.024	1.86914
444.399	21.2383
447.774	27.2393
451.149	35.5147
454.524	57.2051
457.899	95.3174
461.273	153.73
464.648	216.103
468.023	279.432
471.398	334.215
474.773	399.039
478.147	454.514
481.522	548.914
484.897	633.399
488.272	741.882
491.647	896.662
495.022	1070.65
498.396	1186.36
501.771	1243.82
505.146	1180.99
508.521	1030.56
511.896	823.193
515.27	597.923
518.645	414.399
522.02	283.526
525.395	206.906
528.77	156.981
532.145	95.7002
535.519	61.6631
538.894	38.4961
542.269	51.5332
545.644	45.4736
549.019	12.4053
552.394	5.5625
555.768	6.37402
559.143	7.35059
562.518	12.0361
565.893	12.5703
569.268	21.9766
572.642	28.5107
576.017	26.9492
579.392	32.2344
582.767	31.5508
586.142	24.8154
589.516	38.2344
592.891	38.5586
596.266	26.5186
599.641	16.875
603.016	11.8457
606.39	36.9238
609.765	49.9941
613.14	58.1846
616.515	33.9228
619.89	10.3945
623.265	15.7207
626.639	20.5977
630.014	28.5713
633.389	36.5801
636.764	51.419
640.139	63.7148
643.514	58.5703
646.888	52.4648
650.263	48.627
653.638	67.7246
657.013	82.9814
660.388	73.1953
663.762	54.4922
667.137	66.3555
670.512	63.2656
673.887	49.4853
677.262	75.125
680.636	51.1855
684.011	49.6348
687.386	39.1836
690.761	45.0957
694.136	35.79
697.511	22.1348
700.885	30.1025
704.26	24.0908
707.635	43.0449
711.01	61.8115
714.385	62.7148
717.76	50.4971
721.134	24.5928
724.509	45.0478
727.884	19.8467
731.259	29.7891
734.634	25.2588
738.008	11.8379
741.383	35.2588
744.758	15.7451
748.133	10.1816
751.508	18.6406
754.882	13.3896
758.257	10.2305
761.632	33.2041
765.007	50.6728
768.382	28.8799
771.756	22.7812
775.131	43.9766
778.506	58.3076
781.881	56.7324
785.256	47.0332
788.631	7.60547
792.005	30.5645
795.38	66.9219
798.755	43.9121
802.13	55.4971
805.505	33.6065
808.88	56.9785
812.254	14.5928
815.629	55.541
819.004	36.8945
822.379	29.4414
825.754	26.1875
829.128	20.3467
832.503	45.5
835.878	71.3408
839.253	49.3662
842.628	66.8477
846.003	22.4033
849.377	2.79688
852.752	22.7734
856.127	22.667
859.502	40.2764
862.877	28.0811
866.251	21.0879
869.626	5.44922
873.001	9.37305
876.376	11.4404
879.751	24.8623
883.125	0.97168
886.5	9.53906
889.875	21.75
893.25	17.791
896.625	2.44141
900	20.0273
903.374	33.1074
906.749	35.6504
910.124	57.8496
913.499	34.8203
916.874	60.0723
920.249	71.3291
923.623	77.0713
926.998	76.3027
930.373	62.9023
933.748	26.0723
937.123	15.4316
940.497	25.7012
943.872	33.2607
947.247	29.2578
950.622	21.457
953.997	31.248
957.371	37.7891
960.746	25.5869
964.121	28.7012
967.496	10.6602
970.871	15.3105
974.245	3.28906
977.62	50.9736
980.995	109.575
984.37	85.9316
987.745	53.0469
991.12	14.9355
994.494	12.6494
997.869	49.5762
1001.24	50.2129
1004.62	27.8271
1007.99	65.6103
1011.37	73.5781
1014.74	27.5654
1018.12	38.3594
1021.49	63.8603
1024.87	70.3711
1028.24	72.6445
1031.62	6.70215
1034.99	5.82324
1038.37	8.32227
1041.74	16.7607
1045.12	43.2109
1048.49	27.54
1051.87	10.8125
1055.24	17.3867
1058.62	35.1582
1061.99	26.9424
1065.37	29.4736
1068.74	24.8691
1072.12	56.1738
1075.49	46.4531
1078.87	58.2412
1082.24	56.1172
1085.62	39.6397
1088.99	5.25879
1092.36	19.0107
1095.74	44.4199
1099.11	77.1738
1102.49	113.884
1105.86	74.1494
1109.24	40.4727
1112.61	64.7822
1115.99	48.7559
1119.36	68.6904
1122.74	55.3203
1126.11	38.0645
1129.49	80.4658
1132.86	92.6709
1136.24	106.957
1139.61	108.131
1142.99	55.2178
1146.36	50.6162
1149.74	43.5723
1153.11	61.0928
1156.49	38.4453
1159.86	18.0176
1163.23	27.1016
1166.61	28.6084
1169.98	30.0684
1173.36	19.9863
1176.73	20.9492
1180.11	22.29
1183.48	0.705078
1186.86	27.2158
1190.23	5.92188
1193.61	20.4795
1196.98	21.1807
1200.36	66.5537
1203.73	36.7705
1207.11	20.6455
1210.48	30.3232
1213.86	89.2744
1217.23	78.4834
1220.61	68.6768
1223.98	53.793
1227.36	44.1006
1230.73	37.1787
1234.11	20.7559
1237.48	19.7891
1240.86	46.5098
1244.23	23.6201
1247.61	33.0684
1250.98	37.9316
1254.36	2.17481
1257.73	2.03516
1261.11	20.9512
1264.48	39.5254
1267.86	8.53027
1271.23	40.1592
1274.6	61.8525
1277.98	46.6768
1281.35	61.0635
1284.73	38.1367
1288.1	48.1484
1291.48	59.2217
1294.85	41.6494
1298.23	13.8516
1301.6	3.28809
