Measurement: Raman, 785 nm, unoriented, Raman Data Processed
Mineral: Faustite
Rruff sample: R060891
Ideal chemistry: Zn^2+^Al_6_(P^5+^O_4_)_4_(OH)_8_4H_2_O
Locality: Bingham Copper mine, Salt Lake County, Utah
Source: Michael Scott
Description: Aggregate of pale green spheres
Raman shift (cm-1)	intensity
160.579	0
163.472	0.413696
166.364	43.8464
169.257	197.103
172.15	288.392
175.042	242.757
177.935	74.7302
180.828	30.8007
183.72	18.7462
186.613	50.1151
189.506	73.9957
192.399	63.1675
195.291	94.2268
198.184	120.573
201.077	129.257
203.969	46.2789
206.862	46.3499
209.755	56.7905
212.648	14.0421
215.54	20.5422
218.433	11.5513
221.326	12.669
224.218	99.3545
227.111	198.866
230.004	352.077
232.896	423.747
235.789	415.572
238.682	347.169
241.575	338.495
244.467	296.839
247.36	159.768
250.253	68.9285
253.145	37.0256
256.038	4.28052
258.931	11.4701
261.823	11.8643
264.716	12.3876
267.609	30.8693
270.502	14.2787
273.394	28.2742
276.287	5.01147
279.18	16.4831
282.072	19.6293
284.965	43.8737
287.858	13.7111
290.75	11.8925
293.643	16.5454
296.536	6.27942
299.428	33.4476
302.321	33.6686
305.214	41.6449
308.107	107.369
310.999	65.7123
313.892	99.5341
316.785	125.817
319.677	171.954
322.57	235.415
325.463	363.805
328.356	426.713
331.248	428.333
334.141	328.698
337.034	278.154
339.926	205.369
342.819	147.067
345.712	135.465
348.604	95.0094
351.497	69.2264
354.39	75.292
357.283	67.3512
360.175	42.9468
363.068	3.83191
365.961	33.7112
368.853	29.769
371.746	9.94043
374.639	13.3135
377.531	35.3129
380.424	34.0172
383.317	44.3384
386.209	1.23523
389.102	51.6868
391.995	29.4647
394.888	34.9136
397.78	49.5294
400.673	15.6095
403.566	57.6722
406.458	139.993
409.351	275.58
412.244	426.385
415.137	578.337
418.029	563.409
420.922	405.467
423.815	307.984
426.707	207.326
429.6	177.737
432.493	163.036
435.385	137.748
438.278	161.317
441.171	142.92
444.063	179.056
446.956	152.083
449.849	116.643
452.742	94.1602
455.634	145.808
458.527	133.684
461.42	170.97
464.312	183.71
467.205	170.84
470.098	159.869
472.99	159.944
475.883	165.396
478.776	164.953
481.669	154.64
484.561	155.162
487.454	112.383
490.347	107.961
493.239	115.228
496.132	94.7338
499.025	78.7391
501.918	100.906
504.81	63.6057
507.703	129.907
510.596	44.3308
513.488	35.0198
516.381	19.4963
519.274	35.5603
522.166	26.1992
525.059	0.97644
527.952	11.0098
530.845	20.5707
533.737	10.0648
536.63	18.85
539.523	22.8693
542.415	6.71777
545.308	9.41937
548.201	17.1615
551.093	15.1741
553.986	40.2191
556.879	57.8379
559.771	89.6318
562.664	103.509
565.557	134.811
568.45	170.713
571.342	208.94
574.235	239.042
577.128	253.342
580.02	269.295
582.913	276.424
585.806	253.583
588.698	244.753
591.591	213.773
594.484	221.709
597.377	231.668
600.269	245.717
603.162	202.019
606.055	199.331
608.947	201.814
611.84	189.726
614.733	169.689
617.625	181.994
620.518	187.429
623.411	243.992
626.304	244.004
629.196	259.525
632.089	308.651
634.982	256.069
637.875	261.878
640.767	243.759
643.66	205.255
646.553	129.387
649.445	127.537
652.338	75.6172
655.231	68.8208
658.123	81.2957
661.016	28.8459
663.909	24.2946
666.802	19.2715
669.694	26.5532
672.587	38.38
675.48	5.42938
678.372	12.4503
681.265	28.1541
684.158	14.1536
687.05	1.76111
689.943	35.4745
692.836	10.7377
695.729	1.92944
698.621	1.02063
701.514	11.0954
704.407	5.6933
707.299	7.95856
710.192	3.65015
713.085	26.9364
715.977	20.565
718.87	1.24884
721.763	30.4562
724.655	27.8168
727.548	24.2323
730.441	0.501709
733.334	34.7826
736.226	34.8438
739.119	21.403
742.012	23.0617
744.904	33.4151
747.797	36.5239
750.69	64.8557
753.582	70.3204
756.475	72.6709
759.368	103.382
762.261	81.4937
765.153	70.2192
768.046	47.3508
770.939	66.6242
773.831	89.7306
776.724	45.634
779.617	69.2877
782.51	59.335
785.402	51.1219
788.295	58.6527
791.188	13.9237
794.08	55.6541
796.973	44.6259
799.866	2.98682
802.758	9.49542
805.651	33.1645
808.544	36.2105
811.437	24.5236
814.329	26.7968
817.222	23.3317
820.115	15.0941
823.007	32.2399
825.9	33.3531
828.793	24.6141
831.685	36.2606
834.578	28.6157
837.471	28.5195
840.364	39.6453
843.256	5.68304
846.149	37.3238
849.042	16.3448
851.934	18.2335
854.827	21.4156
857.72	36.7968
860.612	19.0999
863.505	0.381653
866.398	5.11841
869.29	22.6277
872.183	43.7598
875.076	44.5864
877.969	45.6936
880.861	43.9794
883.754	45.6739
886.647	19.9491
889.539	20.9139
892.432	36.8401
895.325	13.2999
898.217	6.66455
901.11	15.4515
904.003	39.5578
906.896	27.1813
909.788	30.5178
912.681	26.087
915.574	16.5809
918.466	1.19995
921.359	16.0704
924.252	14.6951
927.144	12.0187
930.037	25.2408
932.93	7.47699
935.823	21.0607
938.715	5.43884
941.608	12.2644
944.501	0.373779
947.393	28.6693
950.286	6.96265
953.179	16.796
956.072	15.8209
958.964	20.7396
961.857	7.52771
964.75	17.2929
967.642	8.40265
970.535	9.65338
973.428	29.2318
976.32	50.6258
979.213	74.8126
982.106	114.027
984.999	118.162
987.891	120.134
990.784	134.101
993.677	71.5113
996.569	113.591
999.462	66.1386
1002.36	117.567
1005.25	121.528
1008.14	89.4581
1011.03	81.9012
1013.93	125.229
1016.82	173.101
1019.71	209.874
1022.6	255.784
1025.5	311.566
1028.39	468.095
1031.28	629.927
1034.17	738.506
1037.07	879.443
1039.96	948.653
1042.85	941.596
1045.74	809.451
1048.64	623.966
1051.53	505.415
1054.42	389.365
1057.32	316.336
1060.21	281.89
1063.1	191.79
1065.99	143.966
1068.89	100.35
1071.78	54.9399
1074.67	45.667
1077.57	28.2725
1080.46	12.4716
1083.35	33.204
1086.24	8.48535
1089.14	47.4213
1092.03	55.0663
1094.92	66.9467
1097.81	108.634
1100.71	93.4805
1103.6	74.0062
1106.49	104.312
1109.38	52.7343
1112.28	16.37
1115.17	6.44977
1118.06	5.14813
1120.95	20.9858
1123.85	21.0273
1126.74	9.61676
1129.63	13.135
1132.53	9.45813
1135.42	7.72742
1138.31	0.645813
1141.2	12.9479
1144.1	9.06958
1146.99	45.0171
1149.88	50.2276
1152.78	72.778
1155.67	70.2532
1158.56	71.1781
1161.45	55.5504
1164.35	38.318
1167.24	33.7297
1170.13	60.0226
1173.02	36.1747
1175.92	51.6702
1178.81	53.6325
1181.7	62.8696
1184.6	67.0491
1187.49	48.1273
1190.38	41.2606
1193.27	45.9503
1196.17	25.2009
1199.06	43.6462
1201.95	27.3743
1204.84	33.3087
1207.74	10.9937
1210.63	26.8246
1213.52	59.5245
1216.41	56.6945
1219.31	48.1907
1222.2	33.7618
1225.09	60.5447
1227.98	52.5926
1230.88	52.7161
1233.77	24.3058
1236.66	22.929
1239.56	20.7795
1242.45	40.6798
1245.34	71.459
1248.23	59.6437
1251.13	43.7778
1254.02	33.5831
1256.91	41.8321
1259.81	1.77496
1262.7	0.934509
