Measurement: Raman, 532 nm, unoriented, Raman Data Processed
Mineral: Faustite
Rruff sample: R060891
Ideal chemistry: Zn^2+^Al_6_(P^5+^O_4_)_4_(OH)_8_4H_2_O
Locality: Bingham Copper mine, Salt Lake County, Utah
Source: Michael Scott
Description: Aggregate of pale green spheres
Raman shift (cm-1)	intensity
180.341	0
183.234	112.93
186.127	139.541
189.019	265.338
191.912	290.109
194.805	300.35
197.697	325.147
200.59	458.525
203.483	317.109
206.375	399.549
209.268	257.596
212.161	67.3887
215.054	49.6523
217.946	11.7383
220.839	105.422
223.732	250.861
226.624	358.533
229.517	738.346
232.41	996.42
235.303	1115.7
238.195	949.971
241.088	868.391
243.981	862.316
246.873	766.584
249.766	540.322
252.659	206.853
255.551	13.6348
258.444	59.3828
261.337	19.4336
264.229	163.232
267.122	70.0293
270.015	176.428
272.908	75.668
275.8	153.857
278.693	176.092
281.586	228.086
284.478	288.723
287.371	364.986
290.264	358.988
293.156	190.334
296.049	69.7227
298.942	62.5312
301.834	83.1934
304.727	353.262
307.62	513.697
310.513	506.996
313.405	465.025
316.298	339.334
319.191	398.481
322.083	839.438
324.976	1113.61
327.869	1291.94
330.762	1451.28
333.654	1364.96
336.547	865.311
339.44	699.418
342.332	592.824
345.225	402.918
348.118	500.055
351.01	286.297
353.903	365.383
356.796	197.012
359.688	57.8828
362.581	31.8242
365.474	3.10547
368.366	104.16
371.259	23.7852
374.152	60.4219
377.045	212.973
379.937	2.51562
382.83	88.5156
385.723	392.414
388.615	379.469
391.508	204.988
394.401	221.898
397.293	170.684
400.186	85.2695
403.079	192.457
405.972	477.648
408.864	931.883
411.757	1276.99
414.65	1913.35
417.542	1977.54
420.435	1409.32
423.328	1066.59
426.221	788.578
429.113	489.438
432.006	696.141
434.899	516.336
437.791	471.914
440.684	601.781
443.577	653.039
446.469	634.996
449.362	421.133
452.255	299.566
455.147	439.777
458.04	300.594
460.933	459.441
463.826	620.102
466.718	649.711
469.611	588.098
472.504	607.539
475.396	485.902
478.289	568.449
481.182	469.543
484.074	607.359
486.967	584.172
489.86	575.141
492.752	259.953
495.645	177.438
498.538	120.953
501.431	174.621
504.323	114.453
507.216	142.066
510.109	131.434
513.001	125.492
515.894	174.231
518.787	275.227
521.679	350.359
524.572	498.18
527.465	127.43
530.358	41.5469
533.25	32.4844
536.143	178.246
539.036	103.91
541.928	23.0586
544.821	18.0391
547.714	73.2578
550.606	68.1641
553.499	106.688
556.392	202.438
559.284	315.164
562.177	320.246
565.07	619.414
567.963	1049.13
570.855	760.707
573.748	914.773
576.641	801.328
579.533	829.559
582.426	816.644
585.319	722.953
588.212	891.281
591.104	862.859
593.997	749.856
596.89	594.113
599.782	606.254
602.675	570.508
605.568	549.363
608.46	669.082
611.353	661.219
614.246	620.027
617.139	542.691
620.031	720.109
622.924	993.34
625.817	1067.52
628.709	920.168
631.602	992.16
634.495	908.07
637.387	823.129
640.28	775.898
643.173	586.004
646.066	430.797
648.958	458.672
651.851	530.762
654.744	478.133
657.636	191.078
660.529	315.246
663.422	145.426
666.314	247.695
669.207	288.871
672.1	246.867
674.992	142.891
677.885	54.1953
680.778	67.4961
683.67	295.305
686.563	319.418
689.456	273.914
692.349	197.32
695.241	278.527
698.134	191.906
701.027	25.8047
703.919	47.418
706.812	79.457
709.705	45.6641
712.597	94.2578
715.49	60
718.383	243.637
721.276	40.6758
724.168	254.961
727.061	352.031
729.954	181.648
732.846	247.477
735.739	230.758
738.632	104.965
741.524	90.9883
744.417	373.324
747.31	567.07
750.203	457.309
753.095	46.9453
755.988	334.922
758.881	358.223
761.773	181.691
764.666	63.0703
767.559	165.312
770.452	321.769
773.344	413.41
776.237	195.93
779.13	178.031
782.022	190.371
784.915	149.32
787.808	185.051
790.7	335.672
793.593	432.516
796.486	405.75
799.378	300.879
802.271	183.383
805.164	302.16
808.057	150.125
810.949	174.156
813.842	131.066
816.735	69.6797
819.627	163.242
822.52	116.586
825.413	205.41
828.305	385.5
831.198	165.211
834.091	138.547
836.984	159.371
839.876	81.5469
842.769	80.8086
845.662	227.785
848.554	309.766
851.447	165.184
854.34	116.824
857.232	128.754
860.125	265.602
863.018	277.836
865.91	152.363
868.803	124.043
871.696	54.9297
874.589	96.5117
877.481	187.191
880.374	283.184
883.267	297.234
886.159	503.922
889.052	439.258
891.945	525.25
894.837	775.961
897.73	733.082
900.623	539.57
903.516	424.68
906.408	342.273
909.301	419.473
912.194	209.555
915.086	61.9297
917.979	187
920.872	352.133
923.764	277.512
926.657	602.457
929.55	480.453
932.442	355.125
935.335	218.766
938.228	261.812
941.121	197.203
944.013	58.8203
946.906	32.4258
949.799	70.9883
952.691	58.875
955.584	19.7148
958.477	82.3789
961.37	108.938
964.262	204.438
967.155	9.04297
970.048	178.754
972.94	204.398
975.833	457.328
978.726	641.156
981.618	606.887
984.511	673.551
987.404	761.328
990.296	1173.63
993.189	646
996.082	708.68
998.975	519.949
1001.87	638.047
1004.76	630.082
1007.65	512.66
1010.54	573.137
1013.44	568.078
1016.33	664.43
1019.22	1114.55
1022.12	1123.78
1025.01	1965.84
1027.9	2595.38
1030.79	2981.43
1033.69	3545.87
1036.58	4171.8
1039.47	4602.38
1042.37	4260.38
1045.26	3529.13
1048.15	2796.16
1051.04	2345.92
1053.94	2013.25
1056.83	1961.18
1059.72	1586.29
1062.61	1304.52
1065.51	719.551
1068.4	442.773
1071.29	449.797
1074.18	285.481
1077.08	111.938
1079.97	62.2422
1082.86	15.1562
1085.76	325.445
1088.65	336.945
1091.54	355.356
1094.43	617.102
1097.33	875.238
1100.22	932.43
1103.11	893.125
1106	595.535
1108.9	493.715
1111.79	144.59
1114.68	63.25
1117.58	71.3359
1120.47	48.6211
1123.36	116.93
1126.25	20.8906
1129.15	291.047
1132.04	351.609
1134.93	345.18
1137.82	61.4609
1140.72	163.16
1143.61	337.367
1146.5	255.227
1149.39	196.293
1152.29	529.477
1155.18	472.172
1158.07	671.906
1160.97	435.297
1163.86	267.887
1166.75	75.4766
1169.64	67.2031
1172.54	199.434
1175.43	424.25
1178.32	379.211
1181.21	450.883
1184.11	517.375
1187	374.625
1189.89	411.988
1192.79	231.055
1195.68	184.578
1198.57	166.332
1201.46	135.531
1204.36	14.6484
1207.25	124.148
1210.14	277.055
1213.03	335.578
1215.93	379.613
1218.82	152.676
1221.71	29.2734
1224.61	54.125
1227.5	40.0977
1230.39	361.793
1233.28	354.652
1236.18	440.086
1239.07	405.406
1241.96	241.086
1244.85	435.176
1247.75	649.422
1250.64	493.391
1253.53	298.481
1256.42	368.285
1259.32	368.469
1262.21	157.41
1265.1	69.0508
1267.99	112.684
1270.89	566.84
1273.78	732.82
1276.67	513.09
1279.57	129.801
1282.46	302.207
1285.35	111.094
1288.24	96.7539
