Measurement: Raman, 780 nm, unoriented, Raman Data Processed
Mineral: Fayalite
Rruff sample: R100104
Ideal chemistry: Fe^2+^_2_SiO_4_
Locality: Dannemora, Uppsala Province, Sweden
Source: American Museum of Natural History
Description: Dark brown fragment, variety knebelite
Measured chemistry: (Fe^+2^_1.020_Mn^+2^_0.931_Mg_0.052_Ca_0.002_Zn_0.001_)_Î£=2.006_Si_0.997_O_4_
Raman shift (cm-1)	intensity
138.781	0
141.673	0.713718
144.566	4.37601
147.459	4.45006
150.351	7.01661
153.244	6.49728
156.137	6.94202
159.03	7.96785
161.922	13.6337
164.815	19.561
167.708	11.3494
170.6	3.99187
173.493	2.04194
176.386	1.36682
179.278	1.17712
182.171	0.321234
185.064	0.630215
187.957	0.065636
190.849	0.304272
193.742	0.000977
196.635	1.63637
199.527	0.347038
202.42	0.090958
205.313	0.21673
208.205	1.4706
211.098	0.115351
213.991	2.04104
216.884	2.48566
219.776	4.17579
222.669	6.3804
225.562	6.11622
228.454	7.0205
231.347	10.1717
234.24	12.6165
237.132	14.6356
240.025	16.7522
242.918	15.1022
245.811	12.5118
248.703	9.1363
251.596	5.46616
254.489	4.09157
257.381	4.15938
260.274	4.79042
263.167	6.60779
266.059	7.52262
268.952	6.988
271.845	8.9749
274.738	10.382
277.63	10.8509
280.523	10.1152
283.416	11.6393
286.308	9.54262
289.201	9.88823
292.094	9.22553
294.986	9.55815
297.879	9.87584
300.772	10.2011
303.665	11.0788
306.557	8.00417
309.45	7.52796
312.343	5.02068
315.235	2.85874
318.128	2.08893
321.021	1.71633
323.913	0.119484
326.806	0.661345
329.699	1.28432
332.592	0.027439
335.484	0.04343
338.377	0.854439
341.27	0.753008
344.162	0.05275
347.055	0.111343
349.948	2.57245
352.841	1.74551
355.733	1.16946
358.626	2.67165
361.519	2.81239
364.411	4.62861
367.304	5.10839
370.197	4.82866
373.089	5.81411
375.982	6.58445
378.875	7.2638
381.767	7.56833
384.66	6.88863
387.553	6.19698
390.446	6.63506
393.338	5.94559
396.231	7.36266
399.124	5.20439
402.016	4.42215
404.909	3.30263
407.802	2.87291
410.695	2.9071
413.587	1.7615
416.48	0.602962
419.373	2.59693
422.265	0.815887
425.158	1.42346
428.051	0.738851
430.943	0.455495
433.836	0.566746
436.729	1.19342
439.622	0.197337
442.514	0.836222
445.407	0.493692
448.3	0.031375
451.192	0.145178
454.085	0.122438
456.978	1.76505
459.87	0.026596
462.763	1.04083
465.656	0.311177
468.548	1.71459
471.441	2.43253
474.334	1.28342
477.227	0.663812
480.119	0.529544
483.012	0.293967
485.905	1.8497
488.797	1.6637
491.69	1.82455
494.583	1.34595
497.476	1.62121
500.368	1.74757
503.261	1.47967
506.154	2.6116
509.046	2.69555
511.939	2.93515
514.832	0.684453
517.724	1.46018
520.617	0.588772
523.51	0.804012
526.403	0.832314
529.295	0.013624
532.188	0.907428
535.081	1.29059
537.973	2.37136
540.866	2.05112
543.759	1.45858
546.651	1.94498
549.544	3.59987
552.437	3.08055
555.33	2.17896
558.222	1.86173
561.115	3.74695
564.008	1.79571
566.9	2.38842
569.793	1.13765
572.686	1.16843
575.578	1.04375
578.471	1.86964
581.364	0.682283
584.256	0.329208
587.149	0.612922
590.042	0.409129
592.935	2.27672
595.827	0.735608
598.72	0.540944
601.613	0.039618
604.505	0.106851
607.398	0.714129
610.291	0.833232
613.183	0.675133
616.076	1.20686
618.969	1.74542
621.862	0.628118
624.754	1.20184
627.647	1.59726
630.54	1.16088
633.432	1.4241
636.325	0.906373
639.218	2.08135
642.111	1.95855
645.003	2.35268
647.896	1.21324
650.789	1.27577
653.681	2.29508
656.574	2.80078
659.467	2.50029
662.359	2.44403
665.252	2.26881
668.145	2.69703
671.038	1.8002
673.93	2.70321
676.823	3.19714
679.716	2.53447
682.608	2.24074
685.501	1.12727
688.394	1.25064
691.286	2.15304
694.179	0.344291
697.072	0.730381
699.965	1.59769
702.857	0.910756
705.75	1.07327
708.643	1.71546
711.535	0.629257
714.428	1.00671
717.321	1.85025
720.213	0.552319
723.106	0.908696
725.999	1.90212
728.891	1.08538
731.784	0.606961
734.677	0.919693
737.57	0.905183
740.462	0.564652
743.355	0.39831
746.248	0.374068
749.14	0.717669
752.033	0.7911
754.926	0.439796
757.818	1.47563
760.711	0.084611
763.604	0.489994
766.497	1.32447
769.389	0.151406
772.282	0.995111
775.175	0.904667
778.067	1.16448
780.96	1.87552
783.853	3.54774
786.745	3.75001
789.638	6.76946
792.531	10.5961
795.424	16.4707
798.316	25.841
801.209	35.9857
804.102	48.5223
806.994	59.348
809.887	64.7785
812.78	60.6135
815.673	50.3449
818.565	40.6469
821.458	35.8696
824.351	35.9094
827.243	39.0863
830.136	40.2759
833.029	47.4504
835.921	50.474
838.814	52.2428
841.707	50.7943
844.6	44.0761
847.492	35.7935
850.385	26.3526
853.278	19.2387
856.17	14.4575
859.063	10.2541
861.956	6.93711
864.848	5.92162
867.741	2.87732
870.634	3.36761
873.527	1.60776
876.419	1.96611
879.312	0.863806
882.205	1.15538
885.097	0.749044
887.99	0.969662
890.883	1.7431
893.775	2.90236
896.668	3.24053
899.561	3.59487
902.454	3.11357
905.346	2.96285
908.239	1.73718
911.132	1.60173
914.024	2.08912
916.917	2.14008
919.81	2.06748
922.702	2.60736
925.595	2.32882
928.488	0.959367
931.381	1.65917
934.273	0.201438
937.166	0.05459
940.059	0.261117
942.951	0.365504
945.844	0.124635
948.737	0.908882
951.63	0.326463
954.522	1.45671
957.415	0.592285
960.308	0.134109
963.2	0.606829
966.093	0.614717
968.986	0.252259
971.878	0.268393
974.771	1.87087
977.664	1.91196
980.557	1.55384
983.449	1.79357
986.342	1.84792
989.235	1.20385
992.127	1.43076
995.02	0.98201
997.913	2.25366
1000.8	1.98188
1003.7	1.6057
1006.59	1.96279
1009.48	1.96712
1012.38	1.96443
1015.27	2.25252
1018.16	1.53413
1021.05	2.3729
1023.95	2.23399
1026.84	2.54379
1029.73	2.44054
1032.62	2.34449
1035.52	0.854703
1038.41	1.0257
1041.3	1.95736
1044.2	0.984039
1047.09	1.2571
1049.98	1.42556
1052.87	2.012
1055.77	1.28895
1058.66	1.00277
1061.55	1.52945
1064.44	1.2681
1067.34	1.44916
1070.23	0.824375
1073.12	1.13878
1076.02	2.55328
1078.91	0.232994
1081.8	2.03844
1084.69	1.01974
1087.59	0.113965
1090.48	0.243539
1093.37	1.19426
1096.27	1.80771
1099.16	1.22877
1102.05	0.113198
1104.94	1.92003
1107.84	0.169762
1110.73	0.407121
1113.62	0.920037
1116.51	0.261679
1119.41	2.02515
1122.3	1.00935
1125.19	1.03796
1128.08	1.69171
1130.98	1.28285
1133.87	1.64685
1136.76	1.11059
1139.65	1.87303
1142.55	1.20216
1145.44	0.419057
1148.33	1.03394
1151.23	0.957132
1154.12	1.20885
1157.01	1.72381
1159.9	1.06917
1162.8	1.32441
1165.69	0.530212
1168.58	2.36972
1171.47	1.10729
1174.37	1.59401
1177.26	0.800884
1180.15	0.475001
1183.05	0.685905
1185.94	0.368285
1188.83	0.552821
1191.72	1.80921
1194.62	1.85054
1197.51	0.240861
1200.4	0.391494
1203.29	1.38338
1206.19	0.616284
1209.08	1.58674
1211.97	0.539246
1214.87	0.837512
1217.76	1.79589
1220.65	1.03125
1223.54	0.164358
1226.44	1.74925
1229.33	0.621538
1232.22	0.939529
1235.11	1.83308
1238.01	1.98686
1240.9	0.057826
1243.79	1.66599
1246.68	1.64425
1249.58	0.779986
1252.47	0.824717
1255.36	1.3153
1258.26	0.106108
1261.15	1.58343
1264.04	1.23903
1266.93	1.80923
1269.83	1.9141
1272.72	0.763473
1275.61	1.76825
1278.51	1.20949
1281.4	0.493409
1284.29	0.633965
