Measurement: Raman, 780 nm, unoriented, Raman Data Processed
Mineral: Fayalite
Rruff sample: R100102
Ideal chemistry: Fe^2+^_2_SiO_4_
Locality: Bushveld Intrusive, 7 km east of Olepane, Limpopo Province, South Africa
Source: American Museum of Natural History
Description: Pale brown fragments, variety hortonolite
Measured chemistry: (Fe^+2^_1.100_Mg_0.883_Mn^+2^_0.014_Ca_0.002_Zn_0.001_Al_0.001_)_Î£=2.001_Si_0.999_O_4_
Raman shift (cm-1)	intensity
121.907	0
125.281	1.49164
128.656	1.03404
132.031	2.48864
135.406	2.88619
138.781	1.33911
142.155	4.44137
145.53	2.67432
148.905	2.45399
152.28	1.00906
155.655	1.68144
159.03	0.097488
162.404	1.27952
165.779	1.33946
169.154	0.122459
172.529	0.508156
175.904	1.65899
179.278	2.50749
182.653	2.86013
186.028	3.49978
189.403	3.96478
192.778	3.25851
196.153	4.98711
199.527	3.01513
202.902	3.79356
206.277	3.47988
209.652	1.89298
213.027	1.376
216.401	0.21172
219.776	2.49923
223.151	1.86158
226.526	1.80466
229.901	0.057144
233.275	1.64596
236.65	0.338032
240.025	4.92891
243.4	3.60692
246.775	2.03133
250.15	3.73869
253.524	1.39604
256.899	1.7797
260.274	1.05098
263.649	2.46788
267.024	1.66784
270.399	3.08798
273.773	1.65179
277.148	3.92614
280.523	1.52877
283.898	2.96707
287.273	2.20115
290.647	3.72903
294.022	1.38876
297.397	3.356
300.772	3.32362
304.147	4.11254
307.522	3.09549
310.896	3.8176
314.271	3.8485
317.646	5.05156
321.021	5.36754
324.396	5.32501
327.77	6.58859
331.145	5.17425
334.52	3.64657
337.895	2.064
341.27	2.82016
344.644	0.137064
348.019	0.942795
351.394	0.818649
354.769	0.98558
358.144	0.024551
361.519	1.42423
364.893	1.11639
368.268	1.59035
371.643	1.4122
375.018	0.66522
378.393	3.94561
381.767	4.11503
385.142	5.38555
388.517	8.50614
391.892	8.10505
395.267	9.79866
398.642	8.55979
402.016	8.80446
405.391	9.24199
408.766	7.18528
412.141	6.00648
415.516	3.55587
418.89	6.00407
422.265	1.81564
425.64	3.27229
429.015	1.03134
432.39	0.599369
435.765	1.56444
439.139	0.205467
442.514	1.03252
445.889	1.39129
449.264	1.88915
452.639	0.260517
456.014	1.65302
459.388	0.617477
462.763	0.716841
466.138	0.733049
469.513	1.38647
472.887	0.93071
476.262	1.35968
479.637	0.242332
483.012	0.594736
486.387	2.49396
489.762	3.01851
493.136	4.08469
496.511	0.353188
499.886	0.767384
503.261	1.76792
506.636	2.77062
510.01	3.43708
513.385	4.30161
516.76	6.88858
520.135	4.82185
523.51	5.12467
526.885	6.40496
530.259	4.87268
533.634	2.48805
537.009	1.76222
540.384	1.81996
543.759	0.758402
547.134	2.3527
550.508	5.46348
553.883	3.43108
557.258	2.74566
560.633	4.53304
564.008	2.95044
567.382	4.83805
570.757	4.20893
574.132	3.22107
577.507	2.27038
580.882	1.51289
584.256	2.13231
587.631	2.07746
591.006	1.27256
594.381	1.85563
597.756	0.473227
601.131	0.314461
604.505	0.178677
607.88	0.507235
611.255	1.42998
614.63	0.057383
618.005	2.08001
621.38	0.239016
624.754	1.33278
628.129	1.83845
631.504	0.429489
634.879	0.169552
638.254	1.69535
641.628	2.19415
645.003	2.8414
648.378	2.12616
651.753	2.0932
655.128	3.4296
658.503	2.70944
661.877	1.96916
665.252	2.7538
668.627	3.72069
672.002	2.95109
675.377	3.38003
678.751	2.57709
682.126	3.45665
685.501	1.26998
688.876	1.95776
692.251	2.59176
695.625	2.2
699	1.92043
702.375	0.997341
705.75	1.40971
709.125	3.12844
712.5	1.90471
715.874	2.55012
719.249	1.01368
722.624	1.32674
725.999	2.25967
729.374	2.63345
732.749	0.902548
736.123	0.453568
739.498	1.06978
742.873	0.517714
746.248	0.552702
749.623	0.495699
752.997	2.00811
756.372	1.77608
759.747	0.189796
763.122	1.43425
766.497	1.50117
769.871	1.68604
773.246	0.685034
776.621	2.2703
779.996	0.540745
783.371	3.17986
786.745	2.02639
790.12	3.79649
793.495	6.34916
796.87	13.2011
800.245	20.6221
803.62	34.0733
806.994	50.7863
810.369	71.6751
813.744	96.2575
817.119	103.581
820.494	88.9501
823.869	76.4411
827.243	66.1879
830.618	62.6118
833.993	71.0769
837.368	77.7036
840.743	90.0936
844.117	96.868
847.492	92.845
850.867	73.9651
854.242	55.9401
857.617	37.4159
860.991	25.3927
864.366	16.439
867.741	9.70812
871.116	6.21343
874.491	5.04185
877.866	1.89151
881.24	0.738747
884.615	0.183302
887.99	0.180887
891.365	1.35951
894.74	1.30898
898.115	2.51148
901.489	5.21846
904.864	7.57881
908.239	8.34168
911.614	8.15666
914.989	4.61568
918.363	3.35243
921.738	3.92604
925.113	1.92243
928.488	2.56605
931.863	3.7374
935.237	1.74779
938.612	4.50609
941.987	4.76107
945.362	0.959898
948.737	2.86826
952.112	2.06316
955.486	1.21375
958.861	0.677238
962.236	0.740671
965.611	0.092619
968.986	0.106802
972.361	0.508585
975.735	1.12007
979.11	2.89895
982.485	0.471685
985.86	1.08206
989.235	1.39239
992.609	0.130568
995.984	2.3637
999.359	2.60346
1002.73	2.81411
1006.11	3.17743
1009.48	2.39897
1012.86	3.09282
1016.23	3.17149
1019.61	2.71715
1022.98	1.98454
1026.36	2.63815
1029.73	3.5462
1033.11	2.52515
1036.48	1.40855
1039.86	2.06625
1043.23	2.7879
1046.61	2.70103
1049.98	1.56244
1053.36	2.56077
1056.73	1.50624
1060.11	0.245467
1063.48	1.33289
1066.86	0.818034
1070.23	1.41684
1073.61	1.77139
1076.98	1.06094
1080.36	2.06196
1083.73	1.66017
1087.1	0.029375
1090.48	1.53916
1093.85	0.863994
1097.23	3.13761
1100.6	2.22502
1103.98	0.90974
1107.35	0.247866
1110.73	1.44708
1114.1	1.35379
1117.48	0.311206
1120.85	2.92139
1124.23	2.37386
1127.6	1.0877
1130.98	1.30343
1134.35	1.64367
1137.73	0.875764
1141.1	0.648652
1144.48	0.354907
1147.85	0.142809
1151.23	1.33129
1154.6	1.55357
1157.97	1.6191
1161.35	2.12824
1164.72	1.52764
1168.1	2.79897
1171.47	1.56323
1174.85	1.89304
1178.22	1.66968
1181.6	2.73323
1184.97	1.3311
1188.35	1.65206
1191.72	2.15507
1195.1	3.43523
1198.47	2.89498
1201.85	1.9706
1205.22	1.33756
1208.6	1.5252
1211.97	1.33589
1215.35	0.794107
1218.72	3.40927
1222.1	2.01052
1225.47	1.10344
1228.85	0.150479
1232.22	0.672759
1235.6	0.418389
1238.97	2.90471
1242.35	0.277377
1245.72	2.97578
1249.1	0.837353
1252.47	2.16856
1255.85	1.76523
1259.22	2.38635
1262.6	2.59172
1265.97	2.15968
1269.34	2.72721
1272.72	0.984639
1276.09	1.52265
1279.47	2.28532
1282.84	0.196401
