Measurement: Raman, 780 nm, unoriented, Raman Data Processed
Mineral: Fayalite
Rruff sample: R100103
Ideal chemistry: Fe^2+^_2_SiO_4_
Locality: Franklin, Sussex County, New Jersey, USA
Source: American Museum of Natural History
Description: Dark brown fragment
Measured chemistry: (Fe^+2^_1.908_Mg_0.046_Zn_0.028_Ca_0.009_Mn^+2^_0.006_Ni_0.001_Al_0.001_)_Î£=1.999_Si_1.000_O_4_
Raman shift (cm-1)	intensity
152.28	0
155.173	2.28497
158.065	3.48159
160.958	0.949318
163.851	0.199478
166.743	3.65294
169.636	3.25349
172.529	4.16048
175.422	4.63569
178.314	2.59555
181.207	1.03556
184.1	0.022179
186.992	0.70853
189.885	1.42167
192.778	0.350517
195.67	3.17839
198.563	3.12304
201.456	1.14212
204.349	0.611401
207.241	1.19482
210.134	0.740864
213.027	0.01598
215.919	2.40032
218.812	0.563004
221.705	0.451603
224.597	4.84245
227.49	2.95273
230.383	4.06025
233.275	6.2023
236.168	2.7812
239.061	5.6471
241.954	2.93991
244.846	4.48233
247.739	4.58275
250.632	4.8951
253.524	4.09364
256.417	2.96415
259.31	1.17718
262.202	5.23039
265.095	5.82877
267.988	4.26757
270.881	5.41765
273.773	6.82026
276.666	8.76799
279.559	10.3096
282.451	9.58945
285.344	10.3635
288.237	10.8039
291.13	10.7242
294.022	8.46643
296.915	6.35478
299.808	6.42402
302.7	6.9075
305.593	7.46244
308.486	6.97809
311.378	6.0801
314.271	3.8526
317.164	4.27469
320.057	2.72421
322.949	1.8614
325.842	2.19295
328.735	0.140785
331.627	1.03172
334.52	1.27032
337.413	0.861465
340.305	0.953163
343.198	0.349504
346.091	0.516813
348.984	3.3214
351.876	1.55854
354.769	1.99136
357.662	2.72629
360.554	3.14068
363.447	5.0641
366.34	5.63967
369.233	4.38928
372.125	5.81831
375.018	5.0797
377.911	4.59058
380.803	6.19575
383.696	5.33702
386.589	4.55435
389.481	4.22026
392.374	5.96516
395.267	4.0913
398.159	3.18717
401.052	3.13466
403.945	2.8733
406.838	3.06038
409.73	0.213331
412.623	1.55162
415.516	2.49757
418.408	1.19269
421.301	1.12674
424.194	0.964903
427.087	0.621937
429.979	0.760506
432.872	2.40447
435.765	0.459597
438.657	1.93549
441.55	1.23108
444.443	0.119856
447.335	0.829033
450.228	1.33285
453.121	0.74556
456.014	3.21127
458.906	1.97132
461.799	1.17015
464.692	0.464882
467.584	0.394241
470.477	2.33625
473.37	0.658121
476.262	3.62481
479.155	1.66672
482.048	1.25735
484.94	2.65483
487.833	2.55433
490.726	2.41916
493.619	2.76636
496.511	2.20394
499.404	2.77358
502.297	2.90481
505.189	1.67182
508.082	3.89998
510.975	2.21776
513.867	2.71206
516.76	3.79153
519.653	0.721239
522.545	2.20839
525.438	1.05326
528.331	2.97264
531.224	1.6114
534.116	1.25101
537.009	4.23425
539.902	3.35258
542.794	3.54306
545.687	0.92103
548.58	2.64468
551.472	4.94585
554.365	2.55184
557.258	3.30131
560.151	4.6796
563.043	3.98195
565.936	4.88777
568.829	2.68971
571.721	3.5966
574.614	0.924149
577.507	2.15374
580.399	2.08429
583.292	2.04482
586.185	0.218405
589.078	2.02969
591.97	0.380686
594.863	2.05422
597.756	0.204046
600.649	1.16732
603.541	0.655546
606.434	0.535885
609.327	1.56193
612.219	0.403929
615.112	0.781996
618.005	0.732086
620.897	1.38681
623.79	2.59604
626.683	1.86268
629.576	1.06494
632.468	2.38509
635.361	3.07847
638.254	2.45575
641.146	1.71795
644.039	1.56473
646.932	0.410824
649.824	1.16984
652.717	1.25887
655.61	2.30025
658.503	4.148
661.395	1.51371
664.288	2.13623
667.181	2.63251
670.073	3.09562
672.966	2.47276
675.859	2.49242
678.751	0.774643
681.644	2.0099
684.537	0.907887
687.429	1.51477
690.322	0.267141
693.215	1.21205
696.108	0.135204
699	1.9439
701.893	1.46032
704.786	3.55379
707.678	0.928343
710.571	1.74336
713.464	0.368965
716.356	1.15765
719.249	2.9484
722.142	0.510414
725.035	3.76466
727.927	0.985868
730.82	0.967539
733.713	1.52618
736.605	1.06796
739.498	2.17307
742.391	1.33724
745.284	0.646416
748.176	0.537266
751.069	0.654636
753.962	1.61514
756.854	0.321995
759.747	1.51054
762.64	0.824707
765.532	0.188345
768.425	0.330862
771.318	2.43385
774.211	1.08425
777.103	1.80402
779.996	0.677254
782.889	1.33379
785.781	0.190269
788.674	2.82734
791.567	2.90168
794.459	4.4882
797.352	9.11071
800.245	12.746
803.138	17.6902
806.03	21.6294
808.923	30.0878
811.816	30.5796
814.708	30.0171
817.601	26.8623
820.494	22.7427
823.386	24.7726
826.279	22.6667
829.172	24.1887
832.064	24.1153
834.957	24.3191
837.85	24.2168
840.743	21.4952
843.635	23.2642
846.528	16.9985
849.421	16.4985
852.313	10.5824
855.206	9.54154
858.099	5.25301
860.991	6.43249
863.884	3.96867
866.777	0.847595
869.67	2.17685
872.562	0.136822
875.455	3.12867
878.348	0.608698
881.24	1.07073
884.133	1.99383
887.026	3.02015
889.918	1.01417
892.811	3.52088
895.704	2.27914
898.597	1.70321
901.489	2.45073
904.382	3.76077
907.275	0.43383
910.167	0.709793
913.06	0.053041
915.953	0.227636
918.846	0.054068
921.738	0.569746
924.631	0.252012
927.524	0.332626
930.416	0.980598
933.309	1.30035
936.202	1.06378
939.094	0.382446
941.987	1.07721
944.88	0.256462
947.773	0.912039
950.665	0.956497
953.558	0.758852
956.451	0.038248
959.343	2.07361
962.236	1.70627
965.129	0.85659
968.021	2.3796
970.914	1.85482
973.807	0.659731
976.699	1.67761
979.592	2.69454
982.485	2.26772
985.378	1.67979
988.27	1.47092
991.163	1.52512
994.056	0.647459
996.948	1.58384
999.841	2.56914
1002.73	0.244947
1005.63	2.0874
1008.52	1.92154
1011.41	3.11006
1014.3	1.0395
1017.2	4.46127
1020.09	0.368406
1022.98	2.41929
1025.88	2.76061
1028.77	2.18033
1031.66	1.82569
1034.55	3.20174
1037.45	1.89648
1040.34	0.38035
1043.23	1.07452
1046.12	0.865471
1049.02	2.73211
1051.91	3.92138
1054.8	0.822342
1057.69	2.2227
1060.59	2.27992
1063.48	1.35276
1066.37	0.321409
1069.27	1.29391
1072.16	0.598274
1075.05	1.05715
1077.94	0.109007
1080.84	2.66572
1083.73	0.169716
1086.62	1.83508
1089.52	2.51173
1092.41	1.19018
1095.3	1.36068
1098.19	0.583744
1101.09	1.16972
1103.98	0.392273
1106.87	0.151308
1109.76	1.7049
1112.66	0.404236
1115.55	2.63586
1118.44	1.66555
1121.34	1.38977
1124.23	1.66865
1127.12	0.152849
1130.01	1.42922
1132.9	1.76126
1135.8	1.74943
1138.69	0.943413
1141.58	0.683558
1144.48	1.03219
1147.37	1.84877
1150.26	2.29458
1153.15	0.232504
1156.05	3.23918
1158.94	1.34999
1161.83	1.37487
1164.72	2.61494
1167.62	2.28342
1170.51	0.44034
1173.4	0.783596
1176.3	1.59009
1179.19	4.11486
1182.08	1.88134
1184.97	2.75879
1187.87	3.04485
1190.76	2.18716
1193.65	1.004
1196.55	1.32186
1199.44	3.44124
1202.33	0.609428
1205.22	0.406115
1208.12	1.04186
1211.01	1.09011
1213.9	0.371241
1216.79	1.80162
1219.69	2.86508
1222.58	1.4476
1225.47	1.20118
1228.37	2.04329
1231.26	2.02333
1234.15	0.939369
1237.04	3.59208
1239.93	1.72561
1242.83	2.0214
1245.72	1.32647
1248.61	0.432201
1251.51	1.80417
1254.4	1.71777
1257.29	1.62335
1260.18	2.52133
1263.08	1.08323
1265.97	0.576653
1268.86	2.68921
1271.76	1.37934
1274.65	0.786293
1277.54	3.83257
1280.43	0.340149
1283.33	0.833876
