Measurement: Raman, 785 nm, unoriented, Raman Data Processed
Mineral: Fedotovite
Rruff sample: R070470
Ideal chemistry: K_2_Cu^2+^_3_O(S^6+^O_4_)_3_
Locality: Great Fissure (Main Fracture) eruption, Tolbachik volcano,  Kamchatka Oblast', Far-Eastern Region, Russia
Source: Michael Scott
Description: Emerald-green prismatic crystals
Raman shift (cm-1)	intensity
157.558	0
160.451	23.9835
163.344	70.5923
166.236	90.9923
169.129	23.6715
172.022	111.827
174.914	56.9928
177.807	56.776
180.7	25.5294
183.592	10.8965
186.485	17.7502
189.378	0.046631
192.27	57.1989
195.163	26.6837
198.056	53.2048
200.949	42.6705
203.841	56.4513
206.734	77.0567
209.627	102.193
212.519	136.752
215.412	146.925
218.305	170.556
221.197	168.79
224.09	167.54
226.983	146.141
229.876	139.508
232.768	92.6859
235.661	96.0224
238.554	61.0037
241.446	33.3599
244.339	31.4723
247.232	15.3769
250.125	5.92572
253.017	6.4845
255.91	1.34259
258.803	7.19202
261.695	6.42999
264.588	19.1168
267.481	13.8957
270.373	16.028
273.266	26.0068
276.159	8.37256
279.051	40.1253
281.944	47.9749
284.837	53.6281
287.73	36.236
290.622	63.6417
293.515	22.7767
296.408	65.507
299.3	28.1991
302.193	46.0817
305.086	53.6335
307.978	41.7197
310.871	28.4896
313.764	24.5607
316.657	26.2886
319.549	15.7328
322.442	44.4558
325.335	6.19189
328.227	24.1263
331.12	21.355
334.013	22.3696
336.906	24.5228
339.798	10.0159
342.691	19.4108
345.584	14.987
348.476	19.7128
351.369	2.35809
354.262	6.11438
357.154	1.71765
360.047	28.211
362.94	4.64441
365.832	18.059
368.725	6.67358
371.618	26.8732
374.511	13.6634
377.403	4.53693
380.296	16.8483
383.189	34.9697
386.081	21.9879
388.974	9.86749
391.867	20.3248
394.76	5.28967
397.652	14.1422
400.545	13.1741
403.438	18.1448
406.33	24.9483
409.223	4.69159
412.116	36.5926
415.008	2.89685
417.901	22.9121
420.794	45.4382
423.687	59.0701
426.579	68.7569
429.472	61.7504
432.365	74.6642
435.257	87.588
438.15	129.298
441.043	118.326
443.935	107.532
446.828	51.536
449.721	43.9183
452.613	15.9477
455.506	46.0375
458.399	14.8733
461.292	7.0119
464.184	11.6105
467.077	22.9192
469.97	0.9245
472.862	2.37915
475.755	13.6582
478.648	6.94879
481.541	32.3031
484.433	17.431
487.326	35.7191
490.219	57.7212
493.111	58.3129
496.004	49.4081
498.897	35.4835
501.789	8.64398
504.682	31.2098
507.575	49.8658
510.467	56.1182
513.36	69.5924
516.253	65.0626
519.146	65.5004
522.038	57.8984
524.931	68.7333
527.824	32.3458
530.716	36.3115
533.609	35.663
536.502	19.0333
539.394	19.1132
542.287	7.99341
545.18	6.65057
548.073	6.04407
550.965	2.60986
553.858	3.54541
556.751	20.0604
559.643	0.324951
562.536	16.2262
565.429	28.3211
568.322	2.37195
571.214	14.0533
574.107	19.0519
577	33.116
579.892	14.3206
582.785	15.8988
585.678	19.4038
588.57	27.2001
591.463	39.3867
594.356	47.8168
597.249	43.479
600.141	75.7695
603.034	116.552
605.927	108.666
608.819	112.279
611.712	89.4111
614.605	60.4636
617.497	79.8857
620.39	70.4053
623.283	60.6678
626.176	18.4202
629.068	45.6535
631.961	62.7801
634.854	12.5949
637.746	24.6007
640.639	12.5521
643.532	13.7559
646.424	32.181
649.317	9.276
652.21	41.5075
655.102	61.3469
657.995	54.1063
660.888	77.0559
663.781	77.7272
666.673	77.5924
669.566	61.1624
672.459	36.348
675.351	29.7775
678.244	13.0788
681.137	16.468
684.029	16.4477
686.922	32.329
689.815	10.3416
692.708	0.691711
695.6	0.355408
698.493	18.1579
701.386	0.851501
704.278	7.52905
707.171	17.3458
710.064	6.83844
712.957	6.56781
715.849	26.8132
718.742	10.5442
721.635	17.4557
724.527	0.043762
727.42	10.3682
730.313	15.288
733.205	17.2987
736.098	29.5626
738.991	18.2565
741.884	26.0211
744.776	14.8428
747.669	28.2861
750.562	16.4771
753.454	12.3143
756.347	16.904
759.24	20.2689
762.132	22.2513
765.025	13.8864
767.918	29.656
770.811	22.1953
773.703	18.2658
776.596	1.30151
779.489	21.0895
782.381	25.9996
785.274	46.2681
788.167	28.7676
791.059	12.985
793.952	23.0599
796.845	9.44281
799.737	20.6392
802.63	4.00769
805.523	25.403
808.416	26.2289
811.308	13.697
814.201	31.7155
817.094	15.4698
819.986	27.8029
822.879	15.0817
825.772	29.6091
828.664	30.467
831.557	19.4203
834.45	14.6808
837.342	0.993774
840.235	9.58874
843.128	33.852
846.021	18.7602
848.913	24.8752
851.806	24.5981
854.699	0.822632
857.591	25.2669
860.484	21.2655
863.377	13.5288
866.269	30.5873
869.162	36.5623
872.055	3.94916
874.948	36.8351
877.84	1.94885
880.733	2.5567
883.626	26.1655
886.518	2.2807
889.411	23.5392
892.304	9.69946
895.197	8.06146
898.089	18.0983
900.982	11.7705
903.875	10.6423
906.767	3.47199
909.66	1.53412
912.553	23.4807
915.445	0.09729
918.338	9.07147
921.231	10.465
924.124	24.4191
927.016	2.22626
929.909	13.4653
932.802	18.7018
935.694	20.6862
938.587	18.3896
941.48	14.349
944.372	4.06604
947.265	17.6331
950.158	18.1034
953.051	3.32025
955.943	6.61963
958.836	23.0476
961.729	9.02966
964.621	15.2719
967.514	28.2066
970.407	43.7258
973.299	40.1285
976.192	91.4756
979.085	85.2092
981.977	113.556
984.87	144.529
987.763	198.569
990.656	226.864
993.548	287.196
996.441	326.528
999.334	405.143
1002.23	384.118
1005.12	313.742
1008.01	245.02
1010.9	158.481
1013.8	103.052
1016.69	77.8218
1019.58	51.9344
1022.48	54.3597
1025.37	62.0369
1028.26	41.6489
1031.15	52.6603
1034.05	46.0548
1036.94	33.2252
1039.83	42.4365
1042.72	53.6458
1045.62	70.658
1048.51	61.7851
1051.4	86.916
1054.3	93.8146
1057.19	48.7764
1060.08	55.1857
1062.97	21.7737
1065.87	22.8394
1068.76	34.7679
1071.65	2.94226
1074.54	4.06134
1077.44	30.9938
1080.33	34.7598
1083.22	13.1437
1086.12	8.97333
1089.01	28.0774
1091.9	29.2562
1094.79	5.46149
1097.69	27.2238
1100.58	29.9678
1103.47	14.6378
1106.36	17.9312
1109.26	11.6868
1112.15	38.1272
1115.04	21.7593
1117.93	58.939
1120.83	12.8119
1123.72	34.889
1126.61	22.3534
1129.51	12.1256
1132.4	40.4634
1135.29	13.9838
1138.18	11.4009
1141.08	18.9529
1143.97	17.4439
1146.86	21.8051
1149.75	22.5488
1152.65	18.6876
1155.54	4.34619
1158.43	9.92975
1161.33	25.7847
1164.22	4.68133
1167.11	10.1796
1170	19.9123
1172.9	13.458
1175.79	2.7984
1178.68	0.082031
1181.57	18.2078
1184.47	33.9389
1187.36	18.7411
1190.25	12.6466
1193.14	3.87195
1196.04	20.6678
1198.93	1.58527
1201.82	21.3861
1204.71	33.2704
1207.61	30.4031
1210.5	41.7747
1213.39	45.2467
1216.29	37.6315
1219.18	21.5482
1222.07	34.1885
1224.96	34.1556
1227.86	20.6837
1230.75	44.2746
1233.64	47.6958
1236.54	46.4543
1239.43	53.5519
1242.32	70.4238
1245.21	76.5714
1248.11	33.5369
1251	34.639
1253.89	40.0566
1256.78	20.7304
1259.68	30.9715
1262.57	36.582
1265.46	4.44946
1268.36	2.27631
