Measurement: Raman, 532 nm, unoriented, Raman Data Processed
Mineral: Felsobanyaite
Rruff sample: R060565
Ideal chemistry: Al_4_(S^6+^O_4_)(OH)_10_4H_2_O
Locality: near Weymouth, Dorset, England
Source: Michael Scott
Description: White consolidated powder
Raman shift (cm-1)	intensity
156.576	0
159.468	9.26318
162.361	30.1499
165.254	25.4131
168.147	31.1943
171.039	64.1763
173.932	83.8232
176.825	85.208
179.717	80.7314
182.61	75.5947
185.503	98.9707
188.395	88.7549
191.288	101.077
194.181	80.2974
197.073	61.144
199.966	50.042
202.859	36.167
205.752	17.4346
208.644	9.28027
211.537	7.86719
214.43	11.002
217.322	21.3423
220.215	44.0977
223.108	69.8042
226	72.0186
228.893	44.1343
231.786	10.2466
234.679	18.9951
237.571	25.0117
240.464	26.1352
243.357	4.77734
246.249	9.39502
249.142	4.24854
252.035	19.9385
254.928	39.9219
257.82	27.1851
260.713	35.2754
263.606	35.398
266.498	51.5356
269.391	77.7398
272.284	71.5625
275.176	81.0928
278.069	77.105
280.962	98.71
283.854	98.4771
286.747	105.12
289.64	132.867
292.533	140.3
295.425	118.058
298.318	101.434
301.211	79.2129
304.103	88.9971
306.996	106.85
309.889	125.137
312.781	101.313
315.674	82.9966
318.567	75.6167
321.46	27.8154
324.352	18.5923
327.245	53.8696
330.138	56.9565
333.03	38.167
335.923	30.3115
338.816	21.3516
341.709	5.06885
344.601	2.65088
347.494	7.146
350.387	21.4033
353.279	15.481
356.172	30.0049
359.065	14.1396
361.957	10.7412
364.85	20.9023
367.743	3.71191
370.635	0.114258
373.528	30.3594
376.421	31.1064
379.314	46.6787
382.206	41.209
385.099	58.3252
387.992	69.2383
390.884	57.3799
393.777	61.0674
396.67	37.5283
399.562	16.5293
402.455	14.6602
405.348	12.8191
408.241	13.124
411.133	35.5147
414.026	59.0078
416.919	41.2022
419.811	46.0527
422.704	64.3662
425.597	72.418
428.49	100.306
431.382	138.432
434.275	157.942
437.168	177.709
440.06	215.528
442.953	267.347
445.846	290.275
448.738	318.237
451.631	325.315
454.524	301.192
457.416	260.034
460.309	220.539
463.202	177.667
466.095	146.79
468.987	87.1982
471.88	52.6035
474.773	39.0664
477.665	17.7871
480.558	10.1221
483.451	9.27246
486.344	8.30859
489.236	5.4707
492.129	11.4815
495.022	24.3379
497.914	22.5
500.807	48.4307
503.7	74.0791
506.592	82.8828
509.485	80.3379
512.378	48.085
515.27	12.2803
518.163	11.0791
521.056	1.36035
523.949	4.80273
526.841	9.54234
529.734	5.49219
532.627	2.51601
535.519	4.11426
538.412	12.3154
541.305	25.2471
544.197	50.8008
547.09	25.7744
549.983	57.125
552.876	29.0059
555.768	26.9736
558.661	33.6367
561.554	56.0967
564.446	53.8076
567.339	70.1777
570.232	78.3408
573.125	120.458
576.017	131.941
578.91	145.69
581.803	174.455
584.695	194.751
587.588	238.029
590.481	232.999
593.373	255.102
596.266	254.625
599.159	249.209
602.052	262.471
604.944	268.736
607.837	263.527
610.73	266.738
613.622	235.373
616.515	183.111
619.408	121.714
622.3	84.6953
625.193	58.5137
628.086	72.0166
630.979	67.9795
633.871	44.4307
636.764	60.5244
639.657	67.5693
642.549	61.6055
645.442	39.624
648.335	24.2598
651.227	18.9766
654.12	39.7227
657.013	26.0205
659.905	39.8799
662.798	11.7715
665.691	17.1885
668.584	0.475586
671.476	12.6484
674.369	1.94531
677.262	12.1699
680.154	1.11816
683.047	28.7529
685.94	23.3516
688.832	21.0195
691.725	22.5547
694.618	11.9381
697.511	8.04199
700.403	0.305664
703.296	12.9863
706.189	11.8359
709.081	45.0049
711.974	53.2822
714.867	41.126
717.76	26.9053
720.652	30.9414
723.545	22.0303
726.438	20.5957
729.33	47.6777
732.223	14.6748
735.116	26.5127
738.008	21.4971
740.901	32.2275
743.794	35.6738
746.687	18.501
749.579	6.64844
752.472	17.0555
755.365	11.2178
758.257	15.3613
761.15	35.752
764.043	36.1934
766.935	39.7422
769.828	15.4512
772.721	33.5713
775.614	66.4053
778.506	64.3066
781.399	82.082
784.292	70.2842
787.184	48.6484
790.077	28.5693
792.97	40.1309
795.862	65.7432
798.755	41.4248
801.648	46.334
804.54	44.9004
807.433	52.6787
810.326	54.8076
813.219	23.2373
816.111	37.2217
819.004	31.9971
821.897	38.1406
824.789	19.5039
827.682	6.76074
830.575	9.83496
833.467	35.7959
836.36	57.6152
839.253	38.9385
842.146	71.6074
845.038	46.21
847.931	26.7139
850.824	18.2871
853.716	41.9658
856.609	54.5996
859.502	49.0254
862.394	44.0557
865.287	37.0586
868.18	24.5811
871.073	16.9834
873.965	11.5244
876.858	21.6426
879.751	14.5703
882.643	21.0898
885.536	1.44531
888.429	6.54297
891.322	4.14453
894.214	5.89844
897.107	10.582
900	10.1882
902.892	19.6357
905.785	42.9541
908.678	37.4287
911.57	26.998
914.463	23.5117
917.356	26.7783
920.249	48.9746
923.141	55.5117
926.034	46.3037
928.927	48.6504
931.819	38.5381
934.712	50.5557
937.605	26.5039
940.497	42.7422
943.39	70.7764
946.283	110.37
949.176	122.209
952.068	209.47
954.961	277.961
957.854	342.31
960.746	396.72
963.639	431.424
966.532	484.587
969.424	603.574
972.317	789.754
975.21	1088.75
978.102	1650.89
980.995	2097.78
983.888	1402.58
986.781	592.562
989.673	259.737
992.566	137.66
995.459	107.748
998.351	72.499
1001.24	67.8164
1004.14	40.3945
1007.03	48.833
1009.92	68.2305
1012.82	68.2432
1015.71	51.7793
1018.6	59.0478
1021.49	107.887
1024.39	109.936
1027.28	96.6894
1030.17	53.0371
1033.06	26.1338
1035.96	42.2959
1038.85	24.3271
1041.74	26.8301
1044.63	55.4932
1047.53	29.7646
1050.42	0.208008
1053.31	24.2529
1056.2	7.21875
1059.1	3.49994
1061.99	9.30664
1064.88	34.9492
1067.78	2.88477
1070.67	23.1826
1073.56	8.56152
1076.45	51.3027
1079.35	32.2793
1082.24	36.0918
1085.13	21.2314
1088.03	10.1123
1090.92	4.64063
1093.81	18.2236
1096.7	52.8535
1099.6	92.1055
1102.49	143.238
1105.38	104.392
1108.27	53.8574
1111.17	47.3086
1114.06	50.3125
1116.95	74.6367
1119.85	80.3242
1122.74	79.4297
1125.63	66.5566
1128.52	110.799
1131.42	108.838
1134.31	121.097
1137.2	135.443
1140.09	92.0098
1142.99	71.0205
1145.88	32.3857
1148.77	39.0703
1151.66	28.5566
1154.56	50.1416
1157.45	41.4102
1160.34	6.89648
1163.23	39.0488
1166.13	36.1797
1169.02	38.541
1171.91	27.6738
1174.81	31.9336
1177.7	61.2012
1180.59	48.7168
1183.48	15.1934
1186.38	1.51367
1189.27	39.2031
1192.16	25.2129
1195.06	14.5449
1197.95	37.5488
1200.84	58.8652
1203.73	20.7148
1206.63	12.7168
1209.52	7.23828
1212.41	35.5156
1215.3	75.4746
1218.2	56.1074
1221.09	66.5
1223.98	50.832
1226.88	39.4512
1229.77	6.6875
1232.66	24.8203
1235.55	5.25977
1238.44	18.3867
1241.34	22.3047
1244.23	26.3711
1247.12	40.6914
1250.02	46.4258
1252.91	39.5
1255.8	17.4688
1258.69	37.8652
1261.59	32.2246
1264.48	31.0449
1267.37	29.1523
1270.27	52.6973
1273.16	34.6973
1276.05	71.3516
1278.94	82.4336
1281.84	53.5547
1284.73	40.5254
1287.62	63.1367
1290.51	46.5195
1293.41	34.9062
1296.3	25.8535
1299.19	45.7305
1302.09	5.10742
