Measurement: Raman, 532 nm, unoriented, Raman Data Processed
Mineral: Fencooperite
Rruff sample: R061032
Ideal chemistry: Ba_6_Fe^3+^_3_Si_8_O_23_(CO_3_)_2_Cl_3_H_2_O
Locality: Trumbull Peak, Mariposa County, California, USA
Source: Michael Scott
Description: Dark gray massive embedded in quartz with reddish-orange halo around the grains
Raman shift (cm-1)	intensity
135.504	0
138.397	4.50476
141.29	35.3406
144.183	74.3125
147.075	159.961
149.968	151.387
152.861	150.684
155.753	139.414
158.646	67.0424
161.539	62.3204
164.431	64.6481
167.324	19.3123
170.217	27.8697
173.109	49.03
176.002	6.14087
178.895	24.0309
181.788	2.09131
184.68	3.89954
187.573	11.6194
190.466	0.418701
193.358	0.261108
196.251	9.05054
199.144	5.91382
202.036	42.9379
204.929	38.2849
207.822	51.5016
210.714	88.5421
213.607	98.6892
216.5	74.8599
219.393	124.139
222.285	72.4571
225.178	80.6267
228.071	33.9303
230.963	25.6679
233.856	78.6559
236.749	42.007
239.642	85.9618
242.534	68.2784
245.427	79.5416
248.32	53.7079
251.212	44.0133
254.105	3.57239
256.998	10.4523
259.89	13.4641
262.783	15.0469
265.676	2.71924
268.568	0.294067
271.461	5.0957
274.354	19.6526
277.247	36.7091
280.139	0.622192
283.032	12.1853
285.925	19.2799
288.817	78.6984
291.71	106.195
294.603	130.209
297.495	171.43
300.388	143.464
303.281	125.156
306.174	144.026
309.066	157.122
311.959	167.701
314.852	227.75
317.744	290.058
320.637	264.244
323.53	247.452
326.422	162.485
329.315	93.6281
332.208	101.845
335.101	17.5658
337.993	76.4232
340.886	29.4342
343.779	19.4841
346.671	13.7915
349.564	26.3157
352.457	29.3204
355.349	64.3092
358.242	28.1632
361.135	78.3384
364.027	85.7583
366.92	164.006
369.813	165.642
372.706	248.479
375.598	273.743
378.491	391.577
381.384	408.796
384.276	494.16
387.169	493.755
390.062	467.515
392.954	469.993
395.847	415.471
398.74	352.545
401.633	267.074
404.525	240.766
407.418	174.245
410.311	186.948
413.203	186.602
416.096	175.982
418.989	112.844
421.881	62.2887
424.774	11.872
427.667	27.8449
430.56	2.58643
433.452	9.1571
436.345	14.2699
439.238	14.0297
442.13	8.59546
445.023	28.5178
447.916	63.3602
450.808	79.5144
453.701	95.3376
456.594	87.0244
459.486	90.3226
462.379	79.6767
465.272	103.813
468.165	115.257
471.057	137.431
473.95	94.007
476.843	76.7247
479.735	50.6291
482.628	67.8861
485.521	88.1668
488.413	56.0288
491.306	25.4786
494.199	18.0511
497.092	9.43359
499.984	4.89807
502.877	20.9094
505.77	32.9036
508.662	30.0871
511.555	18.3222
514.448	31.8635
517.341	40.7289
520.233	74.2756
523.126	71.4951
526.019	66.5692
528.911	85.8002
531.804	83.4841
534.697	153.264
537.589	174.143
540.482	223.393
543.375	251.796
546.268	253.953
549.16	245.658
552.053	174.95
554.946	145.996
557.838	117.104
560.731	103.215
563.624	54.2974
566.516	50.6953
569.409	41.695
572.302	12.8101
575.194	4.73273
578.087	38.9918
580.98	3.81256
583.872	5.66602
586.765	10.3534
589.658	6.18945
592.551	7.81824
595.443	7.55987
598.336	6.52454
601.229	10.8251
604.121	22.071
607.014	26.1029
609.907	33.9194
612.799	76.2292
615.692	55.3171
618.585	87.8423
621.477	62.9764
624.37	79.7845
627.263	52.2938
630.156	73.4327
633.048	45.211
635.941	65.4226
638.834	31.4428
641.726	49.6075
644.619	31.2587
647.512	75.4959
650.404	43.7196
653.297	62.1215
656.19	44.4733
659.083	58.1558
661.975	61.3156
664.868	42.4945
667.761	75.5393
670.653	122.081
673.546	87.6953
676.439	71.2734
679.332	105.931
682.224	123.885
685.117	135.961
688.01	116.605
690.902	144.487
693.795	95.8067
696.688	103.992
699.58	45.1637
702.473	49.0649
705.366	44.9251
708.259	54.8497
711.151	22.8414
714.044	21.2277
716.937	14.833
719.829	6.37201
722.722	13.1712
725.615	33.1004
728.507	18.6502
731.4	16.4663
734.293	29.4338
737.185	25.3239
740.078	38.3621
742.971	5.38532
745.864	8.2749
748.756	13.2545
751.649	10.8619
754.542	13.3959
757.434	18.0911
760.327	23.6573
763.22	13.4253
766.112	9.93683
769.005	20.1893
771.898	9.5567
774.79	14.4491
777.683	42.1982
780.576	40.148
783.469	40.1112
786.361	28.9308
789.254	23.3487
792.147	20.4645
795.039	15.4835
797.932	22.796
800.825	41.9559
803.717	30.8693
806.61	45.2225
809.503	39.7921
812.396	50.2108
815.288	70.0823
818.181	42.0566
821.074	46.4579
823.966	62.974
826.859	65.8876
829.752	54.6367
832.644	79.6703
835.537	65.8441
838.43	62.9973
841.323	43.1308
844.215	48.3068
847.108	57.1516
850.001	61.7997
852.893	59.7178
855.786	49.3908
858.679	12.4417
861.571	24.3322
864.464	15.5253
867.357	51.9535
870.25	32.697
873.142	10.529
876.035	7.18011
878.928	41.6779
881.82	22.2436
884.713	4.73962
887.606	39.6258
890.498	49.5297
893.391	36.3043
896.284	36.3033
899.177	13.3922
902.069	34.3761
904.962	27.0414
907.855	42.0414
910.747	28.4922
913.64	53.5173
916.533	27.3649
919.425	50.3888
922.318	15.6106
925.211	15.331
928.104	3.38837
930.996	8.47699
933.889	15.4159
936.782	9.17871
939.674	28.8758
942.567	22.3046
945.46	18.2534
948.352	29.9098
951.245	20.0949
954.138	17.6628
957.03	19.3682
959.923	8.79932
962.816	4.68298
965.709	27.5673
968.601	54.4749
971.494	26.577
974.387	117.524
977.279	144.98
980.172	224.519
983.065	307.267
985.957	386.575
988.85	337.409
991.743	267.818
994.635	152.413
997.528	91.6836
1000.42	48.2002
1003.31	59.9602
1006.21	51.2318
1009.1	19.209
1011.99	28.6792
1014.88	49.5128
1017.78	5.23401
1020.67	21.2028
1023.56	27.3214
1026.45	9.29211
1029.35	6.29504
1032.24	6.04541
1035.13	8.31372
1038.03	4.60242
1040.92	12.5559
1043.81	16.3479
1046.7	39.1307
1049.6	94.7764
1052.49	106.938
1055.38	241.006
1058.28	350.756
1061.17	282.55
1064.06	73.3716
1066.95	26.7743
1069.85	2.5968
1072.74	26.611
1075.63	22.2631
1078.52	56.662
1081.42	33.4179
1084.31	6.90955
1087.2	30.7135
1090.09	36.5258
1092.99	17.5815
1095.88	24.2866
1098.77	45.7207
1101.66	34.5497
1104.56	21.3508
1107.45	34.9346
1110.34	12.8025
1113.24	40.7688
1116.13	46.1335
1119.02	60.8385
1121.91	29.1307
1124.81	28.6216
1127.7	46.3748
1130.59	47.6189
1133.48	35.6816
1136.38	64.4775
1139.27	21.2765
1142.16	3.93384
1145.06	6.99939
1147.95	3.26416
1150.84	60.8021
1153.73	4.64233
1156.63	4.85998
1159.52	8.95825
1162.41	35.5623
1165.31	14.4664
1168.2	4.6792
1171.09	4.0238
1173.98	7.58215
1176.88	6.86768
1179.77	15.4456
1182.66	65.1057
1185.55	21.3306
1188.45	17.4868
1191.34	43.1787
1194.23	19.8522
1197.12	62.6022
1200.02	33.4851
1202.91	47.6
1205.8	15.3534
1208.69	26.9762
1211.59	32.3261
1214.48	33.5726
1217.37	32.9003
1220.27	51.818
1223.16	29.3405
1226.05	8.91797
1228.94	6.62537
1231.84	42.0361
1234.73	30.5859
1237.62	31.8058
1240.52	35.8535
1243.41	33.8785
1246.3	7.16516
1249.19	49.6852
1252.09	24.8607
1254.98	51.5573
1257.87	14.4369
1260.76	0.625854
1263.66	44.1284
1266.55	21.8982
1269.44	0.423218
1272.33	16.7118
1275.23	0
