Measurement: Raman, 785 nm, unoriented, Raman Data Processed
Mineral: Ferrierite-Mg
Rruff sample: R060982
Ideal chemistry: [Mg_2_(K,Na)_2_Ca_0.5_](Si_29_Al_7_)O_72_18H_2_O
Locality: Monte Lake, British Columbia, Canada
Source: Bob Jenkins
Description: Orange lath shaped crystals in radial aggregates associated with white calcite
Measured chemistry: (Mg_1.70_K_0.83_Fe_0.49_Na_0.36_Ca_0.21_)_Σ=3.49_(Si_30.01_Al_5.99_)_Σ=36_O_72_·20.71H_2_O; = dark phase. Light phase is calcite: (Ca_0.96_Mn_0.02_Mg_0.01_Fe_0.01_)CO_3_
Raman shift (cm-1)	intensity
129.242	0
132.135	336.89
135.027	729.967
137.92	756.623
140.813	218.237
143.705	323.156
146.598	905.326
149.491	1609.35
152.383	1951.11
155.276	1509.36
158.169	1133.54
161.062	1020.81
163.954	1022.14
166.847	784.763
169.74	622.967
172.632	537.873
175.525	375.231
178.418	208.343
181.31	92.1438
184.203	117.617
187.096	100.876
189.989	26.1206
192.881	23.3464
195.774	38.1035
198.667	0.985352
201.559	13.1379
204.452	58.9448
207.345	89.3342
210.238	65.2722
213.13	28.387
216.023	48.8083
218.916	71.4277
221.808	58.5317
224.701	151.735
227.594	145.617
230.486	5.54272
233.379	23.5115
236.272	1.8186
239.164	11.7749
242.057	2.3584
244.95	43.9436
247.843	29.0029
250.735	4.13647
253.628	4.71045
256.521	11.5015
259.413	19.8828
262.306	13.7419
265.199	1.35693
268.091	0.379639
270.984	17.5742
273.877	2.62207
276.769	27.3608
279.662	56.1765
282.555	106.691
285.448	204.94
288.34	224.408
291.233	391.881
294.126	486.013
297.018	474.762
299.911	416.627
302.804	335.781
305.697	318.056
308.589	256.841
311.482	224.226
314.375	272.711
317.267	208.093
320.16	230.363
323.053	243.635
325.945	274.85
328.838	344.033
331.731	356.168
334.623	309.091
337.516	281.195
340.409	249.513
343.302	222.075
346.194	192.116
349.087	145.102
351.98	133.049
354.872	131.58
357.765	53.1938
360.658	47.4277
363.55	14.0806
366.443	12.5347
369.336	28.6689
372.229	45.1511
375.121	33.9487
378.014	31.6218
380.907	26.4812
383.799	75.8086
386.692	97.7402
389.585	191.283
392.477	268.686
395.37	327.964
398.263	483.137
401.156	591.46
404.048	804.189
406.941	1083.15
409.834	1279.67
412.726	1433.51
415.619	1392.06
418.512	1400.89
421.404	1342.57
424.297	1358.46
427.19	1399.92
430.082	1373.5
432.975	1348.35
435.868	1352.7
438.761	1337.9
441.653	1369.02
444.546	1374.02
447.439	1272.54
450.331	1194.55
453.224	1054.15
456.117	902.219
459.01	778.399
461.902	633.19
464.795	459.131
467.688	404.387
470.58	333.281
473.473	242.26
476.366	198.716
479.258	99.6605
482.151	141.673
485.044	125.376
487.937	132.543
490.829	127.019
493.722	148.806
496.615	117.5
499.507	82.9017
502.4	54.7671
505.293	19.6724
508.185	12.8217
511.078	19.7094
513.971	6.11426
516.864	18.3671
519.756	9.31091
522.649	2.5874
525.542	4.67908
528.434	23.8721
531.327	38.1927
534.22	19.8336
537.112	82.9789
540.005	154.41
542.898	167.52
545.79	215.948
548.683	217.298
551.576	241.827
554.469	282.405
557.361	267.223
560.254	224.642
563.147	206.072
566.039	168.368
568.932	112.376
571.825	135.144
574.717	106.325
577.61	114.794
580.503	105.053
583.395	76.6084
586.288	74.3248
589.181	86.6052
592.074	62.095
594.966	66.9819
597.859	99.9132
600.752	125.787
603.644	156.904
606.537	205.434
609.43	212.775
612.322	270.394
615.215	239.832
618.108	166.358
621.001	131.513
623.893	83.2982
626.786	32.0784
629.679	41.1926
632.571	5.55273
635.464	3.41101
638.357	10.0492
641.25	42.6949
644.142	13.2268
647.035	0.007813
649.928	3.21582
652.82	9.43726
655.713	11.0574
658.606	46.0991
661.498	39.1716
664.391	14.4296
667.284	44.4224
670.177	33.5586
673.069	13.3754
675.962	11.0632
678.855	6.45154
681.747	30.3105
684.64	32.3291
687.533	19.5797
690.425	19.8418
693.318	10.7808
696.211	39.2468
699.104	20.7118
701.996	38.4962
704.889	22.2502
707.782	28.3032
710.674	2.17432
713.567	3.38794
716.46	8.67822
719.352	4.83936
722.245	14.9519
725.138	1.01184
728.03	2.16248
730.923	48.9238
733.816	15.597
736.709	48.8977
739.601	76.0317
742.494	71.5775
745.387	26.4829
748.279	88.6962
751.172	47.2909
754.065	103.183
756.957	90.6653
759.85	112.263
762.743	122.406
765.635	128.919
768.528	103.506
771.421	204.251
774.314	262.202
777.206	264.936
780.099	323.548
782.992	356.382
785.884	332.629
788.777	385.328
791.67	371.796
794.562	289.328
797.455	231.112
800.348	178.629
803.241	147.567
806.133	136.812
809.026	133.848
811.919	150.977
814.811	123.958
817.704	122.119
820.597	81.5255
823.49	85.1258
826.382	77.7611
829.275	55.8522
832.168	23.7622
835.06	25.5242
837.953	19.645
840.846	6.99939
843.738	8.87378
846.631	26.1956
849.524	5.37781
852.416	0.798828
855.309	18.3068
858.202	28.9828
861.095	5.33472
863.987	10.1489
866.88	14.5829
869.773	11.5807
872.665	16.6562
875.558	30.6438
878.451	7.85217
881.343	30.4164
884.236	27.1434
887.129	40.9735
890.021	32.1686
892.914	46.9759
895.807	39.1469
898.7	34.2422
901.592	42.1741
904.485	29.7386
907.378	39.4058
910.27	38.9275
913.163	27.3321
916.056	20.3839
918.948	18.9009
921.841	8.72546
924.734	21.9595
927.627	5.56506
930.519	37.3937
933.412	16.3441
936.305	24.2955
939.197	44.6864
942.09	27.9252
944.983	37.1819
947.875	21.576
950.768	16.5425
953.661	31.9627
956.554	21.9325
959.446	29.6334
962.339	32.9664
965.232	31.6494
968.124	53.1561
971.017	56.7316
973.91	66.4368
976.803	55.5755
979.695	58.2188
982.588	61.477
985.481	57.9507
988.373	28.1483
991.266	55.058
994.159	48.8378
997.051	28.332
999.944	38.3082
1002.84	64.9292
1005.73	16.1761
1008.62	42.0233
1011.51	35.3266
1014.41	21.4057
1017.3	19.4957
1020.19	10.3119
1023.09	21.0784
1025.98	10.9854
1028.87	6.23425
1031.76	48.0753
1034.66	41.5165
1037.55	26.8158
1040.44	42.8392
1043.34	59.004
1046.23	48.4821
1049.12	22.9586
1052.01	52.4579
1054.9	27.6462
1057.8	49.3987
1060.69	44.4543
1063.58	45.6489
1066.48	29.2706
1069.37	20.9339
1072.26	25.8928
1075.15	17.0178
1078.05	53.3651
1080.94	35.9528
1083.83	31.9004
1086.72	29.7188
1089.62	9.67188
1092.51	18.8452
1095.4	4.29059
1098.3	18.2791
1101.19	5.11188
1104.08	14.2981
1106.97	25.3904
1109.87	9.46912
1112.76	37.5463
1115.65	38.8107
1118.55	8.0199
1121.44	45.657
1124.33	52.9303
1127.22	67.9427
1130.12	78.9391
1133.01	89.275
1135.9	68.0676
1138.79	56.1223
1141.69	62.4616
1144.58	50.9631
1147.47	88.1248
1150.36	62.736
1153.26	76.5863
1156.15	83.5127
1159.04	85.1875
1161.93	73.4324
1164.83	81.7708
1167.72	72.4096
1170.61	66.3142
1173.51	51.205
1176.4	82.7029
1179.29	65.1529
1182.18	38.7889
1185.08	77.8832
1187.97	38.7502
1190.86	59.0777
1193.76	63.5012
1196.65	41.6406
1199.54	44.954
1202.43	32.193
1205.33	44.2816
1208.22	36.5763
1211.11	47.2994
1214	36.8953
1216.9	30.902
1219.79	42.0631
1222.68	17.2961
1225.58	8.71222
1228.47	10.312
1231.36	67.3984
1234.25	12.5811
1237.14	0.420776
1240.04	6.91223
1242.93	67.1124
1245.82	69.1435
1248.72	66.8898
