Measurement: Raman, 532 nm, unoriented, Raman Data Processed
Mineral: Ferro-ferri-fluoro-leakeite
Rruff sample: R070468
Ideal chemistry: NaNa_2_(Fe^2+^_2_Fe^3+^_2_Li)Si_8_O_22_F_2_
Locality: Questa, Taos County, New Mexico, USA
Source: Michael Scott
Description: Unconsolidated dark blue to black grains, co-type sample
Raman shift (cm-1)	intensity
170.172	0
173.064	36.8761
175.957	44.8444
178.85	2.89911
181.743	1.90478
184.635	14.1317
187.528	60.0024
190.421	48.3642
193.313	61.126
196.206	98.3009
199.099	140.207
201.991	177.646
204.884	184.426
207.777	113.773
210.669	92.058
213.562	109.979
216.455	98.1679
219.348	93.6938
222.24	120.921
225.133	83.364
228.026	126.991
230.918	82.5535
233.811	107.578
236.704	96.0698
239.596	110.168
242.489	105.512
245.382	91.8937
248.275	89.8307
251.167	99.488
254.06	81.9545
256.953	83.4997
259.846	66.3041
262.738	62.0289
265.631	53.8812
268.524	24.7205
271.416	20.2327
274.309	25.3122
277.202	16.1857
280.094	7.5368
282.987	1.20544
285.88	2.00116
288.772	35.5371
291.665	44.2671
294.558	26.5727
297.451	18.6616
300.343	82.2654
303.236	85.3341
306.129	141.336
309.021	172.043
311.914	155.562
314.807	199.465
317.7	162.513
320.592	122.624
323.485	54.3679
326.378	17.2952
329.27	2.42163
332.163	8.73169
335.056	5.77191
337.948	50.9259
340.841	56.5316
343.734	74.6799
346.627	94.5474
349.519	107.692
352.412	116.503
355.305	121.862
358.197	131.512
361.09	115.564
363.983	119.028
366.875	94.8834
369.768	120.242
372.661	97.7537
375.553	71.4947
378.446	47.5081
381.339	30.1228
384.232	7.2511
387.124	39.3707
390.017	23.2911
392.91	24.2543
395.802	53.8278
398.695	84.2502
401.588	93.6765
404.481	108.645
407.373	120.901
410.266	115.798
413.159	119.938
416.051	73.9389
418.944	83.406
421.837	52.2469
424.729	16.0631
427.622	41.9069
430.515	30.8233
433.408	24.0655
436.3	8.14056
439.193	20.7631
442.086	4.46735
444.978	9.25421
447.871	0.495605
450.764	5.29938
453.656	8.51495
456.549	22.3422
459.442	3.73102
462.334	28.3952
465.227	16.8272
468.12	39.7152
471.013	70.532
473.905	62.1165
476.798	70.1713
479.691	96.0601
482.584	57.5112
485.476	17.5839
488.369	47.549
491.262	43.2805
494.154	61.0435
497.047	56.2873
499.94	95.4404
502.832	140.877
505.725	134.371
508.618	167.989
511.51	188.161
514.403	191.352
517.296	174.965
520.189	197.319
523.081	255.575
525.974	277.177
528.867	331.381
531.759	443.729
534.652	548.021
537.545	661.03
540.438	700.121
543.33	746.103
546.223	632.894
549.116	557.649
552.008	459.004
554.901	397.582
557.794	389.195
560.686	350.873
563.579	321.541
566.472	315.507
569.365	280.385
572.257	300.262
575.15	296.362
578.043	264.513
580.935	217.144
583.828	225.587
586.721	162.367
589.613	105.17
592.506	62.8313
595.399	63.9908
598.292	30.3542
601.184	25.4646
604.077	2.89014
606.97	31.66
609.862	15.3541
612.755	13.8928
615.648	0.948853
618.54	10.34
621.433	6.15991
624.326	3.90546
627.218	9.05615
630.111	3.5672
633.004	15.6674
635.897	27.9562
638.789	19.8136
641.682	29.0212
644.575	32.9188
647.467	64.0993
650.36	51.7236
653.253	50.4212
656.145	89.1539
659.038	127.034
661.931	116.515
664.824	134.169
667.716	188.886
670.609	269.111
673.502	316.638
676.394	393.34
679.287	424.663
682.18	414.754
685.073	337.584
687.965	189.829
690.858	128.009
693.751	75.0196
696.643	75.5493
699.536	67.2376
702.429	31.0216
705.322	28.832
708.214	16.3388
711.107	25.4925
714	22.9485
716.892	49.4776
719.785	33.8029
722.678	33.0103
725.57	31.5494
728.463	26.733
731.356	18.8347
734.249	1.82013
737.141	19.5495
740.034	33.6412
742.927	35.9089
745.819	16.8179
748.712	41.734
751.605	40.9407
754.497	51.7228
757.39	57.75
760.283	41.9587
763.176	5.59833
766.068	52.2606
768.961	14.8382
771.854	30.118
774.746	32.0863
777.639	11.8629
780.532	10.3361
783.424	2.92529
786.317	17.7694
789.21	17.1863
792.102	4.72846
794.995	12.2412
797.888	42.0167
800.781	48.9136
803.673	22.6299
806.566	39.6172
809.459	17.2271
812.351	42.7132
815.244	20.0648
818.137	22.2022
821.029	2.73853
823.922	31.3793
826.815	6.0271
829.708	18.6921
832.6	3.16595
835.493	36.5376
838.386	41.227
841.278	59.3895
844.171	41.0717
847.064	40.1039
849.957	43.3364
852.849	13.2365
855.742	14.7378
858.635	8.49115
861.527	32.6099
864.42	12.6651
867.313	24.7038
870.205	28.816
873.098	44.527
875.991	55.5518
878.884	69.1127
881.776	97.301
884.669	94.093
887.562	149.662
890.454	134.912
893.347	133.825
896.24	119.704
899.132	131.683
902.025	132.591
904.918	111.984
907.811	141.369
910.703	122.467
913.596	156.947
916.489	143.76
919.381	114.852
922.274	64.4014
925.167	53.1055
928.059	39.4554
930.952	11.1989
933.845	7.14935
936.737	33.7526
939.63	79.0132
942.523	114.205
945.416	162.911
948.308	182.352
951.201	239.676
954.094	238.563
956.986	271.283
959.879	287.634
962.772	344.021
965.665	416.905
968.557	520.92
971.45	601.816
974.343	718.427
977.235	813.06
980.128	854.366
983.021	774.744
985.913	732.184
988.806	540.303
991.699	441.498
994.592	318.904
997.484	156.235
1000.38	124.895
1003.27	47.7758
1006.16	44.0713
1009.05	2.41754
1011.95	18.0452
1014.84	8.01148
1017.73	1.92737
1020.63	16.2527
1023.52	33.4198
1026.41	52.0591
1029.3	48.8279
1032.2	52.0602
1035.09	30.3435
1037.98	3.37091
1040.88	24.1526
1043.77	22.0401
1046.66	4.21014
1049.55	31.1986
1052.45	21.4145
1055.34	4.30243
1058.23	39.4604
1061.12	3.11658
1064.02	12.2416
1066.91	52.2441
1069.8	66.7445
1072.69	59.0516
1075.59	75.687
1078.48	67.7274
1081.37	75.9763
1084.27	77.3168
1087.16	83.3494
1090.05	58.7103
1092.94	56.8359
1095.84	53.3744
1098.73	54.2691
1101.62	63.9933
1104.51	36.7762
1107.41	64.5769
1110.3	81.6278
1113.19	50.7426
1116.09	40.0656
1118.98	57.2469
1121.87	28.8932
1124.76	67.808
1127.66	38.6862
1130.55	38.0222
1133.44	32.0756
1136.33	8.48816
1139.23	33.0023
1142.12	31.2707
1145.01	32.1058
1147.9	31.9856
1150.8	29.0311
1153.69	26.1989
1156.58	31.1531
1159.48	6.09747
1162.37	5.59106
1165.26	23.3392
1168.15	21.0517
1171.05	42.2366
1173.94	20.8503
1176.83	5.56799
1179.72	0.205872
1182.62	52.8658
1185.51	23.1174
1188.4	9.62824
1191.3	52.9261
1194.19	39.4098
1197.08	33.5612
1199.97	14.9289
1202.87	24.0812
1205.76	33.2643
1208.65	22.7756
1211.54	24.5156
1214.44	64.2995
1217.33	27.1855
1220.22	54.7695
1223.12	37.9877
1226.01	56.5252
1228.9	47.1949
1231.79	44.4998
1234.69	47.1406
1237.58	35.6969
1240.47	29.9821
1243.36	23.6822
1246.26	31.9389
1249.15	48.6388
1252.04	29.0284
1254.93	20.1342
1257.83	21.3463
1260.72	42.2856
1263.61	24.4647
1266.51	33.5704
1269.4	29.5817
1272.29	31.7269
1275.18	15.7147
1278.08	56.6623
1280.97	12.4517
1283.86	37.6705
1286.75	53.5137
1289.65	21.8421
1292.54	14.5751
1295.43	0.155029
1298.33	30.5274
1301.22	20.7485
1304.11	25.1218
1307	13.1766
1309.9	29.0145
1312.79	23.8496
1315.68	21.2747
