Measurement: Raman, 532 nm, unoriented, Raman Data Processed
Mineral: Ferriallanite-(Ce)
Rruff sample: R060813
Ideal chemistry: CaCe^3+^Fe^2+^Fe^3+^Al(SiO_4_)(Si_2_O_7_)O(OH)
Locality: Bastnas, Sweden
Source: Michael Scott
Description: Black glassy massive associated with green brochantite and blue osarizawaite
Raman shift (cm-1)	intensity
171.181	0
174.074	82.295
176.966	139.688
179.859	208.458
182.752	190.183
185.645	302.039
188.537	327.583
191.43	441.972
194.323	409.154
197.215	443.917
200.108	509.175
203.001	509.177
205.893	568.949
208.786	646.462
211.679	703.6
214.572	757.33
217.464	826.631
220.357	922.708
223.25	897.614
226.142	867.602
229.035	818.072
231.928	865.857
234.82	907.578
237.713	828.524
240.606	734.542
243.498	847.488
246.391	799.7
249.284	809.573
252.176	766.852
255.069	691.869
257.962	670.357
260.855	696.212
263.747	712.289
266.64	681.812
269.533	655.028
272.425	616.614
275.318	636.018
278.211	647.954
281.103	629.714
283.996	621.666
286.889	525.285
289.782	586.71
292.674	642.478
295.567	602.985
298.46	609.404
301.352	580.562
304.245	607.607
307.138	662.834
310.03	675.794
312.923	699.861
315.816	679.926
318.709	524.712
321.601	582.991
324.494	630.972
327.387	659.249
330.279	628.024
333.172	672.871
336.065	661.297
338.957	719.628
341.85	796.534
344.743	860.878
347.635	961.496
350.528	1174.27
353.421	1280.17
356.314	1389.59
359.206	1541.78
362.099	1640.49
364.992	1772.1
367.884	1823.83
370.777	1906.57
373.67	1883.49
376.562	1882.97
379.455	1733.24
382.348	1652.23
385.241	1691.98
388.133	1667.76
391.026	1555.95
393.919	1475.06
396.811	1384.5
399.704	1266.31
402.597	1131.83
405.49	1103.94
408.382	998.832
411.275	889.867
414.168	807.347
417.06	750.881
419.953	699.177
422.846	607.437
425.738	536.96
428.631	521.501
431.524	473.115
434.417	420.302
437.309	394.646
440.202	291.244
443.095	242.68
445.987	231.032
448.88	203.544
451.773	131.433
454.665	167.977
457.558	132.553
460.451	128.213
463.343	96.386
466.236	71.702
469.129	48.108
472.022	47.661
474.914	10.04
477.807	10.532
480.7	16.709
483.592	62.288
486.485	25.066
489.378	49.348
492.27	87.339
495.163	113.414
498.056	97.531
500.948	92.493
503.841	105.122
506.734	111.907
509.627	91.741
512.519	91.818
515.412	56.004
518.305	90.49
521.197	67.144
524.09	45.769
526.983	36.836
529.875	63.166
532.768	15.032
535.661	28.804
538.554	87.801
541.446	132.504
544.339	160.404
547.232	187.878
550.124	180.896
553.017	187.259
555.91	189.589
558.802	155.447
561.695	150.866
564.588	168.219
567.481	199.76
570.373	207.955
573.266	233.128
576.159	220.556
579.051	241.059
581.944	229.926
584.837	273.718
587.729	264.925
590.622	244.369
593.515	292.654
596.407	219.762
599.3	249.641
602.193	294.124
605.086	229.593
607.978	228.674
610.871	212.987
613.764	204.51
616.656	189.875
619.549	153.856
622.442	135.359
625.334	124.374
628.227	99.767
631.12	51.209
634.013	31.273
636.905	0.252
639.798	7.275
642.691	4.066
645.583	49.401
648.476	20.342
651.369	31.839
654.261	5.23
657.154	15.479
660.047	6.752
662.94	19.429
665.832	57.805
668.725	43.662
671.618	43.352
674.51	2.349
677.403	2.797
680.296	5.442
683.188	62.015
686.081	40.885
688.974	39.333
691.867	41.809
694.759	65.3
697.652	48.795
700.545	37.461
703.437	3.765
706.33	11.647
709.223	14.094
712.115	52.743
715.008	35.019
717.901	20.027
720.794	1.093
723.686	6.574
726.579	27.313
729.472	33.381
732.364	14.818
735.257	17.632
738.15	7.299
741.042	10.93
743.935	5.658
746.828	20.321
749.721	31.798
752.613	35.205
755.506	36.687
758.399	54.782
761.291	61.604
764.184	78.334
767.077	61.094
769.969	63.777
772.862	63.011
775.755	74.862
778.648	58.542
781.54	73.003
784.433	4.558
787.326	60.869
790.218	4.53
793.111	42.224
796.004	24.957
798.896	26.064
801.789	73.971
804.682	102.082
807.574	119.37
810.467	181.646
813.36	213.242
816.253	257.774
819.145	311.177
822.038	384.875
824.931	467.781
827.823	595.404
830.716	669.271
833.609	858.387
836.501	1027.91
839.394	1182.14
842.287	1460.53
845.18	1744.38
848.072	2093.77
850.965	2334.14
853.858	2721.91
856.75	3047.72
859.643	3299.86
862.536	3509.61
865.428	3440.61
868.321	3103.45
871.214	2755.66
874.106	2362.76
876.999	1989.43
879.892	1583.9
882.784	1401.01
885.677	1282.84
888.57	1130.02
891.463	1111.37
894.355	1005
897.248	1020.79
900.141	855.975
903.033	793.363
905.926	791.333
908.819	730.107
911.711	706.89
914.604	728.865
917.497	700.142
920.39	711.583
923.282	708.157
926.175	649.813
929.068	627.792
931.96	609.011
934.853	580.571
937.746	555.645
940.638	592.018
943.531	505.219
946.424	489.847
949.317	457.123
952.209	472.35
955.102	486.639
957.995	449.496
960.887	389.8
963.78	359.31
966.673	335.068
969.565	292.595
972.458	284.722
975.351	237.385
978.244	209.735
981.136	223.675
984.029	146.323
986.922	136.865
989.814	151.024
992.707	175.633
995.6	106.636
998.492	146.842
1001.38	125.752
1004.28	116.192
1007.17	100.654
1010.06	98.609
1012.96	82.928
1015.85	89.329
1018.74	85.443
1021.63	59.011
1024.53	133.919
1027.42	48.5
1030.31	54.8
1033.2	61.038
1036.1	37.685
1038.99	44.064
1041.88	0.495
1044.78	12.115
1047.67	3.496
1050.56	1.834
1053.45	19.805
1056.35	25.519
1059.24	12.765
1062.13	1.575
1065.03	36.58
1067.92	34.1
1070.81	0.286
1073.7	53.975
1076.6	10.641
1079.49	63.422
1082.38	20.159
1085.27	34.706
1088.17	49.488
1091.06	54.166
1093.95	50.42
1096.84	1.489
1099.74	13.42
1102.63	21.656
1105.52	40.638
1108.41	7.554
1111.31	11.634
1114.2	84.44
1117.09	30.745
1119.99	11.28
1122.88	71.617
1125.77	40.914
1128.66	26.907
1131.56	20.574
1134.45	15.653
1137.34	13.992
1140.23	3.107
1143.13	15.912
1146.02	6.075
1148.91	79.955
1151.81	49.969
1154.7	35.968
1157.59	13.891
1160.48	27.628
1163.38	11.995
1166.27	30.469
1169.16	57.813
1172.05	12.429
1174.95	19.06
1177.84	21.487
1180.73	28.413
1183.62	41.665
1186.52	22.482
1189.41	52.075
1192.3	4.493
1195.2	35.912
1198.09	19.017
1200.98	31.152
1203.87	32.738
1206.77	16.931
1209.66	15.874
1212.55	12.922
1215.44	21.226
1218.34	19.585
1221.23	0.618
1224.12	14.349
1227.02	14.71
1229.91	8.962
1232.8	8.869
1235.69	40.644
1238.59	18.405
1241.48	75.894
1244.37	10.755
1247.26	37.484
1250.16	22.101
1253.05	55.141
1255.94	31.799
1258.84	10.038
1261.73	32.742
1264.62	12.699
1267.51	50.968
1270.41	1.703
1273.3	34.732
1276.19	42.746
1279.08	18.636
1281.98	27.995
1284.87	0
