Measurement: Raman, 780 nm, unoriented, Raman Data Processed
Mineral: Ferrimolybdite
Rruff sample: R050566
Ideal chemistry: Fe^3+^_2_(Mo^6+^O_4_)_3_7H_2_O
Locality: Kingman, Arizona, USA
Source: University of Arizona Mineral Museum
Description: Yellow fibrous aggregate
Measured chemistry: Wavelength dispersive spectroscopy (WDS) scanning shows Mo and Fe only.
Raman shift (cm-1)	intensity
113.278	0
116.653	17.103
120.028	13.9104
123.403	7.53271
126.778	3.77722
130.153	7.11438
133.527	2.48657
136.902	40.0665
140.277	30.5112
143.652	22.2964
147.027	47.9982
150.401	46.2154
153.776	37.1714
157.151	0.338135
160.526	34.9265
163.901	20.4324
167.276	45.2305
170.65	48.3751
174.025	66.3064
177.4	69.1317
180.775	56.0066
184.15	59.8758
187.524	55.3293
190.899	70.1146
194.274	57.8224
197.649	87.3541
201.024	113.025
204.399	103.544
207.773	129.944
211.148	158.987
214.523	186.704
217.898	195.673
221.273	215.891
224.647	242.68
228.022	252.807
231.397	252.153
234.772	248.767
238.147	178.526
241.522	158.129
244.896	129.568
248.271	89.7107
251.646	67.7623
255.021	40.7616
258.396	41.1747
261.77	9.52271
265.145	17.4717
268.52	11.7649
271.895	5.25232
275.27	6.56311
278.644	7.43506
282.019	9.32239
285.394	5.06116
288.769	0.545044
292.144	4.4187
295.519	17.9192
298.893	48.9637
302.268	83.9028
305.643	73.1979
309.018	84.65
312.393	109.613
315.767	146.933
319.142	173.204
322.517	174.574
325.892	216.877
329.267	251.919
332.642	290.293
336.016	270.828
339.391	251.114
342.766	245.471
346.141	259.808
349.516	220.631
352.89	200.911
356.265	207.647
359.64	183.492
363.015	190.314
366.39	147.264
369.764	150.055
373.139	119.671
376.514	92.7874
379.889	78.9205
383.264	58.7412
386.639	74.2894
390.013	40.296
393.388	30.4773
396.763	40.5276
400.138	12.1558
403.513	10.5057
406.887	3.3313
410.262	0.988159
413.637	24.522
417.012	24.5022
420.387	11.0785
423.762	41.5796
427.136	73.5217
430.511	54.0855
433.886	56.8789
437.261	22.4442
440.636	45.4424
444.01	20.4471
447.385	19.6569
450.76	27.874
454.135	21.0452
457.51	14.0915
460.884	30.1506
464.259	16.7031
467.634	1.78174
471.009	4.44482
474.384	6.50403
477.759	1.41803
481.133	1.19684
484.508	17.0393
487.883	3.74152
491.258	13.8255
494.633	13.251
498.007	11.305
501.382	2.27527
504.757	20.8982
508.132	14.4109
511.507	30.4526
514.881	4.78082
518.256	7.56549
521.631	18.2056
525.006	29.3068
528.381	20.1951
531.756	60.2557
535.13	30.3781
538.505	33.6777
541.88	33.8481
545.255	52.4191
548.63	77.0998
552.004	59.7784
555.379	68.0786
558.754	69.1513
562.129	63.1338
565.504	63.2433
568.879	33.7159
572.253	69.0153
575.628	84.4231
579.003	66.1329
582.378	46.3206
585.753	46.5336
589.127	35.2211
592.502	61.1188
595.877	51.7391
599.252	38.2654
602.627	66.3354
606.001	53.4345
609.376	16.5754
612.751	36.7474
616.126	39.6077
619.501	31.1542
622.875	46.2685
626.25	31.1272
629.625	2.50415
633	12.562
636.375	24.2918
639.75	14.1137
643.124	1.47278
646.499	6.27918
649.874	1.60602
653.249	1.91669
656.624	9.88678
659.999	8.8161
663.373	1.02484
666.748	2.11017
670.123	0.747375
673.498	7.60834
676.873	9.70795
680.247	6.47815
683.622	0.194824
686.997	34.1847
690.372	6.17358
693.747	23.59
697.121	53.6185
700.496	24.0456
703.871	57.7399
707.246	52.1613
710.621	84.3651
713.995	75.1084
717.37	88.9122
720.745	112.266
724.12	114.907
727.495	139.93
730.87	160.613
734.244	159.673
737.619	195.182
740.994	175.656
744.369	199.364
747.744	222.601
751.119	232.03
754.493	251.817
757.868	256.462
761.243	240.389
764.618	232.9
767.993	227.695
771.367	228.19
774.742	212.467
778.117	193.228
781.492	192.398
784.867	167.231
788.241	169.64
791.616	145.929
794.991	116.046
798.366	108.96
801.741	107.116
805.115	102.941
808.49	95.0079
811.865	82.4158
815.24	58.016
818.615	63.7092
821.99	46.0765
825.364	58.5543
828.739	24.479
832.114	35.9106
835.489	47.7816
838.864	10.9937
842.239	7.80383
845.613	30.5748
848.988	9.94336
852.363	6.7113
855.738	6.28686
859.112	0.782349
862.487	18.7039
865.862	2.01514
869.237	16.4407
872.612	1.40668
875.987	0.218933
879.361	3.67291
882.736	35.4133
886.111	35.1097
889.486	24.9432
892.861	72.3848
896.236	67.5942
899.61	87.5691
902.985	116.27
906.36	88.1386
909.735	116.57
913.11	114.244
916.484	157.018
919.859	186.94
923.234	220.239
926.609	255.803
929.984	284.732
933.359	308.005
936.733	330.548
940.108	392.892
943.483	441.723
946.858	538.155
950.232	580.97
953.607	619.388
956.982	557.814
960.357	467.63
963.732	410.678
967.107	333.66
970.481	298.95
973.856	262.284
977.231	183.544
980.606	179.987
983.981	135.315
987.356	115.18
990.73	68.9213
994.105	36.0573
997.48	16.2249
1000.86	2.76508
1004.23	0.901489
1007.6	4.74127
1010.98	11.8827
1014.35	13.4308
1017.73	7.05267
1021.1	15.2283
1024.48	1.45398
1027.85	15.5443
1031.23	38.9664
1034.6	2.48498
1037.98	18.8644
1041.35	2.15759
1044.73	12.8763
1048.1	8.5708
1051.48	25.8904
1054.85	14.5384
1058.23	39.28
1061.6	15.259
1064.98	33.0714
1068.35	29.8805
1071.73	26.5527
1075.1	24.6763
1078.47	17.0389
1081.85	19.5632
1085.22	22.9048
1088.6	20.3422
1091.97	4.72827
1095.35	2.14606
1098.72	13.7949
1102.1	23.6001
1105.47	4.20721
1108.85	2.77191
1112.22	2.01856
1115.6	25.8519
1118.97	36.2016
1122.35	45.7743
1125.72	17.22
1129.1	6.91467
1132.47	11.1824
1135.85	18.6996
1139.22	4.72498
1142.6	22.8752
1145.97	4.6991
1149.35	25.4465
1152.72	28.8127
1156.1	11.1633
1159.47	10.9208
1162.85	34.9764
1166.22	7.13611
1169.6	38.1693
1172.97	16.1049
1176.35	5.2641
1179.72	13.0441
1183.1	55.002
1186.47	26.2125
1189.84	25.4944
1193.22	11.0906
1196.59	30.5887
1199.97	8.9776
1203.34	12.2371
1206.72	31.7821
1210.09	45.4268
1213.47	19.4257
1216.84	36.4965
1220.22	30.7327
1223.59	35.8043
1226.97	10.9678
1230.34	15.2875
1233.72	14.8882
1237.09	6.84424
1240.47	44.5973
1243.84	17.4485
1247.22	6.56879
1250.59	3.30487
1253.97	22.2379
1257.34	23.1432
1260.71	20.8238
1264.09	15.5894
1267.46	20.9828
1270.84	19.6318
1274.21	7.99207
1277.59	23.1158
1280.96	6.22107
1284.34	17.9184
