Measurement: Raman, 780 nm, unoriented, Raman Data Processed
Mineral: Ferroalluaudite
Rruff sample: R100070
Ideal chemistry: NaFe^2+^Fe^3+^_2_(PO_4_)_3_
Locality: Rapid Creek area, Yukon, Canada
Source: Royal Ontario Museum
Description: Black radiating fibrous masses associated with marićite
Measured chemistry: (Na_0.90_Ca_0.15_)(Fe^2+^_0.47_Mg_0.34_Mn^2+^_0.17_)_Σ=0.98_Fe^3+^_2.00_P_2.96_O_12_
Raman shift (cm-1)	intensity
178.314	0
181.207	8.30109
184.1	11.9229
186.992	7.36853
189.885	17.0651
192.778	17.2978
195.67	11.505
198.563	0.952637
201.456	19.8228
204.349	17.8539
207.241	18.0062
210.134	15.987
213.027	18.7113
215.919	17.3106
218.812	1.77212
221.705	10.4972
224.597	5.63629
227.49	1.76706
230.383	9.74969
233.275	3.95755
236.168	18.1366
239.061	12.4553
241.954	14.4072
244.846	18.8727
247.739	18.0409
250.632	18.1283
253.524	21.976
256.417	22.3345
259.31	22.0791
262.202	16.31
265.095	23.8791
267.988	15.818
270.881	17.5252
273.773	12.4899
276.666	10.0141
279.559	7.41571
282.451	14.7716
285.344	7.35129
288.237	3.00027
291.13	8.37073
294.022	4.09021
296.915	0.808441
299.808	11.9129
302.7	2.77795
305.593	5.289
308.486	6.47897
311.378	2.40253
314.271	6.9422
317.164	3.5896
320.057	8.13425
322.949	4.08087
325.842	3.16864
328.735	8.54541
331.627	7.28412
334.52	15.0278
337.413	0.082733
340.305	12.2333
343.198	15.7854
346.091	21.3974
348.984	11.0328
351.876	21.4766
354.769	13.8721
357.662	18.7015
360.554	17.0931
363.447	13.0483
366.34	20.7369
369.233	17.903
372.125	13.5274
375.018	20.1756
377.911	17.4933
380.803	13.5632
383.696	5.03909
386.589	12.3721
389.481	13.1345
392.374	7.79925
395.267	16.6335
398.159	1.85385
401.052	5.60055
403.945	20.0718
406.838	9.29373
409.73	1.47995
412.623	11.5022
415.516	1.2439
418.408	6.03097
421.301	1.95853
424.194	4.15482
427.087	15.4883
429.979	13.1314
432.872	12.1466
435.765	15.8896
438.657	23.5146
441.55	26.2026
444.443	24.2815
447.335	29.5053
450.228	18.4664
453.121	32.1641
456.014	35.6133
458.906	41.483
461.799	45.2961
464.692	46.4013
467.584	63.1077
470.477	58.9422
473.37	63.7263
476.262	42.2105
479.155	55.5296
482.048	41.1553
484.94	28.1404
487.833	29.3119
490.726	22.223
493.619	9.60419
496.511	20.9212
499.404	18.2367
502.297	11.4972
505.189	8.25998
508.082	6.60254
510.975	7.08533
513.867	7.51273
516.76	7.39307
519.653	5.5098
522.545	5.77866
525.438	8.03983
528.331	4.00342
531.224	5.54715
534.116	1.32455
537.009	11.0821
539.902	5.39548
542.794	1.05481
545.687	7.12582
548.58	4.97339
551.472	8.74393
554.365	14.1287
557.258	11.8687
560.151	16.6347
563.043	18.8601
565.936	16.7765
568.829	24.6261
571.721	27.3241
574.614	23.5598
577.507	32.4415
580.399	30.3608
583.292	38.5239
586.185	41.294
589.078	53.257
591.97	45.902
594.863	49.5729
597.756	43.8792
600.649	33.6937
603.541	31.8381
606.434	34.8826
609.327	35.4658
612.219	50.7784
615.112	34.9144
618.005	39.1144
620.897	37.0192
623.79	31.092
626.683	26.7218
629.576	19.5553
632.468	21.5121
635.361	15.3886
638.254	12.8273
641.146	15.1557
644.039	9.94528
646.932	12.895
649.824	2.37717
652.717	1.70349
655.61	15.1963
658.503	11.1828
661.395	3.9324
664.288	3.80054
667.181	0.456177
670.073	2.271
672.966	13.5945
675.859	4.04651
678.751	5.35809
681.644	7.85614
684.537	5.81732
687.429	2.0358
690.322	3.88205
693.215	6.3526
696.108	6.73968
699	7.36682
701.893	7.42139
704.786	1.89325
707.678	0.861938
710.571	12.5041
713.464	3.80103
716.356	16.6301
719.249	5.29099
722.142	13.6189
725.035	1.75916
727.927	2.33279
730.82	0.623566
733.713	5.95294
736.605	2.20645
739.498	10.0082
742.391	2.58469
745.284	10.3105
748.176	8.95215
751.069	2.14197
753.962	5.7067
756.854	3.49536
759.747	11.1745
762.64	6.47104
765.532	5.05493
768.425	0.054962
771.318	8.00754
774.211	4.54889
777.103	7.54053
779.996	11.4797
782.889	14.1038
785.781	1.91431
788.674	6.43826
791.567	5.99234
794.459	6.18317
797.352	11.7667
800.245	11.2555
803.138	9.86346
806.03	13.8237
808.923	6.74203
811.816	13.4158
814.708	13.8749
817.601	0.637695
820.494	21.7429
823.386	8.98285
826.279	12.7481
829.172	12.6125
832.064	16.7206
834.957	10.5106
837.85	12.3224
840.743	12.2733
843.635	12.6261
846.528	3.43842
849.421	10.2427
852.313	8.30762
855.206	11.8712
858.099	1.99597
860.991	4.2388
863.884	5.30435
866.777	7.42248
869.67	10.4546
872.562	2.64423
875.455	10.6683
878.348	4.15402
881.24	8.16901
884.133	10.5564
887.026	2.28284
889.918	4.85303
892.811	2.11233
895.704	0.680573
898.597	8.01559
901.489	1.48679
904.382	5.08194
907.275	2.58469
910.167	0.728455
913.06	8.96847
915.953	5.43268
918.846	3.41305
921.738	1.58307
924.631	10.9832
927.524	3.07257
930.416	23.1457
933.309	18.8413
936.202	23.8922
939.094	24.3251
941.987	28.9297
944.88	30.2183
947.773	33.4541
950.665	49.5175
953.558	48.8241
956.451	58.1131
959.343	62.5723
962.236	65.7899
965.129	72.1873
968.021	56.0518
970.914	57.7266
973.807	53.6347
976.699	44.65
979.592	35.467
982.485	26.6934
985.378	27.7565
988.27	28.3911
991.163	29.4755
994.056	22.9959
996.948	24.1109
999.841	27.8227
1002.73	27.8102
1005.63	29.0165
1008.52	33.0459
1011.41	40.3472
1014.3	49.2362
1017.2	61.4029
1020.09	68.6792
1022.98	75.8512
1025.88	97.0891
1028.77	93.5697
1031.66	91.0101
1034.55	61.3405
1037.45	52.9354
1040.34	34.1889
1043.23	23.2169
1046.12	13.2409
1049.02	11.7656
1051.91	5.75629
1054.8	7.0108
1057.69	2.16644
1060.59	2.69727
1063.48	5.34949
1066.37	0.434875
1069.27	0.103577
1072.16	4.42535
1075.05	6.82001
1077.94	1.12463
1080.84	12.6444
1083.73	4.50653
1086.62	6.39069
1089.52	4.62146
1092.41	8.71619
1095.3	1.65597
1098.19	7.15967
1101.09	7.37381
1103.98	8.38153
1106.87	9.60675
1109.76	11.5083
1112.66	17.9688
1115.55	12.1198
1118.44	19.9669
1121.34	1.13274
1124.23	12.5009
1127.12	9.84962
1130.01	12.7366
1132.9	8.58385
1135.8	0.569809
1138.69	12.438
1141.58	11.0134
1144.48	11.3807
1147.37	10.2317
1150.26	9.83945
1153.15	8.388
1156.05	9.05949
1158.94	13.4728
1161.83	13.8139
1164.72	8.43552
1167.62	8.43379
1170.51	10.3661
1173.4	5.13884
1176.3	7.86711
1179.19	9.22273
1182.08	1.51141
1184.97	10.4096
1187.87	14.9946
1190.76	5.21368
1193.65	11.8905
1196.55	1.14217
1199.44	5.72492
1202.33	0.058838
1205.22	6.00951
1208.12	19.048
1211.01	5.73549
1213.9	3.68985
1216.79	6.18596
1219.69	11.3796
1222.58	5.97731
1225.47	4.28162
1228.37	6.10452
1231.26	12.494
1234.15	12.4114
1237.04	15.4078
1239.93	10.472
1242.83	12.1549
1245.72	14.095
1248.61	11.18
1251.51	12.5259
1254.4	12.0019
1257.29	8.19029
1260.18	9.6254
1263.08	7.95891
1265.97	13.2274
1268.86	13.9054
1271.76	0.474792
1274.65	8.01952
1277.54	6.96854
1280.43	8.08542
1283.33	0.996078
