Measurement: Raman, 532 nm, unoriented, Raman Data Processed
Mineral: Ferrierite-Mg
Rruff sample: R070091
Ideal chemistry: [Mg_2_(K,Na)_2_Ca_0.5_](Si_29_Al_7_)O_72_18H_2_O
Locality: Kamloops Lake, British Columbia, Canada
Source: Michael Scott
Description: White acicular crystal in radial hemispheres and lining a cavity associated with quartz
Measured chemistry: (Mg_1.66_Na_1.65_K_0.35_Ca_0.12_Ba_0.05_Sr_0.04_)_Σ=3.87_(Si_30.26_Al_5.74_)O_72_·21.5H_2_O; H_2_O estimated by difference
Raman shift (cm-1)	intensity
167.055	0
169.947	9.92578
172.84	109.072
175.733	34.8682
178.625	75.7188
181.518	123.097
184.411	26.8691
187.304	198.827
190.196	201.718
193.089	230.734
195.982	315.445
198.874	216.666
201.767	317.715
204.66	371.406
207.553	389.459
210.445	338.465
213.338	330.193
216.231	347.147
219.123	267.949
222.016	313.322
224.909	301.512
227.801	271.135
230.694	314.633
233.587	151.852
236.48	90.3398
239.372	159.904
242.265	197.662
245.158	79.1602
248.05	163.01
250.943	143.588
253.836	84.3691
256.728	94.1758
259.621	10.3809
262.514	56.8516
265.406	60.9727
268.299	13.6367
271.192	68.3281
274.085	28.0625
276.977	40.8047
279.87	33.1582
282.763	87.9941
285.655	19.6094
288.548	134.717
291.441	142.318
294.334	93.2578
297.226	146.938
300.119	219.141
303.012	212.576
305.904	205.053
308.797	188.504
311.69	241.9
314.582	132.027
317.475	196.279
320.368	207.33
323.261	263.812
326.153	286.881
329.046	295.859
331.939	284.734
334.831	234.309
337.724	217.344
340.617	238.312
343.51	250.99
346.402	213.943
349.295	105.119
352.188	192.986
355.08	158.231
357.973	32.0117
360.866	17.5605
363.758	14.5449
366.651	54.8145
369.544	43.1855
372.437	21.8164
375.329	42.7539
378.222	81.9453
381.115	7.34766
384.007	132.967
386.9	104.578
389.793	195.514
392.685	204.113
395.578	352.416
398.471	402.346
401.363	415.779
404.256	566.553
407.149	793.734
410.042	945.877
412.934	1115.89
415.827	1231.65
418.72	1443.17
421.612	1474.83
424.505	1625.3
427.398	1697.35
430.291	1599.98
433.183	1688.58
436.076	1625.85
438.969	1733.9
441.861	1637.69
444.754	1672.85
447.647	1662.35
450.539	1521.28
453.432	1286.91
456.325	1267.04
459.217	901.32
462.11	911.854
465.003	615.258
467.896	555.086
470.788	365.91
473.681	305.42
476.574	278.547
479.466	204.269
482.359	240.44
485.252	111.805
488.144	118.041
491.037	72.0957
493.93	82.6484
496.823	4.78906
499.715	24.8926
502.608	55.3613
505.501	33.2656
508.393	23.5742
511.286	8.73828
514.179	146.262
517.072	98.957
519.964	75.1719
522.857	146.723
525.75	64.0391
528.642	134.836
531.535	80.5078
534.428	197.348
537.32	266.438
540.213	118.07
543.106	150.469
545.999	48.6836
548.891	269.25
551.784	338.141
554.677	289.137
557.569	194.445
560.462	211.875
563.355	149.676
566.247	316.566
569.14	108.902
572.033	34.9961
574.926	106.086
577.818	81.5
580.711	133.992
583.604	240.875
586.496	50.8242
589.389	51.0859
592.282	121.082
595.174	14.4727
598.067	83.668
600.96	87.3984
603.852	8.50391
606.745	19.0117
609.638	24.6016
612.531	33.9961
615.423	75.6367
618.316	143.328
621.209	164.633
624.101	245.644
626.994	27.2227
629.887	103.879
632.779	263.273
635.672	277.652
638.565	91
641.458	192.926
644.35	261.019
647.243	260.305
650.136	201.93
653.028	92.5977
655.921	276.594
658.814	235.387
661.707	148.836
664.599	276.609
667.492	267.586
670.385	339.973
673.277	57.6953
676.17	202.172
679.063	154.203
681.955	255.891
684.848	70.0469
687.741	79.1523
690.634	83.3789
693.526	186.301
696.419	170.266
699.312	11.1992
702.204	103.5
705.097	99.3789
707.99	180.512
710.882	112.246
713.775	198.391
716.668	103.84
719.561	75.1758
722.453	97.8906
725.346	40.5
728.239	5.16797
731.131	84.9414
734.024	61.4258
736.917	73.875
739.809	3.99219
742.702	200.113
745.595	28.4297
748.488	175.246
751.38	66.168
754.273	218.734
757.166	80.3945
760.058	45.3398
762.951	6.13672
765.844	169.996
768.736	109.629
771.629	208.356
774.522	281.488
777.415	328.336
780.307	245.836
783.2	235.836
786.093	480.769
788.985	345.84
791.878	217.312
794.771	205.441
797.663	233.18
800.556	217.621
803.449	100.176
806.342	210.738
809.234	292.625
812.127	308.215
815.02	330.352
817.912	496.828
820.805	377.902
823.698	340.664
826.591	201.637
829.483	66.9297
832.376	198.293
835.269	22.8438
838.161	90.9688
841.054	11.5547
843.947	246.578
846.839	256.383
849.732	180.102
852.625	71.4766
855.518	96.1641
858.41	4.11719
861.303	103.82
864.196	234.672
867.088	38.3398
869.981	350.973
872.874	66.1328
875.766	270.57
878.659	142.863
881.552	200.684
884.444	140.91
887.337	243.434
890.23	239.34
893.123	22.6875
896.015	164.473
898.908	21.8242
901.801	317.07
904.693	113.402
907.586	284.125
910.479	126.84
913.371	44.4492
916.264	294.926
919.157	212.805
922.05	199.469
924.942	113.426
927.835	161.883
930.728	101.203
933.62	82.5156
936.513	8.64062
939.406	68.9297
942.298	178.988
945.191	142.769
948.084	62.2578
950.977	147.691
953.869	125.781
956.762	146.746
959.655	108.547
962.547	18.5508
965.44	49.8047
968.333	125.832
971.226	10.9805
974.118	144.738
977.011	254.219
979.904	199.91
982.796	95.4102
985.689	130.969
988.582	142.758
991.475	26.4023
994.367	236.793
997.26	188.606
1000.15	29.6016
1003.04	129.391
1005.94	266.617
1008.83	1.75781
1011.72	16.7266
1014.62	55.4531
1017.51	110.801
1020.4	161.633
1023.29	2.98438
1026.19	121.168
1029.08	129.531
1031.97	87.9375
1034.87	16.4688
1037.76	139.078
1040.65	28.5234
1043.54	281.262
1046.44	41.7695
1049.33	137.934
1052.22	165.539
1055.11	74.8867
1058.01	33.1484
1060.9	40.8477
1063.79	221.719
1066.68	71.3828
1069.58	145.984
1072.47	68.918
1075.36	132.746
1078.26	92.3242
1081.15	128.254
1084.04	222.371
1086.93	30.5547
1089.83	49.25
1092.72	52.8164
1095.61	112.664
1098.5	56.4375
1101.4	54.3008
1104.29	73.4102
1107.18	159.473
1110.08	34.2656
1112.97	233.832
1115.86	38.0977
1118.75	118.453
1121.65	61.0195
1124.54	225.879
1127.43	295.703
1130.32	233.324
1133.22	246.945
1136.11	353.832
1139	223.769
1141.89	226.176
1144.79	200.707
1147.68	341.32
1150.57	484.996
1153.47	412.738
1156.36	228.984
1159.25	289.219
1162.14	175.438
1165.04	140.172
1167.93	276.918
1170.82	233.402
1173.71	288.945
1176.61	130.012
1179.5	205.324
1182.39	92.875
1185.29	159.434
1188.18	295.773
1191.07	185.305
1193.96	357.324
1196.86	413.25
1199.75	282.746
1202.64	247.902
1205.53	155.152
1208.43	193.742
1211.32	91.5547
1214.21	215.332
1217.11	15.5273
1220	154.383
1222.89	181.676
1225.78	36.7656
1228.68	31.9805
1231.57	109.5
1234.46	6
1237.35	77.1875
1240.25	175.027
1243.14	112.328
1246.03	43.1055
1248.92	285.988
1251.82	60.8516
1254.71	45.5664
1257.6	92.832
1260.5	48.9336
1263.39	96.8477
1266.28	107.965
1269.17	161.113
1272.07	54.6328
1274.96	176.996
1277.85	32.3867
1280.74	38.2539
1283.64	85.8633
1286.53	6.09766
1289.42	68.9688
1292.32	54.2461
1295.21	209.332
1298.1	38.0625
1300.99	28.4727
