Measurement: Raman, 532 nm, unoriented, Raman Data Processed
Mineral: Ferro-gedrite
Rruff sample: R060330
Ideal chemistry: [box]Fe^2+^_2_(Fe^2+^_3_Al_2_)(Si_6_Al_2_)O_22_(OH)_2_
Locality: Kawai mine, Ena City, Gifu Prefecture, Japan
Source: Michael Scott
Description: Aggregate of greenish black bladed crystals
Raman shift (cm-1)	intensity
176.309	0
179.202	1.26874
182.094	0.604828
184.987	4.65436
187.88	2.34914
190.773	2.51523
193.665	6.66228
196.558	9.08383
199.451	9.32257
202.343	11.6377
205.236	13.0949
208.129	11.8245
211.021	14.4949
213.914	13.0427
216.807	13.8464
219.699	11.2771
222.592	7.8519
225.485	9.63637
228.377	11.4504
231.27	5.80594
234.163	7.65074
237.056	3.04425
239.948	4.12668
242.841	2.84607
245.734	1.68402
248.626	0.93869
251.519	0.638489
254.412	1.60834
257.305	2.68198
260.197	1.5025
263.09	1.13522
265.983	3.50375
268.875	4.80533
271.768	6.54144
274.661	0.814331
277.553	0.63797
280.446	2.17206
283.339	2.29968
286.232	1.86954
289.124	2.49826
292.017	4.6879
294.91	6.00183
297.802	3.91421
300.695	5.17679
303.588	5.45621
306.481	5.21472
309.373	2.26547
312.266	2.96228
315.159	1.9451
318.051	1.77737
320.944	0.93158
323.837	1.75024
326.729	0.606384
329.622	0.925385
332.515	1.54913
335.408	5.53168
338.3	2.71072
341.193	6.63013
344.086	3.62076
346.978	3.32596
349.871	4.74722
352.764	3.56094
355.656	2.61459
358.549	7.68048
361.442	6.44721
364.334	6.03629
367.227	9.78119
370.12	8.47171
373.012	7.50543
375.905	8.12622
378.798	14.5693
381.691	10.1333
384.583	12.8768
387.476	15.7842
390.369	17.5861
393.261	14.0634
396.154	14.5196
399.047	15.5386
401.94	10.4951
404.832	11.8948
407.725	12.9948
410.618	10.6797
413.51	9.2619
416.403	7.17837
419.296	6.52039
422.188	4.36072
425.081	4.10425
427.974	4.69714
430.866	3.56354
433.759	2.57028
436.652	2.24707
439.545	4.78119
442.437	3.55158
445.33	3.89703
448.223	0.114197
451.115	0.110748
454.008	0.284302
456.901	1.97485
459.793	0.152771
462.686	1.28375
465.579	1.73627
468.472	2.11932
471.364	0.676147
474.257	0.486176
477.15	0.015076
480.042	0.166779
482.935	4.39417
485.828	4.91809
488.721	5.95254
491.613	5.16177
494.506	6.37024
497.399	5.98172
500.291	9.05411
503.184	7.80148
506.077	8.19229
508.969	11.2203
511.862	9.78458
514.755	10.6565
517.648	12.8352
520.54	12.3763
523.433	14.5785
526.326	16.9308
529.218	11.5044
532.111	13.8325
535.004	13.4415
537.896	14.3401
540.789	12.7137
543.682	11.4598
546.575	11.2797
549.467	9.29379
552.36	12.759
555.253	11.2416
558.145	7.2113
561.038	3.42062
563.931	4.89111
566.823	5.32385
569.716	7.09119
572.609	4.66687
575.502	5.33243
578.394	2.06796
581.287	0.287384
584.18	1.78567
587.072	4.72305
589.965	1.04276
592.858	1.38098
595.75	1.15445
598.643	2.38428
601.536	0.401978
604.428	2.71619
607.321	2.95065
610.214	3.86093
613.107	7.10205
615.999	6.54578
618.892	8.71442
621.785	10.4808
624.677	12.0204
627.57	13.0897
630.463	15.8524
633.356	17.8759
636.248	19.1258
639.141	22.1378
642.034	22.7247
644.926	20.9567
647.819	24.1467
650.712	22.2616
653.604	23.9273
656.497	21.3616
659.39	22.671
662.283	18.0044
665.175	14.9862
668.068	13.2596
670.961	12.593
673.853	11.4848
676.746	8.39957
679.639	7.95593
682.531	7.51709
685.424	7.96005
688.317	6.4212
691.21	7.17697
694.102	4.63315
696.995	4.41769
699.888	6
702.78	0.506348
705.673	3.97687
708.566	1.27029
711.458	0.691223
714.351	3.8971
717.244	3.91
720.136	1.73035
723.029	2.79849
725.922	0.623749
728.815	0.382233
731.707	0.758087
734.6	1.5134
737.493	1.03833
740.385	1.3848
743.278	2.22565
746.171	3.43842
749.063	1.56958
751.956	3.47333
754.849	2.76984
757.742	3.11328
760.634	4.00284
763.527	5.43613
766.42	4.15427
769.312	4.49234
772.205	4.57614
775.098	8.46219
777.99	4.50714
780.883	5.92722
783.776	5.0947
786.669	4.85001
789.561	3.27908
792.454	5.70398
795.347	3.97894
798.239	1.48291
801.132	2.13696
804.025	0.758698
806.918	0.0625
809.81	3.84238
812.703	0.084076
815.596	1.51709
818.488	0.194244
821.381	0.219421
824.274	3.65122
827.166	0.78479
830.059	1.2431
832.952	2.33597
835.845	1.03333
838.737	0.86731
841.63	1.60663
844.523	2.52759
847.415	5.35892
850.308	3.54376
853.201	2.24121
856.093	5.18109
858.986	1.51123
861.879	5.29739
864.771	2.83328
867.664	2.38281
870.557	2.85205
873.45	4.60281
876.342	0.146973
879.235	2.25638
882.128	0.029724
885.02	2.15271
887.913	3.20184
890.806	3.24472
893.698	0.899902
896.591	2.78055
899.484	2.36273
902.377	1.61856
905.269	1.36905
908.162	1.75964
911.055	2.60519
913.947	1.64337
916.84	3.586
919.733	1.81982
922.625	2.67883
925.518	2.89658
928.411	1.17667
931.304	5.53983
934.196	2.0274
937.089	0.217804
939.982	1.60886
942.875	1.18887
945.767	1.80023
948.66	2.6474
951.553	2.83221
954.445	3.4722
957.338	5.44632
960.231	5.08801
963.123	4.69424
966.016	4.64514
968.909	4.23538
971.802	7.27136
974.694	8.41943
977.587	4.87122
980.48	9.2211
983.372	9.8193
986.265	13.6317
989.158	7.72849
992.05	12.9804
994.943	12.9473
997.836	11.0655
1000.73	11.2061
1003.62	9.61099
1006.51	10.6235
1009.41	12.5774
1012.3	9.17191
1015.19	8.26334
1018.09	6.27036
1020.98	7.31494
1023.87	3.01254
1026.76	5.62833
1029.66	3.58588
1032.55	5.4444
1035.44	5.10114
1038.33	4.19006
1041.23	1.10858
1044.12	0.09198
1047.01	3.01273
1049.9	0.283997
1052.8	2.06781
1055.69	0.105255
1058.58	1.19492
1061.47	0.303436
1064.37	1.24478
1067.26	1.47378
1070.15	1.05008
1073.05	0.66275
1075.94	1.97839
1078.83	3.7413
1081.72	2.01913
1084.62	4.04343
1087.51	2.05463
1090.4	3.75406
1093.3	3.09308
1096.19	2.5004
1099.08	4.29694
1101.97	1.84878
1104.87	5.84381
1107.76	3.43924
1110.65	3.63013
1113.54	4.59699
1116.44	2.24829
1119.33	2.80698
1122.22	1.95135
1125.12	3.66315
1128.01	1.21045
1130.9	2.78934
1133.79	1.76291
1136.68	2.00488
1139.58	3.40323
1142.47	1.18741
1145.36	0.955383
1148.26	1.77017
1151.15	0.528687
1154.04	2.01709
1156.93	1.64008
1159.83	2.07626
1162.72	1.3938
1165.61	0.913269
1168.51	2.44428
1171.4	4.30496
1174.29	1.11173
1177.18	2.73505
1180.08	2.97849
1182.97	0.710449
1185.86	5.09818
1188.75	3.46808
1191.65	1.53668
1194.54	3.17899
1197.43	3.11716
1200.33	2.23492
1203.22	5.92282
1206.11	4.67264
1209	3.78589
1211.9	6.26917
1214.79	3.89285
1217.68	0.652252
1220.57	2.31158
1223.47	1.56293
1226.36	3.69214
1229.25	2.70627
1232.14	1.89105
1235.04	2.99432
1237.93	5.19943
1240.82	2.75147
1243.71	3.13327
1246.61	0.941162
1249.5	0.546326
1252.39	7.00589
1255.29	2.94055
1258.18	3.98407
1261.07	2.6294
1263.96	0.799469
1266.86	7.49774
1269.75	5.50748
1272.64	3.85989
1275.54	3.42621
1278.43	3.76541
1281.32	1.33615
1284.21	0.356079
1287.11	0.864227
1290	2.45053
1292.89	2.35532
1295.78	4.35187
1298.68	2.58032
1301.57	3.35422
