Measurement: Raman, 780 nm, unoriented, Raman Data Processed
Mineral: Ferrostrunzite
Rruff sample: R100079
Ideal chemistry: Fe^2+^Fe^3+^_2_(P^5+^O_4_)_2_(OH)_2_6H_2_O
Locality: Hornerstown, Monmouth County, New Jersey, USA
Source: Jeff Weissman
Description: Radial sprays of colorless acicular crystals
Raman shift (cm-1)	intensity
129.138	0
132.031	2.6664
134.924	0.735138
137.816	0.155136
140.709	0.017502
143.602	0.925199
146.494	6.05185
149.387	3.16274
152.28	3.7561
155.173	6.29327
158.065	7.282
160.958	9.74503
163.851	12.4282
166.743	15.6829
169.636	14.6481
172.529	14.5476
175.422	10.7394
178.314	7.13005
181.207	7.28647
184.1	7.16539
186.992	7.97105
189.885	5.63371
192.778	7.94859
195.67	9.22415
198.563	8.22917
201.456	7.44464
204.349	9.12173
207.241	7.62032
210.134	9.55681
213.027	10.5368
215.919	8.79115
218.812	12.4098
221.705	12.0499
224.597	13.3118
227.49	15.7205
230.383	14.7125
233.275	12.8598
236.168	9.035
239.061	4.97475
241.954	1.40828
244.846	1.32144
247.739	2.27103
250.632	2.44658
253.524	5.06433
256.417	5.8017
259.31	4.66806
262.202	5.48436
265.095	5.79684
267.988	5.63261
270.881	3.65077
273.773	2.39696
276.666	4.04744
279.559	5.33348
282.451	7.5831
285.344	1.44983
288.237	5.44737
291.13	5.82165
294.022	5.632
296.915	6.7865
299.808	4.41095
302.7	6.4039
305.593	7.92751
308.486	6.4819
311.378	7.45923
314.271	5.21188
317.164	3.51871
320.057	4.02133
322.949	1.38673
325.842	2.16067
328.735	1.68472
331.627	0.731323
334.52	0.110214
337.413	1.0094
340.305	1.41504
343.198	0.749268
346.091	2.06986
348.984	2.66962
351.876	4.9823
354.769	3.37981
357.662	7.49617
360.554	8.34152
363.447	6.07054
366.34	8.57747
369.233	8.10373
372.125	8.77104
375.018	5.987
377.911	4.60539
380.803	2.29324
383.696	1.03606
386.589	2.61874
389.481	4.30858
392.374	1.4402
395.267	0.350143
398.159	0.900024
401.052	0.873901
403.945	2.30835
406.838	0.568481
409.73	0.613174
412.623	0.341995
415.516	0.224625
418.408	0.036377
421.301	0.630432
424.194	0.883743
427.087	2.46794
429.979	2.43082
432.872	4.41606
435.765	5.01096
438.657	6.29538
441.55	5.69452
444.443	7.50165
447.335	7.77148
450.228	8.25157
453.121	7.49216
456.014	9.4622
458.906	9.95322
461.799	10.7049
464.692	9.38374
467.584	11.392
470.477	12.442
473.37	12.5556
476.262	10.5263
479.155	9.33391
482.048	8.29825
484.94	8.22939
487.833	7.17819
490.726	4.91763
493.619	4.801
496.511	4.22081
499.404	3.32541
502.297	2.19482
505.189	2.49274
508.082	2.96925
510.975	1.21036
513.867	1.12035
516.76	2.29332
519.653	1.23144
522.545	1.96529
525.438	0.84552
528.331	0.596863
531.224	1.55858
534.116	2.71477
537.009	0.743149
539.902	3.2834
542.794	3.88965
545.687	2.58615
548.58	3.41255
551.472	3.70137
554.365	3.01912
557.258	3.56854
560.151	4.65767
563.043	4.67592
565.936	4.30066
568.829	2.67679
571.721	3.2724
574.614	3.25812
577.507	4.52568
580.399	3.6694
583.292	4.00986
586.185	0.803055
589.078	2.78012
591.97	0.741257
594.863	0.941544
597.756	1.16672
600.649	0.994934
603.541	0.587006
606.434	0.728455
609.327	0.548691
612.219	0.940445
615.112	1.14623
618.005	0.8965
620.897	0.909866
623.79	1.0051
626.683	1.49554
629.576	1.63779
632.468	2.24428
635.361	3.47284
638.254	4.6022
641.146	4.20955
644.039	3.14655
646.932	3.02435
649.824	2.42381
652.717	2.35019
655.61	1.23787
658.503	1.2607
661.395	2.07742
664.288	1.13355
667.181	0.660034
670.073	2.47156
672.966	1.87941
675.859	0.451729
678.751	2.32497
681.644	1.14632
684.537	1.91345
687.429	0.246094
690.322	0.338562
693.215	1.45496
696.108	1.07072
699	2.96479
701.893	2.88847
704.786	0.110733
707.678	0.993431
710.571	2.33179
713.464	2.67188
716.356	3.04945
719.249	2.47233
722.142	2.66724
725.035	2.12513
727.927	0.440742
730.82	2.08184
733.713	2.91747
736.605	1.085
739.498	0.991112
742.391	1.12653
745.284	0.477753
748.176	2.1308
751.069	2.29948
753.962	1.07642
756.854	1.86445
759.747	2.29659
762.64	3.50382
765.532	0.534599
768.425	2.10142
771.318	1.70603
774.211	0.727257
777.103	0.954697
779.996	0.570404
782.889	0.551109
785.781	0.909409
788.674	2.19225
791.567	0.666672
794.459	1.32754
797.352	1.47314
800.245	1.89336
803.138	1.07187
806.03	3.4015
808.923	2.02066
811.816	1.25982
814.708	3.46193
817.601	1.4123
820.494	0.855827
823.386	1.72643
826.279	1.26797
829.172	2.57074
832.064	3.16001
834.957	2.59174
837.85	0.10408
840.743	2.61556
843.635	1.8991
846.528	1.05752
849.421	3.19993
852.313	2.03093
855.206	1.52911
858.099	1.12604
860.991	1.09753
863.884	1.45322
866.777	1.26216
869.67	2.30982
872.562	0.726624
875.455	2.80029
878.348	1.99078
881.24	2.41448
884.133	2.52438
887.026	0.306671
889.918	1.4232
892.811	1.30624
895.704	1.08358
898.597	1.5698
901.489	2.97883
904.382	2.46015
907.275	0.977173
910.167	1.96653
913.06	0.857704
915.953	0.368706
918.846	0.894249
921.738	0.762512
924.631	0.440453
927.524	0.598816
930.416	1.14727
933.309	0.383965
936.202	0.30677
939.094	0.83313
941.987	0.631622
944.88	0.618843
947.773	0.377838
950.665	1.12429
953.558	0.162453
956.451	0.70681
959.343	1.6635
962.236	1.6594
965.129	4.61169
968.021	4.92345
970.914	6.28507
973.807	7.87279
976.699	8.7128
979.592	10.1021
982.485	13.5763
985.378	14.7016
988.27	16.3449
991.163	15.5412
994.056	16.5364
996.948	16.2552
999.841	18.2708
1002.73	18.3652
1005.63	20.2802
1008.52	19.9879
1011.41	20.8871
1014.3	21.062
1017.2	17.7277
1020.09	16.3012
1022.98	13.7152
1025.88	11.0356
1028.77	7.80006
1031.66	5.76421
1034.55	2.12875
1037.45	3.72252
1040.34	2.35747
1043.23	2.22751
1046.12	1.01262
1049.02	1.9179
1051.91	2.14767
1054.8	5.74186
1057.69	3.2035
1060.59	4.95064
1063.48	6.94296
1066.37	7.80307
1069.27	7.98248
1072.16	5.73411
1075.05	5.01095
1077.94	2.55697
1080.84	1.6815
1083.73	3.08943
1086.62	2.40287
1089.52	1.32352
1092.41	3.2413
1095.3	1.7664
1098.19	2.17891
1101.09	3.2801
1103.98	5.1246
1106.87	5.65842
1109.76	4.37784
1112.66	4.79878
1115.55	5.15346
1118.44	3.98807
1121.34	2.97122
1124.23	1.72424
1127.12	1.72177
1130.01	0.013145
1132.9	1.12854
1135.8	0.943489
1138.69	0.355515
1141.58	0.225609
1144.48	0.182541
1147.37	0.309456
1150.26	0.639465
1153.15	0.890572
1156.05	0.167076
1158.94	0.031059
1161.83	0.736534
1164.72	1.92553
1167.62	0.20565
1170.51	1.86747
1173.4	0.197548
1176.3	2.01508
1179.19	2.55057
1182.08	3.15473
1184.97	2.69364
1187.87	2.10641
1190.76	1.66142
1193.65	3.63345
1196.55	4.12444
1199.44	2.2664
1202.33	2.58382
1205.22	2.99907
1208.12	2.21908
1211.01	1.77552
1213.9	3.55632
1216.79	2.65295
1219.69	3.26858
1222.58	1.99989
1225.47	2.84156
1228.37	2.33931
1231.26	1.35381
1234.15	1.90633
1237.04	1.7296
1239.93	1.49767
1242.83	1.37602
1245.72	2.05472
1248.61	2.19717
1251.51	0.156517
1254.4	1.80314
1257.29	3.2108
1260.18	0.423523
1263.08	1.14081
1265.97	1.91894
1268.86	0.729149
1271.76	1.55186
1274.65	0.588341
1277.54	0.066589
1280.43	0.923706
1283.33	0.15744
