Measurement: Raman, 785 nm, unoriented, Raman Data Processed
Mineral: Ferro-gedrite
Rruff sample: R070531
Ideal chemistry: [box]Fe^2+^_2_(Fe^2+^_3_Al_2_)(Si_6_Al_2_)O_22_(OH)_2_
Locality: Ludvika, Dalarna District, Kopparberg, Sweden
Source: James Shigley
Description: Flattened black prismatic crystals in semi-sheaflike aggregates, associated with quartz
Measured chemistry: (Na_0.56_[box]_0.44_)_Σ=1_(Fe^2+^_1.94_Mn_0.05_Ca_0.01_)_Σ=2_(Fe^2+^_1.92_Mg_1.53_Al_1.52_Fe^3+^_0.02_Ti_0.01_)_Σ=5_(Si_5.88_Al_2.12_)_Σ=8_O_22_(OH)_2_; = light phase, and the dark phase is quartz
Raman shift (cm-1)	intensity
155.148	0
158.041	1.26856
160.933	32.6255
163.826	28.9136
166.719	57.6067
169.611	94.7395
172.504	124.436
175.397	113.047
178.29	163.556
181.182	130.952
184.075	100.035
186.968	35.7322
189.86	58.9783
192.753	127.435
195.646	164.09
198.538	206.028
201.431	293.959
204.324	399.697
207.216	518.025
210.109	536.066
213.002	583.956
215.895	568.69
218.787	542.382
221.68	429.755
224.573	286.458
227.465	195.381
230.358	132.319
233.251	65.5121
236.143	38.8557
239.036	33.9906
241.929	6.24902
244.822	12.4409
247.714	3.42065
250.607	6.22961
253.5	8.39062
256.392	20.6117
259.285	26.7125
262.178	14.544
265.07	52.8651
267.963	59.4469
270.856	66.2686
273.749	94.4034
276.641	101.477
279.534	97.9517
282.427	114.317
285.32	90.819
288.212	118.179
291.105	116.415
293.998	72.1593
296.89	94.7959
299.783	77.6506
302.676	77.2518
305.568	64.3175
308.461	61.4801
311.354	7.71314
314.247	49.9596
317.139	2.13049
320.032	18.4927
322.925	11.0168
325.817	22.4927
328.71	30.4696
331.603	52.7772
334.495	30.6975
337.388	17.2147
340.281	20.746
343.173	46.2106
346.066	29.4775
348.959	36.8029
351.852	23.9966
354.744	11.7992
357.637	30.8619
360.53	1.63989
363.422	26.8433
366.315	57.9454
369.208	55.7174
372.101	87.205
374.993	132.556
377.886	193.336
380.779	220.18
383.671	269.438
386.564	255.354
389.457	284.28
392.349	301.488
395.242	308.498
398.135	333.9
401.027	316.622
403.92	341.443
406.813	323.658
409.706	326.709
412.598	327.453
415.491	312.773
418.384	300.652
421.276	249.648
424.169	198.506
427.062	170.098
429.954	125.274
432.847	75.616
435.74	54.2776
438.633	42.1564
441.525	14.831
444.418	8.34143
447.311	1.97449
450.203	11.2701
453.096	7.44275
455.989	4.26941
458.882	15.4951
461.774	6.49341
464.667	6.42029
467.56	1.18616
470.452	11.235
473.345	8.05969
476.238	8.19531
479.13	10.5133
482.023	25.3373
484.916	49.0083
487.808	32.2272
490.701	66.021
493.594	91.0223
496.487	136.395
499.379	154.885
502.272	183.892
505.165	187.448
508.057	215.863
510.95	206.233
513.843	247.51
516.736	274.913
519.628	288.166
522.521	337.337
525.414	338.43
528.306	357.52
531.199	345.113
534.092	394.395
536.984	354.226
539.877	306.331
542.77	337.597
545.663	288.751
548.555	286.018
551.448	268.285
554.341	250.178
557.233	204.201
560.126	204.736
563.019	176.854
565.911	162.319
568.804	123.447
571.697	90.4264
574.59	96.0815
577.482	77.5654
580.375	38.7798
583.268	54.8235
586.16	17.7661
589.053	7.99585
591.946	8.16748
594.838	3.026
597.731	14.3938
600.624	14.3771
603.516	12.8395
606.409	0.797729
609.302	47.4816
612.195	30.7683
615.087	62.5973
617.98	103.726
620.873	151.555
623.765	181.103
626.658	238.159
629.551	244.694
632.443	274.867
635.336	339.73
638.229	340.608
641.122	327.668
644.014	353.599
646.907	344.277
649.8	357.77
652.692	365.794
655.585	365.409
658.478	366.827
661.37	328.963
664.263	343.16
667.156	293.242
670.049	235.395
672.941	203.795
675.834	165.7
678.727	132.483
681.619	116.155
684.512	111.765
687.405	80.213
690.298	67.7531
693.19	58.7842
696.083	66.6879
698.976	55.0978
701.868	23.606
704.761	31.4188
707.654	8.24414
710.547	26.7612
713.439	6.73389
716.332	21.6998
719.225	13.5879
722.117	20.4256
725.01	10.4509
727.903	1.83069
730.795	9.56043
733.688	11.5644
736.581	15.5655
739.473	25.2171
742.366	2.45825
745.259	23.4875
748.152	24.4955
751.044	25.0892
753.937	18.0347
756.83	40.0454
759.722	16.5741
762.615	36.6019
765.508	21.7333
768.4	25.8559
771.293	5.38641
774.186	23.265
777.079	26.0037
779.971	34.9155
782.864	26.3066
785.757	29.2744
788.649	1.28314
791.542	44.5697
794.435	33.5555
797.327	15.1177
800.22	14.8665
803.113	9.66101
806.006	10.9376
808.898	18.2764
811.791	9.63214
814.684	1.00507
817.576	13.3986
820.469	2.56409
823.362	19.6121
826.255	22.1365
829.147	1.7478
832.04	0.593262
834.933	22.5563
837.825	17.1495
840.718	18.9308
843.611	19.1788
846.503	26.3388
849.396	10.001
852.289	22.6854
855.182	11.2177
858.074	5.34656
860.967	37.5926
863.86	2.84277
866.752	1.3714
869.645	17.4503
872.538	9.9696
875.43	2.53723
878.323	16.4299
881.216	4.39996
884.109	0.496704
887.001	16.507
889.894	5.12976
892.787	22.4338
895.679	0.750183
898.572	18.5217
901.465	0.775146
904.357	12.6956
907.25	15.5447
910.143	23.7219
913.035	11.8559
915.928	19.804
918.821	17.8196
921.714	2.07873
924.606	35.4241
927.499	0.456848
930.392	14.4498
933.284	36.9136
936.177	35.8758
939.07	50.0894
941.962	47.3856
944.855	15.5884
947.748	18.2188
950.641	33.3505
953.533	57.7383
956.426	60.0498
959.319	63.4893
962.212	55.2927
965.104	52.6165
967.997	46.7433
970.89	61.5552
973.782	71.5849
976.675	76.0899
979.568	76.5807
982.46	57.9825
985.353	69.3975
988.246	85.0734
991.139	93.0854
994.031	65.912
996.924	92.0198
999.817	78.4489
1002.71	97.9116
1005.6	94.6609
1008.5	113.359
1011.39	77.7716
1014.28	55.3643
1017.17	69.2637
1020.07	56.5929
1022.96	45.2058
1025.85	20.0605
1028.74	18.9552
1031.64	39.4902
1034.53	10.4773
1037.42	29.5645
1040.31	3.69055
1043.21	1.59137
1046.1	35.9394
1048.99	21.3316
1051.88	8.79999
1054.78	1.81384
1057.67	9.20727
1060.56	22.3007
1063.46	5.61444
1066.35	8.29767
1069.24	7.28168
1072.13	7.67206
1075.03	1.78198
1077.92	21.9258
1080.81	28.8712
1083.7	0.691284
1086.6	18.8108
1089.49	21.7566
1092.38	20.591
1095.28	40.0192
1098.17	21.5092
1101.06	27.0794
1103.95	25.2256
1106.85	27.1862
1109.74	24.1315
1112.63	29.2798
1115.53	43.0315
1118.42	50.6736
1121.31	22.5036
1124.2	24.7906
1127.1	25.0919
1129.99	24.2625
1132.88	30.1992
1135.77	25.0189
1138.67	14.2123
1141.56	27.248
1144.45	31.1393
1147.34	23.3629
1150.24	22.6912
1153.13	16.2278
1156.02	10.9966
1158.91	11.7402
1161.81	17.8458
1164.7	13.0679
1167.59	20.4571
1170.49	25.553
1173.38	2.65308
1176.27	15.764
1179.16	20.2613
1182.06	5.94299
1184.95	8.92041
1187.84	2.92706
1190.73	12.1732
1193.63	8.19525
1196.52	31.7061
1199.41	25.8582
1202.31	25.9308
1205.2	13.9888
1208.09	1.15894
1210.98	39.24
1213.88	11.9714
1216.77	4.4917
1219.66	23.3256
1222.56	58.1251
1225.45	21.6851
1228.34	50.9868
1231.23	35.1711
1234.12	25.5602
1237.02	14.5359
1239.91	39.4547
1242.8	4.34381
1245.7	11.3789
1248.59	0.702148
1251.48	8.94788
1254.37	19.6933
1257.27	4.70709
1260.16	17.2608
1263.05	11.9917
1265.94	4.39154
1268.84	6.75659
