Measurement: Raman, 532 nm, unoriented, Raman Data Processed
Mineral: Ferroselite
Rruff sample: R070461
Ideal chemistry: FeSe_2_
Locality: Virgin No. 3 mine, Paradox Valley, Uravan District,  Montrose County, Colorado, USA
Source: Michael Scott
Description: Yellowish silver metallic prismatic crystals. Used in the Lavina et al (2018) study
Measured chemistry: Fe_1.00_Se_2.00_
Raman shift (cm-1)	intensity
165.101	0
167.994	31.2898
170.886	74.1321
173.779	136.359
176.672	338.28
179.565	615.474
182.457	626.015
185.35	174.711
188.243	65.293
191.135	61.5474
194.028	24.3923
196.921	31.8084
199.813	18.5232
202.706	72.3357
205.599	79.1829
208.492	54.5137
211.384	174.819
214.277	200.542
217.17	329.789
220.062	165.274
222.955	91.8916
225.848	26.4248
228.74	40.092
231.633	68.8816
234.526	34.6069
237.418	19.0371
240.311	33.5151
243.204	33.8643
246.097	43.3252
248.989	24.4634
251.882	26.7825
254.775	74.0391
257.667	11.2119
260.56	40.0901
263.453	23.4265
266.346	56.9065
269.238	35.7937
272.131	63.6338
275.024	7.56543
277.916	40.9292
280.809	41.9629
283.702	8.80859
286.594	23.9973
289.487	40.011
292.38	7.75195
295.272	13.5308
298.165	76.3687
301.058	44.8794
303.951	2.88184
306.843	27.0654
309.736	34.2178
312.629	54.6672
315.521	34.0117
318.414	50.6011
321.307	59.4316
324.2	67.5027
327.092	50.3332
329.985	20.4951
332.878	26.4702
335.77	1.43408
338.663	34.499
341.556	23.2068
344.449	5.10938
347.341	47.8225
350.234	42.9753
353.127	23.6396
356.019	43.9434
358.912	30.9705
361.805	76.833
364.697	24.2703
367.59	28.4199
370.483	59.5591
373.375	20.4675
376.268	58.3657
379.161	5.88403
382.054	30.4258
384.946	65.5496
387.839	19.3867
390.732	45.8147
393.624	28.7131
396.517	42.28
399.41	10.5513
402.303	25.9851
405.195	80.0881
408.088	43.7471
410.981	70.5054
413.873	26.9092
416.766	47.0339
419.659	20.468
422.551	48.2378
425.444	43.6282
428.337	34.917
431.229	72.2908
434.122	72.0752
437.015	28.5818
439.908	81.5437
442.8	23.9636
445.693	9.99341
448.586	61.6121
451.478	40.9619
454.371	64.5767
457.264	18.8709
460.156	34.3804
463.049	36.3897
465.942	19.176
468.835	38.2617
471.727	65.4421
474.62	72.0562
477.513	61.3113
480.405	10.468
483.298	49.7688
486.191	33.6382
489.084	9.61279
491.976	6.77539
494.869	18.7231
497.762	5.72729
500.654	60.1526
503.547	5.69775
506.44	3.73047
509.332	40.6604
512.225	5.99561
515.118	99.9695
518.01	39.0505
520.903	26.9055
523.796	26.2756
526.689	44.4853
529.581	41.926
532.474	72.9951
535.367	62.4133
538.259	35.2446
541.152	54.0063
544.045	101.399
546.938	18.3386
549.83	71.9407
552.723	11.0237
555.616	71.1045
558.508	47.0237
561.401	73.7092
564.294	9.75366
567.186	22.6277
570.079	45.665
572.972	12.699
575.865	47.8547
578.757	68.6025
581.65	22.9766
584.543	66.7451
587.435	45.8945
590.328	11.9504
593.221	58.9963
596.114	56.8088
599.006	7.89624
601.899	34.9434
604.792	59.0618
607.684	88.7515
610.577	87.8076
613.47	65.7307
616.362	42.0832
619.255	46.9648
622.148	23.5977
625.04	21.8159
627.933	88.0986
630.826	14.084
633.719	57.5532
636.611	47.4651
639.504	33.5066
642.397	39.0918
645.289	82.0613
648.182	37.4446
651.075	59.2676
653.967	31.7039
656.86	102.013
659.753	40.1958
662.646	67.3645
665.538	22.8115
668.431	63.6299
671.324	3.83228
674.216	64.9558
677.109	47.1765
680.002	35.53
682.894	19.9954
685.787	29.5295
688.68	56.0493
691.573	62.6728
694.465	29.7356
697.358	31.4944
700.251	55.207
703.143	84.5315
706.036	25.8469
708.929	14.8276
711.822	34.0742
714.714	46.3957
717.607	23.0186
720.5	7.79248
723.392	18.3315
726.285	22.2207
729.178	35.283
732.07	12.9224
734.963	19.7207
737.856	25.5571
740.749	85.9448
743.641	68.1055
746.534	45.9268
749.427	57.4614
752.319	50.0256
755.212	3.87183
758.105	27.8491
760.997	47.3879
763.89	42.9697
766.783	16.0872
769.676	39.1282
772.568	31.0169
775.461	63.186
778.354	6.43384
781.246	19.1248
784.139	55.2693
787.032	32.3479
789.924	77.7949
792.817	17.5247
795.71	21.259
798.602	53.9995
801.495	10.229
804.388	86.7192
807.281	5.77539
810.173	61.2444
813.066	36.0657
815.959	17.1135
818.851	16.8784
821.744	31.1682
824.637	45.0835
827.529	71.7036
830.422	60.9749
833.315	81.291
836.208	12.3489
839.1	24.8032
841.993	12.6333
844.886	84.3062
847.778	69.6909
850.671	26.9561
853.564	51.6094
856.457	25.5972
859.349	43.6826
862.242	39.3648
865.135	17.7974
868.027	52.2944
870.92	90.645
873.813	39.5772
876.705	47.9185
879.598	83.9297
882.491	66.7451
885.384	0.541504
888.276	65.1191
891.169	84.1558
894.062	73.0825
896.954	42.3882
899.847	61.7315
902.74	91.249
905.632	56.9487
908.525	38.8726
911.418	60.2124
914.311	19.085
917.203	82.0347
920.096	35.6641
922.989	24.0435
925.881	42.3799
928.774	49.9346
931.667	49.4556
934.559	37.2617
937.452	49.3252
940.345	6.50244
943.237	37.2417
946.13	42.8008
949.023	30.3403
951.916	8.09815
954.808	11.1069
957.701	0.01416
960.594	99.3232
963.486	25.7651
966.379	80.731
969.272	58.3159
972.165	26.9258
975.057	18.5801
977.95	28.0029
980.843	0.062012
983.735	18.6299
986.628	1.4043
989.521	32.2432
992.413	55.8262
995.306	19.0278
998.199	20.1284
1001.09	2.17725
1003.98	25.8276
1006.88	36.6645
1009.77	46.5005
1012.66	65.3164
1015.55	38.5459
1018.45	38.919
1021.34	20.3672
1024.23	14.4893
1027.13	77.6103
1030.02	10.6963
1032.91	31.0771
1035.8	17.7559
1038.7	14.2344
1041.59	20.8345
1044.48	64.126
1047.38	63.852
1050.27	43.6309
1053.16	37.7671
1056.05	35.8428
1058.95	82.0127
1061.84	66.1489
1064.73	43.5967
1067.62	33.5073
1070.52	65.2466
1073.41	34.0884
1076.3	4.09912
1079.19	47.5102
1082.09	4.81201
1084.98	34.6592
1087.87	44.6812
1090.77	26.1836
1093.66	68.7817
1096.55	67.9824
1099.44	40.7715
1102.34	34.1162
1105.23	81.9546
1108.12	22.6455
1111.01	49.4927
1113.91	43.2593
1116.8	23.0259
1119.69	43.6645
1122.59	13.9443
1125.48	2.6958
1128.37	7.2417
1131.26	19.4551
1134.16	78.1479
1137.05	43.8447
1139.94	29.9077
1142.83	90.6152
1145.73	8.60059
1148.62	38.9546
1151.51	101.403
1154.4	45.9766
1157.3	45.0459
1160.19	29.1304
1163.08	41.7383
1165.98	15.3496
1168.87	18.7021
1171.76	77.3188
1174.65	84.5068
1177.55	63.6768
1180.44	71.6216
1183.33	54.7964
1186.22	104.806
1189.12	77.145
1192.01	19.2842
1194.9	64.2793
1197.8	96.8648
1200.69	17.0986
1203.58	43.3852
1206.47	18.5327
1209.37	54.707
1212.26	10.6919
1215.15	31.626
1218.04	35.4102
1220.94	113.129
1223.83	113.4
1226.72	53.313
1229.62	7.78271
1232.51	18.8184
1235.4	36.0762
1238.29	43.106
1241.19	42.916
1244.08	17.0078
1246.97	40.2822
1249.86	50.1348
1252.76	39.5098
1255.65	7.63037
1258.54	42.75
1261.43	24.0371
1264.33	28.8862
1267.22	57.6206
1270.11	63.6309
1273.01	62.5322
1275.9	20.3042
1278.79	0.569824
1281.68	26.104
1284.58	44.5122
1287.47	76.4741
1290.36	45.7417
1293.25	122.583
1296.15	59.7017
1299.04	0.053711
