Measurement: Raman, 785 nm, unoriented, Raman Data Processed
Mineral: Ferroceladonite
Rruff sample: R070442
Ideal chemistry: KFe^2+^Fe^3+^Si_4_O_10_(OH)_2_
Locality: Gravel Quarry, Mikhailov, Ryazanskaya Oblast', North-Western Region, Russia
Source: Michael Scott
Description: Massive aggregate of micaceous green play crystals, bright green when thin
Raman shift (cm-1)	intensity
180.218	0
183.111	158.649
186.003	401.362
188.896	445.81
191.789	536.227
194.681	605.602
197.574	688.956
200.467	614.894
203.359	616.624
206.252	600.34
209.145	599.325
212.038	534.198
214.93	403.22
217.823	318.547
220.716	217.377
223.608	230.62
226.501	96.8369
229.394	16.0723
232.286	71.0342
235.179	100.564
238.072	10.0518
240.964	7.63574
243.857	15.8271
246.75	79.8975
249.643	155.169
252.535	278.566
255.428	387.445
258.321	417.296
261.213	525.796
264.106	557.138
266.999	584.562
269.892	533.442
272.784	604.174
275.677	553.566
278.57	654.453
281.462	573.164
284.355	509.199
287.248	501.131
290.14	374.11
293.033	309.84
295.926	228.625
298.818	96.8125
301.711	73.8428
304.604	98.6445
307.497	56.1211
310.389	13.0967
313.282	1.625
316.175	10.9014
319.067	26.5342
321.96	2.37109
324.853	54.2168
327.745	3.91992
330.638	29.0703
333.531	65.7422
336.424	87.1475
339.316	169.795
342.209	216.51
345.102	320.244
347.994	450.203
350.887	455.647
353.78	439.322
356.673	576.812
359.565	626.094
362.458	702.095
365.351	824.238
368.243	894.89
371.136	912.085
374.029	977.968
376.921	1032.54
379.814	1024.84
382.707	979.832
385.599	946.487
388.492	896.573
391.385	862.679
394.278	822.938
397.17	734.294
400.063	669.75
402.956	591.12
405.848	506.379
408.741	431.684
411.634	361.353
414.526	328.494
417.419	268.775
420.312	148.85
423.205	130.632
426.097	121.949
428.99	124.541
431.883	61.0693
434.775	75.0493
437.668	69.3926
440.561	41.9927
443.454	14.6401
446.346	53.2559
449.239	10.8223
452.132	34.1953
455.024	10.4331
457.917	21.2974
460.81	16.1362
463.702	22.8843
466.595	35.9028
469.488	6.26953
472.38	25.2207
475.273	98.4722
478.166	179.581
481.059	218.348
483.951	292.65
486.844	361.194
489.737	423.937
492.629	448.329
495.522	475.789
498.415	529.818
501.308	601.163
504.2	612.83
507.093	711.352
509.986	697.924
512.878	787.001
515.771	827.727
518.664	863.175
521.556	877.745
524.449	935.843
527.342	976.517
530.234	1026.59
533.127	1115.64
536.02	1156.21
538.913	1265.73
541.805	1275.69
544.698	1274.45
547.591	1260.7
550.483	1131.7
553.376	1046.81
556.269	963.204
559.161	803.291
562.054	764.246
564.947	632.34
567.84	504.166
570.732	418.001
573.625	363.024
576.518	272.034
579.41	193.675
582.303	156.8
585.196	147.611
588.088	65.3569
590.981	76.8994
593.874	65.6694
596.766	44.936
599.659	7.41113
602.552	19.0098
605.445	17.0884
608.337	33.1025
611.23	14.2065
614.123	9.38818
617.015	29.227
619.908	13.8125
622.801	43.2124
625.693	16.7485
628.586	65.3403
631.479	12.5034
634.372	40.1992
637.264	67.605
640.157	53.5293
643.05	75.2256
645.942	61.4575
648.835	121.332
651.728	110.6
654.62	88.9971
657.513	132.006
660.406	133.284
663.299	81.9468
666.191	104.845
669.084	128.65
671.977	192.819
674.869	165.177
677.762	159.664
680.655	160.365
683.548	227.816
686.44	203.944
689.333	202.404
692.226	229.435
695.118	229.412
698.011	159.762
700.904	155.341
703.796	82.5332
706.689	111.434
709.582	93.7915
712.475	75.4849
715.367	4.84326
718.26	61.2676
721.153	89.4619
724.045	91.5986
726.938	53.1162
729.831	2.29883
732.723	36.437
735.616	25.6314
738.509	41.252
741.402	62.7983
744.294	17.6543
747.187	48.6392
750.08	16.1543
752.972	42.8184
755.865	10.6626
758.758	55.5259
761.65	56.3867
764.543	61.8789
767.436	31.4365
770.328	25.4829
773.221	9.81006
776.114	58.0889
779.007	54.478
781.899	67.6172
784.792	71.2686
787.685	70.2402
790.577	92.0757
793.47	51.8481
796.363	61.9512
799.255	25.7227
802.148	65.1709
805.041	85.9702
807.934	85.4829
810.826	91.0732
813.719	59.0576
816.612	81.7124
819.504	55.0747
822.397	34.979
825.29	35.9678
828.183	46.9849
831.075	33.8438
833.968	10.292
836.861	68.6836
839.753	6.0083
842.646	37.8955
845.539	25.7915
848.431	5.19824
851.324	25.5059
854.217	38.0772
857.109	58.9688
860.002	83.2734
862.895	61.9199
865.788	71.7607
868.68	54.397
871.573	39.4243
874.466	70.2949
877.358	33.0986
880.251	31.2451
883.144	18.3745
886.036	42.4165
888.929	71.7466
891.822	30.9839
894.715	57.2266
897.607	37.4062
900.5	83.2466
903.393	57.9463
906.285	66.3052
909.178	41.54
912.071	10.5029
914.963	18.9092
917.856	28.9214
920.749	69.7222
923.641	48.4443
926.534	35.8545
929.427	86.3496
932.32	62.4634
935.212	36.0107
938.105	47.9145
940.998	61.3179
943.89	46.7734
946.783	66
949.676	32.2246
952.568	9.67334
955.461	1.3999
958.354	38.6592
961.247	26.0942
964.139	12.4551
967.032	0.65332
969.925	20.4082
972.817	44.1616
975.71	7.8667
978.603	41.0303
981.495	2.00781
984.388	42.2681
987.281	47.4443
990.174	66.4106
993.066	33.6738
995.959	64.6274
998.852	28.023
1001.74	44.3625
1004.64	17.9775
1007.53	68.8809
1010.42	24.2561
1013.32	70.572
1016.21	121.449
1019.1	79.197
1021.99	51.865
1024.89	71.4934
1027.78	92.575
1030.67	108.432
1033.56	69.5772
1036.46	103.123
1039.35	45.3589
1042.24	69.9446
1045.13	94.469
1048.03	56.4495
1050.92	102.049
1053.81	56.4575
1056.71	78.0134
1059.6	39.4036
1062.49	37.884
1065.38	33.6148
1068.28	24.6365
1071.17	58.8552
1074.06	148.496
1076.95	58.6418
1079.85	121.864
1082.74	18.5005
1085.63	82.7639
1088.53	66.7353
1091.42	51.5205
1094.31	33.4168
1097.2	39.1638
1100.1	80.5085
1102.99	40.8081
1105.88	36.1951
1108.77	22.0947
1111.67	30.4946
1114.56	17.9519
1117.45	25.4697
1120.35	52.4795
1123.24	31.5601
1126.13	20.9473
1129.02	38.1917
1131.92	11.6089
1134.81	52.3611
1137.7	25.8774
1140.59	22.5146
1143.49	1.1897
1146.38	27.8589
1149.27	75.2546
1152.16	8.16943
1155.06	64.0229
1157.95	2.46728
1160.84	35.0525
1163.74	56.3813
1166.63	49.4517
1169.52	45.3386
1172.41	28.4998
1175.31	55.0459
1178.2	101.309
1181.09	20.4224
1183.98	31.6692
1186.88	37.5559
1189.77	18.1228
1192.66	66.5772
1195.56	34.3025
1198.45	43.8816
1201.34	43.2685
1204.23	21.9109
1207.13	53.6189
1210.02	97.4507
1212.91	42.9089
1215.8	42.334
1218.7	64.3223
1221.59	1.57446
1224.48	17.8625
1227.38	59.0371
1230.27	23.2798
1233.16	39.8916
1236.05	63.7471
1238.95	29.5242
1241.84	18.6548
1244.73	1.42749
1247.62	44.4541
1250.52	28.3132
