Measurement: Raman, 532 nm, unoriented, Raman Data Processed
Mineral: Ferroceladonite
Rruff sample: R070442
Ideal chemistry: KFe^2+^Fe^3+^Si_4_O_10_(OH)_2_
Locality: Gravel Quarry, Mikhailov, Ryazanskaya Oblast', North-Western Region, Russia
Source: Michael Scott
Description: Massive aggregate of micaceous green play crystals, bright green when thin
Raman shift (cm-1)	intensity
188.243	0
191.135	18.4883
194.028	108.793
196.921	110.669
199.813	163.112
202.706	198.148
205.599	164.581
208.492	117.857
211.384	101.572
214.277	94.3477
217.17	45.9114
220.062	10.387
222.955	18.5515
225.848	21.5039
228.74	39.2307
231.633	55.6084
234.526	20.6123
237.418	23.678
240.311	25.95
243.204	8.9646
246.097	13.8057
248.989	40.8984
251.882	99.8018
254.775	153.232
257.667	206.785
260.56	258.872
263.453	304.404
266.346	340.15
269.238	382.151
272.131	428.888
275.024	466.822
277.916	434.61
280.809	336.283
283.702	273.489
286.594	184.431
289.487	210.551
292.38	113.013
295.273	85.119
298.165	78.4434
301.058	82.323
303.951	87.4204
306.843	69.3107
309.736	130.796
312.629	108.555
315.522	99.7562
318.414	101.017
321.307	64.1095
324.2	33.2534
327.092	15.3834
329.985	18.1119
332.878	18.9959
335.77	12.026
338.663	11.5781
341.556	23.1954
344.449	25.2445
347.341	80.3147
350.234	45.5232
353.127	84.8166
356.019	113.916
358.912	113.529
361.805	96.1395
364.697	117.332
367.59	109.811
370.483	137.77
373.375	170.211
376.268	165.943
379.161	207.54
382.054	189.935
384.946	173.931
387.839	155.9
390.732	122.962
393.624	135.093
396.517	97.4172
399.41	97.9701
402.303	97.4088
405.195	75.9199
408.088	35.1807
410.981	30.5818
413.873	25.0217
416.766	3.23401
419.659	6.17944
422.551	13.7985
425.444	15.4624
428.337	28.9855
431.229	22.543
434.122	104.483
437.015	124.624
439.908	136.098
442.8	216.17
445.693	206.095
448.586	192.715
451.478	190.16
454.371	195.606
457.264	192.552
460.156	116.799
463.049	73.0922
465.942	25.965
468.835	51.327
471.727	21.8271
474.62	15.1908
477.513	34.4338
480.405	15.8229
483.298	52.483
486.191	29.2401
489.084	79.0758
491.976	69.5668
494.869	118.428
497.762	169.647
500.654	140.735
503.547	135.886
506.44	172.339
509.332	181.348
512.225	235.878
515.118	191.402
518.011	218.874
520.903	228.03
523.796	273.195
526.689	266.478
529.581	313.053
532.474	344.491
535.367	409.798
538.26	434.758
541.152	492.976
544.045	569.688
546.938	572.281
549.83	588.093
552.723	571.26
555.616	495.425
558.508	444.647
561.401	371.572
564.294	362.601
567.187	283.529
570.079	261.27
572.972	209.832
575.865	165.657
578.757	120.22
581.65	98.8816
584.543	53.0803
587.435	47.4846
590.328	54.2707
593.221	63.8606
596.114	52.1039
599.006	3.6084
601.899	25.597
604.792	8.15137
607.684	25.72
610.577	48.6633
613.47	0.760376
616.362	25.2067
619.255	34.8287
622.148	20.0868
625.04	46.829
627.933	6.77368
630.826	20.4263
633.719	29.9812
636.611	3.46619
639.504	34.4941
642.397	30.3967
645.289	75.6134
648.182	37.5463
651.075	48.2814
653.967	49.154
656.86	75.436
659.753	53.3151
662.646	62.7299
665.538	72.0706
668.431	78.1342
671.324	109.778
674.216	103.144
677.109	116.422
680.002	130.913
682.894	109.34
685.787	209.918
688.68	190.586
691.573	264.19
694.465	165.387
697.358	160.053
700.251	116.032
703.143	91.5034
706.036	58.8923
708.929	72.8568
711.822	39.4943
714.714	46.134
717.607	32.9495
720.5	29.8209
723.392	15.4992
726.285	23.2306
729.178	0.128174
732.07	8.71228
734.963	7.74695
737.856	7.23096
740.749	31.65
743.641	13.0778
746.534	0.246948
749.427	6.58337
752.319	53.4415
755.212	72.2324
758.105	98.2798
760.997	67.7867
763.89	71.1249
766.783	93.8805
769.676	59.8025
772.568	102.327
775.461	83.4075
778.354	105.022
781.246	82.142
784.139	111.722
787.032	130.081
789.924	86.4481
792.817	110.984
795.71	67.1679
798.602	54.9522
801.495	72.718
804.388	71.5502
807.281	35.3822
810.173	22.8629
813.066	3.27661
815.959	33.4856
818.851	13.606
821.744	41.5769
824.637	55.5579
827.529	6.98083
830.422	7.09009
833.315	51.5225
836.208	37.4543
839.1	13.7306
841.993	0.512085
844.886	3.00525
847.779	28.4078
850.671	7.31323
853.564	17.7745
856.457	15.3722
859.349	49.0299
862.242	9.63171
865.135	19.5702
868.027	14.2952
870.92	4.61829
873.813	28.9445
876.706	24.2976
879.598	35.4731
882.491	10.3901
885.384	30.3865
888.276	5.38965
891.169	26.7919
894.062	26.4225
896.954	36.9996
899.847	36.2454
902.74	35.7188
905.633	38.2444
908.525	74.7626
911.418	76.3276
914.311	72.9679
917.203	78.2627
920.096	114.117
922.989	104.129
925.881	89.7039
928.774	140.37
931.667	166.804
934.559	173.599
937.452	107.05
940.345	166.073
943.238	185.416
946.13	183.453
949.023	158.499
951.916	169.802
954.808	164.919
957.701	161.488
960.594	165.838
963.486	119.144
966.379	151.246
969.272	140.148
972.165	130.992
975.057	96.738
977.95	84.9651
980.843	41.811
983.735	6.25317
986.628	44.8569
989.521	42.1743
992.413	29.1377
995.306	47.7014
998.199	3.95483
1001.09	4.23291
1003.98	9.51953
1006.88	13.3398
1009.77	18.8367
1012.66	4.36279
1015.55	46.9067
1018.45	0.161133
1021.34	0.848145
1024.23	46.6257
1027.13	60.9863
1030.02	39.1926
1032.91	27.9304
1035.8	26.6773
1038.7	47.0376
1041.59	42.7231
1044.48	34.1392
1047.38	59.1475
1050.27	60.7888
1053.16	107.345
1056.05	67.3481
1058.95	56.8552
1061.84	75.5181
1064.73	95.9988
1067.62	106.827
1070.52	115.167
1073.41	106.036
1076.3	119.788
1079.19	138.649
1082.09	146.175
1084.98	187.947
1087.87	179.698
1090.77	155.239
1093.66	106.632
1096.55	71.405
1099.44	87.511
1102.34	136.633
1105.23	106.24
1108.12	102.164
1111.01	117.753
1113.91	133.022
1116.8	85.1742
1119.69	87.3911
1122.59	94.4219
1125.48	51.7584
1128.37	37.9081
1131.26	66.6471
1134.16	27.2122
1137.05	18.8715
1139.94	38.642
1142.83	2.13074
1145.73	3.88196
1148.62	19.4902
1151.51	2.96985
1154.4	0.195313
1157.3	15.1697
1160.19	19.6384
1163.08	13.53
1165.98	9.07886
1168.87	3.41675
1171.76	2.22376
1174.65	35.6891
1177.55	5.52673
1180.44	31.5146
1183.33	53.8983
1186.22	13.239
1189.12	13.6049
1192.01	32.386
1194.9	29.5978
1197.8	30.3818
1200.69	12.7881
1203.58	9.56848
1206.47	30.766
1209.37	43.8911
1212.26	57.1554
1215.15	46.2478
1218.04	34.3269
1220.94	46.8112
1223.83	33.2421
1226.72	49.8422
1229.62	26.9904
1232.51	37.2288
1235.4	30.4495
1238.29	47.541
1241.19	64.3866
1244.08	43.843
1246.97	34.8428
1249.86	26.6291
1252.76	0.912964
1255.65	4.06934
1258.54	20.148
1261.43	43.7989
1264.33	31.5529
1267.22	58.0485
1270.11	28.1761
1273.01	16.3365
1275.9	39.1156
1278.79	8.60767
1281.68	44.1405
1284.58	16.272
1287.47	56.4333
1290.36	49.9635
1293.26	48.9441
1296.15	38.7054
1299.04	13.0873
1301.93	1.82825
