Measurement: Raman, 780 nm, unoriented, Raman Data Processed
Mineral: Ferrowyllieite
Rruff sample: R060178
Ideal chemistry: NaNaFe^2+^(Fe^2+^Al)(PO_4_)_3_
Locality: Victory mine, Custer County, South Dakota, USA
Source: Marcus Origlieri
Description: Dark gray massive associated with muscovite
Measured chemistry: (Na_1.30_[box]_0.35_Mn^2+^_0.27_Ca_0.08_)_2_(Fe^2+^_1.78_Mg_0.22_)_Σ=2_(Al_0.75_Fe^3+^_0.25_)_Σ=1_(P_1.00_O_4_)_3_
Raman shift (cm-1)	intensity
150.844	0
153.736	1.02557
156.629	0.69429
159.522	0.12442
162.414	1.54129
165.307	1.45936
168.2	1.44873
171.093	0.905043
173.985	1.82753
176.878	1.06669
179.771	2.26647
182.663	0.132191
185.556	0.276276
188.449	0.491871
191.341	0.859165
194.234	0.535276
197.127	0.848827
200.019	1.34153
202.912	1.51758
205.805	1.70788
208.697	2.21331
211.59	1.57314
214.483	1.92171
217.376	2.50485
220.268	2.22937
223.161	3.67943
226.054	3.86783
228.946	4.40446
231.839	5.09888
234.732	5.15413
237.625	5.742
240.517	6.46119
243.41	6.31569
246.303	5.47547
249.195	4.36395
252.088	3.19195
254.981	0.236116
257.873	0.07336
260.766	0.472601
263.659	0.636452
266.551	0.655949
269.444	0.181156
272.337	0.413246
275.23	0.293251
278.122	0.501852
281.015	2.08001
283.908	1.00555
286.8	1.47309
289.693	0.40354
292.586	1.48324
295.478	1.13972
298.371	1.64061
301.264	0.105789
304.157	1.15805
307.049	0.261696
309.942	1.15091
312.835	1.07064
315.727	1.27196
318.62	0.917887
321.513	0.034508
324.406	1.41656
327.298	0.563887
330.191	1.04285
333.084	0.040464
335.976	1.33442
338.869	1.46419
341.762	0.739601
344.654	1.23982
347.547	1.83709
350.44	1.37837
353.332	0.349759
356.225	0.765156
359.118	1.53381
362.01	0.762774
364.903	0.610495
367.796	0.222356
370.689	0.975711
373.581	0.900184
376.474	1.33688
379.367	1.42374
382.259	0.408432
385.152	0.969407
388.045	0.839597
390.938	0.460282
393.83	0.177006
396.723	0.65169
399.616	0.64589
402.508	1.14268
405.401	1.02361
408.294	0.605252
411.186	0.460613
414.079	0.471444
416.972	0.289053
419.865	1.04003
422.757	1.32208
425.65	0.872734
428.543	1.41232
431.435	1.37505
434.328	0.746652
437.221	1.04406
440.113	0.851093
443.006	0.918689
445.899	0.630138
448.791	1.15757
451.684	0.920524
454.577	1.82387
457.47	1.90142
460.362	1.6469
463.255	1.33768
466.148	1.6805
469.04	1.2525
471.933	0.902178
474.826	1.88417
477.719	2.65612
480.611	1.19538
483.504	1.4568
486.397	1.24834
489.289	1.47588
492.182	1.09972
495.075	1.23634
497.967	2.14399
500.86	0.88413
503.753	1.2192
506.645	1.56606
509.538	1.14959
512.431	1.05435
515.323	1.06396
518.216	1.18724
521.109	0.354057
524.002	0.897281
526.894	0.210977
529.787	0.217385
532.68	0.224236
535.572	0.144097
538.465	0.330812
541.358	0.540693
544.25	0.632589
547.143	1.34499
550.036	1.28532
552.929	0.94493
555.821	1.90186
558.714	1.00564
561.607	2.37311
564.499	1.50281
567.392	2.10159
570.285	1.57646
573.178	1.5236
576.07	1.4502
578.963	1.61866
581.856	1.53447
584.748	2.43253
587.641	1.30214
590.534	2.41695
593.426	1.53007
596.319	1.95557
599.212	2.3277
602.105	2.22625
604.997	2.03539
607.89	2.27933
610.783	1.0269
613.675	1.49771
616.568	2.11842
619.461	1.59898
622.353	0.748191
625.246	1.83927
628.139	1.6355
631.031	1.52367
633.924	0.882436
636.817	0.027327
639.71	0.822853
642.602	0.380598
645.495	1.97465
648.388	1.07266
651.28	1.17505
654.173	0.03923
657.066	0.148052
659.958	0.943903
662.851	0.235496
665.744	0.287807
668.636	0.386802
671.529	0.091432
674.422	0.123577
677.315	1.92589
680.207	0.086672
683.1	0.90628
685.993	0.801435
688.885	0.359708
691.778	0.907958
694.671	0.217114
697.563	1.35161
700.456	0.601412
703.349	1.19378
706.242	1.09946
709.134	0.129975
712.027	0.878255
714.92	0.739272
717.812	0.031178
720.705	0.049003
723.598	1.16085
726.49	1.4544
729.383	0.88438
732.276	0.754109
735.169	0.178305
738.061	0.825564
740.954	0.314703
743.847	0.813869
746.739	0.434969
749.632	0.024995
752.525	0.195556
755.418	0.190634
758.31	0.340294
761.203	0.699705
764.096	0.825928
766.988	0.275433
769.881	0.244955
772.774	0.685656
775.666	0.53535
778.559	0.56746
781.452	1.48767
784.345	0.759978
787.237	1.50967
790.13	0.744352
793.023	0.433226
795.915	1.35351
798.808	0.325652
801.701	0.326558
804.593	1.59567
807.486	1.16804
810.379	0.717858
813.271	0.543221
816.164	0.464003
819.057	0.686295
821.949	1.49927
824.842	1.52761
827.735	1.66896
830.628	1.78352
833.52	1.88315
836.413	1.18242
839.306	1.23365
842.198	2.16738
845.091	1.91071
847.984	1.86936
850.876	2.28575
853.769	2.29317
856.662	1.91155
859.555	1.35102
862.447	1.89796
865.34	1.67982
868.233	1.98667
871.125	2.07657
874.018	1.06519
876.911	1.39937
879.803	2.13597
882.696	0.766616
885.589	0.895402
888.482	0.429936
891.374	0.576945
894.267	0.52179
897.16	0.345203
900.052	0.708511
902.945	0.748579
905.838	0.387074
908.731	0.647799
911.623	0.170714
914.516	0.450688
917.409	0.055836
920.301	0.083952
923.194	0.116239
926.087	0.202147
928.979	0.865109
931.872	0.823503
934.765	0.099882
937.658	0.97439
940.55	0.646194
943.443	0.91619
946.336	1.30145
949.228	2.19621
952.121	1.67464
955.014	2.49595
957.906	1.93007
960.799	3.34116
963.692	3.75725
966.584	3.63907
969.477	5.15789
972.37	5.66821
975.263	7.10891
978.155	7.13174
981.048	7.42387
983.941	7.30661
986.833	6.62466
989.726	6.7889
992.619	5.42893
995.511	4.81817
998.404	4.25177
1001.3	3.46731
1004.19	2.92348
1007.08	2.60695
1009.98	2.07215
1012.87	2.20363
1015.76	0.59317
1018.65	0.816165
1021.55	1.11563
1024.44	0.937159
1027.33	1.58223
1030.22	0.042423
1033.12	0.312199
1036.01	0.839772
1038.9	0.906901
1041.8	0.409712
1044.69	0.929159
1047.58	1.40575
1050.47	0.453768
1053.37	0.283139
1056.26	0.11313
1059.15	0.653808
1062.04	1.77101
1064.94	0.755847
1067.83	0.581981
1070.72	0.229356
1073.61	0.342681
1076.51	0.909208
1079.4	1.38057
1082.29	1.41728
1085.18	2.14191
1088.08	0.38458
1090.97	1.36796
1093.86	0.95208
1096.76	1.02685
1099.65	0.994076
1102.54	1.0343
1105.43	1.52057
1108.33	1.67949
1111.22	0.52931
1114.11	0.639401
1117.01	1.35122
1119.9	1.0498
1122.79	0.88246
1125.68	1.35793
1128.58	1.21101
1131.47	1.77227
1134.36	1.68159
1137.25	0.852954
1140.15	0.546659
1143.04	0.597201
1145.93	0.765124
1148.82	1.77963
1151.72	1.23279
1154.61	1.58108
1157.5	0.552099
1160.39	0.713047
1163.29	0.178741
1166.18	0.570403
1169.07	1.03318
1171.97	1.22911
1174.86	1.10766
1177.75	0.27383
1180.64	1.2551
1183.54	0.940839
1186.43	1.91974
1189.32	0.239123
1192.21	0.671706
1195.11	0.906824
1198	0.155702
1200.89	0.837447
1203.79	0.438137
1206.68	0.625978
1209.57	0.592799
1212.46	1.20582
1215.36	1.82788
1218.25	1.05037
1221.14	0.841969
1224.04	0.908211
1226.93	0.144692
1229.82	0.718984
1232.71	0.767105
1235.61	1.04516
1238.5	0.250639
1241.39	1.08941
1244.28	0.186168
1247.18	1.11272
1250.07	0.898129
1252.96	2.12499
1255.85	0.304818
1258.75	0.954279
1261.64	0.379354
1264.53	0.035547
1267.42	0.895859
1270.32	0.398965
1273.21	0.46922
1276.1	0.851271
1279	1.15812
1281.89	0.801219
1284.78	1.35056
