Measurement: Raman, 514 nm, unoriented, Raman Data Processed
Mineral: Ferrisurite
Rruff sample: R060055
Ideal chemistry: Pb^2+^_2.4_Fe^3+^_2_Si_4_O_10_(CO_3_)_1.7_(OH)_3_nH_2_O
Locality: Shirley Ann Claim, Death Valley National Monument, Inyo County, California, USA
Source: Marcus Origlieri
Description: Radial aggregates of green acicular crystals
Raman shift (cm-1)	intensity
149.635	0
153.788	10.381
157.939	133.791
162.088	614.496
166.235	1223.38
170.38	1675.39
174.523	1267.06
178.664	1185.45
182.803	1269.13
186.94	1382.48
191.076	1550.16
195.209	1794.04
199.34	1800.23
203.47	1643.98
207.597	1421.19
211.722	852.387
215.846	517.733
219.967	347.14
224.087	64.77
228.204	54.044
232.32	42.293
236.434	18.348
240.545	301.022
244.655	679.507
248.763	1118.4
252.869	1631.29
256.973	1631.83
261.075	1440.17
265.175	1145.8
269.273	1037.61
273.369	1126.49
277.463	1451.04
281.556	1551.08
285.646	1465.86
289.734	1223.23
293.821	996.362
297.905	648.642
301.988	490.104
306.069	246.766
310.147	50.089
314.224	7.3
318.299	43.323
322.372	12.42
326.443	147.521
330.512	84.477
334.579	85.451
338.645	12.189
342.708	39.181
346.769	98.783
350.829	244.786
354.887	312.456
358.942	394.104
362.996	321.436
367.048	346.297
371.098	410.798
375.146	302.027
379.192	242.224
383.236	386.304
387.279	320.965
391.319	185.301
395.358	319.78
399.394	345.851
403.429	331.634
407.462	278.406
411.493	280.364
415.522	314.412
419.549	408.652
423.575	525.245
427.598	584.218
431.619	966.641
435.639	1019.6
439.657	1024.15
443.673	906.297
447.687	931.099
451.699	1021.53
455.709	915.615
459.717	886.383
463.724	878.563
467.728	842.528
471.731	790.875
475.732	850.296
479.731	872.576
483.728	902.798
487.723	932.201
491.716	934.627
495.708	912.395
499.697	1047.34
503.685	1114.83
507.671	1204.87
511.655	1068.9
515.637	1196.62
519.617	1207.81
523.596	1288.85
527.572	1251.22
531.547	1231.54
535.52	1285.9
539.491	1311.08
543.46	1344.64
547.427	1371.43
551.393	1453.25
555.356	1623.17
559.318	1763.07
563.278	1935.55
567.236	2154.46
571.192	2462.26
575.147	2755.86
579.099	3148.31
583.05	3544.85
586.999	4169.29
590.946	4709.1
594.891	5067.09
598.834	5020.91
602.776	4574.26
606.715	3832.5
610.653	3017.44
614.589	2400.72
618.523	1999.45
622.456	1693.27
626.386	1465.05
630.315	1517.76
634.242	1269.37
638.167	1249.46
642.09	1179.81
646.012	1029.63
649.931	1071.62
653.849	1109.97
657.765	804.452
661.679	804.716
665.592	805.516
669.502	857.058
673.411	853.424
677.318	773.222
681.223	853.179
685.126	1092.63
689.028	1453.29
692.927	1401.42
696.825	920.106
700.721	670.709
704.616	700.08
708.508	412.459
712.399	171.211
716.288	128.586
720.175	152.043
724.06	102.421
727.944	109.454
731.825	37.807
735.705	79.609
739.584	3.67
743.46	30.345
747.334	2.373
751.207	124.528
755.078	170.058
758.947	38.775
762.815	81.188
766.68	58.285
770.544	175.116
774.406	188.703
778.267	99.049
782.125	46.137
785.982	168.955
789.837	44.498
793.69	46.285
797.542	48.556
801.391	8.866
805.239	65.396
809.085	107.378
812.93	80.089
816.772	98.528
820.613	27.708
824.452	44.616
828.29	172.187
832.125	106.31
835.959	76.019
839.791	60.624
843.621	68.321
847.45	0.582
851.277	51.36
855.102	191.439
858.925	207.236
862.746	68.79
866.566	99.83
870.384	119.619
874.2	219.723
878.015	121.467
881.828	272.39
885.639	321.982
889.448	287.389
893.256	477.561
897.061	505.143
900.865	609.758
904.668	616.929
908.468	730.287
912.267	604.152
916.064	509.449
919.86	560.41
923.653	438.919
927.445	578.874
931.236	416.668
935.024	455.386
938.811	550.697
942.596	589.008
946.379	501.191
950.161	520.946
953.94	528.897
957.719	298.961
961.495	415.672
965.27	381.044
969.043	361.826
972.814	385.633
976.583	299.97
980.351	194.835
984.117	185.38
987.882	297.961
991.644	270.344
995.405	337.468
999.165	172.95
1002.92	68.175
1006.68	256.407
1010.43	237.284
1014.18	229.764
1017.93	157.474
1021.68	216.742
1025.43	93.68
1029.18	134.321
1032.92	159.146
1036.66	186.07
1040.4	267.218
1044.14	220.479
1047.88	309.884
1051.62	490.482
1055.35	469.371
1059.08	564.341
1062.81	896.857
1066.54	1466.07
1070.27	2113.3
1073.99	3080.98
1077.72	3998.22
1081.44	3065.99
1085.16	1633.55
1088.88	696.688
1092.59	483.438
1096.31	387.047
1100.02	234.124
1103.73	46.041
1107.44	37.819
1111.15	167.155
1114.86	241.288
1118.57	202.311
1122.27	415
1125.97	432.46
1129.67	46.489
1133.37	55.298
1137.07	20.639
1140.76	103.922
1144.45	40.577
1148.15	21.022
1151.84	107.724
1155.53	104.873
1159.21	175.747
1162.9	69.724
1166.58	129.208
1170.26	194.719
1173.94	287.248
1177.62	318.869
1181.3	162.312
1184.97	128.749
1188.65	149.937
1192.32	353.888
1195.99	336.573
1199.66	399.584
1203.33	343.848
1206.99	276.801
1210.65	236.322
1214.32	176.642
1217.98	121.776
1221.64	175.688
1225.29	104.401
1228.95	202.922
1232.6	38.242
1236.26	244.403
1239.91	179.41
1243.56	101.203
1247.2	41.781
1250.85	53.144
1254.49	67.223
1258.13	172.861
1261.78	147.076
1265.41	125.833
1269.05	147.094
1272.69	2.771
1276.32	86.064
1279.95	82.446
1283.59	45.861
1287.21	55.407
1290.84	192.84
1294.47	68.521
1298.09	67.557
1301.72	54.647
1305.34	61.604
1308.96	11.549
1312.58	38.95
1316.19	46.503
1319.81	11.724
1323.42	59.752
1327.03	28.049
1330.64	72.907
1334.25	17.655
1337.86	233.075
1341.46	93.245
1345.07	162.178
1348.67	207.832
1352.27	289.378
1355.87	210.411
1359.46	341.705
1363.06	412.716
1366.65	323.744
1370.25	324.919
1373.84	287.301
1377.43	320.604
1381.02	346.572
1384.6	558.36
1388.18	629.411
1391.77	591.971
1395.35	733.875
1398.93	873.042
1402.51	878.906
1406.08	938.045
1409.66	964.525
1413.23	777.476
1416.8	684.319
1420.37	594.594
1423.94	670.166
1427.51	670.816
1431.08	744.996
1434.64	749.756
1438.2	654.94
1441.76	629.505
1445.32	663.381
1448.88	476.307
1452.43	407.965
1455.99	398.455
1459.54	288.26
1463.09	278.763
1466.64	320.985
1470.19	225.267
1473.74	370.688
1477.28	306.351
1480.83	222.131
1484.37	248.361
1487.91	155.755
1491.45	185.077
1494.98	86.349
1498.52	79.668
1502.05	96.118
1505.59	57.135
1509.12	64.948
1512.65	5.268
1516.17	0
