Measurement: Raman, 785 nm, unoriented, Raman Data Processed
Mineral: Ferro-ferri-fluoro-leakeite
Rruff sample: R070468
Ideal chemistry: NaNa_2_(Fe^2+^_2_Fe^3+^_2_Li)Si_8_O_22_F_2_
Locality: Questa, Taos County, New Mexico, USA
Source: Michael Scott
Description: Unconsolidated dark blue to black grains, co-type sample
Raman shift (cm-1)	intensity
154.777	0
157.67	27.7305
160.563	10.0234
163.455	329.197
166.348	513.114
169.241	634.448
172.133	655.774
175.026	565.513
177.919	551.029
180.812	522.32
183.704	534.028
186.597	570.502
189.49	618.803
192.382	641.857
195.275	668.767
198.168	792.237
201.06	804.623
203.953	799.578
206.846	734.47
209.739	607.651
212.631	580.819
215.524	537.568
218.417	541.266
221.309	549.881
224.202	510.5
227.095	495.02
229.988	436.318
232.88	332.604
235.773	364.607
238.666	304.022
241.558	290.372
244.451	267.573
247.344	211.733
250.236	143.423
253.129	179.878
256.022	144.909
258.915	114.561
261.807	87.7673
264.7	80.8909
267.593	39.0923
270.485	6.71606
273.378	13.6079
276.271	5.073
279.163	10.8709
282.056	16.7654
284.949	20.1409
287.842	25.623
290.734	41.6658
293.627	51.176
296.52	49.2756
299.412	115.305
302.305	115.874
305.198	145.761
308.09	209.76
310.983	213.973
313.876	245.62
316.769	197.242
319.661	138.158
322.554	22.27
325.447	3.83179
328.339	40.6716
331.232	37.0706
334.125	15.0627
337.017	5.78979
339.91	55.9998
342.803	145.708
345.695	201.627
348.588	206.157
351.481	277.284
354.374	339.068
357.266	391.638
360.159	426.262
363.052	523.685
365.944	605.35
368.837	679.904
371.73	670.428
374.623	732.722
377.515	786.63
380.408	711.806
383.301	753.883
386.193	753.937
389.086	739.682
391.979	661.185
394.871	716.531
397.764	718.079
400.657	713.881
403.55	704.525
406.442	654.817
409.335	635.17
412.228	516.932
415.12	436.526
418.013	334.069
420.906	257.544
423.798	186.191
426.691	146.654
429.584	99.0984
432.476	23.1382
435.369	21.7161
438.262	15.9153
441.155	6.43896
444.047	19.4402
446.94	3.06812
449.833	34.3484
452.725	33.9878
455.618	7.41626
458.511	34.404
461.404	23.7251
464.296	57.1111
467.189	89.1419
470.082	161.767
472.974	148.752
475.867	188.878
478.76	188.451
481.652	210.135
484.545	202.267
487.438	195.602
490.33	246.871
493.223	214.671
496.116	265.279
499.009	278.172
501.901	270.949
504.794	336.758
507.687	318.412
510.579	373.087
513.472	372.312
516.365	324.205
519.258	346.738
522.15	421.323
525.043	506.842
527.936	565.134
530.828	687.221
533.721	798.586
536.614	911.722
539.506	963.529
542.399	1004.52
545.292	921.836
548.185	799.619
551.077	710.877
553.97	627.128
556.863	531.004
559.755	505.893
562.648	502.822
565.541	529.226
568.433	509.83
571.326	486.268
574.219	463.664
577.111	445.53
580.004	386.937
582.897	252.69
585.79	246.799
588.682	123.367
591.575	125.162
594.468	71.3821
597.36	17.551
600.253	32.4319
603.146	34.4695
606.038	18.6516
608.931	29.8652
611.824	4.6438
614.717	11.9448
617.609	14.9487
620.502	9.46973
623.395	14.165
626.287	36.0559
629.18	25.5544
632.073	15.5598
634.966	14.7915
637.858	4.98901
640.751	14.4961
643.644	17.8501
646.536	35.8689
649.429	56.8013
652.322	56.564
655.214	109.253
658.107	139.369
661	166.518
663.893	181.394
666.785	289.71
669.678	366.72
672.571	404.188
675.463	516.683
678.356	550.823
681.249	536.187
684.141	435.011
687.034	294.777
689.927	216.954
692.819	120.002
695.712	101.982
698.605	78.001
701.498	78.823
704.39	31.2834
707.283	52.2974
710.176	57.9482
713.068	28.4414
715.961	59.8494
718.854	16.5959
721.746	17.7559
724.639	26.0039
727.532	0.409912
730.425	6.47998
733.317	33.0935
736.21	5.73364
739.103	24.3171
741.995	14.144
744.888	21.2302
747.781	11.8567
750.673	64.6706
753.566	59.3484
756.459	65.7966
759.352	71.2795
762.244	103.45
765.137	101.536
768.03	175.036
770.922	190.564
773.815	221.747
776.708	282.989
779.601	310.744
782.493	284.808
785.386	297.379
788.279	252.896
791.171	205.568
794.064	157.948
796.957	145.963
799.849	89.6426
802.742	99.0134
805.635	68.2827
808.528	48.7112
811.42	60.0725
814.313	98.8809
817.206	82.9639
820.098	91.0295
822.991	78.8752
825.884	95.0203
828.776	67.0102
831.669	53.917
834.562	55.6602
837.455	63.5908
840.347	60.0955
843.24	58.9221
846.133	89.7898
849.025	23.2163
851.918	35.6733
854.811	7.86743
857.703	24.9609
860.596	11.5488
863.489	6.98047
866.381	20.7163
869.274	10.2769
872.167	25.6301
875.06	3.43359
877.952	43.1914
880.845	45.6975
883.738	52.2703
886.63	31.7871
889.523	61.279
892.416	74.1179
895.308	77.6423
898.201	34.2217
901.094	26.5308
903.987	44.5
906.879	19.0879
909.772	17.3462
912.665	54.0464
915.557	71.5015
918.45	31.1484
921.343	11.897
924.236	0.777832
927.128	29.3857
930.021	26.3105
932.914	19.3179
935.806	91.2583
938.699	10.9941
941.592	72.5918
944.484	118.136
947.377	175.608
950.27	233.85
953.163	332.34
956.055	385.453
958.948	495.375
961.841	630.191
964.733	751.414
967.626	868.033
970.519	1057.92
973.411	1295.57
976.304	1505.1
979.197	1558.04
982.09	1588.06
984.982	1562.25
987.875	1489.78
990.768	1398.32
993.66	1372.13
996.553	1321.62
999.446	1333.75
1002.34	1307.51
1005.23	1312.65
1008.12	1348.9
1011.02	1382.05
1013.91	1357.75
1016.8	1343.19
1019.7	1226.22
1022.59	1167.93
1025.48	1033.96
1028.37	1024.97
1031.27	915.394
1034.16	842.492
1037.05	662.773
1039.94	569.748
1042.84	511.721
1045.73	408.679
1048.62	309.433
1051.51	236.113
1054.41	162.086
1057.3	47.5537
1060.19	5.27051
1063.09	82.8545
1065.98	16.4092
1068.87	49.6631
1071.76	72.2588
1074.66	188.018
1077.55	234.808
1080.44	362.473
1083.33	525.374
1086.23	447.652
1089.12	594.199
1092.01	534.368
1094.9	486.304
1097.8	439.622
1100.69	450.606
1103.58	352.121
1106.48	172.302
1109.37	186.966
1112.26	130.66
1115.15	16.0518
1118.05	9.93164
