Measurement: Raman, 780 nm, unoriented, Raman Data Processed
Mineral: Ferro-actinolite
Rruff sample: R060189
Ideal chemistry: [box]Ca_2_Mg_2.5-0_Fe^2+^_2.5-5_Si_8_O_22_(OH)_2_
Locality: Merry Widow mine, Vancouver Island, British Columbia, Canada
Source: Lloyd Twaites
Description: Parallel aggregate of green fibers
Measured chemistry: [box](Ca_1.94_Na_0.06_)_Σ=2_(Fe^2+^_2.55_Mg_2.15_Fe^3+^_0.20_Al_0.05_Mn_0.05_)_Σ=5_(Si_0.98_Al_0.02_)_8_O_22_(OH)_2_
Raman shift (cm-1)	intensity
144.437	0
147.33	2.90412
150.223	4.02548
153.115	0.66312
156.008	1.39424
158.901	1.20088
161.794	2.3559
164.686	6.94692
167.579	8.7434
170.472	12.3445
173.364	11.773
176.257	7.85667
179.15	2.46041
182.042	2.52277
184.935	0.405994
187.828	0.163502
190.721	0.096191
193.613	0.256847
196.506	0.333363
199.399	0.939735
202.291	2.17291
205.184	5.83185
208.077	7.2901
210.97	9.87386
213.862	10.5548
216.755	10.7007
219.648	9.44348
222.54	9.27727
225.433	7.93337
228.326	6.27978
231.218	4.83219
234.111	3.94146
237.004	4.44449
239.897	5.24346
242.789	6.08732
245.682	6.09692
248.575	6.01286
251.467	2.53765
254.36	0.874546
257.253	0.664223
260.145	1.20948
263.038	0.644066
265.931	1.45315
268.824	0.321144
271.716	0.475956
274.609	0.50354
277.502	0.801044
280.394	1.3341
283.287	0.449368
286.18	1.49497
289.072	0.323067
291.965	1.04481
294.858	1.69508
297.75	1.9711
300.643	0.778099
303.536	0.291542
306.429	0.540298
309.321	0.833193
312.214	0.825869
315.107	0.873264
317.999	0.93746
320.892	2.1644
323.785	1.81401
326.678	3.67322
329.57	2.90688
332.463	3.07161
335.356	3.50464
338.248	2.23313
341.141	2.07273
344.034	1.95131
346.926	2.75138
349.819	4.71847
352.712	5.24963
355.604	5.23934
358.497	3.60562
361.39	4.9445
364.283	4.07614
367.175	3.35794
370.068	3.85348
372.961	4.11853
375.853	4.44553
378.746	4.28092
381.639	4.61119
384.531	4.78679
387.424	3.72632
390.317	3.23149
393.21	2.88142
396.102	2.1806
398.995	1.1788
401.888	1.15001
404.78	1.42737
407.673	0.234285
410.566	0.360865
413.459	1.13409
416.351	1.49817
419.244	0.240864
422.137	0.032095
425.029	0.939411
427.922	0.832506
430.815	1.98162
433.707	0.801832
436.6	1.32222
439.493	0.930611
442.385	0.36385
445.278	0.26186
448.171	0.335806
451.064	0.27758
453.956	0.419121
456.849	0.103182
459.742	0.823267
462.634	0.432133
465.527	0.796793
468.42	0.633121
471.312	0.180294
474.205	1.63433
477.098	0.084784
479.991	0.149164
482.883	1.26227
485.776	0.898825
488.669	1.07396
491.561	0.64493
494.454	1.64075
497.347	2.19862
500.24	3.19697
503.132	4.57761
506.025	2.79289
508.918	3.31161
511.81	5.12413
514.703	3.73066
517.596	4.63237
520.488	4.98385
523.381	4.87381
526.274	4.22698
529.167	3.70697
532.059	3.96621
534.952	3.59952
537.845	3.57579
540.737	3.32335
543.63	4.2314
546.523	3.23773
549.415	2.91881
552.308	2.87572
555.201	3.1283
558.093	2.73676
560.986	3.10785
563.879	2.42317
566.772	2.14121
569.664	2.00158
572.557	1.22511
575.45	1.10608
578.342	0.828989
581.235	1.06311
584.128	0.294411
587.02	0.190584
589.913	0.111162
592.806	0.291235
595.698	0.546068
598.591	0.174759
601.484	0.240765
604.377	0.253403
607.269	1.12296
610.162	1.55328
613.055	0.768963
615.947	0.324255
618.84	2.27855
621.733	1.73133
624.625	4.01783
627.518	3.71322
630.411	3.68368
633.304	4.6248
636.196	4.6816
639.089	4.94327
641.982	6.67691
644.875	7.41849
647.767	9.23058
650.66	11.6321
653.553	13.4902
656.445	19.8206
659.338	23.9499
662.231	30.4789
665.123	32.1324
668.016	28.755
670.909	18.1177
673.802	12.6696
676.694	8.64883
679.587	6.49116
682.48	4.97846
685.372	3.89876
688.265	2.84053
691.158	2.3723
694.05	1.51033
696.943	1.18903
699.836	0.478781
702.729	0.799562
705.621	1.30209
708.514	0.426008
711.407	0.800114
714.299	0.174273
717.192	0.124104
720.085	0.600008
722.977	0.089617
725.87	1.85706
728.763	0.475725
731.655	1.35387
734.548	1.80542
737.441	0.359335
740.334	1.7494
743.226	1.91996
746.119	1.46479
749.012	0.636301
751.904	1.06451
754.797	0.966543
757.69	1.53097
760.582	1.27556
763.475	1.0554
766.368	0.992807
769.261	0.968733
772.153	1.04269
775.046	2.0483
777.939	0.200478
780.831	0.707685
783.724	0.432156
786.617	0.887121
789.51	0.038519
792.402	1.52015
795.295	0.049006
798.188	1.19421
801.08	1.95167
803.973	1.14468
806.866	1.43982
809.758	0.147219
812.651	1.37289
815.544	1.39966
818.437	1.29025
821.329	0.051897
824.222	2.38138
827.115	1.75978
830.007	1.85472
832.9	1.80287
835.793	0.613459
838.685	1.10669
841.578	1.41693
844.471	1.80601
847.364	1.34311
850.256	1.08804
853.149	1.27175
856.042	2.16311
858.934	0.516985
861.827	1.96237
864.72	1.24554
867.612	1.34964
870.505	0.078014
873.398	1.02067
876.29	1.40711
879.183	2.04585
882.076	1.37194
884.969	1.41316
887.861	0.351589
890.754	1.06419
893.647	0.292557
896.539	0.858641
899.432	1.24347
902.325	0.157509
905.217	0.785452
908.11	1.18038
911.003	1.11257
913.896	1.1513
916.788	1.89943
919.681	2.03676
922.574	1.68986
925.466	2.10539
928.359	1.49513
931.252	0.754143
934.144	1.88331
937.037	0.777119
939.93	1.17366
942.822	0.91913
945.715	1.66353
948.608	0.53406
951.501	1.17304
954.393	0.866869
957.286	0.23757
960.179	0.762249
963.071	1.584
965.964	0.145996
968.857	0.60745
971.75	0.204639
974.642	1.02754
977.535	0.29829
980.428	1.26291
983.32	1.44088
986.213	2.18324
989.106	1.52151
991.998	2.23482
994.891	1.59658
997.784	2.42264
1000.68	2.04373
1003.57	1.42886
1006.46	2.72
1009.36	2.20012
1012.25	2.98229
1015.14	3.87955
1018.03	2.26419
1020.92	3.17659
1023.82	3.28952
1026.71	4.17211
1029.6	3.29745
1032.5	4.34061
1035.39	5.44457
1038.28	5.49309
1041.17	6.68893
1044.07	6.72884
1046.96	6.96898
1049.85	7.44738
1052.74	7.33761
1055.64	7.09232
1058.53	6.59948
1061.42	4.94151
1064.32	4.68262
1067.21	2.61232
1070.1	2.91086
1072.99	1.08665
1075.89	1.37618
1078.78	0.774846
1081.67	1.34399
1084.57	0.322703
1087.46	0.234354
1090.35	0.195381
1093.24	0.107256
1096.14	0.733438
1099.03	0.37195
1101.92	1.10533
1104.81	0.324546
1107.71	0.660064
1110.6	1.55601
1113.49	0.680435
1116.38	0.740122
1119.28	0.010921
1122.17	0.08913
1125.06	0.681449
1127.95	1.45177
1130.85	1.09491
1133.74	0.48139
1136.63	0.170862
1139.53	0.738961
1142.42	1.955
1145.31	0.230559
1148.2	0.428433
1151.1	1.48617
1153.99	1.40433
1156.88	0.698066
1159.78	0.464666
1162.67	0.575209
1165.56	1.61266
1168.45	1.66089
1171.35	1.02791
1174.24	0.848939
1177.13	0.876543
1180.02	1.24709
1182.92	0.694733
1185.81	1.46345
1188.7	1.53278
1191.6	0.591007
1194.49	2.08986
1197.38	0.481223
1200.27	1.37828
1203.17	1.12215
1206.06	0.948054
1208.95	1.27331
1211.84	0.089539
1214.74	0.529181
1217.63	0.624929
1220.52	1.53161
1223.41	1.11446
1226.31	1.64233
1229.2	0.79994
1232.09	1.49448
1234.98	1.85672
1237.88	1.80569
1240.77	1.49953
1243.66	0.523453
1246.56	0.604754
1249.45	1.68621
1252.34	0.002497
1255.23	1.37637
1258.13	1.00233
1261.02	0.218937
1263.91	0.781417
1266.81	0.823615
1269.7	1.57742
1272.59	0.409281
1275.48	1.47103
1278.38	1.00203
1281.27	0.362195
1284.16	1.87517
