Measurement: Raman, 780 nm, unoriented, Raman Data Processed
Mineral: Ferro-pargasite
Rruff sample: R090015
Ideal chemistry: NaCa_2_(Fe^2+^_4_Al)(Si_6_Al_2_)O_22_(OH)_2_
Locality: Basha Valley, Skardu District, Baltistan, Northern Areas, Pakistan
Source: Herb Obodda
Description: Black bladed single crystal with striations
Raman shift (cm-1)	intensity
126.125	0
129.5	3.08949
132.875	0.468323
136.25	4.19925
139.624	1.73569
142.999	2.87064
146.374	2.17876
149.749	4.64372
153.124	2.79485
156.499	4.09851
159.873	5.1198
163.248	4.5153
166.623	4.86055
169.998	3.75783
173.373	4.91992
176.747	4.49632
180.122	0.759415
183.497	0.137756
186.872	1.78108
190.247	0.457458
193.621	1.82245
196.996	1.07696
200.371	3.25052
203.746	2.86089
207.121	1.64255
210.495	2.10229
213.87	2.88626
217.245	2.36697
220.62	5.26805
223.995	2.7848
227.37	3.884
230.744	4.27438
234.119	3.33436
237.494	2.00485
240.869	4.28536
244.244	0.813492
247.619	1.10224
250.993	1.03149
254.368	0.400581
257.743	1.15763
261.118	1.42362
264.493	3.35158
267.867	3.75039
271.242	5.7925
274.617	5.17986
277.992	5.20179
281.367	5.75623
284.741	7.37849
288.116	7.36653
291.491	8.16813
294.866	6.71818
298.241	5.98627
301.616	7.57905
304.99	5.61043
308.365	5.09914
311.74	3.43846
315.115	3.83895
318.49	3.25568
321.865	0.651749
325.239	3.10521
328.614	0.268234
331.989	4.05775
335.364	0.899963
338.739	0.662354
342.113	1.66878
345.488	3.32192
348.863	2.97179
352.238	2.7555
355.613	3.6639
358.987	5.36075
362.362	2.75391
365.737	3.74815
369.112	6.90436
372.487	5.12265
375.861	4.5331
379.236	4.26598
382.611	3.01228
385.986	3.97517
389.361	4.81427
392.736	3.70222
396.11	2.37802
399.485	0.136581
402.86	0.578644
406.235	1.61671
409.61	0.305931
412.985	1.85923
416.359	1.72675
419.734	1.80271
423.109	3.68501
426.484	1.51863
429.859	2.54963
433.233	5.97629
436.608	3.62548
439.983	5.31263
443.358	1.79914
446.733	2.78869
450.108	2.47597
453.482	0.453545
456.857	2.13364
460.232	2.68884
463.607	1.01694
466.982	1.31348
470.356	0.223557
473.731	0.768471
477.106	1.43438
480.481	0.011375
483.856	0.836555
487.231	4.8579
490.605	4.7443
493.98	11.0235
497.355	10.859
500.73	14.7269
504.104	18.5074
507.479	16.8326
510.854	24.0005
514.229	22.5966
517.604	26.2725
520.979	25.8368
524.354	27.9149
527.728	28.745
531.103	25.5292
534.478	24.5527
537.853	20.3277
541.227	21.4215
544.602	19.3508
547.977	16.13
551.352	15.8855
554.727	14.016
558.102	13.1673
561.476	9.83283
564.851	8.0108
568.226	6.25832
571.601	5.30467
574.976	4.34023
578.351	3.99156
581.725	4.20033
585.1	3.28101
588.475	0.713425
591.85	1.29607
595.225	0.642525
598.599	1.75034
601.974	0.059792
605.349	0.587425
608.724	1.42071
612.099	0.768539
615.473	2.13255
618.848	0.82708
622.223	1.19846
625.598	3.1505
628.973	2.22359
632.347	2.39893
635.722	4.13016
639.097	5.61156
642.472	6.50207
645.847	6.53493
649.222	7.09584
652.596	9.89571
655.971	9.77224
659.346	8.4802
662.721	7.06766
666.096	5.89536
669.471	6.41182
672.845	7.00906
676.22	3.30423
679.595	7.08193
682.97	4.23384
686.345	1.63683
689.719	1.86066
693.094	0.597626
696.469	1.79021
699.844	0.534019
703.219	1.4263
706.593	0.248238
709.968	1.8073
713.343	1.40726
716.718	2.02904
720.093	1.69775
723.468	0.395393
726.842	0.044441
730.217	1.85353
733.592	1.76125
736.967	1.92416
740.342	1.60373
743.716	2.35239
747.091	2.81394
750.466	0.577583
753.841	1.17409
757.216	1.6286
760.591	0.117912
763.965	1.53704
767.34	2.15511
770.715	0.941597
774.09	2.70669
777.465	2.09341
780.84	1.5075
784.214	1.35799
787.589	1.29854
790.964	2.9713
794.339	5.06432
797.714	1.367
801.088	3.79281
804.463	1.70998
807.838	5.3445
811.213	2.24449
814.588	1.81362
817.962	4.30797
821.337	3.51227
824.712	1.68073
828.087	4.1102
831.462	2.77053
834.837	4.34153
838.211	4.67242
841.586	5.06005
844.961	3.97758
848.336	2.36795
851.711	4.48259
855.085	3.06364
858.46	4.22691
861.835	3.88486
865.21	3.90235
868.585	3.56027
871.96	6.6815
875.334	2.63255
878.709	3.8205
882.084	2.91515
885.459	0.065643
888.834	3.24056
892.208	1.6632
895.583	1.01413
898.958	3.00365
902.333	2.31699
905.708	1.0217
909.082	0.13068
912.457	1.11288
915.832	1.19427
919.207	0.40807
922.582	0.826397
925.957	2.4849
929.331	1.53177
932.706	0.49155
936.081	0.164139
939.456	2.52591
942.831	2.05719
946.205	0.194527
949.58	0.283993
952.955	1.79686
956.33	2.99272
959.705	1.91113
963.08	1.20583
966.454	2.56258
969.829	1.71239
973.204	1.18003
976.579	3.50515
979.954	3.51635
983.328	4.38215
986.703	4.48805
990.078	5.82019
993.453	3.38638
996.828	3.48725
1000.2	4.84607
1003.58	5.38892
1006.95	2.58705
1010.33	6.09001
1013.7	3.86275
1017.08	1.93107
1020.45	3.41526
1023.83	4.08548
1027.2	0.840775
1030.58	3.90803
1033.95	3.28209
1037.33	0.015087
1040.7	1.9231
1044.08	1.61295
1047.45	4.48327
1050.83	1.49418
1054.2	1.96111
1057.57	3.60762
1060.95	2.65253
1064.32	1.94348
1067.7	2.72517
1071.07	2.72161
1074.45	1.53521
1077.82	1.29311
1081.2	2.74294
1084.57	3.70874
1087.95	1.88697
1091.32	0.7206
1094.7	0.927116
1098.07	1.37054
1101.45	1.29696
1104.82	0.410015
1108.2	0.369537
1111.57	1.7635
1114.95	0.885025
1118.32	1.49117
1121.7	1.18472
1125.07	0.930145
1128.45	0.262474
1131.82	1.80166
1135.19	1.27217
1138.57	0.378834
1141.94	1.75046
1145.32	1.12987
1148.69	3.08063
1152.07	2.82121
1155.44	2.22063
1158.82	4.16051
1162.19	0.073494
1165.57	3.26007
1168.94	2.2755
1172.32	0.188835
1175.69	2.31782
1179.07	2.72998
1182.44	3.09236
1185.82	3.46841
1189.19	1.56389
1192.57	2.50902
1195.94	3.15849
1199.32	3.00195
1202.69	2.78578
1206.07	1.50057
1209.44	1.15677
1212.82	2.64307
1216.19	2.06396
1219.57	3.33968
1222.94	0.99958
1226.32	1.88787
1229.69	1.11384
1233.07	2.32803
1236.44	4.10199
1239.81	0.04372
1243.19	0.050369
1246.56	2.51319
1249.94	0.47382
1253.31	2.60165
1256.69	0.552483
1260.06	2.76623
1263.44	3.16968
1266.81	2.50484
1270.19	1.90026
1273.56	0.010193
1276.94	1.29087
1280.31	0.950108
1283.69	1.0871
