Measurement: Raman, 785 nm, unoriented, Raman Data Processed
Mineral: Ferrierite-Mg
Rruff sample: R070118
Ideal chemistry: [Mg_2_(K,Na)_2_Ca_0.5_](Si_29_Al_7_)O_72_18H_2_O
Locality: Monastir, near Cagliari, Sardinia, Italy
Source: Michael Scott
Description: Pale tan colored fibrous radiating crystals associated with hematite
Measured chemistry: (Ca_0.15_Na_0.01_)(K_0.93_Na_0.07_)_Σ=1_(Mg_1.80_K_0.20_)_Σ=2_Ca_0.50_(Si_29.89_Al_6.11_)_Σ=36_O_72_·20.71H_2_O ; H_2_O estimated by difference
Raman shift (cm-1)	intensity
172.414	0
175.307	75.8174
178.2	19.4385
181.093	24.875
183.985	10.3486
186.878	122.878
189.771	187.666
192.663	166.401
195.556	249.867
198.449	292.302
201.341	298.45
204.234	334.32
207.127	322.87
210.019	309.325
212.912	194.296
215.805	174.027
218.697	314.288
221.59	296.202
224.483	319.82
227.376	180.621
230.268	150.737
233.161	136.574
236.054	29.3052
238.946	113.924
241.839	71.8276
244.732	37.9941
247.625	127.701
250.517	47.1855
253.41	0.638672
256.303	115.197
259.195	42.4082
262.088	14.6113
264.981	47.6802
267.873	2.2085
270.766	60.606
273.659	104.068
276.551	8.0415
279.444	102.182
282.337	79.1602
285.23	110.61
288.122	154.877
291.015	128.154
293.908	153.092
296.8	219.231
299.693	130.183
302.586	154.086
305.478	259.351
308.371	287
311.264	218.649
314.157	247.018
317.049	259.691
319.942	204.735
322.835	221.942
325.727	229.744
328.62	189.737
331.513	313.077
334.406	229.747
337.298	191.249
340.191	214.04
343.084	198.806
345.976	178.61
348.869	76.5615
351.762	159.362
354.654	89.6406
357.547	18.9443
360.44	37.3931
363.332	72.8852
366.225	61.9946
369.118	9.07812
372.011	8.80664
374.903	22.6685
377.796	66.3276
380.689	106.389
383.581	92.1768
386.474	65.7871
389.367	111.844
392.26	176.308
395.152	243.233
398.045	348.155
400.938	360.305
403.83	480.661
406.723	589.788
409.616	704.209
412.508	804.253
415.401	934.222
418.294	1066.64
421.186	1195.69
424.079	1282.73
426.972	1250.02
429.865	1404.81
432.757	1415.12
435.65	1468.03
438.543	1467.32
441.435	1426.71
444.328	1430.88
447.221	1368.46
450.113	1253.1
453.006	1172.39
455.899	1015.19
458.791	905.073
461.684	880.699
464.577	682.757
467.47	498.762
470.362	440.505
473.255	332.177
476.148	201.236
479.04	204.66
481.933	133.716
484.826	60.5205
487.719	49.2398
490.611	30.0225
493.504	36.1177
496.397	22.9419
499.289	34.4868
502.182	6.92188
505.075	22.0234
507.967	37.1685
510.86	67.0347
513.753	56.0083
516.645	18.0361
519.538	22.3115
522.431	58.1997
525.324	4.39209
528.216	76.2647
531.109	7.71729
534.002	144.45
536.894	149.186
539.787	175.714
542.68	303.075
545.572	158.903
548.465	295.243
551.358	233.088
554.25	223.661
557.143	190.05
560.036	214.241
562.929	161.106
565.821	106.119
568.714	157.925
571.607	87.5029
574.5	95.6704
577.392	92.5562
580.285	157.444
583.178	70.313
586.07	100.262
588.963	100.913
591.856	142.123
594.748	56.4912
597.641	92.6377
600.534	63.1435
603.427	52.8394
606.319	54.0933
609.212	40.2856
612.105	50.9595
614.997	8.35596
617.89	25.041
620.783	45.4072
623.675	23.0151
626.568	10.5532
629.461	31.0361
632.354	73.271
635.246	5.0625
638.139	21.7398
641.032	32.5615
643.924	47.5664
646.817	29.4644
649.71	57.5298
652.602	36.2495
655.495	17.8369
658.388	125.789
661.28	39.1074
664.173	72.7422
667.066	72.5464
669.958	76.7978
672.851	55.7642
675.744	149.378
678.637	77.5537
681.529	104.055
684.422	124.572
687.315	33.6416
690.207	73.9102
693.1	73.8579
695.993	4.02979
698.885	55.2954
701.778	52.3516
704.671	44.1645
707.564	62.1182
710.456	53.7349
713.349	26.7925
716.242	85.1836
719.134	61.8281
722.027	115.663
724.92	85.5523
727.812	26.6811
730.705	1.53027
733.598	54.2134
736.491	17.627
739.383	61.3105
742.276	0.308105
745.169	75.4214
748.061	49.563
750.954	64.2876
753.847	72.9853
756.74	112.914
759.632	115.121
762.525	119.014
765.418	152.36
768.31	74.9194
771.203	149.171
774.096	106.799
776.988	171.779
779.881	152.203
782.774	263.299
785.666	177.413
788.559	214.769
791.452	186.004
794.345	216.726
797.237	145.796
800.13	138.803
803.023	198.371
805.915	185.107
808.808	230.889
811.701	268.568
814.593	212.557
817.486	144.832
820.379	178.032
823.271	132.584
826.164	121.849
829.057	51.7891
831.95	123.884
834.842	26.3618
837.735	85.7749
840.628	53.1577
843.52	73.2485
846.413	46.813
849.306	31.5244
852.198	21.7734
855.091	20.3284
857.984	43.2935
860.877	50.9885
863.769	106.738
866.662	1.02002
869.555	56.9692
872.447	25.9788
875.34	16.5652
878.233	78.5525
881.125	28.449
884.018	48.625
886.911	40.115
889.804	48.9236
892.696	110.755
895.589	24.6445
898.482	61.0034
901.374	79.4714
904.267	10.3415
907.16	40.1194
910.053	37.1985
912.945	90.8237
915.838	54.5115
918.731	67.7261
921.623	29.5291
924.516	58.4778
927.409	58.5115
930.301	36.8518
933.194	47.8774
936.087	10.5276
938.98	94.9065
941.872	110.311
944.765	124.261
947.658	52.3596
950.55	41.8652
953.443	80.5557
956.336	47.9912
959.228	30.6875
962.121	113.24
965.014	41.011
967.907	31.7483
970.799	20.8765
973.692	84.2012
976.585	49.0547
979.477	35.7
982.37	60.7026
985.263	0.510498
988.155	44.7412
991.048	62.6567
993.941	6.89673
996.833	8.13599
999.726	85.571
1002.62	25.7275
1005.51	69.821
1008.4	22.6265
1011.3	16.8169
1014.19	80.0132
1017.08	130.154
1019.98	32.4355
1022.87	2.72876
1025.76	71.8769
1028.65	48.8074
1031.55	27.1111
1034.44	88.8452
1037.33	37.4495
1040.22	35.4163
1043.12	18.5828
1046.01	2.57056
1048.9	24.2844
1051.8	53.7278
1054.69	84.2459
1057.58	89.9556
1060.47	36.2019
1063.37	123.515
1066.26	51.0686
1069.15	33.54
1072.04	7.57593
1074.94	46.6213
1077.83	27.2974
1080.72	59.398
1083.61	11.2012
1086.51	82.9509
1089.4	33.3176
1092.29	28.708
1095.18	32.6633
1098.08	76.0259
1100.97	63.0596
1103.86	119.794
1106.76	21.293
1109.65	123.621
1112.54	48.4634
1115.43	90.24
1118.33	98.3284
1121.22	111.662
1124.11	159.94
1127.01	137.022
1129.9	167.738
1132.79	170.631
1135.68	136.385
1138.58	200.209
1141.47	185.438
1144.36	235.785
1147.25	256.527
1150.15	196.442
1153.04	133.593
1155.93	184.404
1158.83	150.68
1161.72	172.519
1164.61	213.046
1167.5	202.309
1170.39	142.53
1173.29	166.413
1176.18	149.601
1179.07	90.4163
1181.97	94.1377
1184.86	102.838
1187.75	118.937
1190.64	194.503
1193.54	195.449
1196.43	113.384
1199.32	67.2922
1202.21	10.0749
1205.11	47.675
1208	54.9375
1210.89	13.113
1213.79	28.0276
1216.68	109.544
1219.57	113.308
1222.46	73.3076
1225.36	48.8955
1228.25	3.42334
1231.14	52.6069
1234.04	125.811
1236.93	79.4338
1239.82	0
