Measurement: Raman, 532 nm, unoriented, Raman Data Processed
Mineral: Ferrierite-Mg
Rruff sample: R070118
Ideal chemistry: [Mg_2_(K,Na)_2_Ca_0.5_](Si_29_Al_7_)O_72_18H_2_O
Locality: Monastir, near Cagliari, Sardinia, Italy
Source: Michael Scott
Description: Pale tan colored fibrous radiating crystals associated with hematite
Measured chemistry: (Ca_0.15_Na_0.01_)(K_0.93_Na_0.07_)_Σ=1_(Mg_1.80_K_0.20_)_Σ=2_Ca_0.50_(Si_29.89_Al_6.11_)_Σ=36_O_72_·20.71H_2_O ; H_2_O estimated by difference
Raman shift (cm-1)	intensity
172.359	0
175.252	18.1406
178.144	47.957
181.037	146.332
183.93	117.617
186.822	277.74
189.715	358.316
192.608	409.258
195.501	449.125
198.393	454.635
201.286	424.68
204.179	635.07
207.071	597.686
209.964	559.762
212.857	538.766
215.75	470.277
218.642	513.91
221.535	507.875
224.428	451.6
227.32	396.18
230.213	363.18
233.106	408.725
235.999	344.377
238.891	299.791
241.784	236.91
244.677	191.85
247.569	276.613
250.462	240.254
253.355	226.211
256.247	190.547
259.14	139.31
262.033	197.197
264.925	203.834
267.818	76.0625
270.711	65.4434
273.604	149.131
276.496	30.4551
279.389	88.8281
282.282	164.023
285.174	155.762
288.067	36.2812
290.96	51.7188
293.853	6.95117
296.745	229.006
299.638	88.9531
302.531	180.945
305.423	138.301
308.316	244.887
311.209	224.83
314.101	264.777
316.994	161.715
319.887	227.717
322.779	281.303
325.672	295.57
328.565	207.006
331.458	329.498
334.35	329.125
337.243	407.055
340.136	133.609
343.028	251.584
345.921	131.574
348.814	87.9336
351.707	156.877
354.599	64.0273
357.492	200.227
360.385	46.9121
363.277	9.83789
366.17	31.3965
369.063	40.0039
371.955	103.258
374.848	22.709
377.741	13.0684
380.634	270.31
383.526	107.365
386.419	259.51
389.312	205.492
392.204	126.898
395.097	208.586
397.99	435.445
400.882	379.699
403.775	447.547
406.668	637.777
409.56	663.742
412.453	876.477
415.346	826.035
418.239	932.137
421.131	1282.24
424.024	1440.27
426.917	1605.41
429.81	1381.86
432.702	1401.42
435.595	1446.7
438.488	1549.53
441.38	1489.21
444.273	1582.78
447.166	1393.18
450.058	1283.14
452.951	1236.23
455.844	1018.25
458.736	943.418
461.629	780.977
464.522	621.527
467.415	367.398
470.307	349.805
473.2	298.523
476.093	147.981
478.985	104.039
481.878	61.0039
484.771	254.543
487.663	9.05469
490.556	75.3281
493.449	81.707
496.342	28.4219
499.234	36.2305
502.127	98.207
505.02	177.547
507.912	88.8164
510.805	68.5469
513.698	33.3711
516.591	100.582
519.483	51.2852
522.376	96.9453
525.269	273.746
528.161	109.254
531.054	193.867
533.947	284.781
536.839	342.781
539.732	189.387
542.625	354.137
545.518	305.102
548.41	396.938
551.303	445.293
554.196	451.398
557.088	315.383
559.981	340.449
562.874	271.34
565.766	218.348
568.659	256.188
571.552	176.106
574.444	113.496
577.337	32.207
580.23	26.0156
583.123	100.387
586.015	24.5117
588.908	58.3281
591.801	48.9141
594.693	22.5039
597.586	54.6797
600.479	166.625
603.372	91.043
606.264	167.652
609.157	207.156
612.05	423.961
614.942	333.242
617.835	298.207
620.728	351.144
623.62	425.008
626.513	418.758
629.406	652.641
632.299	510.93
635.191	606.492
638.084	658.883
640.977	724.68
643.869	634.949
646.762	719.996
649.655	698.766
652.548	764.527
655.44	640.945
658.333	634.082
661.226	568.809
664.118	709.379
667.011	462.227
669.904	465.57
672.796	490.867
675.689	369.356
678.582	394.902
681.475	252.438
684.367	410.59
687.26	225.504
690.153	253.691
693.045	136.602
695.938	179.141
698.831	45.0977
701.723	67.418
704.616	40.2969
707.509	126.981
710.402	29.0039
713.294	47.0898
716.187	1.10547
719.08	109.699
721.972	11.75
724.865	154.391
727.758	22.5195
730.65	108.961
733.543	122.297
736.436	111.852
739.329	143.84
742.221	201.055
745.114	100.262
748.007	138.656
750.899	182.188
753.792	243.332
756.685	335.973
759.577	322.977
762.47	324.328
765.363	413.148
768.256	356.363
771.148	421.926
774.041	403.988
776.934	373.652
779.826	381.656
782.719	440.957
785.612	537.887
788.505	630.867
791.397	466.106
794.29	458.269
797.183	556.133
800.075	485.449
802.968	500.227
805.861	396.629
808.753	449.582
811.646	430.137
814.539	371.387
817.432	454.051
820.324	277.828
823.217	232.074
826.11	177.191
829.002	1.16797
831.895	26.0195
834.788	136.227
837.68	109.598
840.573	28.0898
843.466	114.363
846.359	9.11328
849.251	53.5312
852.144	113.582
855.037	157.797
857.929	125.723
860.822	156.172
863.715	42.8398
866.607	10.9961
869.5	175.266
872.393	3.51953
875.285	45.207
878.178	166.453
881.071	27.0039
883.964	12.5156
886.856	2.76172
889.749	6.89844
892.642	28.5234
895.534	160.246
898.427	27.2734
901.32	66.6367
904.212	84.8164
907.105	3.29688
909.998	173.484
912.891	219.156
915.783	141.629
918.676	75.8047
921.569	88.8242
924.461	430.957
927.354	1.73828
930.247	338.348
933.139	141.984
936.032	15.1016
938.925	184.121
941.818	20.6094
944.71	220.762
947.603	239.125
950.496	180.32
953.388	185.856
956.281	154.836
959.174	130.016
962.067	225.973
964.959	209.332
967.852	265.051
970.745	279.219
973.637	89.957
976.53	339.75
979.423	271.309
982.315	331.891
985.208	297.004
988.101	328.941
990.994	196.93
993.886	180.797
996.779	371.504
999.672	284.652
1002.56	154.422
1005.46	201.606
1008.35	70.7109
1011.24	180.656
1014.13	67.9141
1017.03	120.531
1019.92	23.4453
1022.81	66.0156
1025.71	60.4648
1028.6	159.644
1031.49	237.332
1034.38	139.754
1037.28	79.4414
1040.17	149.504
1043.06	115.91
1045.95	303.324
1048.85	274.234
1051.74	377.543
1054.63	159.031
1057.53	368.715
1060.42	296.473
1063.31	402.266
1066.2	529.613
1069.1	586.934
1071.99	554.34
1074.88	653.394
1077.78	639.961
1080.67	675.965
1083.56	668.91
1086.45	641.375
1089.35	575.816
1092.24	692.16
1095.13	775.504
1098.02	636.297
1100.92	662.531
1103.81	522.356
1106.7	317.66
1109.59	394.805
1112.49	331.461
1115.38	267.91
1118.27	176.66
1121.16	326.906
1124.06	81.1328
1126.95	200.875
1129.84	95.9258
1132.74	186.863
1135.63	323.051
1138.52	93.4688
1141.41	110.766
1144.31	215.965
1147.2	180.121
1150.09	353.312
1152.98	242.906
1155.88	313.57
1158.77	421.176
1161.66	343.234
1164.56	381.109
1167.45	296.734
1170.34	296.731
1173.23	291.766
1176.13	314.965
1179.02	213.383
1181.91	265.574
1184.81	434.039
1187.7	334.648
1190.59	241.352
1193.48	320.84
1196.38	100.461
1199.27	29.8789
1202.16	33.3828
1205.05	91.6406
1207.95	64.9297
1210.84	199.695
1213.73	101.887
1216.62	67.75
1219.52	215.277
1222.41	120.809
1225.3	9.32422
1228.19	55.2305
1231.09	34.7617
1233.98	137.094
1236.87	247.055
1239.77	332.496
1242.66	311.418
1245.55	111.016
1248.44	213.988
1251.34	244.258
1254.23	392.078
1257.12	510.812
1260.02	330.078
1262.91	403.348
1265.8	554.66
1268.69	279.629
1271.59	269.207
1274.48	201.606
1277.37	364.555
1280.26	134.141
1283.16	330.68
1286.05	325.285
1288.94	242.547
1291.83	84.7031
1294.73	102.394
1297.62	48.9062
