Measurement: Raman, 532 nm, unoriented, Raman Data Processed
Mineral: Ferrierite-Mg
Rruff sample: R060982
Ideal chemistry: [Mg_2_(K,Na)_2_Ca_0.5_](Si_29_Al_7_)O_72_18H_2_O
Locality: Monte Lake, British Columbia, Canada
Source: Bob Jenkins
Description: Orange lath shaped crystals in radial aggregates associated with white calcite
Measured chemistry: (Mg_1.70_K_0.83_Fe_0.49_Na_0.36_Ca_0.21_)_Σ=3.49_(Si_30.01_Al_5.99_)_Σ=36_O_72_·20.71H_2_O; = dark phase. Light phase is calcite: (Ca_0.96_Mn_0.02_Mg_0.01_Fe_0.01_)CO_3_
Raman shift (cm-1)	intensity
130.682	0
133.575	3.39429
136.468	84.2532
139.36	188.098
142.253	227.76
145.146	392.415
148.038	394.397
150.931	289.545
153.824	219.144
156.717	166.465
159.609	166.717
162.502	207.951
165.395	125.278
168.287	88.2454
171.18	85.7095
174.073	23.5347
176.965	4.6394
179.858	15.2073
182.751	59.1956
185.644	65.9585
188.536	95.22
191.429	139.294
194.322	184.428
197.214	149.029
200.107	168.475
203	250.586
205.893	297.05
208.785	360.834
211.678	357.823
214.571	457.329
217.463	620.773
220.356	854.727
223.249	1151.09
226.141	1423.82
229.034	724.596
231.927	390.513
234.82	333.828
237.712	354.185
240.605	474.48
243.498	599.216
246.39	703.08
249.283	398.054
252.176	150.623
255.068	50.8355
257.961	39.1724
260.854	0.543213
263.747	22.0281
266.639	1.88013
269.532	19.7783
272.425	1.58691
275.317	13.2454
278.21	96.7573
281.103	123.625
283.995	181.767
286.888	318.156
289.781	556.629
292.673	682.172
295.566	713.581
298.459	727.206
301.352	685.804
304.244	557.211
307.137	459.377
310.03	393.692
312.922	386.646
315.815	281.803
318.708	305.836
321.601	318.936
324.493	338.339
327.386	387.954
330.279	386.778
333.171	329.692
336.064	310.533
338.957	341.914
341.849	285.927
344.742	216.982
347.635	151.971
350.527	155.778
353.42	129.169
356.313	57.5662
359.206	7.04517
362.098	5.53223
364.991	33.0627
367.884	19.2939
370.776	49.79
373.669	26.5588
376.562	55.3892
379.454	78.7598
382.347	98.4546
385.24	202.414
388.132	330.543
391.025	398.413
393.918	547.138
396.811	771.929
399.703	1058.28
402.596	1451.02
405.489	1888.71
408.381	2331.23
411.274	2600.83
414.167	2561.07
417.06	2424.73
419.952	2359.24
422.845	2349.35
425.738	2338.57
428.63	2347.02
431.523	2333.09
434.416	2310.79
437.308	2269.54
440.201	2292.93
443.094	2227.94
445.986	2127.27
448.879	2000.07
451.772	1770.73
454.665	1571.28
457.557	1311.91
460.45	959.217
463.343	851.885
466.235	618.805
469.128	456.441
472.021	344.651
474.913	208.364
477.806	130.474
480.699	87.8608
483.592	110.606
486.484	141.759
489.377	112.609
492.27	153.714
495.162	89.4871
498.055	151.067
500.948	129.745
503.841	81.9644
506.733	97.5142
509.626	26.5244
512.519	40.907
515.411	7.07617
518.304	19.9502
521.197	8.25464
524.089	4.91577
526.982	31.2146
529.875	10.1863
532.768	13.4229
535.66	12.7065
538.553	65.9771
541.446	157.716
544.338	199.117
547.231	260.889
550.124	265.712
553.016	292.3
555.909	283.973
558.802	227.94
561.694	206.47
564.587	170.717
567.48	127.797
570.373	96.0732
573.265	99.9404
576.158	39.6401
579.051	10.5215
581.943	44.2666
584.836	22.1006
587.729	17.186
590.621	12.6853
593.514	60.385
596.407	49.7229
599.3	138.367
602.192	134.669
605.085	320.002
607.978	347.454
610.87	376.331
613.763	394.453
616.656	326.841
619.548	252.946
622.441	185.937
625.334	147.294
628.227	118.018
631.119	58.6077
634.012	62.0581
636.905	88.9334
639.797	103.15
642.69	97.7666
645.583	172.679
648.475	216.467
651.368	280.286
654.261	307.802
657.154	360.678
660.046	348.466
662.939	322.613
665.832	330.01
668.724	317.11
671.617	209.06
674.51	191.002
677.402	151.69
680.295	141.025
683.188	97.8738
686.081	55.2246
688.973	105.239
691.866	89.8037
694.759	91.5178
697.651	69.7202
700.544	71.6169
703.437	3.31299
706.329	4.54858
709.222	32.731
712.115	43.585
715.008	7.56592
717.9	8.26221
720.793	7.54248
723.686	20.3843
726.578	42.6865
729.471	23.6321
732.364	7.31641
735.256	23.7273
738.149	43.51
741.042	33.8508
743.934	54.1357
746.827	118.99
749.72	28.7441
752.613	34.8635
755.505	77.0273
758.398	99.9675
761.291	83.2776
764.183	165.677
767.076	199.721
769.969	226.398
772.861	199.143
775.754	290.943
778.647	329.579
781.54	369.092
784.432	391.71
787.325	400.508
790.218	388.958
793.11	403.478
796.003	367.721
798.896	420.707
801.788	360.088
804.681	390.171
807.574	385.46
810.467	532.044
813.359	618.939
816.252	655.038
819.145	659.479
822.037	572.865
824.93	500.502
827.823	421.026
830.716	310.356
833.608	236.927
836.501	192.06
839.394	227.245
842.286	165.76
845.179	150.472
848.072	127.541
850.964	83.6892
853.857	29.7761
856.75	24.9978
859.643	56.4458
862.535	29.8748
865.428	52.6565
868.321	14.0688
871.213	40.8069
874.106	22.7625
876.999	46.5376
879.891	39.1987
882.784	23.6411
885.677	46.207
888.569	50.831
891.462	86.4365
894.355	65.9321
897.247	65.0913
900.14	71.4551
903.033	82.501
905.926	14.0234
908.818	75.2598
911.711	56.5234
914.604	14.9302
917.496	36.9541
920.389	40.1709
923.282	54.2559
926.174	45.0542
929.067	31.2417
931.96	70.1562
934.853	4.92578
937.745	41
940.638	24.6675
943.531	20.4966
946.423	25.9839
949.316	18.5303
952.209	70.4126
955.101	45.9023
957.994	48.9336
960.887	64.9731
963.78	19.7827
966.672	32.7183
969.565	46.0591
972.458	53.6035
975.35	66.3945
978.243	40.6787
981.136	47.2705
984.029	85.0449
986.921	24.2109
989.814	60.5327
992.707	0.757813
995.599	40.5772
998.492	83.1187
1001.38	72.2378
1004.28	9.44238
1007.17	35.9668
1010.06	12.2275
1012.96	38.3174
1015.85	10.209
1018.74	44.8428
1021.63	48.0039
1024.53	91.0264
1027.42	115.734
1030.31	172.44
1033.2	113.746
1036.1	158.915
1038.99	116.261
1041.88	186.276
1044.78	197.298
1047.67	157.567
1050.56	214.359
1053.45	171.006
1056.35	186.753
1059.24	151.303
1062.13	128.963
1065.02	93.7602
1067.92	101.592
1070.81	106.136
1073.7	120.84
1076.6	92.8052
1079.49	40.7773
1082.38	54.5742
1085.27	51.5952
1088.17	34.8462
1091.06	21.5659
1093.95	0.844727
1096.84	0.592285
1099.74	25.9082
1102.63	37.8565
1105.52	19.6875
1108.41	35.2012
1111.31	45.8252
1114.2	83.8784
1117.09	50.3203
1119.98	127.787
1122.88	31.3213
1125.77	117.237
1128.66	134.698
1131.56	107.068
1134.45	62.479
1137.34	76.1758
1140.23	71.3769
1143.13	105.808
1146.02	73.4238
1148.91	22.6855
1151.81	75.3633
1154.7	80.2227
1157.59	122.065
1160.48	59.2173
1163.38	63.3018
1166.27	40.0093
1169.16	52.5107
1172.05	17.6851
1174.95	38.9395
1177.84	79.9126
1180.73	66.2275
1183.62	125.034
1186.52	35.3628
1189.41	84.5825
1192.3	69.6533
1195.19	30.3735
1198.09	43.9966
1200.98	68.938
1203.87	69.6856
1206.77	23.5352
1209.66	40.9038
1212.55	22.8477
1215.44	19.5977
1218.34	27.8896
1221.23	21.1797
1224.12	59.2954
1227.02	0
