Measurement: Raman, 532 nm, unoriented, Raman Data Processed
Mineral: Ferro-katophorite
Rruff sample: R050633
Ideal chemistry: NaNaCa[Fe^2+^_4_Al](Si_7_Al)O_22_(OH)_2_
Locality: Taguchi mine, Shidara, Kitashidara-Gun, Aichi Prefecture, Japan
Source: Marcus Origlieri
Description: Dark green fragment associated with yoshimuraite, R050266.
Raman shift (cm-1)	intensity
159.689	0
162.581	27.9607
165.474	26.6902
168.367	47.2002
171.259	46.707
174.152	34.3789
177.045	20.0879
179.938	33.0564
182.83	7.46533
185.723	0.899902
188.616	7.18677
191.508	31.7356
194.401	54.9907
197.294	70.3455
200.186	77.1851
203.079	92.6934
205.972	112.91
208.864	119.641
211.757	151.158
214.65	166.971
217.543	174.748
220.435	135.666
223.328	138.758
226.221	82.7981
229.113	97.5535
232.006	74.147
234.899	71.3855
237.792	46.1152
240.684	38.0415
243.577	28.4932
246.47	20.6997
249.362	27.4463
252.255	33.7712
255.148	5.44775
258.041	37.3215
260.933	32.5215
263.826	15.4006
266.719	0.529541
269.611	3.16406
272.504	11.8354
275.397	3.93018
278.289	3.15332
281.182	3.77368
284.075	8.16113
286.967	7.5896
289.86	37.4907
292.753	63.9893
295.646	34.1357
298.538	39.7647
301.431	53.8184
304.324	43.7122
307.216	32.4241
310.109	44.3252
313.002	63.031
315.895	69.5273
318.787	72.4016
321.68	61.3044
324.573	77.8108
327.465	78.2295
330.358	83.0962
333.251	101.199
336.144	106.948
339.036	94.0701
341.929	106.991
344.822	105.385
347.714	143.185
350.607	145.739
353.5	152.203
356.392	154.484
359.285	161.638
362.178	162.541
365.07	190.175
367.963	206.014
370.856	183.062
373.749	180.941
376.641	186.57
379.534	179.894
382.427	175.866
385.32	163.575
388.212	175.783
391.105	156.318
393.998	132.378
396.89	98.2087
399.783	71.6982
402.676	61.8323
405.568	58.0022
408.461	40.7048
411.354	34.8452
414.247	39.3926
417.139	23.1431
420.032	35.581
422.925	18.5395
425.817	22.1235
428.71	33.7864
431.603	20.8486
434.495	0.727783
437.388	12.8286
440.281	7.33936
443.173	1.86499
446.066	10.9895
448.959	17.1611
451.852	7.89111
454.744	13.1228
457.637	13.6025
460.53	25.1289
463.423	16.677
466.315	28.498
469.208	22.251
472.101	13.7161
474.993	2.60254
477.886	28.1724
480.779	8.67017
483.671	2.81079
486.564	12.7334
489.457	31.9041
492.349	26.4607
495.242	53.676
498.135	67.8979
501.028	79.2
503.92	92.3362
506.813	78.5693
509.706	96.7871
512.598	95.7651
515.491	92.0466
518.384	109.554
521.277	97.7961
524.169	102.006
527.062	109.872
529.955	128.805
532.847	171.743
535.74	162.606
538.633	142.936
541.525	128.626
544.418	128.616
547.311	141.893
550.204	114.422
553.096	115.112
555.989	95.5581
558.882	92.593
561.774	98.8608
564.667	89.958
567.56	105.365
570.452	88.4536
573.345	90.019
576.238	78.4299
579.131	70.3852
582.023	54.1123
584.916	40.6387
587.809	37.2742
590.701	23.2483
593.594	15.6992
596.487	15.98
599.38	14.8001
602.272	16.4009
605.165	4.91235
608.058	19.7764
610.95	7.41905
613.843	17.6709
616.736	18.531
619.629	0.19165
622.521	6.39185
625.414	2.64819
628.307	12.279
631.199	13.1211
634.092	23.5276
636.985	12.8267
639.877	36.9443
642.77	53.1494
645.663	41.8171
648.556	64.2371
651.448	69.8477
654.341	108.779
657.234	150.93
660.126	226.079
663.019	294.43
665.912	411.594
668.804	515.438
671.697	659.671
674.59	739.198
677.482	722.792
680.375	595.865
683.268	377.858
686.161	224.313
689.053	133.129
691.946	90.8237
694.839	56.8201
697.731	55.9099
700.624	42.812
703.517	53.9111
706.409	49.7832
709.302	29.8665
712.195	57.1782
715.088	47.1118
717.98	57.3733
720.873	60.7297
723.766	49.356
726.659	76.2495
729.551	63.0737
732.444	50.4844
735.337	75.9639
738.229	58.9373
741.122	82.4273
744.015	65.6294
746.907	53.9888
749.8	32.9905
752.693	38.6084
755.586	38.5852
758.478	26.7244
761.371	26.395
764.264	24.0796
767.156	18.332
770.049	2.0332
772.942	2.79346
775.835	8.88672
778.727	4.74243
781.62	27.0469
784.513	3.46338
787.405	21.6003
790.298	2.03442
793.191	2.84595
796.083	12.0832
798.976	5.64136
801.869	38.3052
804.761	30.6648
807.654	33.2732
810.547	6.83667
813.44	2.76758
816.332	0.441895
819.225	1.43945
822.118	1.74609
825.01	4.43506
827.903	9.0708
830.796	17.3613
833.688	7.03271
836.581	13.1709
839.474	23.2317
842.367	21.5425
845.259	22.698
848.152	1.27124
851.045	10.5117
853.937	4.34155
856.83	30.8955
859.723	32.7366
862.616	29.8574
865.508	15.0964
868.401	26.0747
871.294	48.1736
874.186	72.6863
877.079	76.3025
879.972	54.7756
882.865	85.2104
885.757	73.2251
888.65	61.8401
891.543	51.8582
894.435	35.5234
897.328	40.0505
900.221	50.3528
903.113	45.5752
906.006	22.5156
908.899	15.9294
911.792	29.1982
914.684	41.8037
917.577	55.2918
920.47	44.2393
923.362	34.6377
926.255	33.1736
929.148	12.2324
932.04	5.06128
934.933	11.5784
937.826	13.8218
940.719	7.63574
943.611	18.0327
946.504	15.3982
949.397	24.5552
952.289	35.9768
955.182	36.7615
958.075	48.8296
960.967	81.6804
963.86	76.7798
966.753	95.9727
969.646	99.2007
972.538	100.664
975.431	117.154
978.324	112.278
981.216	87.8674
984.109	79.5569
987.002	51.9612
989.894	38.9365
992.787	34.416
995.68	32.9412
998.573	47.6487
1001.47	36.9739
1004.36	17.8174
1007.25	8.99487
1010.14	4.90796
1013.04	1.87671
1015.93	2.54102
1018.82	2.82275
1021.71	7.61255
1024.61	5.32568
1027.5	10.4966
1030.39	16.7969
1033.29	7.18994
1036.18	32.7124
1039.07	23.1248
1041.96	26.8455
1044.86	36.9878
1047.75	62.4678
1050.64	48.1726
1053.53	62.2305
1056.43	64.3308
1059.32	52.582
1062.21	71.928
1065.11	83.2837
1068	73.4148
1070.89	90.3176
1073.78	64.6133
1076.68	64.6274
1079.57	44.959
1082.46	45.752
1085.35	58.3347
1088.25	49.176
1091.14	46.479
1094.03	46.3296
1096.92	44.9023
1099.82	48.0815
1102.71	53.6536
1105.6	46.2085
1108.49	30.8362
1111.39	48.3943
1114.28	39.918
1117.17	43.7505
1120.07	26.9089
1122.96	17.0386
1125.85	25.1936
1128.74	28.5188
1131.64	28.97
1134.53	27.352
1137.42	27.2197
1140.32	3.58887
1143.21	22.2212
1146.1	19.3984
1148.99	24.2539
1151.89	26.1526
1154.78	10.4126
1157.67	8.12549
1160.56	4.42676
1163.46	7.13818
1166.35	0.621582
1169.24	17.6799
1172.13	0.202148
1175.03	2.22192
1177.92	8.11084
1180.81	12.022
1183.71	2.28394
1186.6	6.34741
1189.49	2.79102
1192.38	6.08814
1195.28	4.07886
1198.17	10.0525
1201.06	6.48144
1203.95	28.1736
1206.85	27.8628
1209.74	18.7446
1212.63	13.167
1215.53	20.1167
1218.42	21.1238
1221.31	11.7371
1224.2	9.08227
1227.1	11.9087
1229.99	18.4304
1232.88	27.8066
1235.77	10.1699
1238.67	2.76514
1241.56	5.95117
1244.45	17.6194
1247.35	4.32007
1250.24	5.21851
1253.13	16.3084
1256.02	8.78979
1258.92	22.3767
1261.81	17.9185
1264.7	25.2979
1267.59	31.6428
1270.49	36.4985
1273.38	18.8291
1276.27	23.937
1279.16	8.34937
1282.06	2.95557
1284.95	7.07764
1287.84	0.88501
1290.74	15.6523
1293.63	7.66309
1296.52	4.32324
1299.41	0.69165
