Measurement: Raman, 780 nm, unoriented, Raman Data Processed
Mineral: Ferro-katophorite
Rruff sample: R050633
Ideal chemistry: NaNaCa[Fe^2+^_4_Al](Si_7_Al)O_22_(OH)_2_
Locality: Taguchi mine, Shidara, Kitashidara-Gun, Aichi Prefecture, Japan
Source: Marcus Origlieri
Description: Dark green fragment associated with yoshimuraite, R050266.
Raman shift (cm-1)	intensity
119.988	0
123.363	2.30743
126.738	4.12802
130.113	1.14719
133.487	1.16235
136.862	6.4191
140.237	12.6262
143.612	18.9558
146.987	23.6497
150.362	26.0019
153.736	28.1288
157.111	29.9089
160.486	31.718
163.861	30.9084
167.236	32.5545
170.61	22.6169
173.985	21.3726
177.36	23.4424
180.735	21.1252
184.11	23.7304
187.484	26.6523
190.859	33.7452
194.234	34.0594
197.609	36.5569
200.984	39.4225
204.358	40.865
207.733	42.184
211.108	38.1164
214.483	34.103
217.858	31.2567
221.233	27.8145
224.607	18.5485
227.982	14.725
231.357	12.1495
234.732	10.0565
238.107	9.73199
241.482	5.44351
244.856	7.66528
248.231	6.04016
251.606	2.88281
254.981	0.083679
258.356	2.20331
261.73	0.217957
265.105	2.34262
268.48	1.55237
271.855	1.61786
275.23	0.157623
278.604	1.9888
281.979	4.4411
285.354	4.78247
288.729	6.8692
292.104	8.81058
295.478	8.77252
298.853	10.3497
302.228	4.90677
305.603	6.73627
308.978	6.32871
312.353	7.10275
315.727	5.8331
319.102	3.45114
322.477	0.184021
325.852	2.83633
329.227	1.3241
332.601	1.89889
335.976	2.18375
339.351	4.53946
342.726	6.03784
346.101	7.91129
349.476	12.0558
352.85	16.317
356.225	21.2369
359.6	23.145
362.975	30.0754
366.35	31.0541
369.724	32.7057
373.099	33.4781
376.474	30.7028
379.849	31.8024
383.224	32.8974
386.599	29.2986
389.973	22.4583
393.348	17.0631
396.723	13.6846
400.098	7.58942
403.473	6.34186
406.847	2.21237
410.222	4.26715
413.597	2.1394
416.972	1.49237
420.347	3.11353
423.721	7.80188
427.096	3.80212
430.471	3.89188
433.846	5.45123
437.221	3.17618
440.596	3.26053
443.97	5.3913
447.345	0.032471
450.72	3.87689
454.095	0.484833
457.47	0.338837
460.844	0.534515
464.219	2.00674
467.594	0.919952
470.969	1.88071
474.344	1.04449
477.719	1.42706
481.093	3.14224
484.468	4.59964
487.843	6.49637
491.218	8.21878
494.592	13.2134
497.967	9.71832
501.342	16.2976
504.717	14.187
508.092	18.8893
511.467	19.7888
514.841	19.9314
518.216	20.0566
521.591	25.6537
524.966	26.5369
528.341	30.8017
531.716	30.4957
535.09	31.4066
538.465	27.5988
541.84	27.3803
545.215	27.2839
548.59	26.458
551.964	24.7976
555.339	24.9321
558.714	25.3578
562.089	23.1156
565.464	20.4236
568.838	17.5676
572.213	15.944
575.588	13.9374
578.963	10.8714
582.338	4.78827
585.712	4.53604
589.087	2.10873
592.462	3.86569
595.837	0.047119
599.212	0.465668
602.587	2.62161
605.961	1.06247
609.336	0.191956
612.711	1.61911
616.086	1.58282
619.461	0.193909
622.836	0.198334
626.21	4.16492
629.585	0.546539
632.96	1.72168
636.335	3.62698
639.71	6.37671
643.084	6.47272
646.459	8.09161
649.834	11.7664
653.209	18.6183
656.584	28.8013
659.958	43.666
663.333	57.0005
666.708	71.2853
670.083	85.4382
673.458	90.8474
676.832	83.0588
680.207	59.9757
683.582	34.8023
686.957	19.2142
690.332	11.4237
693.707	9.68616
697.081	6.95395
700.456	4.7214
703.831	3.61447
707.206	1.58658
710.581	6.39893
713.955	6.68509
717.33	6.1611
720.705	5.49509
724.08	7.6452
727.455	9.83179
730.83	7.16812
734.204	7.02322
737.579	9.97406
740.954	8.34277
744.329	12.7452
747.704	14.5599
751.078	6.34036
754.453	3.92001
757.828	0.227539
761.203	1.47592
764.578	4.15186
767.952	1.50824
771.327	0.598969
774.702	3.12863
778.077	0.809753
781.452	3.04468
784.827	0.775269
788.201	0.400726
791.576	1.7453
794.951	1.21451
798.326	1.38876
801.701	1.29141
805.075	2.79578
808.45	2.58768
811.825	0.889435
815.2	1.21482
818.575	0.084229
821.949	1.28705
825.324	1.56451
828.699	1.83823
832.074	2.37637
835.449	3.53738
838.824	4.561
842.198	4.68607
845.573	4.18396
848.948	3.56284
852.323	5.1026
855.698	5.28275
859.072	3.85117
862.447	6.0126
865.822	6.36395
869.197	6.88617
872.572	10.4398
875.947	7.46063
879.321	10.685
882.696	7.74335
886.071	7.21912
889.446	8.5769
892.821	6.97394
896.195	7.31958
899.57	2.60242
902.945	0.257935
906.32	0.813568
909.695	1.76215
913.069	2.9924
916.444	3.57117
919.819	3.84076
923.194	4.30926
926.569	2.29617
929.944	3.03589
933.318	1.93005
936.693	0.693024
940.068	1.18048
943.443	0.277832
946.818	0.521484
950.192	0.4646
953.567	0.387512
956.942	2.5784
960.317	3.29169
963.692	4.26306
967.067	1.84378
970.441	4.58722
973.816	3.65558
977.191	1.26718
980.566	2.17416
983.941	3.18521
987.315	4.1745
990.69	3.49423
994.065	0.49826
997.44	2.21713
1000.82	0.632202
1004.19	0.089264
1007.56	3.91226
1010.94	0.169312
1014.31	3.89328
1017.69	4.03787
1021.06	4.16388
1024.44	4.38693
1027.81	2.03976
1031.19	2.87918
1034.56	3.20874
1037.94	4.04846
1041.31	6.68881
1044.69	5.46252
1048.06	11.3087
1051.44	7.91092
1054.81	11.5769
1058.19	9.21625
1061.56	9.19531
1064.94	10.0773
1068.31	9.26642
1071.69	9.949
1075.06	9.30563
1078.43	11.1466
1081.81	9.36386
1085.18	8.36627
1088.56	9.35193
1091.93	10.5261
1095.31	7.99991
1098.68	7.56424
1102.06	5.27466
1105.43	2.0462
1108.81	6.35834
1112.18	5.97846
1115.56	5.56241
1118.93	3.77304
1122.31	3.92744
1125.68	2.59878
1129.06	4.4348
1132.43	0.430618
1135.81	2.39029
1139.18	0.775787
1142.56	3.41689
1145.93	2.60333
1149.31	1.26096
1152.68	0.696365
1156.06	1.03691
1159.43	3.05519
1162.81	2.0647
1166.18	2.66118
1169.56	3.18684
1172.93	1.21964
1176.31	2.88506
1179.68	0.655441
1183.06	2.34737
1186.43	2.12517
1189.8	3.20544
1193.18	4.03854
1196.55	1.8436
1199.93	3.317
1203.3	3.49788
1206.68	4.32468
1210.05	3.13023
1213.43	4.98607
1216.8	1.92253
1220.18	2.62315
1223.55	0.643326
1226.93	3.24864
1230.3	3.79141
1233.68	1.26492
1237.05	3.96407
1240.43	3.65659
1243.8	3.12398
1247.18	1.88052
1250.55	3.35698
1253.93	2.2756
1257.3	3.52124
1260.67	1.94092
1264.05	2.69603
1267.42	3.06068
1270.8	4.90633
1274.17	3.7085
1277.55	6.23441
1280.92	3.20468
1284.3	0.586166
