Measurement: Raman, 780 nm, unoriented, Raman Data Processed
Mineral: Ferro-gedrite
Rruff sample: R060330
Ideal chemistry: [box]Fe^2+^_2_(Fe^2+^_3_Al_2_)(Si_6_Al_2_)O_22_(OH)_2_
Locality: Kawai mine, Ena City, Gifu Prefecture, Japan
Source: Michael Scott
Description: Aggregate of greenish black bladed crystals
Raman shift (cm-1)	intensity
108.407	0
111.782	0.129089
115.157	0.7584
118.532	2.17901
121.907	1.37625
125.281	1.49387
128.656	4.14419
132.031	1.35863
135.406	1.19649
138.781	2.72481
142.155	2.00847
145.53	2.1525
148.905	2.00698
152.28	0.062561
155.655	0.502831
159.03	1.80411
162.404	1.47392
165.779	2.54723
169.154	0.141075
172.529	1.13129
175.904	3.39832
179.278	1.14089
182.653	1.95951
186.028	1.64368
189.403	0.407349
192.778	2.62642
196.153	3.21323
199.527	3.97089
202.902	3.71561
206.277	4.01023
209.652	3.58835
213.027	1.59277
216.401	3.9095
219.776	2.12785
223.151	1.52409
226.526	1.74956
229.901	0.769386
233.275	0.408562
236.65	1.57191
240.025	1.1051
243.4	1.69466
246.775	2.35445
250.15	1.55479
253.524	0.866989
256.899	1.51311
260.274	1.76382
263.649	4.02477
267.024	5.07407
270.399	2.769
273.773	3.82404
277.148	2.94042
280.523	3.06635
283.898	4.64641
287.273	3.45287
290.647	3.80257
294.022	3.37292
297.397	3.55112
300.772	1.98076
304.147	2.73377
307.522	1.93978
310.896	2.55762
314.271	0.68499
317.646	0.431396
321.021	0.242218
324.396	1.09669
327.77	0.028282
331.145	0.678185
334.52	2.01325
337.895	1.42502
341.27	2.79614
344.644	0.73336
348.019	0.291992
351.394	0.390656
354.769	1.984
358.144	1.81167
361.519	0.007774
364.893	1.72359
368.268	2.45984
371.643	2.06229
375.018	2.2962
378.393	3.03822
381.767	1.60001
385.142	0.874748
388.517	3.16429
391.892	3.29359
395.267	3.06019
398.642	4.44366
402.016	2.01929
405.391	2.96289
408.766	1.92532
412.141	1.26785
415.516	0.45005
418.89	2.31408
422.265	0.315056
425.64	0.587837
429.015	0.511848
432.39	0.193214
435.765	0.66848
439.139	1.0264
442.514	2.11906
445.889	1.87891
449.264	0.479599
452.639	0.41227
456.014	1.99168
459.388	0.358017
462.763	2.19434
466.138	2.35513
469.513	1.32012
472.887	1.60352
476.262	2.0439
479.637	2.14622
483.012	2.98888
486.387	2.63316
489.762	2.56431
493.136	3.31453
496.511	4.16798
499.886	5.72165
503.261	5.95562
506.636	6.06997
510.01	8.28783
513.385	7.8957
516.76	9.18339
520.135	9.31104
523.51	10.9493
526.885	11.4339
530.259	11.4301
533.634	11.4664
537.009	11.4907
540.384	8.8369
543.759	10.413
547.134	8.34917
550.508	8.38437
553.883	8.4428
557.258	6.34347
560.633	4.1245
564.008	3.84943
567.382	4.14249
570.757	3.4362
574.132	2.23058
577.507	3.02257
580.882	1.0931
584.256	0.213905
587.631	0.300591
591.006	0.436272
594.381	0.066589
597.756	0.026917
601.131	0.027092
604.505	1.13629
607.88	2.18085
611.255	2.53343
614.63	1.03278
618.005	1.88136
621.38	3.18921
624.754	4.26584
628.129	4.37887
631.504	4.70693
634.879	4.90801
638.254	5.28593
641.628	4.46551
645.003	5.41245
648.378	5.3746
651.753	4.06187
655.128	5.04639
658.503	4.95046
661.877	3.33139
665.252	2.56921
668.627	2.69022
672.002	1.67572
675.377	2.09582
678.751	1.5524
682.126	2.09081
685.501	2.60562
688.876	1.72311
692.251	1.61432
695.625	0.599503
699	1.30385
702.375	0.492928
705.75	0.173985
709.125	0.342731
712.5	1.26287
715.874	0.190632
719.249	0.643749
722.624	0.42651
725.999	2.66504
729.374	0.163597
732.749	1.40589
736.123	0.309502
739.498	0.155384
742.873	0.520844
746.248	0.013481
749.623	0.894039
752.997	1.64407
756.372	1.12544
759.747	1.16383
763.122	0.602062
766.497	1.22856
769.871	0.186462
773.246	0.728592
776.621	1.88902
779.996	0.423477
783.371	1.61
786.745	0.441032
790.12	1.92089
793.495	0.455109
796.87	0.905071
800.245	1.44297
803.62	0.426243
806.994	1.42188
810.369	0.429886
813.744	0.01207
817.119	1.46989
820.494	1.85469
823.869	1.54557
827.243	2.21594
830.618	0.617947
833.993	0.221043
837.368	2.65157
840.743	1.15908
844.117	1.3785
847.492	1.92122
850.867	1.29706
854.242	1.99917
857.617	1.71316
860.991	0.64967
864.366	1.10884
867.741	1.28348
871.116	0.553455
874.491	2.69704
877.866	1.67904
881.24	1.39975
884.615	1.31292
887.99	0.586838
891.365	1.24369
894.74	0.068027
898.115	2.26739
901.489	0.912365
904.864	1.25909
908.239	0.233574
911.614	0.055088
914.989	0.049168
918.363	0.202065
921.738	1.22553
925.113	0.478001
928.488	0.892136
931.863	0.555874
935.237	0.847874
938.612	1.54071
941.987	0.924896
945.362	0.653282
948.737	2.50676
952.112	2.42699
955.486	3.14712
958.861	2.08209
962.236	3.07631
965.611	1.25597
968.986	0.713612
972.361	2.83564
975.735	2.23873
979.11	1.48028
982.485	1.05258
985.86	2.1175
989.235	1.18852
992.609	1.96882
995.984	1.13116
999.359	1.69321
1002.73	1.09133
1006.11	2.88926
1009.48	0.230049
1012.86	1.45856
1016.23	1.26147
1019.61	1.41327
1022.98	1.09799
1026.36	0.389812
1029.73	1.00727
1033.11	0.122643
1036.48	1.36281
1039.86	0.097393
1043.23	0.709309
1046.61	0.65646
1049.98	0.379711
1053.36	0.802841
1056.73	1.50402
1060.11	2.43495
1063.48	1.83707
1066.86	1.81361
1070.23	0.66539
1073.61	1.86092
1076.98	0.053818
1080.36	1.08033
1083.73	0.529209
1087.1	1.16782
1090.48	0.464951
1093.85	2.05817
1097.23	1.11114
1100.6	0.20974
1103.98	1.08563
1107.35	0.718525
1110.73	1.42558
1114.1	1.30048
1117.48	0.698696
1120.85	0.430756
1124.23	1.77659
1127.6	1.44667
1130.98	0.998219
1134.35	1.12029
1137.73	1.64822
1141.1	1.16475
1144.48	1.39082
1147.85	0.090275
1151.23	0.090763
1154.6	0.531967
1157.97	0.793015
1161.35	2.69117
1164.72	0.177704
1168.1	0.270046
1171.47	1.70121
1174.85	0.461399
1178.22	0.773781
1181.6	1.4809
1184.97	1.90304
1188.35	1.71309
1191.72	2.2904
1195.1	1.39788
1198.47	2.12977
1201.85	1.48505
1205.22	1.20748
1208.6	1.1405
1211.97	0.838409
1215.35	1.80077
1218.72	1.6865
1222.1	2.41695
1225.47	1.43373
1228.85	0.225986
1232.22	0.45771
1235.6	1.36908
1238.97	1.37247
1242.35	1.25974
1245.72	1.91123
1249.1	1.39753
1252.47	1.95054
1255.85	0.683254
1259.22	1.25782
1262.6	1.94576
1265.97	1.73842
1269.34	0.389011
1272.72	0.217377
1276.09	1.52083
1279.47	0.696659
1282.84	1.01308
