Measurement: Raman, 785 nm, unoriented, Raman Data Processed
Mineral: Ferrosilite
Rruff sample: R070386
Ideal chemistry: Fe^2+^_2_Si_2_O_6_
Locality: Greenland
Source: Subrata Ghose, collected by Ramberg
Description: Unconsolidated brown transparent cleavage fragments
Measured chemistry: (Fe^2+^_1.64_Mg_0.32_Al_0.02_Ca_0.02_)_Σ=2_(Si_1.98_Al_0.02_)_Σ=2_O_6_
Raman shift (cm-1)	intensity
170.576	0
173.468	90.2808
176.361	3.45264
179.254	21.7432
182.146	84.938
185.039	114.96
187.932	120.443
190.825	170.066
193.717	206.502
196.61	267.478
199.503	155.033
202.395	116.085
205.288	27.1145
208.181	19.7185
211.073	5.56128
213.966	12.9136
216.859	2.67285
219.751	75.626
222.644	136.279
225.537	95.0818
228.43	218.185
231.322	161.367
234.215	211.73
237.108	272.852
240	372.263
242.893	359.859
245.786	292.214
248.679	271.01
251.571	139.665
254.464	85.6267
257.357	34.9832
260.249	124.048
263.142	2.81812
266.035	6.5332
268.927	24.2683
271.82	3.87158
274.713	57.8977
277.606	1.75122
280.498	92.0791
283.391	186.862
286.284	227.828
289.176	491.156
292.069	693.536
294.962	883.553
297.854	1205.71
300.747	1505.55
303.64	1918.25
306.533	2217.22
309.425	2279.75
312.318	2176.02
315.211	1890.26
318.103	1698.09
320.996	1503.8
323.889	1379.79
326.781	1101.96
329.674	1004.61
332.567	791.765
335.459	663.06
338.352	522.519
341.245	565.368
344.137	586.967
347.03	611.189
349.923	647.986
352.816	657.628
355.708	541.354
358.601	460.285
361.494	446.394
364.386	459.566
367.279	386.193
370.172	412.495
373.065	403.707
375.957	344.524
378.85	312.755
381.743	304.09
384.635	203.123
387.528	330.217
390.421	316.334
393.313	286.059
396.206	298.421
399.099	238.147
401.991	238.901
404.884	132.519
407.777	58.0415
410.67	54.7432
413.562	14.7295
416.455	48.3801
419.348	8.1062
422.24	16.0376
425.133	62.925
428.026	41.0071
430.918	4.69946
433.811	38.656
436.704	65.0515
439.597	13.3145
442.489	52.6477
445.382	26.9216
448.275	90.8706
451.167	53.063
454.06	16.8438
456.953	9.12256
459.846	70.5725
462.738	85.3308
465.631	94.3962
468.524	99.6602
471.416	79.5361
474.309	91.7349
477.202	109.548
480.094	155.617
482.987	11.4209
485.88	127.154
488.773	167.729
491.665	177.965
494.558	189.886
497.451	243.274
500.343	379.423
503.236	361.113
506.129	477.418
509.022	508.82
511.914	554.541
514.807	644.543
517.7	665.282
520.592	781.369
523.485	764.142
526.378	657.816
529.27	704.618
532.163	589.324
535.056	565.804
537.948	580.021
540.841	616.499
543.734	664.715
546.627	632.876
549.519	720.812
552.412	744.751
555.305	693.561
558.197	765.784
561.09	741.649
563.983	684.914
566.875	616.428
569.768	655.92
572.661	578.66
575.554	512.94
578.446	481.699
581.339	329.127
584.232	253.97
587.124	160.493
590.017	49.5813
592.91	64.2522
595.802	3.05493
598.695	27.1191
601.588	13.2605
604.481	81.167
607.373	5.7019
610.266	10.0027
613.159	32.7278
616.051	27.8962
618.944	66.8186
621.837	125.245
624.729	245.893
627.622	286.848
630.515	481.547
633.408	611.413
636.3	776.643
639.193	862.668
642.086	865.353
644.978	963.388
647.871	1176.03
650.764	1503.47
653.656	1907.95
656.549	2298.91
659.442	2492.04
662.335	2375.48
665.227	1935.67
668.12	1400.59
671.013	930.559
673.905	665.33
676.798	412.152
679.691	298.698
682.583	219.027
685.476	149.325
688.369	157.179
691.261	119.412
694.154	121.433
697.047	45.3074
699.94	46.668
702.832	56.084
705.725	16.8422
708.618	50.5442
711.51	59.1145
714.403	69.0449
717.296	143.164
720.188	75.5846
723.081	147.726
725.974	178.391
728.867	162.676
731.759	84.3927
734.652	136.689
737.545	73.718
740.437	126.564
743.33	97.5747
746.223	46.3918
749.115	41.9211
752.008	58.4121
754.901	0.392456
757.794	42.5377
760.686	16.7336
763.579	32.9739
766.472	5.61145
769.364	2.3573
772.257	90.4337
775.15	10.2556
778.043	65.303
780.935	104.072
783.828	134.38
786.721	190.542
789.613	152.888
792.506	133.23
795.399	149.658
798.291	148.173
801.184	81.4763
804.077	130.283
806.97	145.033
809.862	138.19
812.755	64.7974
815.648	162.999
818.54	111.014
821.433	106.435
824.326	84.1503
827.218	101.335
830.111	122.681
833.004	10.5148
835.896	33.3037
838.789	24.0714
841.682	10.2053
844.575	64.4955
847.467	103.678
850.36	150.638
853.253	32.4283
856.145	71.147
859.038	3.05444
861.931	31.6595
864.823	10.4989
867.716	25.3346
870.609	25.2676
873.502	24.2865
876.394	52.519
879.287	9.96179
882.18	112.091
885.072	91.5731
887.965	65.0263
890.858	16.9292
893.75	140.396
896.643	43.5881
899.536	49.0941
902.429	108.024
905.321	108.349
908.214	99.1068
911.107	96.9813
914	83.0896
916.892	55.22
919.785	161.09
922.678	69.9512
925.57	29.4365
928.463	22.8214
931.356	17.6788
934.248	51.5999
937.141	26.8418
940.034	87.8875
942.927	89.8763
945.819	210.872
948.712	116.082
951.605	147.688
954.497	157.377
957.39	115.322
960.283	84.1265
963.175	113.19
966.068	122.626
968.961	179.118
971.854	314.203
974.746	407.706
977.639	632.145
980.532	911.537
983.424	1359.69
986.317	1837.68
989.21	2125.2
992.102	2070.38
994.995	1750.11
997.888	1265.55
1000.78	771.145
1003.67	619.652
1006.57	423.253
1009.46	323.658
1012.35	187.568
1015.24	130.568
1018.14	121.234
1021.03	143.406
1023.92	36.8323
1026.82	11.9659
1029.71	52.0925
1032.6	82.7988
1035.49	5.72705
1038.39	31.6909
1041.28	73.2698
1044.17	73.6499
1047.06	15.2347
1049.96	86.8932
1052.85	83.3147
1055.74	102.024
1058.63	39.2828
1061.53	41.7357
1064.42	75.8931
1067.31	78.2942
1070.2	45.259
1073.1	47.9774
1075.99	82.3551
1078.88	15.5925
1081.78	28.0614
1084.67	28.7892
1087.56	13.4962
1090.45	15.8794
1093.35	57.2118
1096.24	57.004
1099.13	8.96069
1102.03	32.2925
1104.92	66.7356
1107.81	17.0784
1110.7	64.905
1113.6	78.2645
1116.49	45.2145
1119.38	84.7937
1122.27	57.2517
1125.17	115.241
1128.06	141.797
1130.95	62.0674
1133.85	46.6992
1136.74	54.6645
1139.63	55.2629
1142.52	44.9532
1145.41	69.6288
1148.31	36.9161
1151.2	82.0879
1154.09	42.377
1156.99	87.3516
1159.88	25.5041
1162.77	61.6318
1165.66	56.4252
1168.56	68.817
1171.45	90.3882
1174.34	6.09119
1177.23	64.382
1180.13	77.4667
1183.02	19.5298
1185.91	36.1858
1188.81	99.0924
1191.7	24.8658
1194.59	17.4525
1197.48	94.4714
1200.38	61.2258
1203.27	96.8776
1206.16	50.2078
1209.06	60.0144
1211.95	46.9383
1214.84	23.0085
1217.73	2.75635
1220.63	21.9355
1223.52	50.6543
1226.41	35.0315
1229.3	79.3171
1232.2	42.384
1235.09	0.634766
1237.98	48.0444
1240.88	84.5638
1243.77	47.1959
1246.66	29.3833
1249.55	59.6664
1252.44	50.4664
1255.34	4.02075
1258.23	16.5028
