Measurement: Raman, 532 nm, unoriented, Raman Data Processed
Mineral: Ferrisurite
Rruff sample: R060055
Ideal chemistry: Pb^2+^_2.4_Fe^3+^_2_Si_4_O_10_(CO_3_)_1.7_(OH)_3_nH_2_O
Locality: Shirley Ann Claim, Death Valley National Monument, Inyo County, California, USA
Source: Marcus Origlieri
Description: Radial aggregates of green acicular crystals
Raman shift (cm-1)	intensity
150.046	0
152.939	3.26599
155.832	3.43243
158.724	4.97467
161.617	10.1861
164.51	20.1199
167.403	21.7953
170.295	21.8052
173.188	16.9495
176.081	16.5584
178.973	14.8464
181.866	15.1743
184.759	14.8248
187.651	16.0163
190.544	17.952
193.437	19.6375
196.329	21.401
199.222	22.2617
202.115	22.5389
205.008	19.412
207.9	16.0547
210.793	9.87809
213.686	6.12575
216.578	2.79996
219.471	1.88605
222.364	0.673576
225.256	0.817322
228.149	0.920944
231.042	0.169724
233.935	1.57136
236.827	1.18724
239.72	3.04556
242.613	5.90994
245.505	7.51912
248.398	13.9159
251.291	16.8119
254.184	17.6433
257.076	14.7921
259.969	14.7518
262.862	12.911
265.754	13.8662
268.647	15.9644
271.54	16.9753
274.433	17.4418
277.325	18.5445
280.218	16.7816
283.111	15.1686
286.003	13.811
288.896	10.7044
291.789	10.0119
294.681	6.79366
297.574	5.57707
300.467	3.98831
303.36	1.46246
306.252	1.82011
309.145	0.077171
312.038	0.201584
314.93	0.535942
317.823	0.091415
320.716	0.816574
323.608	0.126343
326.501	1.21488
329.394	0.590263
332.287	0.526733
335.179	1.59982
338.072	1.38494
340.965	2.94766
343.857	1.55482
346.75	4.41286
349.643	4.95064
352.536	6.45944
355.428	6.30685
358.321	7.10648
361.214	5.61662
364.106	4.88264
366.999	6.08006
369.892	4.63229
372.784	4.23214
375.677	2.48418
378.57	3.4235
381.462	1.59597
384.355	1.93491
387.248	1.17342
390.141	0.763458
393.033	0.930145
395.926	0.334183
398.819	0.146606
401.712	0.168403
404.604	0.0218194
407.497	0.342585
410.39	0.33094
413.282	0.430916
416.175	0.782425
419.068	1.99749
421.96	2.27646
424.853	2.99246
427.746	5.6302
430.639	6.56921
433.531	7.34484
436.424	5.95633
439.317	4.61152
442.209	4.49932
445.102	5.11332
447.995	5.49516
450.887	5.01348
453.78	4.93579
456.673	5.33894
459.566	3.38065
462.458	2.93394
465.351	1.1997
468.244	0.047234
471.136	0.252228
474.029	0.193748
476.922	0.486565
479.815	0.418221
482.707	0.312302
485.6	0.308929
488.493	0.997108
491.385	2.72294
494.278	3.15388
497.171	4.42713
500.063	4.05844
502.956	4.92943
505.849	4.63621
508.741	5.53458
511.634	4.67368
514.527	4.49005
517.42	4.13568
520.312	4.9692
523.205	4.71078
526.098	4.26491
528.99	4.70924
531.883	3.54339
534.776	2.02426
537.669	1.18658
540.561	0.885262
543.454	2.35853
546.347	2.82293
549.239	3.05788
552.132	2.67862
555.025	4.29604
557.918	3.66974
560.81	5.04151
563.703	6.08613
566.596	6.61771
569.488	7.51675
572.381	9.05231
575.274	12.8054
578.166	13.0587
581.059	14.7044
583.952	18.6022
586.845	21.4315
589.737	23.6667
592.63	26.3529
595.523	29.409
598.415	27.0929
601.308	24.3597
604.201	20.6998
607.093	15.8316
609.986	10.9825
612.879	6.68845
615.771	4.47437
618.664	2.97572
621.557	0.929695
624.45	0.153831
627.342	0.726318
630.235	0.37455
633.128	0.612518
636.02	0.546448
638.913	0.096291
641.806	0.052246
644.699	0.2407
647.591	0.213196
650.484	0.348511
653.377	0.164925
656.269	0.672478
659.162	0.567642
662.055	0.643707
664.947	1.94569
667.84	2.70872
670.733	3.59366
673.626	4.50746
676.518	6.75788
679.411	9.74197
682.304	12.836
685.197	16.8353
688.089	20.5139
690.982	21.4399
693.875	17.0779
696.767	11.7573
699.66	7.01828
702.553	4.05305
705.445	2.3456
708.338	2.02524
711.231	1.59279
714.124	0.920067
717.016	0.299515
719.909	1.28214
722.802	0.175526
725.694	0.670769
728.587	0.245682
731.48	0.106449
734.372	0.644634
737.265	0.948055
740.158	0.737408
743.051	1.00967
745.943	0.655964
748.836	0.795235
751.729	1.23378
754.621	1.15129
757.514	1.55254
760.407	2.1413
763.299	1.84934
766.192	1.83427
769.085	2.90213
771.977	3.89358
774.87	3.71245
777.763	3.6315
780.656	2.37526
783.548	3.15336
786.441	3.45717
789.334	2.79542
792.226	3.63237
795.119	2.6849
798.012	2.23483
800.905	3.35562
803.797	2.57468
806.69	2.43128
809.583	1.94287
812.475	1.40491
815.368	1.70359
818.261	1.48974
821.154	1.15882
824.046	1.21479
826.939	0.36253
829.832	0.081108
832.724	0.86002
835.617	0.46629
838.51	0.064732
841.403	0.414627
844.295	0.704834
847.188	0.35746
850.081	0.409461
852.973	0.452839
855.866	1.10344
858.759	0.701527
861.651	0.717152
864.544	0.935013
867.437	0.362267
870.33	0.1054
873.222	0.324547
876.115	0.131004
879.008	1.16899
881.9	0.549934
884.793	0.447353
887.686	1.69964
890.578	3.22984
893.471	3.4076
896.364	3.53969
899.256	4.87093
902.149	5.13333
905.042	5.44449
907.935	5.50439
910.827	4.51803
913.72	3.49025
916.613	2.8609
919.505	3.29393
922.398	2.81124
925.291	1.78661
928.184	2.02162
931.076	2.44507
933.969	1.67524
936.862	2.09238
939.754	2.57624
942.647	2.16464
945.54	2.22477
948.433	1.90512
951.325	1.32217
954.218	1.02054
957.111	2.15004
960.003	1.36
962.896	0.907406
965.789	1.06722
968.682	0.655354
971.574	1.00033
974.467	0.627522
977.36	0.349487
980.252	1.65893
983.145	1.19332
986.038	1.37051
988.93	1.36459
991.823	0.378304
994.716	0.785416
997.609	1.2001
1000.5	1.68363
1003.39	1.13934
1006.29	0.918922
1009.18	0.394894
1012.07	0.718746
1014.97	0.345383
1017.86	0.534946
1020.75	0.335667
1023.64	0.158585
1026.54	0.55167
1029.43	0.88876
1032.32	0.491405
1035.21	0.718628
1038.11	0.362522
1041	0.544029
1043.89	0.176815
1046.78	0.556141
1049.68	0.885288
1052.57	1.90617
1055.46	2.28293
1058.36	3.06203
1061.25	4.52167
1064.14	8.80895
1067.03	13.2885
1069.93	19.784
1072.82	26.9035
1075.71	34.9209
1078.6	37.3041
1081.5	26.2915
1084.39	14.5026
1087.28	6.49779
1090.17	4.10579
1093.07	3.02255
1095.96	2.89265
1098.85	3.14549
1101.75	2.73291
1104.64	2.24382
1107.53	2.00228
1110.42	1.88563
1113.32	1.69659
1116.21	1.36348
1119.1	1.40491
1121.99	1.25484
1124.89	0.905907
1127.78	1.49225
1130.67	1.34552
1133.57	1.33965
1136.46	1.1183
1139.35	0.033421
1142.24	0.922421
1145.14	0.347511
1148.03	0.43618
1150.92	0.198097
1153.81	0.646435
1156.71	0.569328
1159.6	0.058395
1162.49	0.413982
1165.38	0.865318
1168.28	0.063244
1171.17	0.789722
1174.06	0.679993
1176.96	0.727077
1179.85	0.877244
1182.74	0.514896
1185.63	0.273315
1188.53	0.815025
1191.42	0.75169
1194.31	1.0089
1197.2	1.00092
1200.1	1.34385
1202.99	2.00632
1205.88	1.68355
1208.78	1.82609
1211.67	2.01346
1214.56	1.41106
1217.45	1.24483
1220.35	1.54609
1223.24	1.58886
1226.13	0.803446
1229.03	0.511662
1231.92	0.532768
1234.81	0.702335
1237.7	0.506451
1240.6	0.690937
1243.49	0.378548
1246.38	0.656887
1249.27	-0.047751
1252.17	0.366938
1255.06	0.156151
1257.95	0.66563
1260.84	0.837944
1263.74	1.56799
1266.63	1.24411
1269.52	1.68331
1272.41	1.62685
1275.31	1.52311
1278.2	1.2449
1281.09	1.32283
1283.99	1.73278
1286.88	0.992043
1289.77	1.21013
1292.66	0.578941
1295.56	0.550323
1298.45	0.56638
1301.34	0.063454
