Measurement: Raman, 532 nm, unoriented, Raman Data Processed
Mineral: Ferro-gedrite
Rruff sample: R070531
Ideal chemistry: [box]Fe^2+^_2_(Fe^2+^_3_Al_2_)(Si_6_Al_2_)O_22_(OH)_2_
Locality: Ludvika, Dalarna District, Kopparberg, Sweden
Source: James Shigley
Description: Flattened black prismatic crystals in semi-sheaflike aggregates, associated with quartz
Measured chemistry: (Na_0.56_[box]_0.44_)_Σ=1_(Fe^2+^_1.94_Mn_0.05_Ca_0.01_)_Σ=2_(Fe^2+^_1.92_Mg_1.53_Al_1.52_Fe^3+^_0.02_Ti_0.01_)_Σ=5_(Si_5.88_Al_2.12_)_Σ=8_O_22_(OH)_2_; = light phase, and the dark phase is quartz
Raman shift (cm-1)	intensity
146.78	0
149.673	40.3357
152.566	25.7261
155.459	67.4369
158.351	74.9712
161.244	45.7816
164.137	20.0307
167.029	16.9377
169.922	49.6024
172.815	13.3577
175.708	57.608
178.6	57.4524
181.493	35.5711
184.386	37.4026
187.278	23.5474
190.171	44.2952
193.064	45.7706
195.957	63.678
198.849	56.25
201.742	120.501
204.635	120.746
207.527	136.407
210.42	156.504
213.313	162.209
216.205	153.129
219.098	137.825
221.991	104.533
224.883	82.7717
227.776	52.2933
230.669	28.1809
233.562	26.1724
236.454	11.8568
239.347	7.98273
242.24	2.79419
245.132	18.0394
248.025	17.0617
250.918	18.0715
253.81	4.61298
256.703	1.11438
259.596	37.5751
262.489	14.4151
265.381	23.0029
268.274	47.4166
271.167	31.9241
274.059	26.7905
276.952	33.3779
279.845	10.5187
282.738	28.3741
285.63	21.9615
288.523	51.548
291.416	18.4969
294.308	26.1352
297.201	7.01697
300.094	8.33008
302.986	13.1377
305.879	6.17682
308.772	5.77942
311.664	11.8876
314.557	8.13287
317.45	8.48944
320.343	6.23206
323.235	33.2189
326.128	47.9349
329.021	1.06513
331.913	51.5159
334.806	45.3777
337.699	64.5718
340.591	44.3619
343.484	11.5201
346.377	18.0245
349.27	12.3025
352.162	24.2978
355.055	9.28961
357.948	16.5712
360.84	11.4188
363.733	22.2614
366.626	11.3345
369.519	40.4412
372.411	53.5918
375.304	82.4368
378.197	115.605
381.089	91.1964
383.982	84.2988
386.875	108.885
389.767	125.224
392.66	105.033
395.553	111.437
398.446	120.231
401.338	109.597
404.231	112.102
407.124	128.55
410.016	131.689
412.909	121.113
415.802	140.525
418.695	110.126
421.587	101.228
424.48	84.7424
427.373	86.8264
430.265	61.1632
433.158	36.2026
436.051	44.5296
438.943	44.9927
441.836	40.488
444.729	8.85315
447.622	33.3187
450.514	46.3762
453.407	13.9531
456.3	39.4628
459.192	16.0934
462.085	23.5461
464.978	6.42474
467.87	6.22797
470.763	31.0964
473.656	3.61652
476.548	7.04272
479.441	6.97272
482.334	24.9528
485.227	0.524963
488.119	7.66596
491.012	8.58374
493.905	24.8264
496.797	31.487
499.69	55.6185
502.583	47.7418
505.476	56.7808
508.368	53.9161
511.261	69.1982
514.154	83.2682
517.046	97.7942
519.939	101.404
522.832	97.8983
525.724	127.779
528.617	121.877
531.51	132.519
534.403	130.043
537.295	133.845
540.188	139.056
543.081	118.707
545.973	120.389
548.866	125.858
551.759	115.433
554.651	112.256
557.544	94.587
560.437	78.2075
563.33	82.1708
566.222	70.0607
569.115	74.3499
572.008	68.4266
574.9	77.1373
577.793	40.078
580.686	38.4263
583.578	42.9652
586.471	13.0983
589.364	18.0162
592.256	12.5435
595.149	6.09106
598.042	3.43091
600.935	10.1676
603.827	9.62933
606.72	20.7433
609.613	21.7111
612.505	15.3526
615.398	26.2027
618.291	67.0054
621.183	52.0947
624.076	91.2392
626.969	95.9607
629.862	142.193
632.754	169.341
635.647	152.126
638.54	159.689
641.432	176.834
644.325	164.21
647.218	185.804
650.111	168.54
653.003	163.559
655.896	181.995
658.789	167.317
661.681	172.222
664.574	137.955
667.467	110.343
670.36	119.344
673.252	79.8758
676.145	66.3422
679.038	43.0688
681.93	52.7449
684.823	38.5477
687.716	42.8149
690.608	41.2353
693.501	28.4395
696.394	12.8231
699.287	15.5087
702.179	32.231
705.072	43.718
707.965	16.0778
710.857	27.7377
713.75	26.7751
716.643	19.1783
719.535	8.42273
722.428	0.824646
725.321	31.0048
728.213	15.161
731.106	5.32788
733.999	14.1302
736.892	25.5885
739.784	10.1183
742.677	7.18921
745.57	6.23773
748.462	31.5627
751.355	25.8548
754.248	35.5641
757.14	23.3239
760.033	52.9618
762.926	45.6992
765.819	43.6902
768.711	48.0299
771.604	50.5842
774.497	41.0607
777.389	36.1111
780.282	63.4216
783.175	64.1863
786.067	52.503
788.96	55.0747
791.853	38.7161
794.746	40.5387
797.638	12.8852
800.531	21.6299
803.424	49.7488
806.316	26.1904
809.209	27.481
812.102	6.73486
814.995	2.1839
817.887	0.573608
820.78	8.3219
823.673	9.72913
826.565	1.78461
829.458	12.5868
832.351	23.1974
835.244	7.95984
838.136	17.7847
841.029	26.1215
843.922	30.313
846.814	35.8511
849.707	24.527
852.6	19.5207
855.492	24.2747
858.385	4.23614
861.278	22.2284
864.17	36.7603
867.063	34.6697
869.956	19.4995
872.849	5.39856
875.741	17.2919
878.634	9.46088
881.527	47.6184
884.419	2.58331
887.312	9.06281
890.205	2.09235
893.097	26.747
895.99	36.3752
898.883	9.14539
901.776	25.7701
904.668	19.6716
907.561	7.44721
910.454	12.2551
913.346	19.6608
916.239	6.57867
919.132	51.9014
922.024	17.8587
924.917	8.20697
927.81	15.8743
930.703	26.2044
933.595	28.2545
936.488	0.119934
939.381	15.2865
942.273	12.9103
945.166	26.7749
948.059	19.0102
950.952	3.49768
953.844	20.0916
956.737	13.5059
959.63	34.7675
962.522	46.1313
965.415	20.4689
968.308	49.6386
971.2	55.2539
974.093	24.8328
976.986	55.4946
979.879	56.2665
982.771	52.0053
985.664	43.5784
988.557	52.8616
991.449	67.6641
994.342	78.3564
997.235	83.7692
1000.13	73.3186
1003.02	44.7119
1005.91	61.2793
1008.81	68.6277
1011.7	58.09
1014.59	60.5211
1017.48	55.2903
1020.38	50.1881
1023.27	35.935
1026.16	5.58673
1029.05	37.0832
1031.95	32.0548
1034.84	9.49042
1037.73	4.09869
1040.62	5.78229
1043.52	29.3069
1046.41	1.61066
1049.3	6.01544
1052.2	10.9949
1055.09	26.191
1057.98	28.522
1060.87	10.4052
1063.77	1.93964
1066.66	28.7463
1069.55	30.1285
1072.44	23.5386
1075.34	20.2687
1078.23	25.4365
1081.12	23.5941
1084.02	10.0228
1086.91	45.1046
1089.8	22.1621
1092.69	33.242
1095.59	12.4728
1098.48	31.9778
1101.37	5.599
1104.27	3.97455
1107.16	32.9649
1110.05	15.6737
1112.94	5.88684
1115.84	30.7125
1118.73	12.1817
1121.62	19.7022
1124.51	0.18042
1127.41	21.3864
1130.3	21.2592
1133.19	27.6137
1136.08	26.3418
1138.98	38.1149
1141.87	42.5327
1144.76	13.8859
1147.65	5.47235
1150.55	19.9612
1153.44	1.91052
1156.33	6.21631
1159.23	15.2552
1162.12	0.135071
1165.01	23.1588
1167.9	16.028
1170.8	20.3874
1173.69	26.8534
1176.58	20.1989
1179.47	16.0626
1182.37	19.4611
1185.26	8.71094
1188.15	2.63794
1191.05	4.85065
1193.94	13.7222
1196.83	5.3764
1199.72	5.98322
1202.62	2.69989
1205.51	13.3283
1208.4	25.6744
1211.3	16.303
1214.19	6.66937
1217.08	20.414
1219.97	10.5221
1222.87	3.58221
1225.76	14.0781
1228.65	24.4903
1231.54	3.24133
1234.44	23.9316
1237.33	14.301
1240.22	18.2903
1243.11	1.17956
1246.01	8.56574
1248.9	17.9444
1251.79	33.0261
1254.68	1.89557
1257.58	31.5652
1260.47	11.203
1263.36	24.7798
1266.26	13.647
1269.15	28.125
1272.04	29.984
1274.93	5.86102
1277.83	34.5293
1280.72	13.109
1283.61	18.9831
1286.51	27.4922
1289.4	15.3956
1292.29	4.18805
1295.18	17.6165
1298.08	8.66876
1300.97	2.73132
