Measurement: Raman, 532 nm, unoriented, Raman Data Processed
Mineral: Fersmite
Rruff sample: R060717
Ideal chemistry: (Ca,Ce^3+^,Na)(Nb^5+^,Ta^5+^,Ti^4+^)_2_(O,OH,F)_6_
Locality: Lueshe carbonatite, Kivu Province, Democratic Republic of the Congo
Source: Michael Scott
Description: Dark brown coating on octahedral columbite crystals
Raman shift (cm-1)	intensity
144.664	0
147.557	167.241
150.45	157.554
153.342	36.6914
156.235	10.9463
159.128	78.9912
162.02	250.991
164.913	217.7
167.806	131.867
170.699	133.155
173.591	6.34473
176.484	103.538
179.377	127.849
182.269	152.057
185.162	200.127
188.055	163.289
190.947	228.872
193.84	202.945
196.733	189.201
199.626	183.495
202.518	292.182
205.411	368.205
208.304	359.168
211.196	319.053
214.089	306.152
216.982	157.493
219.874	154.747
222.767	103.9
225.66	68.2285
228.553	30.7412
231.445	60.915
234.338	92.8711
237.231	58.7041
240.123	77.8252
243.016	207.273
245.909	251.256
248.801	317.157
251.694	274.318
254.587	273.256
257.48	287.647
260.372	321.333
263.265	397.371
266.158	425.535
269.05	407.64
271.943	389.851
274.836	353.228
277.728	322.697
280.621	283.68
283.514	316.139
286.406	330.889
289.299	311.89
292.192	330.706
295.085	200.773
297.977	166.671
300.87	196.943
303.763	146.629
306.655	177.369
309.548	127.41
312.441	95.7647
315.333	45.2275
318.226	8.83691
321.119	9.3125
324.012	24.2549
326.904	121.942
329.797	39.665
332.69	57.5605
335.582	70.8682
338.475	4.96777
341.368	38.834
344.26	18.0527
347.153	70.7842
350.046	99.8203
352.939	31.2041
355.831	17.749
358.724	18.6338
361.617	20.9346
364.509	20.1006
367.402	18.8662
370.295	15.0771
373.188	6.97559
376.08	91.7197
378.973	117.898
381.866	176.204
384.758	233.669
387.651	301.335
390.544	335.049
393.436	315.541
396.329	305.24
399.222	303.177
402.114	338.048
405.007	352.86
407.9	370.179
410.793	282.133
413.685	262.343
416.578	309.506
419.471	253.448
422.363	252.374
425.256	230.39
428.149	184.507
431.041	165.059
433.934	97.1992
436.827	230.759
439.72	111.241
442.612	223.673
445.505	199.849
448.398	252.27
451.29	331.839
454.183	510.97
457.076	632.909
459.968	634.236
462.861	709.81
465.754	679.348
468.647	649.143
471.539	551.079
474.432	437.537
477.325	332.37
480.217	390.669
483.11	298.417
486.003	423.173
488.895	275.794
491.788	209.496
494.681	258.299
497.573	210.356
500.466	225.703
503.359	212.509
506.252	226.317
509.144	171.48
512.037	120.356
514.93	239.375
517.822	312.649
520.715	296.647
523.608	374.515
526.5	399.382
529.393	407.09
532.286	297.127
535.179	251.598
538.071	58.583
540.964	92.4932
543.857	125.095
546.749	104.27
549.642	110.351
552.535	16.5684
555.427	22.1816
558.32	107.426
561.213	3.10449
564.106	21.4033
566.998	49.1504
569.891	40.0654
572.784	16.0107
575.676	33.1963
578.569	25.7871
581.462	3.14551
584.354	64.6934
587.247	46.959
590.14	39.0781
593.032	82.4023
595.925	114.138
598.818	168.006
601.711	145.531
604.603	289.924
607.496	308.22
610.389	370.17
613.281	442.579
616.174	425.083
619.067	447.825
621.959	395.096
624.852	433.654
627.745	385.922
630.638	319.898
633.53	223.27
636.423	149.694
639.316	170.238
642.208	143.415
645.101	7.96289
647.994	103.418
650.886	182.115
653.779	137.585
656.672	178.353
659.565	197.596
662.457	49.9844
665.35	76.1807
668.243	92.0137
671.135	172.689
674.028	116.525
676.921	111.177
679.813	57.1182
682.706	140.143
685.599	189.431
688.492	137.482
691.384	215.565
694.277	154.871
697.17	175.031
700.062	31.3574
702.955	1.94922
705.848	46.0059
708.74	15.5684
711.633	45.4766
714.526	25.5098
717.419	61.8867
720.311	97.293
723.204	161.793
726.097	182.852
728.989	123.553
731.882	217.871
734.775	178.369
737.667	173.838
740.56	226.65
743.453	312.766
746.346	272.715
749.238	186.588
752.131	133.832
755.024	107.019
757.916	173.184
760.809	22.1504
763.702	23.1309
766.594	11.9414
769.487	60.2051
772.38	88.543
775.273	12.9941
778.165	51.0742
781.058	19.1445
783.951	73.2129
786.843	150.092
789.736	250.565
792.629	343.459
795.521	351.656
798.414	382.205
801.307	426.865
804.2	442.17
807.092	400.074
809.985	453.812
812.878	458.807
815.77	389.281
818.663	471.191
821.556	381.81
824.448	498.184
827.341	538.479
830.234	573.445
833.127	587.693
836.019	586.492
838.912	642.137
841.805	746.365
844.697	790.168
847.59	938.014
850.483	1037.54
853.375	1189.57
856.268	1441.81
859.161	1739.13
862.054	2028.28
864.946	2251.23
867.839	2473.99
870.732	2536.18
873.624	2473.56
876.517	2479.25
879.41	2353.3
882.302	2157.65
885.195	1934.96
888.088	1698.34
890.98	1371.81
893.873	1211.51
896.766	905.004
899.659	586.613
902.551	436.584
905.444	205.615
908.337	242.059
911.229	69
914.122	28.2148
917.015	17.5684
919.907	26.4375
922.8	19.0938
925.693	58.4277
928.586	86.9394
931.478	111.562
934.371	16.4863
937.264	0.533203
940.156	63.3047
943.049	77.2695
945.942	60.5176
948.834	21.6484
951.727	94.7539
954.62	10.1035
957.513	30.6973
960.405	98.3047
963.298	57.6934
966.191	113.834
969.083	95.2383
971.976	33.4219
974.869	64.5059
977.761	44.3672
980.654	217.695
983.547	236.836
986.44	243.264
989.332	276.465
992.225	290.623
995.118	481.592
998.01	573.367
1000.9	555.418
1003.8	401.873
1006.69	293.978
1009.58	197.34
1012.47	156.203
1015.37	152.5
1018.26	104.193
1021.15	90.6328
1024.05	86.0195
1026.94	100.262
1029.83	97.5957
1032.72	200.603
1035.62	144.844
1038.51	166.916
1041.4	135.836
1044.29	27.2383
1047.19	43.5469
1050.08	136.572
1052.97	66.75
1055.86	182.025
1058.76	237.789
1061.65	107.461
1064.54	45.668
1067.43	60.4961
1070.33	152.769
1073.22	168.478
1076.11	81.9609
1079.01	140.059
1081.9	33.2598
1084.79	54.5391
1087.68	56.3555
1090.58	217.549
1093.47	150.871
1096.36	182.119
1099.26	313.072
1102.15	167.33
1105.04	201.531
1107.93	209.119
1110.83	72.0898
1113.72	85.8203
1116.61	92.5488
1119.5	103.787
1122.4	67.0098
1125.29	128.926
1128.18	300.469
1131.07	255.99
1133.97	141.072
1136.86	145.492
1139.75	72.0742
1142.64	137.197
1145.54	37.7129
1148.43	82.5137
1151.32	97.5977
1154.22	213.514
1157.11	154.984
1160	157.103
1162.89	60.6699
1165.79	8.8418
1168.68	105.828
1171.57	94.1934
1174.46	52.7754
1177.36	215.352
1180.25	376.818
1183.14	253.935
1186.04	104.566
1188.93	152.697
1191.82	31.2363
1194.71	99.9297
1197.61	163.721
1200.5	17.918
1203.39	62.8906
1206.29	131.797
1209.18	118.103
1212.07	128.719
1214.96	43.75
1217.86	76.9824
1220.75	84.834
1223.64	20.9824
1226.53	55.1777
1229.43	95.1172
1232.32	94.793
1235.21	221.553
1238.1	164.566
1241	123.713
1243.89	248.254
1246.78	116.24
1249.67	210.402
1252.57	90.7559
1255.46	116.793
1258.35	157.9
1261.25	122.695
1264.14	10.6641
1267.03	66.8652
1269.92	144.471
1272.82	273.789
1275.71	238.762
1278.6	88.3672
1281.49	79.4356
1284.39	60.1484
1287.28	91.5566
