Measurement: Raman, 532 nm, unoriented, Raman Data Processed
Mineral: Fetiasite
Rruff sample: R100014
Ideal chemistry: (Fe^2+^,Fe^3+^,Ti^4+^)_3_O_2_As^3+^_2_O_5_
Locality: Gorb, Binnental, Valais, Switzerland
Source: William Pinch
Description: Brown to reddish-brown platy massive
Raman shift (cm-1)	intensity
167.706	0
170.599	0.700058
173.492	2.25221
176.385	2.26715
179.277	2.41418
182.17	3.24999
185.063	4.85207
187.955	2.69874
190.848	4.84136
193.741	1.50441
196.633	2.89798
199.526	2.22988
202.419	1.38096
205.311	0.227699
208.204	2.58591
211.097	1.18601
213.99	1.5939
216.882	0.140297
219.775	1.15646
222.668	1.76453
225.56	0.996735
228.453	0.302071
231.346	1.9806
234.238	1.5406
237.131	6.67168
240.024	2.77653
242.917	1.15194
245.809	2.23156
248.702	1.51997
251.595	0.782852
254.487	4.7536
257.38	1.17761
260.273	0.603104
263.166	2.05879
266.058	0.80983
268.951	2.18948
271.844	0.010574
274.736	0.81691
277.629	1.34621
280.522	3.25293
283.414	2.02077
286.307	1.60644
289.2	2.01895
292.092	0.854065
294.985	0.168716
297.878	0.687881
300.771	0.115463
303.663	0.029709
306.556	1.81667
309.449	2.26572
312.341	1.58627
315.234	3.15784
318.127	4.29027
321.019	1.41275
323.912	0.871872
326.805	1.83095
329.698	1.63512
332.59	0.370163
335.483	3.07159
338.376	0.934845
341.268	0.323233
344.161	0.454178
347.054	0.075668
349.947	2.89314
352.839	0.965958
355.732	0.779556
358.625	1.0576
361.517	3.11162
364.41	2.7161
367.303	3.38022
370.195	3.31399
373.088	1.69749
375.981	6.17529
378.873	4.87335
381.766	5.04141
384.659	4.99986
387.552	7.9142
390.444	7.27545
393.337	11.183
396.23	9.61363
399.122	7.79047
402.015	8.93027
404.908	9.36554
407.8	10.6809
410.693	12.7321
413.586	12.0818
416.479	11.6238
419.371	14.5389
422.264	12.2545
425.157	11.8362
428.049	11.127
430.942	9.59445
433.835	13.4312
436.728	10.4782
439.62	9.18903
442.513	9.09162
445.406	7.46162
448.298	6.81732
451.191	5.73926
454.084	4.38387
456.976	3.54461
459.869	4.62099
462.762	3.04426
465.654	3.39451
468.547	4.19629
471.44	3.29856
474.333	1.46575
477.225	1.68299
480.118	1.83966
483.011	0.186768
485.903	2.50883
488.796	0.222488
491.689	3.78696
494.582	2.01502
497.474	0.43457
500.367	2.62865
503.26	2.52381
506.152	1.23891
509.045	2.58671
511.938	2.33993
514.83	2.11008
517.723	2.30837
520.616	4.12812
523.509	4.09179
526.401	3.49708
529.294	4.25345
532.187	6.65451
535.079	6.85747
537.972	7.74626
540.865	8.04721
543.757	6.77573
546.65	5.24007
549.543	7.68948
552.436	6.66597
555.328	6.25652
558.221	4.05983
561.114	3.981
564.006	3.51174
566.899	2.65553
569.792	1.488
572.684	1.50433
575.577	2.09251
578.47	2.66331
581.362	0.906815
584.255	0.49157
587.148	1.31159
590.041	1.2963
592.933	0.414345
595.826	0.047951
598.719	0.325508
601.611	0.449638
604.504	0.042999
607.397	0.170174
610.289	1.50917
613.182	0.207306
616.075	0.105652
618.968	1.56896
621.86	2.83629
624.753	2.83421
627.646	1.05731
630.538	2.40019
633.431	2.90413
636.324	3.30515
639.216	4.60447
642.109	4.12744
645.002	4.19896
647.895	3.89442
650.787	4.00646
653.68	8.12837
656.573	6.24006
659.465	8.10651
662.358	7.78684
665.251	9.77816
668.144	7.89523
671.036	9.18674
673.929	8.3662
676.822	10.7265
679.714	10.8653
682.607	9.15666
685.5	11.2534
688.392	10.744
691.285	11.4812
694.178	10.3116
697.071	9.49863
699.963	10.548
702.856	8.75748
705.749	9.75256
708.641	9.06039
711.534	10.1538
714.427	9.67598
717.319	8.46192
720.212	6.86263
723.105	7.06905
725.997	7.63629
728.89	7.58944
731.783	7.81789
734.676	5.3253
737.568	2.93922
740.461	5.27321
743.354	3.45957
746.246	1.71236
749.139	3.39722
752.032	1.22021
754.924	0.651657
757.817	1.79095
760.71	1.50768
763.603	1.27116
766.495	0.360435
769.388	1.42364
772.281	0.346756
775.173	0.040604
778.066	1.50049
780.959	0.747536
783.851	1.33952
786.744	0.978821
789.637	0.791481
792.53	2.33685
795.422	0.924438
798.315	1.05595
801.208	1.25954
804.1	2.39394
806.993	0.28083
809.886	0.98555
812.779	0.282608
815.671	1.50839
818.564	0.823738
821.457	0.645248
824.349	0.335121
827.242	0.759094
830.135	1.9957
833.027	0.123772
835.92	0.08287
838.813	0.61245
841.706	2.51183
844.598	1.33434
847.491	0.311836
850.384	2.43457
853.276	2.51868
856.169	0.904114
859.062	2.18713
861.954	1.98573
864.847	1.29464
867.74	2.62604
870.633	3.2575
873.525	4.40827
876.418	3.03439
879.311	1.69785
882.203	2.69656
885.096	0.910149
887.989	2.06974
890.881	1.23866
893.774	5.1126
896.667	2.38766
899.559	1.57004
902.452	0.518776
905.345	1.89352
908.238	2.36474
911.13	1.02758
914.023	0.28347
916.916	1.06805
919.808	1.48236
922.701	1.6806
925.594	1.43557
928.486	1.25636
931.379	2.71315
934.272	0.521286
937.165	2.60069
940.057	0.775787
942.95	0.401802
945.843	2.21136
948.735	1.3791
951.628	1.53999
954.521	1.10898
957.413	2.51615
960.306	0.391851
963.199	2.76706
966.092	1.71301
968.984	0.927284
971.877	2.20223
974.77	0.272766
977.662	1.58584
980.555	0.736
983.448	2.04208
986.341	1.81773
989.233	2.11906
992.126	1.83899
995.019	2.29278
997.911	2.72315
1000.8	3.07086
1003.7	2.26697
1006.59	1.69568
1009.48	1.62494
1012.38	1.47102
1015.27	1.64905
1018.16	1.00961
1021.05	2.79854
1023.95	1.1897
1026.84	0.839966
1029.73	1.41394
1032.62	2.68086
1035.52	1.5786
1038.41	1.41448
1041.3	3.16677
1044.19	0.588882
1047.09	3.6029
1049.98	1.86581
1052.87	1.99816
1055.77	1.87086
1058.66	2.88344
1061.55	1.54101
1064.44	0.251434
1067.34	0.727325
1070.23	1.58226
1073.12	1.68047
1076.01	1.69749
1078.91	2.18235
1081.8	2.95796
1084.69	2.06854
1087.59	0.54187
1090.48	0.002182
1093.37	1.16895
1096.26	2.70586
1099.16	2.17554
1102.05	1.28437
1104.94	0.490395
1107.83	0.001884
1110.73	1.88586
1113.62	1.42848
1116.51	0.047569
1119.4	1.66432
1122.3	1.70019
1125.19	2.83865
1128.08	1.08496
1130.97	1.28294
1133.87	1.09716
1136.76	2.16364
1139.65	1.67303
1142.55	0.092758
1145.44	1.66897
1148.33	1.23835
1151.22	2.63651
1154.12	2.74136
1157.01	1.28989
1159.9	0.732704
1162.8	2.24852
1165.69	0.120102
1168.58	2.47262
1171.47	1.36916
1174.37	0.967094
1177.26	1.24123
1180.15	2.41156
1183.04	3.12009
1185.94	2.20841
1188.83	0.797073
1191.72	1.1862
1194.62	3.02219
1197.51	2.61044
1200.4	1.7294
1203.29	0.249794
1206.19	1.88624
1209.08	1.34444
1211.97	2.10004
1214.86	0.30822
1217.76	1.91951
1220.65	0.590706
1223.54	0.476654
1226.43	1.8097
1229.33	1.38783
1232.22	1.64186
1235.11	1.1928
1238.01	1.85007
1240.9	0.629494
1243.79	2.76062
1246.68	1.88664
1249.58	0.575508
1252.47	0.749779
1255.36	0.102631
1258.25	2.34163
1261.15	2.09612
1264.04	0.996429
1266.93	0.942276
1269.83	2.35564
1272.72	2.50921
1275.61	0.642372
1278.5	2.06667
1281.4	1.73644
1284.29	1.24852
1287.18	1.85703
1290.07	1.02602
1292.97	1.43753
1295.86	1.62974
1298.75	1.32646
1301.64	0.001945
