Measurement: Raman, 532 nm, unoriented, Raman Data Processed
Mineral: Fettelite
Rruff sample: R100124
Ideal chemistry: Ag_16_HgAs_4_S_15_
Locality: Nieder-Berbach, Odenwald, Germany
Source: William W. Pinch
Description: Dark reddish thin platy crystals associated with proustite and xanthoconite.
Measured chemistry: Ag_17.81_Fe_0.97_Hg_0.55_Cu_0.01_Sb_0.05_As_3.34_S_15_
Raman shift (cm-1)	intensity
140.211	0
143.586	1.00364
146.961	4.48376
150.336	2.32163
153.71	8.36043
157.085	8.2193
160.46	11.4386
163.835	14.9229
167.21	15.4296
170.584	24.7911
173.959	24.8944
177.334	21.3676
180.709	18.4729
184.084	16.5141
187.459	17.7956
190.833	14.5368
194.208	13.8814
197.583	17.1902
200.958	16.3824
204.333	19.3845
207.708	18.77
211.082	23.7473
214.457	25.4891
217.832	25.0233
221.207	25.1736
224.582	25.9169
227.956	24.5999
231.331	22.0955
234.706	19.3678
238.081	21.1607
241.456	17.6799
244.831	18.6231
248.205	19.161
251.58	19.6571
254.955	24.565
258.33	27.6464
261.705	33.4479
265.079	37.5464
268.454	34.7087
271.829	30.4126
275.204	29.7377
278.579	24.2378
281.954	23.8801
285.328	20.1907
288.703	21.2546
292.078	16.1785
295.453	10.4651
298.828	4.20187
302.202	2.25969
305.577	1.77513
308.952	1.75053
312.327	2.91669
315.702	1.80904
319.077	1.36861
322.451	1.97825
325.826	2.8173
329.201	4.7138
332.576	3.72281
335.951	6.97968
339.325	10.1878
342.7	12.5413
346.075	13.1824
349.45	7.9513
352.825	2.65155
356.2	1.67271
359.574	0.932869
362.949	2.16757
366.324	1.419
369.699	0.242981
373.074	1.36467
376.449	1.57544
379.823	0.231003
383.198	1.71094
386.573	2.71241
389.948	1.39103
393.323	0.815739
396.697	2.88306
400.072	1.41502
403.447	2.7846
406.822	3.51984
410.197	2.69139
413.572	2.60572
416.946	1.87663
420.321	3.6633
423.696	2.97044
427.071	2.51663
430.446	2.01029
433.82	1.23998
437.195	0.357912
440.57	1.9982
443.945	2.53211
447.32	2.58456
450.695	0.38578
454.069	1.98153
457.444	0.55257
460.819	3.51046
464.194	0.169662
467.569	2.3
470.943	2.24574
474.318	2.86438
477.693	1.93194
481.068	0.384542
484.443	0.187546
487.818	0.995073
491.192	1.03026
494.567	1.38212
497.942	1.66599
501.317	1.56535
504.692	0.56628
508.067	1.34947
511.441	1.03256
514.816	1.79065
518.191	1.09772
521.566	3.58824
524.941	2.5462
528.316	1.96921
531.69	0.984482
535.065	2.59302
538.44	2.27537
541.815	1.81312
545.19	0.424782
548.564	2.96461
551.939	0.907652
555.314	0.188017
558.689	0.009575
562.064	1.42055
565.438	0.71711
568.813	2.38034
572.188	1.58253
575.563	2.07176
578.938	1.40423
582.313	0.644903
585.687	1.85931
589.062	1.16706
592.437	0.400629
595.812	0.044621
599.187	1.19113
602.562	1.15323
605.936	1.3853
609.311	0.156929
612.686	1.15844
616.061	0.357344
619.436	2.667
622.81	3.70203
626.185	1.59381
629.56	1.37245
632.935	2.41187
636.31	0.916563
639.684	0.52899
643.059	1.63679
646.434	1.3793
649.809	1.86266
653.184	2.23838
656.559	2.45677
659.933	1.53643
663.308	2.50091
666.683	2.65732
670.058	1.70533
673.433	0.878115
676.808	1.16188
680.182	3.25988
683.557	1.26639
686.932	1.42666
690.307	0.46434
693.682	0.873629
697.057	1.22587
700.431	1.47008
703.806	1.3446
707.181	1.41966
710.556	0.825178
713.931	0.869877
717.305	1.48488
720.68	0.888842
724.055	1.52332
727.43	0.38566
730.805	1.29772
734.179	1.64742
737.554	2.17141
740.929	2.81034
744.304	0.777765
747.679	1.35512
751.054	1.03384
754.428	1.73584
757.803	0.722298
761.178	0.61212
764.553	0.579285
767.928	1.07709
771.303	0.261429
774.677	2.17886
778.052	1.73245
781.427	2.29997
784.802	1.86125
788.177	1.91693
791.552	1.15607
794.926	1.46574
798.301	0.953558
801.676	1.23498
805.051	0.682295
808.426	0.364519
811.8	2.31268
815.175	2.37188
818.55	0.892441
821.925	1.43431
825.3	1.73884
828.674	2.83108
832.049	1.34512
835.424	2.43968
838.799	1.29422
842.174	2.10202
845.549	1.79327
848.923	0.330639
852.298	0.731693
855.673	2.54693
859.048	0.696959
862.423	1.03
865.798	1.08909
869.172	3.06926
872.547	1.12792
875.922	2.15267
879.297	2.06144
882.672	1.82131
886.046	1.95344
889.421	2.13495
892.796	2.29433
896.171	0.481943
899.546	2.67306
902.92	0.434298
906.295	0.260607
909.67	1.0848
913.045	0.524195
916.42	2.29476
919.795	3.3524
923.169	1.58125
926.544	2.8828
929.919	1.12788
933.294	1.16884
936.669	1.48428
940.044	3.13592
943.418	0.786041
946.793	0.7847
950.168	1.47381
953.543	2.22316
956.918	2.78695
960.293	2.67626
963.667	1.08426
967.042	2.64426
970.417	1.06161
973.792	0.339245
977.167	2.49697
980.541	1.38713
983.916	0.935328
987.291	1.50521
990.666	2.45705
994.041	2.22974
997.415	3.43174
1000.79	2.30226
1004.16	0.567816
1007.54	1.08608
1010.91	2.58154
1014.29	0.205156
1017.66	1.33947
1021.04	3.53206
1024.41	2.02804
1027.79	1.85806
1031.16	1.11611
1034.54	2.38672
1037.91	3.293
1041.29	2.15308
1044.66	0.445313
1048.04	2.36525
1051.41	0.613222
1054.79	2.23028
1058.16	2.00026
1061.54	0.364305
1064.91	2.29276
1068.29	2.42827
1071.66	1.3985
1075.04	2.38623
1078.41	2.31357
1081.79	0.470665
1085.16	2.13421
1088.54	0.010281
1091.91	0.217539
1095.29	0.079351
1098.66	1.58588
1102.04	1.27866
1105.41	1.58192
1108.79	2.38196
1112.16	0.62756
1115.53	0.970564
1118.91	2.043
1122.28	0.495718
1125.66	1.3618
1129.03	0.526802
1132.41	2.24412
1135.78	1.5128
1139.16	1.35141
1142.53	1.55498
1145.91	0.903009
1149.28	0.252142
1152.66	1.27359
1156.03	0.220072
1159.41	0.745193
1162.78	1.78174
1166.16	0.67399
1169.53	0.744053
1172.91	0.848812
1176.28	2.3531
1179.66	3.91178
1183.03	1.04291
1186.4	2.44815
1189.78	1.53978
1193.15	1.26001
1196.53	2.35464
1199.9	2.36589
1203.28	0.353504
1206.65	1.25153
1210.03	1.89598
1213.4	1.73177
1216.78	1.52733
1220.15	2.98762
1223.53	0.771706
1226.9	2.44435
1230.28	2.44234
1233.65	1.61569
1237.03	1.05345
1240.4	3.26078
1243.78	0.557491
1247.15	2.46099
1250.53	2.6132
1253.9	1.39407
1257.28	2.67028
1260.65	3.27608
1264.03	1.28735
1267.4	0.54509
1270.78	1.80078
1274.15	1.8313
1277.53	2.10376
1280.9	0.694157
1284.28	1.54043
1287.65	1.4262
1291.03	1.55388
1294.4	2.6924
1297.78	1.23836
1301.15	1.625
