Measurement: Raman, 532 nm, unoriented, Raman Data Processed
Mineral: Fettelite
Rruff sample: R110042
Ideal chemistry: Ag_16_HgAs_4_S_15_
Locality: Nieder-Beerbach mine near Darmstadt, Odenwald, Germany
Source: Institute of Mineralogy, University of Heidelberg
Description: Red hexagonal plates, type-sample. New data are reported in Bindi et al (2012)
Measured chemistry: Ag_16.08_Cu_0.13_Fe_0.01_Hg_0.71_As_3.80_S_15.28_
Raman shift (cm-1)	intensity
178.237	0
181.13	2.16493
184.023	0.147675
186.916	0.634033
189.808	7.5712
192.701	3.23599
195.594	1.76602
198.486	8.479
201.379	7.4536
204.272	8.25684
207.164	10.0806
210.057	12.7077
212.95	15.7932
215.843	6.85004
218.735	12.4098
221.628	14.4859
224.521	14.6134
227.413	19.631
230.306	15.661
233.199	16.2205
236.091	19.2337
238.984	18.0703
241.877	16.7369
244.769	15.3246
247.662	12.4703
250.555	12.5175
253.448	13.5644
256.34	15.1171
259.233	11.6611
262.126	11.229
265.018	17.7781
267.911	13.5867
270.804	13.0217
273.697	12.6452
276.589	17.8367
279.482	11.9527
282.375	10.0586
285.267	4.44783
288.16	3.74197
291.053	6.53629
293.945	5.70499
296.838	4.40228
299.731	1.84422
302.623	3.85359
305.516	0.824036
308.409	1.7887
311.302	0.512802
314.194	1.44644
317.087	4.23677
319.98	0.234619
322.872	3.04582
325.765	2.72719
328.658	0.896072
331.55	3.25204
334.443	0.611267
337.336	1.47466
340.229	3.52824
343.121	4.13387
346.014	4.13354
348.907	6.60857
351.799	4.82867
354.692	7.22231
357.585	10.3183
360.478	12.9811
363.37	20.9273
366.263	22.7651
369.156	23.7302
372.048	23.75
374.941	20.7529
377.834	21.69
380.726	12.4446
383.619	8.74161
386.512	6.22853
389.404	4.7556
392.297	0.603027
395.19	1.50236
398.083	4.00468
400.975	1.56213
403.868	4.8109
406.761	1.14163
409.653	2.45935
412.546	2.12465
415.439	2.00691
418.332	4.87018
421.224	3.11903
424.117	0.360504
427.01	2.12869
429.902	4.32378
432.795	5.00305
435.688	3.63701
438.58	1.92862
441.473	5.94926
444.366	2.0414
447.259	2.93613
450.151	4.85155
453.044	4.49815
455.937	3.59863
458.829	3.11728
461.722	5.42625
464.615	3.71306
467.507	1.53622
470.4	4.50987
473.293	1.13443
476.185	1.37366
479.078	4.5433
481.971	4.24835
484.864	6.00472
487.756	5.16603
490.649	3.659
493.542	0.663422
496.434	3.19295
499.327	4.23614
502.22	0.926987
505.113	4.22426
508.005	2.90888
510.898	2.55373
513.791	0.3414
516.683	2.7692
519.576	2.89412
522.469	0.44902
525.361	3.23682
528.254	3.80031
531.147	2.3439
534.04	2.56384
536.932	4.02919
539.825	1.94711
542.718	4.78581
545.61	3.85957
548.503	1.3163
551.396	2.69751
554.288	3.14822
557.181	3.39394
560.074	0.053665
562.967	1.29388
565.859	5.97821
568.752	0.466949
571.645	1.2352
574.537	4.01764
577.43	5.21281
580.323	4.30119
583.216	1.07826
586.108	1.32761
589.001	1.71873
591.894	3.82109
594.786	1.60597
597.679	0.305206
600.572	3.94737
603.464	0.3936
606.357	2.71751
609.25	2.97739
612.142	2.82498
615.035	5.21468
617.928	2.09375
620.821	2.03088
623.713	2.84413
626.606	2.42458
629.499	2.49805
632.391	3.09199
635.284	0.67366
638.177	2.6318
641.069	2.04752
643.962	1.31999
646.855	0.513657
649.747	3.57809
652.64	1.36386
655.533	0.70105
658.426	3.048
661.318	0.031891
664.211	1.04242
667.104	0.271423
669.996	1.3148
672.889	2.6806
675.782	2.31651
678.674	2.073
681.567	4.60661
684.46	3.92137
687.353	3.87967
690.245	4.40068
693.138	1.076
696.031	2.62303
698.923	1.4971
701.816	1.82811
704.709	1.5571
707.601	2.75774
710.494	3.66757
713.387	1.28272
716.28	2.78117
719.172	4.17313
722.065	5.8443
724.958	6.62146
727.85	3.07703
730.743	4.39639
733.636	2.43124
736.529	3.5023
739.421	0.879288
742.314	3.54308
745.207	4.71248
748.099	2.20726
750.992	1.61563
753.885	3.38263
756.777	5.79329
759.67	4.9491
762.563	1.99947
765.456	4.92508
768.348	3.81876
771.241	3.80782
774.134	4.3114
777.026	0.256241
779.919	2.41246
782.812	2.80812
785.704	4.16856
788.597	5.05487
791.49	3.29047
794.383	2.32358
797.275	2.22076
800.168	5.66519
803.061	2.4292
805.953	5.48296
808.846	1.72928
811.739	3.4635
814.631	3.93332
817.524	4.76282
820.417	5.36098
823.309	4.14075
826.202	3.41074
829.095	2.51907
831.988	8.28522
834.88	3.02127
837.773	4.17348
840.666	5.32935
843.558	0.707626
846.451	5.02571
849.344	4.37413
852.236	2.7925
855.129	1.98146
858.022	2.75913
860.915	3.95381
863.807	4.41084
866.7	2.10609
869.593	0.361008
872.485	1.42746
875.378	2.79062
878.271	0.72998
881.163	1.93278
884.056	3.45679
886.949	2.01453
889.842	2.25688
892.734	2.57677
895.627	0.333923
898.52	4.05804
901.412	2.17201
904.305	1.93613
907.198	1.80987
910.091	1.60712
912.983	1.05244
915.876	1.78677
918.769	4.0551
921.661	2.31155
924.554	0.323532
927.447	4.57974
930.339	1.85875
933.232	2.84369
936.125	1.95877
939.018	1.76573
941.91	1.33489
944.803	0.50618
947.696	0.159531
950.588	2.19449
953.481	2.98019
956.374	0.893951
959.266	5.1445
962.159	3.65239
965.052	1.3645
967.944	1.11536
970.837	1.2449
973.73	1.67265
976.623	1.25577
979.515	3.60086
982.408	2.61133
985.301	2.35306
988.193	2.01688
991.086	4.72446
993.979	4.20921
996.871	1.59161
999.764	1.99045
1002.66	3.47224
1005.55	2.74693
1008.44	4.47375
1011.34	3.3246
1014.23	1.58569
1017.12	4.0717
1020.01	4.31438
1022.91	1.04347
1025.8	3.42677
1028.69	3.39499
1031.58	4.70818
1034.48	2.55559
1037.37	2.03465
1040.26	3.04253
1043.15	0.241409
1046.05	2.23744
1048.94	5.46913
1051.83	0.768616
1054.73	0.147995
1057.62	4.2942
1060.51	6.27473
1063.4	1.22354
1066.3	2.47565
1069.19	4.72363
1072.08	2.95163
1074.97	3.26381
1077.87	3.09093
1080.76	2.0277
1083.65	1.2213
1086.55	2.04886
1089.44	3.35458
1092.33	0.147812
1095.22	1.04578
1098.12	2.31065
1101.01	3.4445
1103.9	3.68117
1106.79	2.57599
1109.69	3.19832
1112.58	1.51347
1115.47	4.05457
1118.37	2.73061
1121.26	3.92107
1124.15	3.04396
1127.04	1.08376
1129.94	5.57272
1132.83	3.15401
1135.72	5.06513
1138.61	2.66527
1141.51	3.23029
1144.4	0.252655
1147.29	1.83325
1150.18	2.88738
1153.08	2.18005
1155.97	3.29938
1158.86	0.932037
1161.76	0.971375
1164.65	6.42989
1167.54	0.957062
1170.43	3.38078
1173.33	3.22119
1176.22	4.07356
1179.11	4.7794
1182	3.68434
1184.9	2.77983
1187.79	4.59439
1190.68	1.53232
1193.58	0.404678
1196.47	3.94218
1199.36	2.70288
1202.25	4.30034
1205.15	5.77336
1208.04	5.75218
1210.93	2.72562
1213.82	0.82637
1216.72	2.55623
1219.61	3.7122
1222.5	2.27809
1225.39	5.43245
1228.29	4.78005
1231.18	3.81731
1234.07	4.43339
1236.97	4.86044
1239.86	1.64633
1242.75	2.68999
1245.64	3.3174
1248.54	0.284012
1251.43	3.23891
1254.32	4.45236
1257.21	4.0822
1260.11	3.74919
1263	7.36066
1265.89	3.7411
1268.79	3.68983
1271.68	5.81911
1274.57	6.33318
1277.46	3.6754
1280.36	7.12712
1283.25	4.54576
1286.14	5.3205
1289.03	7.12483
1291.93	4.66841
1294.82	0.508621
1297.71	3.84036
1300.61	0.278366
