Measurement: Raman, 780 nm, unoriented, Raman Data Processed
Mineral: Fettelite
Rruff sample: R100083
Ideal chemistry: Ag_16_HgAs_4_S_15_
Locality: Chanarcillo, Chile
Source: William W Pinch
Description: Red platy crystals on acanthite. Cell parameters match those reported by Bindi et al (2009), indicating a fettelite polytype.
Measured chemistry: Ag_15.66_Hg_1.21_Fe_0.02_Cu_0.004_Sb_0.17_As_3.61_S_15_
Raman shift (cm-1)	intensity
141.191	0
144.084	4.99331
146.977	2.01056
149.869	2.54406
152.762	4.99
155.655	2.69676
158.547	2.87148
161.44	1.08282
164.333	3.18936
167.226	0.185291
170.118	0.336662
173.011	0.216705
175.904	2.53724
178.796	3.58895
181.689	0.308403
184.582	1.46496
187.474	1.91694
190.367	1.56443
193.26	1.60819
196.153	3.02402
199.045	4.87098
201.938	1.96372
204.831	5.65016
207.723	1.205
210.616	1.70543
213.509	1.93288
216.401	1.824
219.294	2.80693
222.187	6.03418
225.079	0.323952
227.972	4.5165
230.865	4.0364
233.758	9.02851
236.65	2.67443
239.543	7.40912
242.436	6.82344
245.328	6.03399
248.221	2.50195
251.114	3.83025
254.006	6.76926
256.899	5.92897
259.792	6.17685
262.685	10.749
265.577	9.28609
268.47	4.66854
271.363	3.89066
274.255	4.10212
277.148	5.16829
280.041	3.37291
282.933	8.40607
285.826	5.59736
288.719	7.14537
291.612	7.07954
294.504	5.72139
297.397	8.6029
300.29	5.96869
303.182	5.83
306.075	2.93277
308.968	3.10882
311.861	1.68542
314.753	1.06182
317.646	1.61606
320.539	1.3466
323.431	0.30616
326.324	2.2067
329.217	2.55212
332.109	6.76636
335.002	6.92145
337.895	6.13182
340.788	5.86579
343.68	7.71012
346.573	3.11902
349.466	13.0462
352.358	10.1481
355.251	23.1707
358.144	19.4185
361.036	25.5088
363.929	29.7178
366.822	31.0401
369.715	43.5954
372.607	46.3934
375.5	49.7484
378.393	45.7279
381.285	33.6388
384.178	20.092
387.071	12.1545
389.964	6.80982
392.856	6.54948
395.749	5.65995
398.642	1.68575
401.534	1.91426
404.427	6.16113
407.32	0.767454
410.212	1.16437
413.105	4.48888
415.998	3.3765
418.89	0.810564
421.783	2.89836
424.676	1.69653
427.569	0.307516
430.461	4.08478
433.354	0.145208
436.247	1.2375
439.139	0.995647
442.032	2.90898
444.925	2.93192
447.817	0.440929
450.71	3.87724
453.603	5.03551
456.496	4.82435
459.388	5.12663
462.281	2.01695
465.174	4.50416
468.066	5.38718
470.959	2.59942
473.852	1.7167
476.745	5.44921
479.637	3.67885
482.53	4.36156
485.423	3.1006
488.315	1.07763
491.208	0.196226
494.101	3.74627
496.993	0.413374
499.886	2.51724
502.779	3.46563
505.671	6.38748
508.564	4.70644
511.457	1.45694
514.35	0.054132
517.242	1.51225
520.135	0.365353
523.028	0.041611
525.92	3.2676
528.813	0.17901
531.706	2.92802
534.598	3.57054
537.491	6.77789
540.384	3.63546
543.277	3.84645
546.169	2.4892
549.062	2.43606
551.955	2.86669
554.847	2.44123
557.74	4.75194
560.633	2.88646
563.525	0.43511
566.418	1.7816
569.311	4.38171
572.204	2.49241
575.096	1.04503
577.989	4.95263
580.882	2.79084
583.774	2.25627
586.667	4.18703
589.56	0.754765
592.452	4.05914
595.345	0.777345
598.238	1.41452
601.131	1.9874
604.023	3.72442
606.916	3.84266
609.809	2.08608
612.701	3.11255
615.594	1.71253
618.487	1.27879
621.38	1.97153
624.272	0.387388
627.165	1.47451
630.058	3.65543
632.95	0.058568
635.843	3.48668
638.736	2.0178
641.628	4.14463
644.521	1.19834
647.414	1.73839
650.307	0.952641
653.199	2.69273
656.092	4.73386
658.985	2.13296
661.877	4.00568
664.77	5.73138
667.663	1.56758
670.555	0.687271
673.448	0.590279
676.341	4.72969
679.234	1.78371
682.126	4.8009
685.019	1.73539
687.912	2.64472
690.804	0.884409
693.697	2.98013
696.59	3.64452
699.482	0.527312
702.375	2.08383
705.268	2.81426
708.16	2.58425
711.053	2.40236
713.946	2.54333
716.839	3.0568
719.731	6.13594
722.624	1.63297
725.517	6.03873
728.409	1.93561
731.302	2.30535
734.195	3.48508
737.087	4.78404
739.98	0.884158
742.873	5.99262
745.766	3.26651
748.658	2.90149
751.551	4.18607
754.444	4.26018
757.336	3.92521
760.229	3.56752
763.122	5.87033
766.014	3.78429
768.907	2.92733
771.8	2.85096
774.693	2.08003
777.585	3.62765
780.478	0.855323
783.371	2.26407
786.263	1.55758
789.156	4.11894
792.049	0.79583
794.942	1.44389
797.834	1.82376
800.727	4.40533
803.62	2.33955
806.512	2.17893
809.405	2.38778
812.298	1.69772
815.19	3.37914
818.083	2.46807
820.976	3.31206
823.869	3.03209
826.761	1.79132
829.654	4.64912
832.547	1.73845
835.439	0.549685
838.332	1.42278
841.225	2.487
844.117	4.02255
847.01	1.02605
849.903	3.64024
852.795	2.08346
855.688	5.27142
858.581	4.30364
861.474	2.02867
864.366	2.38507
867.259	3.95204
870.152	1.4589
873.044	4.07436
875.937	4.95147
878.83	2.15035
881.722	2.9758
884.615	3.05405
887.508	2.52174
890.401	3.15721
893.293	2.73866
896.186	3.90153
899.079	2.10273
901.971	0.656157
904.864	0.281238
907.757	3.19563
910.649	0.04563
913.542	1.78466
916.435	1.91652
919.328	1.82803
922.22	4.80976
925.113	2.95055
928.006	1.71439
930.898	1.20802
933.791	1.54945
936.684	3.36961
939.577	3.0512
942.469	2.34775
945.362	0.886775
948.255	1.21739
951.147	5.41662
954.04	3.35686
956.933	4.40025
959.825	0.107618
962.718	2.90811
965.611	1.07143
968.504	1.5284
971.396	3.97748
974.289	1.15803
977.182	2.19096
980.074	0.49898
982.967	2.04017
985.86	5.90722
988.752	2.81238
991.645	0.602116
994.538	0.741246
997.431	3.19371
1000.32	3.30697
1003.22	4.28136
1006.11	0.924509
1009	3.02062
1011.89	2.19814
1014.79	3.54883
1017.68	6.39652
1020.57	4.28437
1023.47	4.10978
1026.36	2.29311
1029.25	8.31717
1032.14	6.12757
1035.04	1.44465
1037.93	4.57913
1040.82	2.076
1043.71	1.51163
1046.61	1.78015
1049.5	7.1229
1052.39	1.51381
1055.29	1.05401
1058.18	2.11641
1061.07	3.81433
1063.96	4.14511
1066.86	2.95339
1069.75	6.19388
1072.64	5.19947
1075.53	2.51508
1078.43	0.782248
1081.32	6.17259
1084.21	1.3706
1087.1	3.27808
1090	6.38942
1092.89	1.71685
1095.78	1.98053
1098.67	2.73747
1101.57	2.07097
1104.46	8.05638
1107.35	4.97006
1110.25	4.02489
1113.14	3.95573
1116.03	2.38956
1118.92	3.94608
1121.82	0.63517
1124.71	6.5839
1127.6	2.15857
1130.49	3.66547
1133.39	2.41329
1136.28	7.22615
1139.17	1.86692
1142.07	5.11006
1144.96	1.10986
1147.85	3.24025
1150.74	2.83287
1153.64	5.06218
1156.53	3.96454
1159.42	3.48823
1162.31	3.38483
1165.21	3.10836
1168.1	6.36161
1170.99	6.69871
1173.88	6.24181
1176.78	4.75828
1179.67	2.79275
1182.56	2.22163
1185.46	1.63387
1188.35	0.18628
1191.24	6.05734
1194.13	1.96613
1197.03	2.87457
1199.92	1.94983
1202.81	4.90445
1205.7	0.986949
1208.6	4.42313
1211.49	0.788168
1214.38	0.764783
1217.28	3.26543
1220.17	2.20025
1223.06	1.73391
1225.95	3.45222
1228.85	4.27858
1231.74	5.42661
1234.63	1.73065
1237.53	1.6274
1240.42	2.96451
1243.31	1.51532
1246.2	1.42142
1249.1	2.05628
1251.99	1.00381
1254.88	0.843862
1257.77	2.09405
1260.67	1.8665
1263.56	0.35574
1266.45	3.88529
1269.34	2.67403
1272.24	2.37903
1275.13	2.46569
1278.02	1.09721
1280.91	5.51856
1283.81	2.91807
