Measurement: Raman, 785 nm, unoriented, Raman Data Processed
Mineral: Fibroferrite
Rruff sample: R061076
Ideal chemistry: Fe^3+^S^6+^O_4_(OH)5H_2_O
Locality: Cyprus
Source: Michael Scott
Description: Matted aggregates of pale yellow fibers
Measured chemistry: Fe^3+^_1.00_(S_1.00_O_4_)(OH)Â·5H_2_O
Raman shift (cm-1)	intensity
119.219	0
122.111	49.4818
125.004	114.954
127.897	257.273
130.789	274.216
133.682	247.496
136.575	171.962
139.467	170.865
142.36	288.827
145.253	398.448
148.145	350.404
151.038	185.456
153.931	180.062
156.824	210.773
159.716	322.602
162.609	427.082
165.502	598.83
168.394	855.765
171.287	957.274
174.18	895.762
177.072	653.757
179.965	482.093
182.858	296.525
185.751	217.573
188.643	70.616
191.536	91.9731
194.429	63.3789
197.321	49.5395
200.214	32.7999
203.107	6.7767
206	3.43591
208.892	3.18628
211.785	6.01932
214.678	3.68076
217.57	2.35623
220.463	12.0742
223.356	89.2673
226.248	106.114
229.141	190.58
232.034	246.468
234.927	351.052
237.819	422.395
240.712	530.792
243.605	636.138
246.497	790.401
249.39	933.335
252.283	986.713
255.175	938.922
258.068	865.96
260.961	641.845
263.853	425.424
266.746	340.73
269.639	230.998
272.532	181.509
275.424	143.308
278.317	96.1178
281.21	77.3965
284.102	32.9567
286.995	63.6663
289.888	33.2274
292.78	68.7721
295.673	82.6703
298.566	36.0149
301.459	39.9635
304.351	36.6402
307.244	49.5193
310.137	94.2842
313.029	53.1604
315.922	89.9654
318.815	9.19482
321.707	16.7275
324.6	21.5548
327.493	20.6853
330.385	52.9644
333.278	32.6082
336.171	9.88768
339.064	15.0587
341.956	15.745
344.849	26.1203
347.742	2.33023
350.634	21.1012
353.527	25.1963
356.42	34.6994
359.312	89.3928
362.205	34.0118
365.098	59.5273
367.991	53.3142
370.883	60.6418
373.776	73.0851
376.669	86.9483
379.561	32.049
382.454	116.806
385.347	107.898
388.24	121.372
391.132	152.196
394.025	236.776
396.918	202.294
399.81	235.659
402.703	235.371
405.596	254.197
408.488	253.59
411.381	242.151
414.274	222.611
417.166	201.207
420.059	248.364
422.952	262.011
425.845	252.661
428.737	228.784
431.63	282.063
434.523	243.51
437.415	174.32
440.308	128.046
443.201	170.16
446.094	110.98
448.986	95.9588
451.879	68.1714
454.772	10.299
457.664	19.0777
460.557	8.93155
463.45	16.3431
466.342	8.82669
469.235	24.3697
472.128	54.3663
475.021	65.9778
477.913	101.476
480.806	86.4146
483.699	121.643
486.591	102.13
489.484	100.505
492.377	92.7953
495.269	88.8586
498.162	118.315
501.055	180.9
503.947	189.656
506.84	310.948
509.733	381.359
512.625	463.835
515.518	592.511
518.411	659.478
521.304	679.573
524.196	677.67
527.089	626.814
529.982	509.087
532.875	412.671
535.767	266.821
538.66	207.935
541.553	125.975
544.445	66.4587
547.338	82.6916
550.231	33.9559
553.123	23.2453
556.016	33.8584
558.909	1.10936
561.802	50.4543
564.694	6.35063
567.587	25.2026
570.48	7.40395
573.372	17.3028
576.265	15.7458
579.158	43.6002
582.05	33.3726
584.943	14.631
587.836	38.0976
590.729	44.3095
593.621	76.6312
596.514	23.7172
599.407	26.1815
602.299	68.2091
605.192	94.7599
608.085	71.3609
610.977	58.6199
613.87	42.2374
616.763	15.8033
619.655	54.483
622.548	23.4495
625.441	33.6566
628.334	38.0155
631.226	24.2805
634.119	20.4544
637.012	46.2936
639.904	37.6282
642.797	49.063
645.69	26.7104
648.582	62.6466
651.475	79.6139
654.368	60.6727
657.261	27.7345
660.153	77.3569
663.046	54.2948
665.939	80.7173
668.831	71.045
671.724	82.7293
674.617	91.3184
677.509	104.225
680.402	59.7856
683.295	34.0121
686.188	11.5279
689.08	28.5352
691.973	45.2256
694.866	41.5037
697.758	14.7301
700.651	98.8603
703.544	48.0562
706.436	82.4461
709.329	27.5598
712.222	68.8417
715.115	60.2155
718.007	18.1692
720.9	82.474
723.793	31.9192
726.685	30.8423
729.578	69.1761
732.471	96.5924
735.363	57.2111
738.256	57.5662
741.149	79.4515
744.042	31.1677
746.934	25.8759
749.827	75.9317
752.72	71.5784
755.612	35.4113
758.505	42.303
761.398	29.5445
764.29	34.7002
767.183	71.8091
770.076	46.4442
772.968	26.0377
775.861	0.356392
778.754	41.9551
781.647	35.6863
784.539	47.9283
787.432	28.6327
790.325	13.1355
793.217	33.4652
796.11	13.2895
799.003	19.5693
801.895	49.1765
804.788	32.3114
807.681	18.9349
810.574	3.85719
813.466	14.9467
816.359	38.8877
819.252	52.1567
822.144	15.0784
825.037	31.1737
827.93	28.2147
830.822	0.94202
833.715	53.1747
836.608	16.8407
839.5	24.2855
842.393	12.7752
845.286	4.01032
848.179	47.9347
851.071	17.7294
853.964	19.9226
856.857	8.1438
859.75	31.5083
862.642	16.3278
865.535	10.9592
868.428	19.4328
871.32	53.9284
874.213	33.1724
877.106	29.9618
879.998	37.7376
882.891	45.6229
885.784	63.8169
888.677	49.5451
891.569	88.6472
894.462	70.8068
897.355	11.8029
900.247	22.9788
903.14	34.436
906.033	54.5081
908.925	57.2493
911.818	28.4937
914.711	73.5382
917.604	53.8672
920.496	25.4421
923.389	28.6278
926.282	26.6222
929.174	32.5829
932.067	24.7414
934.96	23.9076
937.852	18.162
940.745	35.1677
943.638	36.357
946.53	14.4054
949.423	43.4357
952.316	12.8746
955.209	104.264
958.101	16.4791
960.994	23.4269
963.887	27.7476
966.779	35.4265
969.672	18.5547
972.565	49.7459
975.457	13.3081
978.35	38.3035
981.243	7.024
984.136	36.6222
987.028	18.188
989.921	65.8518
992.814	49.2805
995.706	39.3815
998.599	82.494
1001.49	51.3626
1004.38	140.228
1007.28	202.775
1010.17	322.472
1013.06	546.289
1015.96	891.469
1018.85	874.054
1021.74	522.889
1024.63	430
1027.53	500.837
1030.42	576.346
1033.31	780.96
1036.2	970.697
1039.1	1042.24
1041.99	882.431
1044.88	585.279
1047.78	367.238
1050.67	321.854
1053.56	157.641
1056.45	92.9717
1059.35	96.8749
1062.24	85.306
1065.13	2.42267
1068.02	43.2358
1070.92	3.2516
1073.81	4.27821
1076.7	33.9971
1079.6	10.5473
1082.49	32.6693
1085.38	8.40161
1088.27	22.5744
1091.16	18.9666
1094.06	6.78592
1096.95	18.5684
1099.84	42.2483
1102.74	46.3669
1105.63	46.1192
1108.52	73.0888
1111.41	104.304
1114.31	75.0588
1117.2	136.257
1120.09	155.873
1122.98	147.034
1125.88	162.521
1128.77	182.425
1131.66	115.021
1134.56	109.838
1137.45	97.6679
1140.34	101.318
1143.23	122.469
1146.13	76.8269
1149.02	124.249
1151.91	154.178
1154.81	131.542
1157.7	192.691
1160.59	134.25
1163.48	134.949
1166.38	142.736
1169.27	120.778
1172.16	65.778
1175.05	78.9433
1177.95	113.363
1180.84	59.4922
1183.73	99.3415
1186.62	46.4039
1189.52	57.8013
1192.41	45.4639
1195.3	38.9497
1198.19	13.8245
1201.09	36.5617
1203.98	60.1696
1206.87	26.9255
1209.77	13.8856
1212.66	70.4257
1215.55	89.0985
1218.44	59.8796
1221.34	78.0985
1224.23	71.6921
1227.12	44.5015
1230.02	19.0011
1232.91	77.8117
1235.8	32.2657
1238.69	98.2584
1241.59	56.1653
1244.48	97.3409
1247.37	63.2322
1250.26	44.6292
1253.16	52.7218
1256.05	104.055
1258.94	44.4398
1261.84	43.8112
1264.73	23.0113
1267.62	19.2832
