Measurement: Raman, 785 nm, unoriented, Raman Data Processed
Mineral: Filatovite
Rruff sample: R070030
Ideal chemistry: K(Al,Zn^2+^)_2_(As^5+^,Si)_2_O_8_
Locality: Great Tolbachik Eruption (1976), Tolbachik Volcano, Kamchatka Peninsula, Russia
Source: Michael Scott
Description: Colorless prismatic single crystal embedded in epoxy, co-type material
Raman shift (cm-1)	intensity
199.895	0
202.787	297.223
205.68	56.0781
208.573	230.707
211.466	148.488
214.358	17.6094
217.251	159.644
220.144	309.117
223.036	359.914
225.929	409.977
228.822	266.062
231.714	413.867
234.607	389.051
237.5	378.461
240.393	454.539
243.285	446.547
246.178	476.574
249.071	346.785
251.963	352.769
254.856	313.375
257.749	320.711
260.642	484.238
263.534	308.199
266.427	372.973
269.32	212.234
272.212	220.703
275.105	222.371
277.998	104.832
280.89	215.191
283.783	262.188
286.676	344.273
289.568	447.25
292.461	228.391
295.354	284.109
298.247	220.812
301.139	181
304.032	306.523
306.925	532.863
309.817	547.703
312.71	566.262
315.603	507
318.495	310.773
321.388	339.016
324.281	399.691
327.174	266.43
330.066	266.961
332.959	327.691
335.852	279.66
338.744	123.312
341.637	63.5195
344.53	93.1016
347.423	35.9844
350.315	129.367
353.208	123.656
356.101	22.0469
358.993	96.8594
361.886	12.7031
364.779	102.695
367.671	200.496
370.564	167.981
373.457	427.043
376.349	504.66
379.242	666.172
382.135	525.387
385.028	452.109
387.92	382.922
390.813	596.617
393.706	812.539
396.598	878.188
399.491	956.535
402.384	879.328
405.276	922.465
408.169	1029.08
411.062	1004.53
413.955	1124.99
416.847	969.93
419.74	1049.04
422.633	853.106
425.525	679.957
428.418	556.793
431.311	555.641
434.204	374.957
437.096	248.031
439.989	171.414
442.882	193.457
445.774	107.07
448.667	40.6016
451.56	22.2266
454.452	123.871
457.345	40.0508
460.238	54.332
463.13	191.019
466.023	337.953
468.916	444.281
471.809	680.055
474.701	670.731
477.594	646.023
480.487	599.492
483.379	724.519
486.272	750.613
489.165	730.621
492.058	497.59
494.95	587.141
497.843	334.977
500.736	284.91
503.628	86.8828
506.521	90.9492
509.414	182.094
512.307	261.227
515.199	125.035
518.092	185.773
520.985	27.4258
523.877	74.1367
526.77	17.75
529.663	183.984
532.555	179.086
535.448	204.531
538.341	73.4648
541.234	139.109
544.126	0.414063
547.019	19.7227
549.912	55.9844
552.804	36.8945
555.697	7.80859
558.59	273.688
561.482	311.609
564.375	298.777
567.268	241.598
570.16	288.277
573.053	226.516
575.946	148.082
578.839	163.094
581.731	141.988
584.624	66.1523
587.517	188.09
590.409	135.027
593.302	9.125
596.195	161.801
599.087	178.746
601.98	295.344
604.873	167.91
607.766	155.875
610.658	101.297
613.551	138.57
616.444	74.6094
619.336	151.613
622.229	223.738
625.122	129.856
628.014	200.719
630.907	345.859
633.8	272.953
636.693	102.086
639.585	357.613
642.478	280.348
645.371	150.828
648.263	240.891
651.156	82.6328
654.049	102.606
656.942	143.684
659.834	108.883
662.727	168.789
665.62	26.5781
668.512	141.266
671.405	69.0586
674.298	145.34
677.19	158.426
680.083	315.531
682.976	245.977
685.869	392.617
688.761	272.867
691.654	291.086
694.547	378.109
697.439	407.57
700.332	428.68
703.225	328.703
706.117	373.133
709.01	348.422
711.903	282.336
714.795	184.871
717.688	186.91
720.581	220.418
723.474	406.543
726.366	129.832
729.259	93.2305
732.152	50.6992
735.044	54.0742
737.937	28.5742
740.83	22.1406
743.722	100.426
746.615	25.6562
749.508	130.668
752.401	32.8906
755.293	67.4609
758.186	35.3945
761.079	90.1641
763.971	32.6289
766.864	220.414
769.757	100.762
772.649	266.074
775.542	187.457
778.435	299.238
781.328	308.918
784.22	230.828
787.113	363.812
790.006	440.484
792.898	322.051
795.791	223.125
798.684	197.914
801.577	73.4727
804.469	80.1289
807.362	221.477
810.255	239.535
813.147	274.531
816.04	304.812
818.933	350.309
821.825	398.629
824.718	361.828
827.611	464.195
830.504	629.406
833.396	634.559
836.289	812.93
839.182	1105.32
842.074	1327.43
844.967	2066.87
847.86	2177.67
850.752	2811.3
853.645	3591.75
856.538	4195.55
859.431	4606.79
862.323	4504.96
865.216	4184.03
868.109	3826.81
871.001	3235.98
873.894	2502.02
876.787	2247.9
879.679	1816.38
882.572	1742.9
885.465	1355.09
888.357	897.629
891.25	1018.7
894.143	730.723
897.036	665.848
899.928	658.609
902.821	474.367
905.714	387.789
908.606	382.691
911.499	296.523
914.392	352.727
917.284	295.465
920.177	109.883
923.07	34.2969
925.963	258.539
928.855	51.7656
931.748	34.9297
934.641	190.445
937.534	83.8242
940.426	24.9883
943.319	112.285
946.212	35.4414
949.104	3.75781
951.997	3.28125
954.89	113.637
957.782	21.5039
960.675	148.699
963.568	29.3125
966.461	169.445
969.353	14.5508
972.246	89.5469
975.139	226.504
978.031	56.3164
980.924	53.1914
983.817	352.512
986.709	228.609
989.602	187.477
992.495	239.559
995.388	202.828
998.28	303.539
1001.17	301.019
1004.07	221.621
1006.96	230.953
1009.85	158.734
1012.74	208.473
1015.64	26.4688
1018.53	222.434
1021.42	258.555
1024.31	203.789
1027.21	191.406
1030.1	261.863
1032.99	228.945
1035.88	193.777
1038.78	160.691
1041.67	304.461
1044.56	155.305
1047.46	195.238
1050.35	233.207
1053.24	51.6719
1056.13	138.562
1059.03	193.121
1061.92	32.0625
1064.81	47.0469
1067.7	218.863
1070.6	175.766
1073.49	211.5
1076.38	53.1328
1079.28	130.824
1082.17	146.57
1085.06	247.242
1087.95	17.4297
1090.85	38.2695
1093.74	28.3359
1096.63	221.691
1099.53	127.219
1102.42	148.453
1105.31	228.547
1108.2	148.316
1111.1	248.82
1113.99	203.422
1116.88	158.172
1119.77	81.7734
1122.67	17.5273
1125.56	82.1875
1128.45	141.129
1131.34	240.117
1134.24	136.066
1137.13	52.3242
1140.02	93.3789
1142.91	277.719
1145.81	222.551
1148.7	249.242
1151.59	114.539
1154.49	183.637
1157.38	121.426
1160.27	100.703
1163.16	143.293
1166.06	117.203
1168.95	56.6406
1171.84	84.3164
1174.73	196.856
1177.63	85.2695
1180.52	81.1641
1183.41	114.184
1186.31	70.4062
1189.2	61.2266
1192.09	158.981
1194.98	239.875
1197.88	74.1797
1200.77	179.059
1203.66	73.1797
1206.56	306.738
1209.45	118.531
1212.34	61.4414
1215.23	139.332
1218.12	250.715
1221.02	212.066
1223.91	303.535
1226.8	279.875
1229.7	131.066
1232.59	229.773
1235.48	22.5156
1238.37	113.164
1241.27	2.46094
1244.16	80.0547
