Measurement: Raman, 532 nm, unoriented, Raman Data Processed
Mineral: Fizelyite
Rruff sample: R060175
Ideal chemistry: Ag^1+^_5_Pb^2+^_14_Sb^3+^_21_S^2-^_48_
Locality: Van Silver mine, Squamish, British Columbia, Canada
Source: Ty Balacko
Description: Dark gray deeply-striated single crystals
Measured chemistry: Pb_13.74_Ag_5.94_Sb_20.87_S_48.00_
Raman shift (cm-1)	intensity
131.244	0
134.619	0.082286
137.993	4.32339
141.368	4.5067
144.743	5.67658
148.118	8.31871
151.493	9.36026
154.867	7.65527
158.242	6.63386
161.617	5.45961
164.992	4.54101
168.367	4.13798
171.742	3.78424
175.116	2.76414
178.491	1.80481
181.866	1.559
185.241	1.28629
188.616	0.514026
191.99	0.128176
195.365	0.141269
198.74	0.131999
202.115	0.121101
205.49	0.111773
208.864	0.412738
212.239	0.183697
215.614	0.693682
218.989	0.977791
222.364	1.85143
225.739	2.39766
229.113	2.53563
232.488	3.03227
235.863	2.86316
239.238	3.32973
242.613	3.61169
245.988	4.52062
249.362	4.81425
252.737	5.3137
256.112	7.85433
259.487	8.98477
262.862	9.47979
266.236	8.15333
269.611	6.85087
272.986	5.79189
276.361	4.61997
279.736	2.93992
283.111	2.66946
286.485	1.85931
289.86	1.2032
293.235	0.236883
296.61	0.058045
299.985	0.234937
303.36	0.877825
306.734	1.71139
310.109	2.02281
313.484	2.49253
316.859	2.87548
320.234	3.28468
323.608	3.63784
326.983	3.32357
330.358	3.6067
333.733	2.9449
337.108	2.67335
340.483	2.1582
343.857	1.29684
347.232	0.793445
350.607	0.303487
353.982	0.226535
357.357	0.236091
360.731	0.112649
364.106	0.32273
367.481	0.84205
370.856	0.44123
374.231	0.504783
377.606	1.50005
380.98	0.784327
384.355	1.34791
387.73	1.94696
391.105	1.16702
394.48	1.58347
397.854	1.83542
401.229	3.548
404.604	2.75063
407.979	3.78472
411.354	2.07626
414.729	2.1866
418.103	2.69079
421.478	1.9624
424.853	1.30743
428.228	1.20198
431.603	1.17607
434.978	1.33554
438.352	1.13417
441.727	1.0159
445.102	0.891566
448.477	1.45484
451.852	1.14495
455.226	1.50924
458.601	0.070261
461.976	0.529486
465.351	0.888175
468.726	0.588402
472.101	0.296568
475.475	0.480232
478.85	0.391731
482.225	0.17443
485.6	0.120263
488.975	0.292681
492.349	0.063817
495.724	0.226053
499.099	0.252202
502.474	0.705393
505.849	0.426921
509.224	0.805165
512.598	0.864668
515.973	0.674994
519.348	0.374654
522.723	0.256477
526.098	0.110074
529.472	0.478384
532.847	0.206912
536.222	0.367269
539.597	0.04022
542.972	0.382326
546.347	1.26817
549.721	0.61875
553.096	0.800454
556.471	0.17732
559.846	0.069995
563.221	0.128421
566.596	0.944899
569.97	0.336167
573.345	0.758283
576.72	0.145786
580.095	0.483355
583.47	0.706014
586.845	0.224483
590.219	0.62317
593.594	0.243763
596.969	0.506978
600.344	0.98648
603.719	0.934238
607.093	0.814855
610.468	0.003184
613.843	0.230687
617.218	0.710126
620.593	0.06852
623.967	0.210564
627.342	0.05845
630.717	0.417562
634.092	0.217993
637.467	0.419887
640.842	0.336174
644.216	0.0789
647.591	0.389189
650.966	0.081517
654.341	0.71195
657.716	0.251999
661.091	1.06882
664.465	0.581019
667.84	0.668587
671.215	0.634303
674.59	1.21169
677.965	0.906004
681.34	0.657128
684.714	0.811286
688.089	0.430871
691.464	0.515615
694.839	0.549944
698.214	0.351487
701.588	0.110063
704.963	1.1823
708.338	0.716596
711.713	0.294694
715.088	0.017406
718.462	0.848865
721.837	0.063622
725.212	0.898742
728.587	0.642019
731.962	0.704511
735.337	0.595158
738.711	0.538847
742.086	1.0301
745.461	0.6429
748.836	0.761254
752.211	0.079259
755.586	0.237063
758.96	0.045913
762.335	0.583256
765.71	1.34681
769.085	0.318153
772.46	0.370498
775.835	0.71955
779.209	0.277421
782.584	0.284338
785.959	0.280418
789.334	0.619099
792.709	0.673791
796.083	0.456728
799.458	0.402891
802.833	0.127922
806.208	0.470712
809.583	0.346866
812.957	1.12424
816.332	0.273199
819.707	0.117198
823.082	0.186506
826.457	0.164562
829.832	1.56572
833.206	0.944464
836.581	1.55623
839.956	0.504149
843.331	0.812911
846.706	1.73556
850.081	1.42133
853.455	0.99393
856.83	0.20917
860.205	1.16738
863.58	0.573838
866.955	0.845948
870.33	1.37227
873.704	1.15593
877.079	1.37626
880.454	1.3066
883.829	0.713259
887.204	1.28627
890.578	0.538206
893.953	0.024039
897.328	0.090268
900.703	0.090586
904.078	0.068981
907.452	0.430662
910.827	0.169505
914.202	0.330311
917.577	0.355404
920.952	0.527872
924.327	0.272213
927.701	0.110903
931.076	0.169385
934.451	0.062349
937.826	0.679144
941.201	0.000984
944.576	0.562788
947.95	0.781701
951.325	0.044556
954.7	0.825933
958.075	0.188489
961.45	0.897933
964.824	0.435667
968.199	0.567402
971.574	0.264055
974.949	0.621301
978.324	0.236663
981.698	0.061343
985.073	1.07927
988.448	0.797009
991.823	0.455615
995.198	0.922637
998.573	1.06378
1001.95	0.750452
1005.32	0.246533
1008.7	0.088767
1012.07	0.449176
1015.45	0.572081
1018.82	0.443941
1022.2	0.686464
1025.57	0.878383
1028.95	0.354098
1032.32	0.413432
1035.7	1.42714
1039.07	1.52586
1042.44	1.71411
1045.82	0.466027
1049.19	0.441795
1052.57	0.569253
1055.94	0.364181
1059.32	0.051564
1062.69	0.629547
1066.07	0.081978
1069.44	0.517171
1072.82	0.135331
1076.19	0.191657
1079.57	0.949943
1082.94	0.022606
1086.32	0.306095
1089.69	1.19867
1093.07	0.587172
1096.44	0.824176
1099.82	0.301293
1103.19	0.966903
1106.57	0.290627
1109.94	0.414233
1113.32	0.124639
1116.69	0.555997
1120.07	0.62295
1123.44	1.35726
1126.82	0.720443
1130.19	0.217388
1133.57	0.488111
1136.94	1.0497
1140.32	0.011644
1143.69	0.451076
1147.07	0.738967
1150.44	0.079813
1153.81	1.17491
1157.19	0.400612
1160.56	0.975294
1163.94	0.519778
1167.31	0.265955
1170.69	0.571437
1174.06	1.49369
1177.44	0.13235
1180.81	0.686103
1184.19	1.08896
1187.56	0.865224
1190.94	0.224712
1194.31	0.632512
1197.69	0.045966
1201.06	0.619209
1204.44	0.853442
1207.81	0.303376
1211.19	0.118248
1214.56	0.626138
1217.94	0.308947
1221.31	0.855137
1224.69	0.298968
1228.06	1.23852
1231.43	0.747152
1234.81	0.726429
1238.18	0.376139
1241.56	0.087697
1244.93	0.218067
1248.31	0.209677
1251.68	0.495739
1255.06	0.402126
1258.43	0.751516
1261.81	0.434879
1265.18	0.269389
1268.56	1.55337
1271.93	0.195717
1275.31	0.978121
1278.68	0.731084
1282.06	0.836115
1285.43	0.029086
1288.81	0.405811
1292.18	0.507142
1295.56	0.507274
1298.93	0.016735
