Measurement: Raman, 532 nm, unoriented, Raman Data Processed
Mineral: Fizelyite
Rruff sample: R090068
Ideal chemistry: Ag^1+^_5_Pb^2+^_14_Sb^3+^_21_S^2-^_48_
Locality: Herja(Kisbanya), Romania
Source: Mark N. Feinglos
Description: Dark grey metallic striated prismatic crystals, associated with galena and sphalerite.
Raman shift (cm-1)	intensity
149.932	0
152.825	4.69009
155.718	8.67626
158.61	6.98546
161.503	5.93563
164.396	9.92958
167.288	5.63955
170.181	5.89143
173.074	7.52639
175.966	1.7327
178.859	3.23666
181.752	5.49551
184.644	1.55497
187.537	1.73037
190.43	0.248192
193.323	0.272804
196.215	0.774864
199.108	0.700203
202.001	1.60411
204.893	3.66096
207.786	1.50976
210.679	5.18139
213.571	10.3569
216.464	9.99216
219.357	11.3873
222.25	13.6029
225.142	13.2115
228.035	16.3855
230.928	13.7241
233.82	13.1396
236.713	6.61915
239.606	9.35677
242.499	6.33971
245.391	8.19785
248.284	3.02313
251.177	5.49841
254.069	5.41248
256.962	7.36304
259.855	10.214
262.747	12.6842
265.64	17.1267
268.533	17.0252
271.425	15.4364
274.318	12.0742
277.211	11.5829
280.104	13.6292
282.996	11.4674
285.889	12.9443
288.782	8.51285
291.674	8.99209
294.567	7.79766
297.46	3.28449
300.353	4.68141
303.245	3.53711
306.138	6.16348
309.031	3.12426
311.923	6.17759
314.816	6.40653
317.709	8.7232
320.601	6.08271
323.494	8.68532
326.387	9.37415
329.279	11.4921
332.172	12.791
335.065	12.6389
337.958	10.9904
340.85	8.4127
343.743	6.73747
346.636	6.7445
349.528	6.48037
352.421	2.10667
355.314	3.22235
358.207	1.54112
361.099	4.24607
363.992	5.20885
366.885	2.13669
369.777	2.32525
372.67	2.22286
375.563	3.48521
378.455	0.737724
381.348	2.80187
384.241	3.35652
387.134	3.7147
390.026	2.61933
392.919	4.05114
395.812	4.38282
398.704	3.55049
401.597	5.94789
404.49	4.94165
407.382	4.96605
410.275	7.15111
413.168	3.70927
416.06	3.84106
418.953	2.97852
421.846	3.87211
424.739	4.39012
427.631	2.12082
430.524	3.6213
433.417	4.52184
436.309	0.714966
439.202	2.52508
442.095	0.419308
444.987	3.37336
447.88	2.50236
450.773	3.67337
453.666	1.56096
456.558	4.03452
459.451	3.62424
462.344	1.39613
465.236	3.76483
468.129	5.4257
471.022	4.28693
473.914	2.11923
476.807	0.800755
479.7	1.11272
482.592	3.20024
485.485	4.22213
488.378	1.62324
491.271	1.55127
494.163	1.82286
497.056	0.001415
499.949	1.27445
502.841	1.28249
505.734	3.16272
508.627	2.78088
511.519	3.67217
514.412	2.44317
517.305	3.44769
520.198	1.50718
523.09	1.92031
525.983	2.90369
528.876	0.667652
531.768	2.82562
534.661	2.43429
537.554	2.21775
540.447	1.36486
543.339	0.96056
546.232	2.40676
549.125	1.5519
552.017	2.7056
554.91	1.6862
557.803	0.738857
560.695	2.58577
563.588	1.79551
566.481	0.899151
569.374	3.38256
572.266	1.51839
575.159	1.81075
578.052	0.759762
580.944	2.63198
583.837	0.305954
586.73	2.05647
589.622	0.474739
592.515	0.251553
595.408	2.20909
598.301	1.7857
601.193	0.987274
604.086	1.78875
606.979	0.955452
609.871	1.35052
612.764	3.22998
615.657	2.48167
618.549	1.38174
621.442	3.04147
624.335	2.4668
627.227	4.13997
630.12	3.99324
633.013	1.03421
635.906	3.63831
638.798	3.30219
641.691	4.20094
644.584	3.79691
647.476	4.11634
650.369	0.140842
653.262	3.10767
656.154	2.48552
659.047	2.58953
661.94	1.07983
664.833	1.64785
667.725	2.48868
670.618	3.80281
673.511	2.85877
676.403	2.39709
679.296	4.00856
682.189	1.30886
685.082	2.37208
687.974	0.060165
690.867	1.53672
693.76	1.20813
696.652	3.45449
699.545	0.527142
702.438	0.771862
705.33	0.667206
708.223	3.10411
711.116	2.33273
714.009	0.385498
716.901	1.20385
719.794	1.95799
722.687	2.42455
725.579	1.93179
728.472	1.37375
731.365	3.73178
734.257	3.36846
737.15	1.5415
740.043	3.34453
742.936	0.461057
745.828	1.60326
748.721	0.033562
751.614	2.82801
754.506	1.34495
757.399	1.80389
760.292	1.77335
763.184	2.35003
766.077	2.88999
768.97	4.2029
771.862	1.369
774.755	0.169823
777.648	0.757957
780.541	2.90358
783.433	2.17258
786.326	2.90173
789.219	1.50612
792.111	0.614635
795.004	1.27571
797.897	2.82883
800.789	1.61342
803.682	3.30887
806.575	2.40438
809.467	3.49325
812.36	1.11089
815.253	2.63948
818.146	3.04412
821.038	2.76292
823.931	1.94558
826.824	1.4608
829.716	1.54215
832.609	2.64016
835.502	3.91375
838.394	3.69258
841.287	0.724644
844.18	1.32694
847.073	0.299351
849.965	2.64141
852.858	1.86431
855.751	2.93023
858.643	1.46032
861.536	0.283371
864.429	5.857
867.322	1.16891
870.214	0.81316
873.107	2.48167
876	1.62225
878.892	1.38529
881.785	1.718
884.678	1.95268
887.57	1.53306
890.463	1.65914
893.356	2.83617
896.249	1.52518
899.141	1.15867
902.034	3.42516
904.927	1.5509
907.819	3.15453
910.712	0.549522
913.605	1.53447
916.497	1.4085
919.39	2.91672
922.283	3.30536
925.176	0.630959
928.068	1.68423
930.961	4.44441
933.854	0.175257
936.746	3.88794
939.639	0.413902
942.532	2.76033
945.424	1.42488
948.317	0.376385
951.21	2.75502
954.102	2.66945
956.995	0.753624
959.888	0.53764
962.781	1.97742
965.673	1.0538
968.566	0.077328
971.459	2.18644
974.351	0.700665
977.244	0.671574
980.137	1.66336
983.029	0.976719
985.922	3.4935
988.815	0.827435
991.708	0.932652
994.6	2.52057
997.493	0.995899
1000.39	1.105
1003.28	0.953663
1006.17	0.517857
1009.06	0.777237
1011.96	1.64484
1014.85	0.788685
1017.74	0.676426
1020.63	1.48665
1023.53	2.73948
1026.42	1.40188
1029.31	0.798904
1032.2	2.71522
1035.1	0.908989
1037.99	1.5016
1040.88	3.36428
1043.78	3.01736
1046.67	0.862621
1049.56	1.2589
1052.45	1.57517
1055.35	1.51121
1058.24	1.43248
1061.13	1.19071
1064.03	0.932381
1066.92	0.463802
1069.81	0.367039
1072.7	2.17782
1075.6	2.5886
1078.49	1.58962
1081.38	1.92699
1084.27	2.77981
1087.17	3.05031
1090.06	0.213688
1092.95	5.51759
1095.85	2.08753
1098.74	2.57341
1101.63	2.1017
1104.52	1.22094
1107.42	2.217
1110.31	0.327389
1113.2	1.64413
1116.09	1.95821
1118.99	1.60194
1121.88	1.20237
1124.77	0.345867
1127.66	0.654911
1130.56	2.48634
1133.45	2.36814
1136.34	2.11347
1139.23	2.07633
1142.13	3.53343
1145.02	3.50524
1147.91	1.24127
1150.81	2.36016
1153.7	2.05803
1156.59	4.24789
1159.48	3.95702
1162.38	1.59079
1165.27	0.021358
1168.16	3.30524
1171.06	1.60359
1173.95	3.46193
1176.84	2.96817
1179.73	3.90979
1182.63	1.66775
1185.52	2.20345
1188.41	1.02204
1191.3	0.642273
1194.2	2.00133
1197.09	1.20564
1199.98	2.91312
1202.88	3.36873
1205.77	0.627911
1208.66	2.23917
1211.55	1.81531
1214.44	2.22343
1217.34	2.76295
1220.23	2.49347
1223.12	1.91406
1226.02	0.645451
1228.91	4.2318
1231.8	1.04987
1234.69	3.65706
1237.59	3.55595
1240.48	3.29492
1243.37	3.41439
1246.27	1.65169
1249.16	1.46642
1252.05	2.21974
1254.94	3.15417
1257.84	1.37027
1260.73	2.45416
1263.62	2.34898
1266.51	0.218872
1269.41	4.04042
1272.3	0.899326
1275.19	1.9992
1278.09	2.46087
1280.98	3.03905
1283.87	2.44485
1286.76	1.99372
1289.66	0.686073
1292.55	4.00569
1295.44	3.27914
1298.33	1.35186
1301.23	2.14999
1304.12	0
