Measurement: Raman, 532 nm, unoriented, Raman Data Processed
Mineral: Fluor-liddicoatite
Rruff sample: R060969
Ideal chemistry: Ca(Li_2_Al)Al_6_(Si_6_O_18_)(BO_3_)_3_(OH)_3_F
Locality: Antandro Komby mine, Manandona River, Antsirabe, Madagascar
Source: Michael Scott
Description: Red and green prismatic striated crystal, we studied the red part.
Raman shift (cm-1)	intensity
146.592	0
149.485	32.1114
152.378	37.1853
155.27	72.3188
158.163	66.7916
161.056	20.2764
163.948	30.9045
166.841	0.169373
169.734	24.2042
172.626	26.1621
175.519	25.4995
178.412	42.7622
181.305	28.1537
184.197	20.1307
187.09	19.3503
189.983	29.1559
192.875	71.8409
195.768	110.974
198.661	169.798
201.554	217.662
204.446	311.898
207.339	412.28
210.232	588.759
213.124	795.575
216.017	1091.86
218.91	1490.9
221.802	1786.06
224.695	1777.78
227.588	1532.78
230.481	1316.32
233.373	1157.44
236.266	1082.61
239.159	1095.75
242.051	1110.83
244.944	1011.61
247.837	862.23
250.729	665.918
253.622	511.032
256.515	377.45
259.407	300.521
262.3	279.038
265.193	246.124
268.086	249.048
270.978	232.349
273.871	228.057
276.764	216.812
279.656	221.553
282.549	240.882
285.442	198.309
288.334	169.104
291.227	134.368
294.12	37.8453
297.012	23.3867
299.905	47.6575
302.798	35.1777
305.691	5.85596
308.583	26.7417
311.476	74.7797
314.369	124.551
317.261	135.514
320.154	184.444
323.047	252.738
325.94	297.225
328.832	339.282
331.725	381.921
334.618	392.784
337.51	455.275
340.403	517.509
343.296	593.492
346.188	663.764
349.081	694.432
351.974	689.29
354.866	663.712
357.759	690.575
360.652	867.328
363.545	1141.53
366.437	1520.2
369.33	2106.25
372.223	2763.95
375.115	3306.49
378.008	3205.34
380.901	2509.33
383.793	1815.16
386.686	1313.25
389.579	1005.4
392.472	820.068
395.364	772.338
398.257	807.682
401.15	829.057
404.042	904.889
406.935	967.242
409.828	940.076
412.721	812.342
415.613	607.385
418.506	380.152
421.399	227.99
424.291	136.622
427.184	42.6486
430.077	30.3872
432.969	9.98474
435.862	5.65601
438.755	37.2937
441.647	8.9386
444.54	36.6562
447.433	8.22583
450.325	11.4331
453.218	3.19385
456.111	16.3071
459.004	20.9381
461.896	20.306
464.789	0.116577
467.682	12.342
470.574	9.8512
473.467	9.64416
476.36	6.68127
479.252	26.5894
482.145	35.501
485.038	61.0691
487.931	93.1475
490.823	79.2537
493.716	159.351
496.609	162.746
499.501	215.651
502.394	251.149
505.287	293.101
508.18	341.606
511.072	325.687
513.965	305.938
516.858	259.716
519.75	226.704
522.643	127.057
525.536	117.149
528.428	104.337
531.321	109.846
534.214	108.826
537.106	104.335
539.999	87.9913
542.892	117.065
545.785	87.4652
548.677	64.1664
551.57	58.8447
554.463	52.5945
557.355	25.4166
560.248	34.8436
563.141	11.8442
566.034	20.1194
568.926	17.2895
571.819	6.52734
574.712	15.7918
577.604	24.2109
580.497	52.2273
583.39	120.561
586.282	123.061
589.175	102.758
592.068	154.299
594.96	142.256
597.853	125.11
600.746	145.972
603.639	145.201
606.531	136.18
609.424	88.0619
612.317	89.1008
615.209	79.6298
618.102	64.3575
620.995	51.9104
623.888	55.4036
626.78	18.3768
629.673	8.82593
632.566	6.3479
635.458	9.91846
638.351	32.4767
641.244	13.5842
644.136	31.7772
647.029	29.147
649.922	19.5682
652.814	35.5958
655.707	62.2696
658.6	52.8223
661.493	87.535
664.385	82.7679
667.278	125.214
670.171	120.064
673.063	80.1494
675.956	101.095
678.849	103.121
681.741	95.0867
684.634	74.9734
687.527	2.77283
690.419	22.1277
693.312	1.4939
696.205	40.657
699.098	131.851
701.99	266.256
704.883	425.988
707.776	648.326
710.668	904.133
713.561	1185.8
716.454	1522.74
719.346	1847.15
722.239	2083.15
725.132	2144.78
728.025	1979.38
730.917	1582.55
733.81	1168.4
736.703	874.759
739.595	740.6
742.488	601.432
745.381	538.819
748.274	452.845
751.166	369.539
754.059	329.422
756.952	269.967
759.844	218.914
762.737	156.589
765.63	110.799
768.522	66.2997
771.415	16.8781
774.308	22.5235
777.201	10.8084
780.093	4.8797
782.986	20.8621
785.879	25.1323
788.771	46.9064
791.664	59.7217
794.557	46.4299
797.449	30.5544
800.342	12.8186
803.235	4.98901
806.127	19.0392
809.02	55.541
811.913	53.3659
814.806	45.3714
817.698	38.8405
820.591	40.0441
823.484	72.1064
826.376	108.141
829.269	136.547
832.162	158.976
835.054	157.874
837.947	160.668
840.84	146.583
843.732	85.155
846.625	60.5235
849.518	97.3877
852.411	91.6714
855.303	91.34
858.196	99.7071
861.089	107.783
863.981	116.983
866.874	113.425
869.767	114.73
872.659	101.441
875.552	93.73
878.445	87.0086
881.338	105.634
884.23	85.0381
887.123	70.1903
890.016	68.0687
892.908	46.1113
895.801	44.3008
898.694	25.9854
901.587	43.5623
904.479	8.07104
907.372	1.41614
910.265	10.5472
913.157	4.2973
916.05	10.7429
918.943	11.4738
921.835	16.0812
924.728	8.35815
927.621	50.6264
930.514	64.4259
933.406	90.691
936.299	92.882
939.192	105.656
942.084	103.927
944.977	111.15
947.87	126.841
950.762	110.095
953.655	110.358
956.548	118.167
959.441	107.121
962.333	111.059
965.226	116.784
968.119	136.187
971.011	119.177
973.904	127.898
976.797	97.7534
979.689	66.2084
982.582	74.1525
985.475	49.1823
988.367	24.147
991.26	9.08191
994.153	24.1236
997.046	18.898
999.938	19.7566
1002.83	13.5627
1005.72	9.95843
1008.62	32.1891
1011.51	82.4859
1014.4	77.717
1017.29	82.3778
1020.19	143.181
1023.08	128.712
1025.97	165.073
1028.87	200.276
1031.76	196.804
1034.65	195.745
1037.54	232.291
1040.44	300.682
1043.33	342.538
1046.22	410.905
1049.11	500.82
1052.01	587.438
1054.9	718.794
1057.79	858.404
1060.68	998.61
1063.58	1064.35
1066.47	1065.43
1069.36	996.311
1072.26	846.524
1075.15	652.561
1078.04	453.672
1080.93	335.702
1083.83	191.9
1086.72	136.965
1089.61	115.708
1092.51	98.2928
1095.4	97.5781
1098.29	97.9214
1101.18	73.0653
1104.08	85.4127
1106.97	79.7596
1109.86	121.457
1112.75	139.024
1115.65	138.907
1118.54	168.989
1121.43	233.813
1124.32	250.826
1127.22	301.361
1130.11	339.395
1133	344.584
1135.89	338.015
1138.79	260.043
1141.68	208.92
1144.57	134.471
1147.47	92.9402
1150.36	12.5164
1153.25	17.6515
1156.14	3.28095
1159.04	7.87335
1161.93	3.02515
1164.82	33.2054
1167.71	4.55078
1170.61	2.52631
1173.5	6.41992
1176.39	20.4735
1179.29	49.2747
1182.18	34.3787
1185.07	36.6051
1187.96	33.235
1190.86	40.2321
1193.75	53.2456
1196.64	49.8345
1199.53	42.8195
1202.43	60.8693
1205.32	75.1344
1208.21	75.9929
1211.11	51.5695
1214	63.4834
1216.89	76.6712
1219.78	41.68
1222.68	59.9994
1225.57	48.8655
1228.46	35.8332
1231.35	29.0196
1234.25	31.5952
1237.14	20.4428
1240.03	26.3912
1242.92	41.7051
1245.82	21.8752
1248.71	39.9055
1251.6	24.9711
1254.5	8.52838
1257.39	55.3136
1260.28	36.6749
1263.17	8.74225
1266.07	31.6533
1268.96	22.9877
1271.85	14.6262
1274.74	21.2318
1277.64	25.0491
1280.53	3.09228
