Measurement: Raman, 532 nm, unoriented, Raman Data Processed
Mineral: Fluorapatite
Rruff sample: R050194
Ideal chemistry: Ca_5_(PO_4_)_3_F
Locality: Siglo XX mine, Llallagua, Bolivia
Source: Dave Bunk Minerals
Description: Purple crystal fragments
Measured chemistry: Ca_5.00_(P_1.00_O_4_)_3_F_1.00_
Raman shift (cm-1)	intensity
147.772	0
150.665	82.995
153.558	242.568
156.451	328.397
159.343	171.12
162.236	75.4709
165.129	1.95566
168.021	55.2016
170.914	193.312
173.807	313.792
176.699	334.168
179.592	228.202
182.485	335.504
185.377	201.381
188.27	98.8507
191.163	45.02
194.056	36.6601
196.948	59.0335
199.841	153.061
202.734	116.2
205.626	186.269
208.519	7.60199
211.412	22.5011
214.304	12.9287
217.197	52.7448
220.09	24.4206
222.983	47.3965
225.875	106.287
228.768	50.7902
231.661	115.065
234.553	245.819
237.446	119.998
240.339	174.163
243.232	85.7657
246.124	119.008
249.017	135.635
251.91	152.456
254.802	138.302
257.695	218.021
260.588	340.927
263.48	291.802
266.373	266.209
269.266	300.846
272.159	352.528
275.051	305.647
277.944	277.762
280.837	160.531
283.729	258.764
286.622	73.5721
289.515	204.031
292.407	159.083
295.3	371.248
298.193	22.1731
301.086	57.4761
303.978	111.959
306.871	269.889
309.764	138.292
312.656	184.317
315.549	200.796
318.442	245.771
321.334	244.657
324.227	148.477
327.12	70.165
330.012	25.0886
332.905	62.1611
335.798	59.879
338.691	101.362
341.583	154.744
344.476	160.254
347.369	270.033
350.261	130.461
353.154	33.3959
356.047	142.856
358.94	227.276
361.832	131.07
364.725	148.542
367.618	209.242
370.51	146.887
373.403	59.2134
376.296	146.247
379.188	220.911
382.081	349.432
384.974	113.565
387.866	106.851
390.759	7.8624
393.652	45.8289
396.545	103.121
399.437	93.0687
402.33	29.877
405.223	92.9549
408.115	77.4135
411.008	136.65
413.901	146.334
416.793	71.8607
419.686	21.0588
422.579	8.28098
425.472	10.5272
428.364	153.274
431.257	368.682
434.15	316.195
437.042	215.652
439.935	414.383
442.828	322.499
445.721	294.609
448.613	142.768
451.506	282.959
454.399	138.807
457.291	195
460.184	166.643
463.077	27.0995
465.969	8.56547
468.862	134.135
471.755	20.0042
474.647	127.31
477.54	18.0395
480.433	9.29981
483.326	115.67
486.218	70.8084
489.111	70.5628
492.004	198.79
494.896	182.653
497.789	84.184
500.682	297.322
503.575	79.3288
506.467	84.9659
509.36	42.1923
512.253	92.9385
515.145	164.026
518.038	172.06
520.931	241.474
523.823	53.781
526.716	55.0615
529.609	192.216
532.501	127.95
535.394	95.5054
538.287	33.1262
541.18	132.526
544.072	23.3424
546.965	81.9497
549.858	0.992645
552.75	187.066
555.643	58.7894
558.536	149.984
561.428	273.398
564.321	296.949
567.214	24.096
570.107	126.717
572.999	130.713
575.892	248.142
578.785	391.359
581.677	421.026
584.57	352.509
587.463	220.229
590.356	404.726
593.248	289.8
596.141	301.54
599.034	162.907
601.926	376.211
604.819	295.045
607.712	375.976
610.604	229.47
613.497	327.475
616.39	189.359
619.283	76.478
622.175	129.373
625.068	293.288
627.961	330.691
630.853	26.9908
633.746	21.8555
636.639	87.2548
639.531	9.53195
642.424	66.8352
645.317	38.613
648.21	52.4397
651.102	160.377
653.995	152.082
656.888	244.339
659.78	6.14248
662.673	174.725
665.566	196.465
668.458	182.39
671.351	187.527
674.244	187.184
677.136	216.995
680.029	195.831
682.922	176.556
685.815	105.135
688.707	242.528
691.6	235.69
694.493	220.637
697.385	19.5001
700.278	301.971
703.171	138.048
706.063	94.13
708.956	25.9645
711.849	55.8304
714.741	138.845
717.634	52.8616
720.527	66.7242
723.42	46.0198
726.312	190.414
729.205	3.00703
732.098	201.324
734.99	106.572
737.883	281.021
740.776	33.5605
743.668	129.941
746.561	30.8341
749.454	148.828
752.347	5.95136
755.239	28.3076
758.132	180.261
761.025	73.0548
763.917	209.498
766.81	191.154
769.703	322.581
772.596	116.55
775.488	342.279
778.381	132.04
781.274	112.867
784.166	62.1152
787.059	105.561
789.952	36.7279
792.844	78.892
795.737	142.286
798.63	201.028
801.523	117.226
804.415	151.716
807.308	90.3073
810.201	103.323
813.093	24.4993
815.986	252.501
818.879	110.12
821.771	143.213
824.664	236.791
827.557	145.911
830.449	22.9861
833.342	103.261
836.235	188.713
839.128	317.311
842.02	143.713
844.913	2.62577
847.806	155.576
850.698	153.963
853.591	184.468
856.484	107.718
859.376	215.094
862.269	12.7821
865.162	8.49351
868.055	175.345
870.947	229.308
873.84	47.7841
876.733	33.5541
879.625	26.223
882.518	109.867
885.411	192.305
888.303	126.117
891.196	281.482
894.089	19.6465
896.982	110.923
899.874	208.372
902.767	134.743
905.66	112.954
908.552	120.877
911.445	130.745
914.338	343.38
917.231	218.865
920.123	288.437
923.016	169.916
925.909	58.5022
928.801	409.638
931.694	340.258
934.587	290.483
937.479	201.872
940.372	207.582
943.265	38.4438
946.158	33.2863
949.05	5.37521
951.943	9.17622
954.836	424.626
957.728	537.563
960.621	1271.09
963.514	2736.83
966.406	3985.47
969.299	1408.41
972.192	686.074
975.085	325.563
977.977	208.446
980.87	119.355
983.763	158.807
986.655	160.554
989.548	187.533
992.441	24.4622
995.333	25.8438
998.226	181.438
1001.12	22.5305
1004.01	220.441
1006.9	83.8736
1009.8	25.3194
1012.69	195.901
1015.58	315.47
1018.48	208.607
1021.37	89.1311
1024.26	221.015
1027.15	37.6521
1030.05	159.847
1032.94	301.321
1035.83	297.724
1038.72	387.609
1041.62	101.941
1044.51	307.606
1047.4	273.676
1050.3	301.599
1053.19	296.078
1056.08	327.319
1058.97	293.694
1061.87	220.319
1064.76	86.249
1067.65	72.8277
1070.54	67.0315
1073.44	23.7263
1076.33	113.353
1079.22	136.569
1082.11	291.055
1085.01	345.517
1087.9	290.739
1090.79	93.8395
1093.68	29.4824
1096.58	91.7666
1099.47	409.586
1102.36	489.912
1105.26	234.928
1108.15	109.387
1111.04	259.58
1113.93	307.368
1116.83	315.013
1119.72	176.058
1122.61	382.668
1125.51	263.983
1128.4	165.542
1131.29	192.335
1134.18	160.552
1137.08	192.037
1139.97	124.82
1142.86	8.0138
1145.75	184.549
1148.65	49.3374
1151.54	136.294
1154.43	26.3545
1157.33	25.1459
1160.22	156.681
1163.11	333.413
1166	268.715
1168.89	182.436
1171.79	65.3353
1174.68	243.793
1177.57	190.369
1180.47	14.8602
1183.36	197.915
1186.25	172.307
1189.14	31.9669
1192.04	12.8511
1194.93	62.9058
1197.82	38.0006
1200.71	41.1307
1203.61	275.716
1206.5	297.028
1209.39	243.011
1212.29	104.397
1215.18	165.025
1218.07	140.982
1220.96	14.9283
1223.86	287.394
1226.75	374.132
1229.64	392.083
1232.54	6.04546
1235.43	156.663
1238.32	25.2725
1241.21	81.8107
1244.11	246.08
1247	319.054
1249.89	138.054
1252.78	9.27253
1255.68	2.38838
1258.57	173.595
1261.46	226.281
1264.35	142.042
1267.25	23.5795
