Measurement: Raman, 780 nm, unoriented, Raman Data Processed
Mineral: Fluorcalciomicrolite
Rruff sample: R070100
Ideal chemistry: (Ca,Na)_2_Ta^5+^_2_O_6_F
Locality: Urucum mine, near Galilea, Minas Gerais, Brazil
Source: Michael Scott
Description: Yellow octahedra on ball of colorless stokesite, associated with titanite
Measured chemistry: (Ca_1.30_Na_0.40_U_0.04_Mn_0.02_)(Ta_1.64_Nb_0.15_Ti_0.12_Sn_0.09_)O_6_(F_0.50_O_0.25_)
Raman shift (cm-1)	intensity
111.931	0
115.305	10.8738
118.68	3.89478
122.055	14.2188
125.43	16.1099
128.805	14.0361
132.179	1.12109
135.554	4.93262
138.929	1.33472
142.304	7.1499
145.679	8.69263
149.054	16.8723
152.428	21.52
155.803	16.9402
159.178	13.6182
162.553	13.6184
165.928	11.251
169.302	3.87549
172.677	1.34985
176.052	1.85742
179.427	1.31982
182.802	10.5928
186.177	0.240479
189.551	2.04639
192.926	6.33911
196.301	4.8645
199.676	3.90405
203.051	12.0767
206.425	19.4517
209.8	11.3774
213.175	10.1553
216.55	15.3726
219.925	22.5115
223.299	23.9751
226.674	29.3289
230.049	36.2566
233.424	37.4888
236.799	52.4587
240.173	44.395
243.548	49.4976
246.923	54.542
250.298	57.814
253.673	48.634
257.048	57.5894
260.422	62.8296
263.797	61.1768
267.172	58.4114
270.547	66.0632
273.922	68.5183
277.296	71.1782
280.671	62.5747
284.046	58.8254
287.421	63.3887
290.796	67.8423
294.171	68.4778
297.545	61.2732
300.92	51.4714
304.295	41.3486
307.67	46.5383
311.045	38.6631
314.42	35.771
317.794	28.1626
321.169	26.0476
324.544	16.6062
327.919	9.06445
331.293	2.35864
334.668	5.24487
338.043	3.37353
341.418	5.9834
344.793	4.4458
348.168	4.51465
351.542	5.22266
354.917	0.917969
358.292	6.39404
361.667	7.04785
365.042	14.0828
368.416	23.21
371.791	20.9678
375.166	18.634
378.541	27.4185
381.916	30.6602
385.291	37.1716
388.665	39.3831
392.04	43.5781
395.415	44.1523
398.79	45.8589
402.165	46.3696
405.539	47.218
408.914	43.9749
412.289	37.3381
415.664	43.7622
419.039	55.4675
422.413	50.4539
425.788	36.9021
429.163	40.4014
432.538	47.748
435.913	45.3198
439.288	35.2788
442.662	34.21
446.037	34.7809
449.412	33.6901
452.787	30.1892
456.162	35.6401
459.536	28.9423
462.911	32.1555
466.286	25.4331
469.661	27.514
473.036	36.8481
476.411	26.8426
479.785	37.156
483.16	38.6992
486.535	35.3676
489.91	37.2494
493.285	32.4902
496.659	31.1746
500.034	19.3355
503.409	25.0425
506.784	13.7428
510.159	11.0442
513.534	9.09644
516.908	8.39368
520.283	1.88843
523.658	5.80469
527.033	3.45068
530.408	7.65369
533.782	5.30359
537.157	9.46204
540.532	5.8313
543.907	3.21265
547.282	4.91797
550.656	9.33533
554.031	15.4377
557.406	19.3842
560.781	39.1317
564.156	36.2207
567.53	43.1704
570.905	45.7449
574.28	61.7426
577.655	69.6912
581.03	85.2266
584.405	92.2096
587.779	100.984
591.154	106.835
594.529	110.114
597.904	117.26
601.279	142.534
604.654	149.623
608.028	165.838
611.403	177.982
614.778	188.761
618.153	199.974
621.528	217.679
624.902	231.275
628.277	235.185
631.652	253.573
635.027	267.438
638.402	269.587
641.776	271.473
645.151	275.365
648.526	280.037
651.901	276.566
655.276	268.486
658.65	268.506
662.025	260.377
665.4	254.862
668.775	250.22
672.15	243.986
675.525	227.085
678.899	213.707
682.274	192.926
685.649	165.249
689.024	141.058
692.399	120.057
695.774	93.9536
699.148	70.6826
702.523	50.8245
705.898	38.5523
709.273	15.4637
712.648	6.10681
716.022	5.12024
719.397	8.22144
722.772	12.1243
726.147	14.8109
729.522	13.1646
732.896	13.7109
736.271	6.39307
739.646	3.72559
743.021	9.46594
746.396	23.5638
749.77	37.9187
753.145	50.0109
756.52	66.2728
759.895	85.5289
763.27	114.271
766.645	140.531
770.019	168.207
773.394	189.674
776.769	212.151
780.144	236.662
783.519	260.709
786.894	287.083
790.268	322.884
793.643	338.569
797.018	350.365
800.393	362.638
803.768	377.074
807.142	393.541
810.517	386.953
813.892	387.589
817.267	388.54
820.642	382.666
824.016	365.476
827.391	354.691
830.766	336.918
834.141	315.421
837.516	296.91
840.89	271.908
844.265	256.874
847.64	234.013
851.015	219.411
854.39	195.7
857.765	182.054
861.139	162.929
864.514	148.005
867.889	133.847
871.264	120.21
874.639	108.359
878.013	95.4825
881.388	81.879
884.763	80.074
888.138	60.3781
891.513	57.7483
894.888	40.3877
898.262	32.0311
901.637	23.4096
905.012	14.996
908.387	5.10791
911.762	1.05823
915.136	5.21014
918.511	5.37012
921.886	10.497
925.261	8.51398
928.636	10.4744
932.01	4.51703
935.385	7.39105
938.76	3.73688
942.135	0.985168
945.51	3.97925
948.885	3.80664
952.259	6.4397
955.634	12.5941
959.009	14.9572
962.384	16.959
965.759	21.8949
969.133	25.0239
972.508	28.2479
975.883	27.79
979.258	33.1531
982.633	32.6078
986.008	30.0132
989.382	30.2541
992.757	29.6542
996.132	28.1605
999.507	26.7272
1002.88	25.6463
1006.26	24.6173
1009.63	24.8812
1013.01	23.0228
1016.38	23.5624
1019.76	22.0281
1023.13	21.618
1026.51	25.081
1029.88	24.9183
1033.26	21.3452
1036.63	21.8013
1040.01	22.2579
1043.38	24.0834
1046.75	23.3993
1050.13	24.0767
1053.5	24.3571
1056.88	22.7659
1060.25	22.2955
1063.63	25.2371
1067	22.4316
1070.38	24.815
1073.75	25.0737
1077.13	24.1192
1080.5	26.788
1083.88	26.9274
1087.25	30.5042
1090.63	25.6148
1094	26.1085
1097.38	26.8619
1100.75	25.0952
1104.13	24.8611
1107.5	30.9038
1110.88	31.4505
1114.25	28.5541
1117.62	27.1152
1121	32.7206
1124.38	30.9928
1127.75	35.4368
1131.12	29.4642
1134.5	24.7719
1137.87	27.1873
1141.25	21.6545
1144.62	17.7685
1148	11.8933
1151.37	8.80731
1154.75	4.7085
1158.12	2.39795
1161.5	1.59717
1164.87	3.69482
1168.25	4.05896
1171.62	4.02539
1175	1.61939
1178.37	3.06567
1181.75	0.29248
1185.12	0.636353
1188.5	5.65771
1191.87	14.6603
1195.25	28.6742
1198.62	40.354
1202	56.9855
1205.37	68.7363
1208.74	80.1022
1212.12	97.9335
1215.49	110.646
1218.87	123.097
1222.24	135.949
1225.62	155.927
1228.99	152.24
1232.37	165.295
1235.74	165.772
1239.12	172.289
1242.49	163.737
1245.87	164.641
1249.24	154.944
1252.62	154.581
1255.99	139.895
1259.37	120.226
1262.74	104.606
1266.12	80.6951
1269.49	69.7881
1272.87	52.2695
1276.24	29.5408
1279.62	4.95679
1282.99	0.329346
