Measurement: Raman, 532 nm, unoriented, Raman Data Processed
Mineral: Fluorcalciomicrolite
Rruff sample: R070100
Ideal chemistry: (Ca,Na)_2_Ta^5+^_2_O_6_F
Locality: Urucum mine, near Galilea, Minas Gerais, Brazil
Source: Michael Scott
Description: Yellow octahedra on ball of colorless stokesite, associated with titanite
Measured chemistry: (Ca_1.30_Na_0.40_U_0.04_Mn_0.02_)(Ta_1.64_Nb_0.15_Ti_0.12_Sn_0.09_)O_6_(F_0.50_O_0.25_)
Raman shift (cm-1)	intensity
206.516	0
209.409	0.812378
212.301	22.1127
215.194	37.087
218.087	44.7659
220.98	40.6742
223.872	36.9421
226.765	22.6005
229.658	23.9412
232.55	27.2609
235.443	31.1744
238.336	36.8308
241.228	37.6779
244.121	37.7048
247.014	32.5281
249.906	32.2299
252.799	29.1427
255.692	34.257
258.585	39.2212
261.477	36.3163
264.37	33.6775
267.263	31.8412
270.155	30.3865
273.048	34.9147
275.941	30.7752
278.834	32.397
281.726	32.4741
284.619	29.2861
287.512	33.8676
290.404	29.8795
293.297	29.0888
296.19	24.9866
299.082	21.1895
301.975	23.2925
304.868	18.1636
307.76	16.9268
310.653	17.0433
313.546	13.4011
316.439	11.7969
319.331	4.59546
322.224	3.85498
325.117	2.28674
328.009	2.09802
330.902	0.948975
333.795	1.52673
336.688	1.45483
339.58	3.37134
342.473	0.795044
345.366	1.35742
348.258	3.32202
351.151	2.85144
354.044	0.079224
356.936	3.13794
359.829	3.87463
362.722	0.650024
365.615	2.41614
368.507	5.97534
371.4	5.32581
374.293	5.5636
377.185	7.74036
380.078	9.67896
382.971	8.3512
385.863	8.04627
388.756	13.0684
391.649	13.3795
394.541	8.0481
397.434	13.3417
400.327	7.48792
403.22	11.0662
406.112	13.1943
409.005	12.0079
411.898	13.4916
414.79	16.0236
417.683	11.7508
420.576	7.21619
423.469	6.88794
426.361	6.065
429.254	7.82196
432.147	7.80273
435.039	5.34186
437.932	5.82684
440.825	6.07257
443.717	7.18738
446.61	5.61926
449.503	5.78302
452.396	4.80463
455.288	4.27161
458.181	1.44128
461.074	3.0025
463.966	5.89795
466.859	0.091858
469.752	3.69196
472.644	9.05298
475.537	12.722
478.43	15.5034
481.322	16.84
484.215	18.3533
487.108	21.4926
490.001	28.381
492.893	32.0416
495.786	28.2981
498.679	28.7563
501.571	26.935
504.464	27.3299
507.357	20.0944
510.25	14.3898
513.142	14.6228
516.035	10.1833
518.928	9.12262
521.82	6.49737
524.713	1.67694
527.606	0.522034
530.498	3.29205
533.391	0.13501
536.284	0.781494
539.177	0.131653
542.069	5.45892
544.962	5.70013
547.855	3.04748
550.747	0.119995
553.64	0.629517
556.533	2.74158
559.425	5.99719
562.318	5.14123
565.211	11.3356
568.104	11.8675
570.996	17.0829
573.889	21.4094
576.782	25.8617
579.674	29.6403
582.567	34.2532
585.46	36.6329
588.352	45.4226
591.245	47.5314
594.138	54.7396
597.03	57.8424
599.923	63.1613
602.816	70.2196
605.709	70.8986
608.601	79.2268
611.494	82.579
614.387	88.6359
617.279	98.8021
620.172	109.354
623.065	112.825
625.957	113.431
628.85	118.273
631.743	123.284
634.636	127.349
637.528	130.147
640.421	133.558
643.314	134.197
646.206	136.252
649.099	141.18
651.992	140.708
654.885	142.834
657.777	145.216
660.67	135.815
663.563	137.197
666.455	129.835
669.348	133.802
672.241	122.593
675.133	121.677
678.026	114.731
680.919	110.837
683.812	95.1763
686.704	86.9672
689.597	80.8568
692.49	73.3678
695.382	57.0059
698.275	46.5858
701.168	36.473
704.06	28.8625
706.953	21.4344
709.846	13.9003
712.739	6.03064
715.631	0.925293
718.524	2.10547
721.417	4.86133
724.309	4.3302
727.202	6.61218
730.095	6.5188
732.987	8.33337
735.88	2.06427
738.773	1.40765
741.665	2.80408
744.558	6.90247
747.451	11.2788
750.344	16.5541
753.236	20.5821
756.129	24.4738
759.022	32.3096
761.914	40.0372
764.807	53.0595
767.7	59.8711
770.592	69.2588
773.485	77.1604
776.378	88.1376
779.271	95.8977
782.163	102.139
785.056	108.86
787.949	117.35
790.841	124.968
793.734	133.405
796.627	137.968
799.519	138.311
802.412	141.951
805.305	139.924
808.198	143.27
811.09	136.874
813.983	137.367
816.876	135.412
819.768	135.624
822.661	132.813
825.554	121.609
828.447	111.625
831.339	105.88
834.232	91.5562
837.125	90.2532
840.017	84.2028
842.91	75.4733
845.803	70.7024
848.695	58.6574
851.588	53.6169
854.481	50.9201
857.374	47.332
860.266	38.9543
863.159	32.8576
866.052	33.8379
868.944	27.674
871.837	22.1012
874.73	19.0502
877.622	14.1237
880.515	10.037
883.408	6.25305
886.301	7.56152
889.193	6.8219
892.086	6.32214
894.979	5.29462
897.871	4.50201
900.764	3.16589
903.657	2.04431
906.549	1.33136
909.442	0.091858
912.335	0.766052
915.227	1.29596
918.12	1.9762
921.013	1.62811
923.906	0.227295
926.798	0.14502
929.691	0.573303
932.584	0.1604
935.476	0.504456
938.369	0.436584
941.262	3.24658
944.154	4.72382
947.047	0.123962
949.94	1.20276
952.833	0.167419
955.725	0.72876
958.618	2.26672
961.511	4.6413
964.403	7.80792
967.296	7.20874
970.189	9.01209
973.082	7.80987
975.974	9.27435
978.867	8.16443
981.76	10.4591
984.652	11.0344
987.545	13.4366
990.438	11.93
993.33	13.9376
996.223	13.7045
999.116	14.4567
1002.01	14.5732
1004.9	12.1678
1007.79	13.1502
1010.69	12.3907
1013.58	13.9253
1016.47	12.4165
1019.37	11.6774
1022.26	10.6368
1025.15	9.35632
1028.04	11.894
1030.94	10.3914
1033.83	9.86597
1036.72	9.70093
1039.61	6.06354
1042.51	7.53864
1045.4	8.06647
1048.29	8.25787
1051.18	6.4245
1054.08	5.35547
1056.97	5.54968
1059.86	4.84448
1062.76	5.48065
1065.65	3.7218
1068.54	1.62445
1071.43	6.10565
1074.33	7.38385
1077.22	7.10626
1080.11	2.82703
1083	3.23401
1085.9	4.05536
1088.79	4.59936
1091.68	3.41229
1094.58	6.10858
1097.47	3.43353
1100.36	5.13098
1103.25	3.41901
1106.15	2.95673
1109.04	1.65216
1111.93	3.83234
1114.82	0.571228
1117.72	3.54681
1120.61	2.3067
1123.5	2.96936
1126.39	0.049622
1129.29	2.22784
1132.18	1.37372
1135.07	2.47443
1137.96	1.39612
1140.86	0.432983
1143.75	2.24817
1146.64	2.55762
1149.54	1.56207
1152.43	2.61768
1155.32	1.0683
1158.21	1.12384
1161.11	1.01123
1164	0.407043
1166.89	2.10077
1169.79	1.28278
1172.68	0.976318
1175.57	2.62799
1178.46	2.46863
1181.36	4.93185
1184.25	2.25113
1187.14	0.634735
1190.03	0.184357
1192.93	0.400574
1195.82	2.16647
1198.71	3.54489
1201.61	3.64163
1204.5	4.39645
1207.39	2.90054
1210.28	6.27658
1213.18	2.97247
1216.07	0.310211
1218.96	0.88324
1221.85	2.57025
1224.75	3.56384
1227.64	4.91217
1230.53	2.0751
1233.42	2.45148
1236.32	1.73138
1239.21	0.759949
1242.1	3.1633
1244.99	2.8627
1247.89	3.63062
1250.78	3.38428
1253.67	3.05618
1256.57	6.67487
1259.46	4.67752
1262.35	4.46851
1265.24	1.01865
1268.14	5.01172
1271.03	4.39551
1273.92	2.68201
1276.82	1.52512
1279.71	3.27039
1282.6	2.71335
1285.49	1.52557
1288.39	2.78152
1291.28	1.84405
1294.17	2.73721
1297.06	1.86859
1299.96	1.24762
