Measurement: Raman, 780 nm, unoriented, Raman Data Processed
Mineral: Fluoro-richterite
Rruff sample: R060290
Ideal chemistry: Na(NaCa)Mg_5_Si_8_O_22_F_2_
Locality: Koschka Valley, Badakshan Province, Afghanistan
Source: Herb Obodda
Description: Tan colored transparent prismatic crystal
Raman shift (cm-1)	intensity
98.2828	0
101.658	46.0059
105.032	83.6387
108.407	179.092
111.782	243
115.157	164.123
118.532	62.291
121.907	8.39844
125.281	24.8613
128.656	19.9062
132.031	2.99219
135.406	12.0293
138.781	27.207
142.155	109.844
145.53	150.859
148.905	211.965
152.28	224.121
155.655	307.981
159.03	368.674
162.404	357.685
165.779	298.318
169.154	292.369
172.529	283.695
175.904	262.965
179.278	210.01
182.653	152.154
186.028	184.49
189.403	227.106
192.778	195.668
196.153	163.502
199.527	196.928
202.902	272.644
206.277	317.25
209.652	290.641
213.027	275.324
216.401	280.516
219.776	329.135
223.151	344.807
226.526	338.789
229.901	319.441
233.275	242.432
236.65	210.412
240.025	160.082
243.4	111.975
246.775	86.0039
250.15	61.6367
253.524	17.8242
256.899	43.7656
260.274	11.3047
263.649	28.5547
267.024	25.7324
270.399	39.0273
273.773	4.69531
277.148	47.0898
280.523	47.0234
283.898	46.0625
287.273	17.1289
290.647	24.0684
294.022	28.6719
297.397	33.1055
300.772	14.6816
304.147	27.6445
307.522	24.0078
310.896	47.1504
314.271	61.1875
317.646	10.4648
321.021	34.8789
324.396	44.1426
327.77	53.9238
331.145	63.502
334.52	12.6191
337.895	69.3594
341.27	81.1484
344.644	100.857
348.019	68.1465
351.394	24.7363
354.769	97.0508
358.144	133.19
361.519	174.303
364.893	115.877
368.268	120.471
371.643	166.42
375.018	141.74
378.393	77.3008
381.767	52.9883
385.142	44.5547
388.517	114.543
391.892	164.543
395.267	125.027
398.642	129.754
402.016	135.07
405.391	148.699
408.766	114.211
412.141	66.582
415.516	3.46875
418.89	28.7578
422.265	77.6406
425.64	36.2031
429.015	50.3438
432.39	142.301
435.765	109.488
439.139	135.07
442.514	122.027
445.889	86.0547
449.264	108.07
452.639	182.074
456.014	99.9961
459.388	140.156
462.763	156.356
466.138	158.894
469.513	231.914
472.887	127.742
476.262	135.894
479.637	129.812
483.012	177.078
486.387	109.301
489.762	140.688
493.136	134.051
496.511	140.394
499.886	103.731
503.261	103.738
506.636	74.1094
510.01	30.7539
513.385	46.0781
516.76	100.699
520.135	29.8438
523.51	2.53516
526.885	17.3555
530.259	72.75
533.634	34.0273
537.009	24.8359
540.384	1.38672
543.759	1.59375
547.134	0.730469
550.508	1.71484
553.883	9.19141
557.258	34.1094
560.633	49.3398
564.008	71.8906
567.382	54.4844
570.757	43.6836
574.132	12.7148
577.507	16.9727
580.882	51.4727
584.256	2.90625
587.631	21.2305
591.006	92.5625
594.381	22.3047
597.756	3.52344
601.131	18.0273
604.505	33.6602
607.88	23.6445
611.255	24.6562
614.63	5.0625
618.005	46.4297
621.38	0.328125
624.754	87.8164
628.129	134.094
631.504	80.8711
634.879	116.562
638.254	158.926
641.628	179.656
645.003	117.012
648.378	58.9375
651.753	10.9414
655.128	10.707
658.503	93.8008
661.877	142.41
665.252	189.305
668.627	401.871
672.002	594.168
675.377	799.359
678.751	1093.09
682.126	1156.59
685.501	861.199
688.876	530.305
692.251	277.133
695.625	261.758
699	185.707
702.375	170.078
705.75	157.797
709.125	139.309
712.5	144.707
715.874	195.305
719.249	213.582
722.624	150.168
725.999	151.656
729.374	120.125
732.749	98.7227
736.123	116.629
739.498	75.2773
742.873	77.9766
746.248	96.2266
749.623	140.199
752.997	65.3203
756.372	80.9375
759.747	106.254
763.122	170.379
766.497	71.9141
769.871	32.1719
773.246	0.613281
776.621	40.0156
779.996	17.9102
783.371	23.0391
786.745	74.9805
790.12	80.9219
793.495	68.0508
796.87	127.348
800.245	66.5664
803.62	14.3203
806.994	104.93
810.369	16.9414
813.744	40.7109
817.119	71.8633
820.494	75.5391
823.869	116.566
827.243	32.8672
830.618	176.699
833.993	113.184
837.368	145.598
840.743	166.731
844.117	166.16
847.492	257.148
850.867	148.141
854.242	205.906
857.617	205.812
860.991	189.207
864.366	164.949
867.741	94.3594
871.116	120.418
874.491	116.844
877.866	85.3711
881.24	152.957
884.615	127.602
887.99	80.1094
891.365	29.8047
894.74	81.9609
898.115	0.6875
901.489	17.9688
904.864	8.07031
908.239	46.4336
911.614	19.457
914.989	36.6758
918.363	115.004
921.738	147.18
925.113	89.8984
928.488	72.2422
931.863	85.6211
935.237	81.7812
938.612	163.555
941.987	106.836
945.362	128.106
948.737	172.035
952.112	135.699
955.486	90.4219
958.861	2.69141
962.236	95.7617
965.611	15.4609
968.986	46.7891
972.361	78.6055
975.735	28.8047
979.11	26.2461
982.485	16.8594
985.86	71.9805
989.235	148.707
992.609	65.0742
995.984	139.297
999.359	210.648
1002.73	153.242
1006.11	102.875
1009.48	122.188
1012.86	162.805
1016.23	152.516
1019.61	187.148
1022.98	170.348
1026.36	324.668
1029.73	284.711
1033.11	341.648
1036.48	336.656
1039.86	243.523
1043.23	319.25
1046.61	337.961
1049.98	355.625
1053.36	316.07
1056.73	292.777
1060.11	267.914
1063.48	292.144
1066.86	303.691
1070.23	318.16
1073.61	418.594
1076.98	457.004
1080.36	398.312
1083.73	361.723
1087.1	271.383
1090.48	227.781
1093.85	131.051
1097.23	92.3047
1100.6	90.8555
1103.98	41.625
1107.35	85.8555
1110.73	67.2461
1114.1	22.3984
1117.48	1.11719
1120.85	15.2461
1124.23	72.3984
1127.6	3.63672
1130.98	22.2148
1134.35	14.207
1137.73	27.6797
1141.1	45.1016
1144.48	38.5977
1147.85	101.859
1151.23	60.6172
1154.6	68.7109
1157.97	89.1172
1161.35	168.441
1164.72	178.027
1168.1	145.773
1171.47	172.894
1174.85	294.484
1178.22	244.688
1181.6	248.5
1184.97	232.074
1188.35	255.926
1191.72	324.086
1195.1	384.066
1198.47	235.231
1201.85	288.875
1205.22	234.363
1208.6	238.344
1211.97	282.754
1215.35	220.973
1218.72	162.934
1222.1	113.719
1225.47	90.3594
1228.85	172.047
1232.22	207.008
1235.6	207.316
1238.97	91.0078
1242.35	20.3867
1245.72	7.01953
1249.1	59.5547
1252.47	89.2461
1255.85	119.086
1259.22	148.75
1262.6	173.785
1265.97	35.2812
1269.34	20.9297
1272.72	39.3555
1276.09	14.4766
1279.47	73.4062
1282.84	117.887
