Measurement: Raman, 532 nm, unoriented, Raman Data Processed
Mineral: Fluorapatite
Rruff sample: R060070
Ideal chemistry: Ca_5_(PO_4_)_3_F
Locality: Panasqueira, Portugal
Source: Dave Bunk
Description: Green hexagonal tablet
Measured chemistry: (Ca_0.99_Mn_0.01_)_5_(P_1.00_O_4_)_3_F_1.00_
Raman shift (cm-1)	intensity
136.311	0
139.686	18.9885
143.061	8.2561
146.435	1.8977
149.81	25.1436
153.185	39.1221
156.56	37.0901
159.935	39.1043
163.31	35.7546
166.684	32.7505
170.059	33.1235
173.434	34.3489
176.809	35.5591
180.184	29.7439
183.558	34.1787
186.933	19.6167
190.308	17.554
193.683	16.563
197.058	12.7947
200.433	14.4541
203.807	8.45068
207.182	1.03027
210.557	12.2058
213.932	5.68164
217.307	4.17188
220.681	13.7222
224.056	0.102051
227.431	7.77515
230.806	11.4229
234.181	9.85523
237.555	18.8455
240.93	6.43701
244.305	16.3767
247.68	8.33252
251.055	12.1252
254.43	8.7544
257.804	18.2759
261.179	15.1704
264.554	23.3425
267.929	34.894
271.304	40.3452
274.678	24.3957
278.053	23.9988
281.428	25.2356
284.803	30.8355
288.178	17.76
291.553	27.4348
294.927	27.4824
298.302	26.9959
301.677	19.2459
305.052	14.3933
308.427	17.1206
311.801	21.1047
315.176	20.2537
318.551	12.6177
321.926	23.6675
325.301	18.1611
328.675	9.09375
332.05	12.6499
335.425	17.9375
338.8	8.052
342.175	11.8835
345.55	16.7539
348.924	22.3569
352.299	12.3782
355.674	19.1492
359.049	27.863
362.424	27.1714
365.798	6.99976
369.173	7.3335
372.548	1.04272
375.923	2.38281
379.298	4.34619
382.673	6.2356
386.047	11.7356
389.422	19.3901
392.797	16.55
396.172	18.8374
399.547	18.0252
402.921	12.9221
406.296	14.9773
409.671	13.7273
413.046	14.9541
416.421	26.8411
419.796	30.8101
423.17	51.3852
426.545	61.7705
429.92	57.2036
433.295	63.6416
436.67	39.8005
440.044	35.2725
443.419	33.865
446.794	36.5588
450.169	27.8125
453.544	31.4719
456.918	22.1372
460.293	14.6616
463.668	4.1062
467.043	9.25635
470.418	3.94165
473.793	15.2727
477.167	6.99048
480.542	10.5813
483.917	13.6873
487.292	14.0185
490.667	14.3218
494.041	7.40942
497.416	1.12036
500.791	6.71143
504.166	0.15918
507.541	4.70288
510.916	0.368408
514.29	0.421875
517.665	1.5415
521.04	1.5918
524.415	9.19775
527.79	0.458496
531.164	21.1108
534.539	8.25879
537.914	6.8418
541.289	11.8809
544.664	17.6719
548.039	3.48047
551.413	4.48877
554.788	9.46631
558.163	5.37061
561.538	8.82959
564.913	12.1987
568.288	6.46533
571.662	7.06494
575.037	13.2085
578.412	45.854
581.787	45.0981
585.162	58.5254
588.536	54.0005
591.911	54.8413
595.286	22.063
598.661	18.4888
602.036	27.7021
605.41	32.6177
608.785	24.0771
612.16	1.31787
615.535	9.88281
618.91	8.90234
622.284	8.66895
625.659	23.2476
629.034	16.8691
632.409	7.27441
635.784	11.064
639.159	0.586426
642.533	1.73486
645.908	7.41602
649.283	11.6621
652.658	14.5068
656.033	15.5708
659.408	17.1157
662.782	20.3091
666.157	25.8852
669.532	13.2026
672.907	30.6958
676.282	18.2983
679.656	20.3828
683.031	12.5322
686.406	21.7334
689.781	22.5054
693.156	25.9507
696.53	26.9453
699.905	15.5776
703.28	24.6968
706.655	28.2021
710.03	21.0122
713.404	21.8711
716.779	21.1699
720.154	22.0371
723.529	23.0493
726.904	28.7256
730.279	11.061
733.653	18.2627
737.028	15.9424
740.403	5.01514
743.778	3.94238
747.153	2.39844
750.528	3.61914
753.902	15.4253
757.277	20.2974
760.652	4.93945
764.027	0.888672
767.402	9.5918
770.776	18.1714
774.151	3.86426
777.526	10.041
780.901	4.53613
784.276	1.70898
787.65	21.02
791.025	20.5122
794.4	25.8115
797.775	1.65234
801.15	13.4487
804.524	15.3096
807.899	1.94043
811.274	35.2202
814.649	4.46484
818.024	13.4414
821.399	1.73438
824.773	11.4458
828.148	19.8569
831.523	12.4517
834.898	28.9194
838.273	25.9209
841.648	17.2344
845.022	17.7163
848.397	1.9043
851.772	10.0947
855.147	14.0059
858.522	7.41309
861.896	21.3408
865.271	9.43848
868.646	15.4912
872.021	5.21143
875.396	3.11572
878.77	17.5337
882.145	17.314
885.52	25.4736
888.895	6.45947
892.27	9.70068
895.645	1.08057
899.019	10.8852
902.394	12.2461
905.769	13.1274
909.144	8.71143
912.519	16.2705
915.894	16.0391
919.268	20.3281
922.643	22.0547
926.018	12.269
929.393	1.52637
932.768	2.75147
936.142	16.2578
939.517	0.606934
942.892	6.55518
946.267	2.50781
949.642	30.9346
953.016	35.9756
956.391	106.594
959.766	166.432
963.141	327.679
966.516	466.49
969.891	122.918
973.265	27.373
976.64	7.33106
980.015	8.52051
983.39	15.8599
986.765	12.7227
990.139	13.1084
993.514	9.41602
996.889	4.66553
1000.26	12.2671
1003.64	19.4644
1007.01	4.65381
1010.39	2.15918
1013.76	14.207
1017.14	5.35742
1020.51	14.3218
1023.89	15.144
1027.26	13.2065
1030.64	14.7881
1034.01	23.6909
1037.39	34.1323
1040.76	33.9448
1044.14	48.6519
1047.51	36.2363
1050.89	23.2207
1054.26	35.9663
1057.64	14.4009
1061.01	28.6904
1064.38	23
1067.76	9.41065
1071.13	10.6099
1074.51	11.8994
1077.88	25.8179
1081.26	38.7412
1084.63	30.2021
1088.01	34.8272
1091.38	19.3018
1094.76	3.62988
1098.13	1.99853
1101.51	2.90137
1104.88	4.64307
1108.26	13.604
1111.63	8.21973
1115.01	16.4712
1118.38	7.41992
1121.76	1.62402
1125.13	0.72998
1128.51	0.547852
1131.88	2.31103
1135.26	4.96631
1138.63	10.8935
1142.01	15.498
1145.38	14.8677
1148.76	14.9351
1152.13	14.252
1155.51	26.1245
1158.88	28.6186
1162.26	13.3423
1165.63	25.1104
1169.01	29.7256
1172.38	19.0371
1175.75	28.5527
1179.13	26.9722
1182.5	23.939
1185.88	15.2148
1189.25	18.6426
1192.63	15.0332
1196	14.126
1199.38	27.0879
1202.75	38.541
1206.13	26.8481
1209.5	28.7534
1212.88	11.4863
1216.25	10.0986
1219.63	11.3975
1223	24.5083
1226.38	21.0923
1229.75	14.4531
1233.13	14.3398
1236.5	7.79102
1239.88	2.3457
1243.25	7.86963
1246.62	5.18018
1250	10.0317
1253.38	14.7246
1256.75	8.7373
1260.12	3.64551
1263.5	11.127
1266.87	5.35596
1270.25	2.47217
1273.62	1.20508
1277	10.0493
1280.37	12.1797
1283.75	19.4273
1287.12	18.6543
1290.5	18.6865
1293.87	19.6533
1297.25	14.4165
1300.62	16.9395
1304	1.19922
