Measurement: Raman, 780 nm, unoriented, Raman Data Processed
Mineral: Fluornatromicrolite
Rruff sample: R060589
Ideal chemistry: (Na_1.5_Bi^3+^_0.5_)Ta^5+^_2_O_6_F
Locality: Quixaba mine, Frei Martinho, Paraíba, Northeast Region, Brazil
Source: Michael Scott
Description: Dark green octahedron embedded in white albite matrix
Measured chemistry: (Na_1.04_Ca_0.71_Bi_0.18_[box]_0.07_)_Σ=2_Ta_2.00_O_6_(F_0.93_(OH)_0.07_)_Σ=1_ ; OH estimated by difference and charge balance
Raman shift (cm-1)	intensity
97.4671	0
100.842	4.35156
104.217	354.633
107.591	658.438
110.966	640
114.341	1029.26
117.716	858.836
121.091	987.07
124.466	884.531
127.84	853.125
131.215	745.227
134.59	767.242
137.965	960.234
141.34	1251.09
144.714	1551.76
148.089	1786.12
151.464	2056.45
154.839	2021.19
158.214	2243.84
161.589	1994.52
164.963	1891.94
168.338	1668.48
171.713	1356.87
175.088	923.461
178.463	818.508
181.838	951.031
185.212	924.703
188.587	748.906
191.962	799.68
195.337	644.273
198.712	339.594
202.086	326.938
205.461	640.633
208.836	272.32
212.211	16.5547
215.586	138.742
218.96	89.4922
222.335	12.8672
225.71	109.82
229.085	46.9062
232.46	137.82
235.834	382.359
239.209	339.539
242.584	192.312
245.959	288.117
249.334	361.43
252.709	135.023
256.083	141.773
259.458	327.453
262.833	327.016
266.208	311.305
269.583	754.195
272.957	782.539
276.332	1165.57
279.707	1207.52
283.082	1391.59
286.457	1625.17
289.832	2086.26
293.206	2139.15
296.581	2340.28
299.956	2395.13
303.331	2452.59
306.706	2457.13
310.08	1953.26
313.455	1334.36
316.83	864.93
320.205	699.711
323.58	690.812
326.954	647.57
330.329	771.812
333.704	916.172
337.079	1477.81
340.454	1290.43
343.829	1218.85
347.203	1075.27
350.578	559.773
353.953	343.734
357.328	484.531
360.703	671.477
364.077	360.086
367.452	522.188
370.827	379.148
374.202	81.3281
377.577	47.6484
380.952	59.9766
384.326	250.18
387.701	248.445
391.076	228.562
394.451	62.3828
397.826	108.109
401.2	3.51562
404.575	95.3359
407.95	12.125
411.325	36.3281
414.7	64.5469
418.075	54.2422
421.449	380.43
424.824	60.1328
428.199	56.8672
431.574	491.641
434.949	357.859
438.323	398.133
441.698	461.023
445.073	449.195
448.448	604.539
451.823	627.75
455.197	585.688
458.572	609.812
461.947	536.922
465.322	199.539
468.697	250.148
472.072	422.391
475.446	136.367
478.821	50.4922
482.196	316.875
485.571	129.477
488.946	73.2031
492.32	133.383
495.695	623.727
499.07	650.695
502.445	1521.32
505.82	2225.48
509.195	2987.15
512.569	3159.31
515.944	3062.19
519.319	2171.73
522.694	1731.39
526.068	1561.23
529.443	1120.27
532.818	700.398
536.193	722.469
539.568	743.047
542.943	768.672
546.317	798.812
549.692	639.312
553.067	745.484
556.442	554.031
559.817	671.953
563.192	337.922
566.566	53.3594
569.941	90.5469
573.316	107.75
576.691	27.5
580.066	236.766
583.44	346.781
586.815	315.344
590.19	210.641
593.565	68.7188
596.94	80.8438
600.314	135.609
603.689	538.688
607.064	583.969
610.439	718.875
613.814	688.766
617.188	734.688
620.563	700.281
623.938	1162.06
627.313	1180.61
630.688	1018.88
634.063	1274.2
637.437	1243.14
640.812	1193.83
644.187	1242.09
647.562	1354.17
650.937	1427.66
654.312	1273.31
657.686	1365.69
661.061	1178.55
664.436	1081.69
667.811	1331.09
671.186	1156.62
674.56	1083.17
677.935	928.5
681.31	802.781
684.685	751.781
688.06	646.156
691.434	625.469
694.809	317.094
698.184	239.484
701.559	56.3906
704.934	175.734
708.308	68.1875
711.683	15.6094
715.058	155.344
718.433	356.375
721.808	275.938
725.183	269.984
728.557	296.703
731.932	783.031
735.307	488.391
738.682	621.828
742.057	520.781
745.432	675.188
748.806	799.875
752.181	611.453
755.556	214.219
758.931	136.578
762.306	413.75
765.68	575.953
769.055	318.141
772.43	238.578
775.805	69.2656
779.18	146.344
782.554	148.062
785.929	318.156
789.304	536.703
792.679	850.516
796.054	577.406
799.428	48.1562
802.803	117.906
806.178	526.641
809.553	581.969
812.928	13.875
816.303	514.781
819.677	933.812
823.052	941.422
826.427	1065.66
829.802	994.219
833.177	605.297
836.552	686.953
839.926	615.422
843.301	379.906
846.676	469.688
850.051	529.688
853.426	462.938
856.8	574.125
860.175	434.156
863.55	463.781
866.925	198.719
870.3	427.5
873.674	252.328
877.049	91.4531
880.424	123.031
883.799	248.828
887.174	304.641
890.548	276.266
893.923	171.203
897.298	81.2031
900.673	76.7656
904.048	16.3594
907.423	248.797
910.797	24.8594
914.172	198.031
917.547	573.953
920.922	435.297
924.297	16.9844
927.671	363.297
931.046	918.281
934.421	576.359
937.796	620.531
941.171	844.328
944.545	716.984
947.92	503.188
951.295	627.562
954.67	996.203
958.045	713.125
961.42	547.078
964.794	563.578
968.169	775
971.544	139.188
974.919	14.9062
978.294	83.6406
981.668	185.75
985.043	7.40625
988.418	487.875
991.793	239.875
995.168	173.188
998.543	433.75
1001.92	740.375
1005.29	715.219
1008.67	551.812
1012.04	553.125
1015.42	963.094
1018.79	616.75
1022.17	622.281
1025.54	808.062
1028.92	1253.66
1032.29	960.031
1035.67	1226.03
1039.04	783.938
1042.41	1214.19
1045.79	745.5
1049.16	841.469
1052.54	824.719
1055.91	1397.34
1059.29	1402.41
1062.66	1427.09
1066.04	1131.25
1069.41	1303.5
1072.79	1564.34
1076.16	1290.84
1079.54	1365.72
1082.91	1497.25
1086.29	1590.22
1089.66	1711.66
1093.04	2000.69
1096.41	1463.47
1099.79	978.625
1103.16	834.031
1106.54	607.125
1109.91	838.375
1113.29	182.344
1116.66	91.4375
1120.04	567.375
1123.41	569.156
1126.79	633.906
1130.16	533.219
1133.54	1414.91
1136.91	877.875
1140.29	1820.31
1143.66	1873.81
1147.03	2038.22
1150.41	1664.62
1153.78	2703.69
1157.16	2570.19
1160.53	2164.34
1163.91	2238.31
1167.28	2490.88
1170.66	3131.03
1174.03	3692.88
1177.41	3748.88
1180.78	3222.97
1184.16	2494.44
1187.53	2548.16
1190.91	3368.22
1194.28	2989.25
1197.66	3440.72
1201.03	3949.75
1204.41	2974.28
1207.78	1676.12
1211.16	1895.34
1214.53	1805.53
1217.91	1327
1221.28	1526.53
1224.65	899.938
1228.03	210.906
1231.4	128.844
1234.78	704.719
1238.15	775.875
1241.53	58.375
1244.9	22.5
1248.28	337.062
1251.65	1423.16
1255.03	1958.5
1258.4	1258.81
1261.78	1221.78
1265.15	1262.84
1268.53	1788.53
1271.9	1727.41
1275.28	1243.75
1278.65	566.375
1282.03	247.938
