Measurement: Raman, 785 nm, unoriented, Raman Data Processed
Mineral: Fluorite
Rruff sample: R050046
Ideal chemistry: CaF_2_
Locality: Shangbao, Lei Yang, Hunan Province, China
Source: Eugene Schlepp
Description: Pale purple crystal
Measured chemistry: Ca_1.000_ F_2.000_
Raman shift (cm-1)	intensity
153.803	0
156.696	1.64636
159.589	4.19934
162.481	31.1443
165.374	35.58
168.267	44.6435
171.16	63.9209
174.052	77.1893
176.945	53.9441
179.838	58.884
182.73	30.0361
185.623	53.4658
188.516	73.184
191.408	72.071
194.301	57.5093
197.194	73.8603
200.087	78.6631
202.979	65.6449
205.872	61.8419
208.765	61.7797
211.657	81.7131
214.55	70.8146
217.443	52.527
220.335	100.099
223.228	102.61
226.121	93.6562
229.013	99.4271
231.906	114.678
234.799	117.52
237.692	76.9209
240.584	64.1628
243.477	26.8021
246.37	25.4898
249.262	17.4724
252.155	12.33
255.048	0.472168
257.941	10.8717
260.833	30.8971
263.726	13.6193
266.619	1.27124
269.511	5.51428
272.404	4.08423
275.297	12.1522
278.19	35.7148
281.082	7.26477
283.975	73.6626
286.868	109.703
289.76	112.509
292.653	162.915
295.546	215.675
298.438	353.016
301.331	519.959
304.224	919.969
307.116	1488.24
310.009	2311.68
312.902	3483.99
315.795	5166.68
318.687	7897.08
321.58	9728.94
324.473	7413.64
327.365	4167.07
330.258	2386.5
333.151	1553.12
336.043	1146.84
338.936	874.425
341.829	660.097
344.721	520.51
347.614	414.014
350.507	363.619
353.4	305.08
356.292	206.514
359.185	168.922
362.078	150.712
364.97	115.597
367.863	115.35
370.756	64.3645
373.649	96.7262
376.541	48.0144
379.434	54.9484
382.327	36.6219
385.219	13.9731
388.112	11.9391
391.005	7.16992
393.897	4.05896
396.79	5.62561
399.683	17.5226
402.575	9.37512
405.468	6.97156
408.361	15.1864
411.254	18.804
414.146	12.637
417.039	38.6464
419.932	41.7563
422.824	48.6846
425.717	49.1574
428.61	51.0731
431.502	27.2041
434.395	14.2437
437.288	27.4098
440.181	22.1064
443.073	31.7275
445.966	22.954
448.859	37.7831
451.751	55.3673
454.644	29.4174
457.537	1.13708
460.43	14.2748
463.322	32.9793
466.215	15.8341
469.108	14.9302
472	4.33142
474.893	21.6886
477.786	6.68945
480.678	4.81421
483.571	67.0129
486.464	14.1311
489.356	61.4815
492.249	22.1626
495.142	40.382
498.035	36.7469
500.927	69.346
503.82	37.4062
506.713	49.51
509.605	45.6923
512.498	50.8824
515.391	82.1913
518.284	73.8424
521.176	61.5971
524.069	95.8846
526.962	67.8823
529.854	119.627
532.747	125.641
535.64	99.8362
538.533	122.143
541.425	107.173
544.318	151.94
547.211	132.058
550.103	137.51
552.996	129.575
555.889	132.998
558.781	154.208
561.674	155.144
564.567	158.552
567.459	138.228
570.352	78.3809
573.245	84.7367
576.138	39.6578
579.03	57.9338
581.923	48.6355
584.816	30.1508
587.708	20.6058
590.601	3.78894
593.494	8.10596
596.386	7.48621
599.279	2.99915
602.172	29.665
605.064	1.80566
607.957	9.31177
610.85	15.1119
613.743	13.0155
616.635	33.4235
619.528	37.4681
622.421	6.59827
625.313	25.0778
628.206	14.5195
631.099	49.0363
633.991	30.7592
636.884	35.1533
639.777	22.8401
642.67	15.111
645.562	0.889526
648.455	23.5128
651.348	20.8195
654.24	42.5184
657.133	16.766
660.026	49.531
662.918	34.5516
665.811	46.9696
668.704	76.2251
671.597	82.1205
674.489	114.685
677.382	87.1166
680.275	97.4196
683.167	45.2732
686.06	64.7235
688.953	10.1794
691.846	39.8274
694.738	29.3566
697.631	46.47
700.524	19.5293
703.416	61.0382
706.309	35.8081
709.202	8.60608
712.094	19.7959
714.987	22.1982
717.88	9.95874
720.773	7.56274
723.665	17.5898
726.558	14.5773
729.451	1.07031
732.343	24.4341
735.236	8.74512
738.129	5.53003
741.021	47.5395
743.914	25.5625
746.807	38.743
749.699	40.5997
752.592	61.4815
755.485	83.4858
758.378	125.335
761.27	123.963
764.163	163.299
767.056	213.89
769.948	160.661
772.841	177.088
775.734	177.439
778.626	174.774
781.519	185.063
784.412	169.2
787.305	187.394
790.197	150.808
793.09	191.105
795.983	164.644
798.875	159.754
801.768	134.42
804.661	119.196
807.553	103.145
810.446	105.58
813.339	81.6523
816.232	76.8367
819.124	57.3645
822.017	22.4514
824.91	43.0178
827.802	32.6204
830.695	8.17224
833.588	19.1221
836.481	18.7538
839.373	12.4819
842.266	13.3389
845.159	3.40295
848.051	0.654541
850.944	6.93286
853.837	24.9629
856.729	20.2873
859.622	27.5775
862.515	88.665
865.408	91.6339
868.3	141.128
871.193	168.317
874.086	157.099
876.978	199.533
879.871	169.654
882.764	189.999
885.656	195.254
888.549	213.495
891.442	193.929
894.335	246.183
897.227	168.449
900.12	112.072
903.013	79.4233
905.905	62.879
908.798	20.426
911.691	27.5137
914.583	49.6744
917.476	21.239
920.369	11.0144
923.261	14.9238
926.154	62.3965
929.047	72.3052
931.94	183.163
934.832	247.095
937.725	372.003
940.618	398.525
943.51	543.511
946.403	625.128
949.296	690.925
952.188	773.209
955.081	945.091
957.974	1052.1
960.867	1192.83
963.759	1380.19
966.652	1578.33
969.545	1865.94
972.437	2008.48
975.33	2226.06
978.223	2326.55
981.115	2318.32
984.008	2184.02
986.901	2025.26
989.794	1779.54
992.686	1574.52
995.579	1402.77
998.472	1233.64
1001.36	1077.8
1004.26	917.549
1007.15	797.776
1010.04	675.648
1012.93	606.841
1015.83	514.992
1018.72	360.966
1021.61	318.659
1024.51	264.096
1027.4	157.581
1030.29	113.144
1033.18	58.6082
1036.08	35.102
1038.97	24.2627
1041.86	5.27246
1044.76	22.5154
1047.65	21.6831
1050.54	43.6494
1053.43	4.61963
1056.33	2.45728
1059.22	41.624
1062.11	42.7878
1065	98.9629
1067.9	111.673
1070.79	158.375
1073.68	193.317
1076.58	241.344
1079.47	308.835
1082.36	353.185
1085.25	414.885
1088.14	459.396
1091.04	522.041
1093.93	548.376
1096.82	632.182
1099.72	664.958
1102.61	748.632
1105.5	973.429
1108.39	1254.35
1111.29	1531.55
1114.18	1701.18
1117.07	1566.35
1119.96	1165.09
1122.86	851.363
1125.75	570.507
1128.64	355.592
1131.54	197.222
1134.43	3.77905
1137.32	35.1809
1140.21	22.7837
1143.11	26.2488
1146	74.259
1148.89	110.978
1151.79	111.635
1154.68	141.816
1157.57	104.221
1160.46	202.84
1163.36	240.88
1166.25	317.227
1169.14	401.032
1172.03	484.928
1174.93	574.621
1177.82	565.034
1180.71	615.714
1183.6	509.234
1186.5	462.862
1189.39	411.264
1192.28	418.585
1195.17	325.746
1198.07	282.341
1200.96	153.261
1203.85	131.845
1206.75	144.358
1209.64	102.42
1212.53	2.9419
1215.42	134.178
1218.32	51.0283
1221.21	52.6968
1224.1	12.2798
1226.99	0
