Measurement: Raman, 532 nm, unoriented, Raman Data Processed
Mineral: Fluorite
Rruff sample: R050046
Ideal chemistry: CaF_2_
Locality: Shangbao, Lei Yang, Hunan Province, China
Source: Eugene Schlepp
Description: Pale purple crystal
Measured chemistry: Ca_1.000_ F_2.000_
Raman shift (cm-1)	intensity
134.716	0
138.091	53.6096
141.466	49.9554
144.841	34.0179
148.215	45.7463
151.59	100.123
154.965	170.481
158.34	158.255
161.715	156.133
165.09	142.781
168.464	147.804
171.839	127.003
175.214	123.852
178.589	135.483
181.964	155.525
185.339	136.245
188.713	142.328
192.088	164.356
195.463	164.52
198.838	163.013
202.213	135.845
205.587	131.552
208.962	121.898
212.337	103.237
215.712	82.6873
219.087	81.2106
222.462	80.7278
225.836	62.6309
229.211	87.8364
232.586	83.5478
235.961	147.958
239.336	176.646
242.71	133.886
246.085	47.3812
249.46	23.9084
252.835	21.3765
256.21	14.2183
259.584	51.675
262.959	10.5309
266.334	34.3695
269.709	67.5071
273.084	156.436
276.459	208.878
279.833	386.012
283.208	515.579
286.583	567.493
289.958	632.893
293.333	608.116
296.707	732.108
300.082	1004.16
303.457	1693.37
306.832	3055.17
310.207	5243.94
313.582	8765.53
316.956	14071.1
320.331	19952.4
323.706	15609.3
327.081	7496.99
330.456	3911.69
333.83	2436.13
337.205	1617.95
340.58	1106.49
343.955	762.496
347.33	513.412
350.705	368.315
354.079	233.544
357.454	114.577
360.829	69.8331
364.204	29.1492
367.579	1.50769
370.954	22.1597
374.328	9.21729
377.703	52.5995
381.078	32.2192
384.453	65.4539
387.828	145.205
391.202	144.862
394.577	51.2205
397.952	13.2281
401.327	23.4442
404.702	23.0848
408.077	4.52869
411.451	38.3456
414.826	31.8103
418.201	26.4025
421.576	19.1061
424.951	30.3822
428.325	37.1863
431.7	70.0629
435.075	93.9583
438.45	62.191
441.825	75.9537
445.2	4.41992
448.574	1.02539
451.949	19.4898
455.324	10.8243
458.699	5.51306
462.074	4.50879
465.448	28.5754
468.823	16.0917
472.198	46.4453
475.573	95.7211
478.948	147.625
482.322	252.798
485.697	259.264
489.072	210.425
492.447	111.331
495.822	111.076
499.197	65.519
502.571	112.341
505.946	105.103
509.321	104.765
512.696	143.263
516.071	124.025
519.446	131.38
522.82	84.3883
526.195	89.6498
529.57	57.8684
532.945	70.0223
536.32	60.3341
539.694	6.56946
543.069	3.5603
546.444	1.82092
549.819	16.0702
553.194	1.37927
556.568	3.25964
559.943	13.8634
563.318	1.18384
566.693	1.73731
570.068	18.4598
573.443	8.22266
576.817	4.22034
580.192	5.74902
583.567	24.1001
586.942	19.9191
590.317	17.0228
593.692	33.42
597.066	21.8862
600.441	72.5261
603.816	33.5418
607.191	40.12
610.566	56.3579
613.94	121.517
617.315	131.23
620.69	123.689
624.065	142.137
627.44	141.733
630.814	130.392
634.189	134.773
637.564	163.91
640.939	177.296
644.314	200.352
647.689	174.017
651.063	172.987
654.438	179.071
657.813	174.83
661.188	187.104
664.563	133.012
667.938	144.254
671.312	130.003
674.687	115.299
678.062	128.063
681.437	127.782
684.812	90.3926
688.186	54.1095
691.561	27.2639
694.936	33.2424
698.311	8.44019
701.686	23.2064
705.061	0.220703
708.435	10.796
711.81	19.856
715.185	39.8375
718.56	36.9864
721.935	65.0902
725.309	80.5671
728.684	74.842
732.059	72.0725
735.434	107.151
738.809	92.9636
742.183	128.473
745.558	176.398
748.933	180.028
752.308	120.565
755.683	75.5862
759.058	86.3815
762.432	46.8892
765.807	6.29748
769.182	22.8956
772.557	58.1276
775.932	47.5148
779.307	17.5895
782.681	7.16345
786.056	12.8916
789.431	9.18726
792.806	5.4812
796.181	10.2374
799.555	25.448
802.93	34.746
806.305	104.82
809.68	129.536
813.055	102.924
816.429	138.724
819.804	109.914
823.179	127.725
826.554	144.215
829.929	121.838
833.304	107.759
836.678	114.953
840.053	112.377
843.428	92.4297
846.803	75.4846
850.178	59.5322
853.553	87.6667
856.927	58.7075
860.302	69.8944
863.677	87.7571
867.052	63.1012
870.427	96.6877
873.801	97.9392
877.176	85.1431
880.551	58.8394
883.926	56.5953
887.301	27.7855
890.676	5.10059
894.05	16.4607
897.425	0.514771
900.8	17.2555
904.175	11.2165
907.55	22.7125
910.924	35.8323
914.299	65.769
917.674	47.5684
921.049	48.6439
924.424	130.244
927.798	115.193
931.173	130.869
934.548	165.083
937.923	136.333
941.298	91.2977
944.673	86.7098
948.047	54.0464
951.422	65.2422
954.797	94.0417
958.172	72.9071
961.547	68.422
964.922	118.925
968.296	65.9197
971.671	74.2966
975.046	64.4368
978.421	41.1913
981.796	28.714
985.17	29.3817
988.545	47.4015
991.92	1.06348
995.295	23.5238
998.67	4.91235
1002.04	5.73621
1005.42	14.478
1008.79	3.75928
1012.17	18.0994
1015.54	9.198
1018.92	40.7358
1022.29	45.8411
1025.67	53.2103
1029.04	38.6867
1032.42	46.9745
1035.79	34.6954
1039.17	30.1533
1042.54	49.4086
1045.92	8.74329
1049.29	68.202
1052.67	3.31836
1056.04	32.1406
1059.42	34.4541
1062.79	7.67322
1066.17	44.6946
1069.54	3.11865
1072.92	37.4387
1076.29	19.6156
1079.66	18.0333
1083.04	12.4611
1086.41	16.1851
1089.79	51.9286
1093.16	37.6549
1096.54	84.603
1099.91	55.7451
1103.29	62.7787
1106.66	54.231
1110.04	41.0505
1113.41	62.0203
1116.79	27.6537
1120.16	55.062
1123.54	34.1355
1126.91	46.9839
1130.29	29.8112
1133.66	43.8804
1137.04	34.7002
1140.41	27.526
1143.79	24.6963
1147.16	43.3458
1150.54	37.1746
1153.91	44.8009
1157.29	65.7116
1160.66	30.6489
1164.04	16.8174
1167.41	35.6802
1170.79	6.70044
1174.16	0.493408
1177.54	23.3824
1180.91	34.3905
1184.29	24.9453
1187.66	17.3469
1191.03	32.2698
1194.41	2.43481
1197.78	20.1836
1201.16	3.66638
1204.53	8.42261
1207.91	11.5972
1211.28	18.9473
1214.66	25.6537
1218.03	3.31812
1221.41	7.99976
1224.78	7.65381
1228.16	15.5752
1231.53	36.2386
1234.91	27.7001
1238.28	53.0743
1241.66	3.97144
1245.03	25.9056
1248.41	33.6228
1251.78	20.9989
1255.16	34.6255
1258.53	5.53235
1261.91	12.3483
1265.28	25.649
1268.65	46.1041
1272.03	28.4224
1275.4	48.4467
1278.78	65.6318
1282.15	34.3821
1285.53	36.8989
1288.9	26.2012
1292.28	35.9452
1295.65	7.9447
1299.03	17.8352
1302.4	0.972656
1305.78	4.82361
