Measurement: Raman, 785 nm, unoriented, Raman Data Processed
Mineral: Fluor-liddicoatite
Rruff sample: R060969
Ideal chemistry: Ca(Li_2_Al)Al_6_(Si_6_O_18_)(BO_3_)_3_(OH)_3_F
Locality: Antandro Komby mine, Manandona River, Antsirabe, Madagascar
Source: Michael Scott
Description: Red and green prismatic striated crystal, we studied the red part.
Raman shift (cm-1)	intensity
158.169	0
160.579	14.6957
162.99	20.9856
165.401	21.6946
167.811	49.493
170.222	63.7748
172.632	54.2831
175.043	66.0018
177.454	32.4046
179.864	36.7164
182.275	7.10101
184.685	14.6041
187.096	6.97583
189.506	8.55829
191.917	0.24115
194.328	10.8139
196.738	90.7738
199.149	55.1536
201.559	86.9689
203.97	89.0679
206.381	119.113
208.791	142.265
211.202	162.762
213.612	222.953
216.023	312.412
218.434	408.743
220.844	477.258
223.255	539.819
225.665	532.772
228.076	436.626
230.486	404.322
232.897	341.391
235.308	363.582
237.718	323.068
240.129	327.775
242.539	332.905
244.95	302.563
247.36	263.258
249.771	224.963
252.182	184.886
254.592	160.021
257.003	146.762
259.413	136.41
261.824	92.8282
264.235	89.6966
266.645	83.6043
269.056	102.391
271.466	82.8201
273.877	74.7071
276.287	68.1244
278.698	58.8361
281.109	83.1653
283.519	53.8729
285.93	67.3316
288.34	22.4279
290.751	23.1769
293.161	10.7362
295.572	5.76349
297.983	21.132
300.393	23.4691
302.804	0.152222
305.214	8.0498
307.625	31.2237
310.036	34.8652
312.446	41.8379
314.857	50.3092
317.267	47.0331
319.678	74.2296
322.089	47.6625
324.499	87.8321
326.91	103.799
329.32	121.07
331.731	104.134
334.141	93.9318
336.552	96.2625
338.963	99.3027
341.373	118.077
343.784	111.469
346.194	164.133
348.605	146.243
351.015	146.279
353.426	141.656
355.837	164.996
358.247	165.315
360.658	185.041
363.068	255.366
365.479	346.472
367.889	482.576
370.3	661.217
372.711	845.054
375.121	963.426
377.532	933.764
379.942	803.497
382.353	622.777
384.764	449.651
387.174	334.527
389.585	292.033
391.995	242.344
394.406	248.965
396.817	209.424
399.227	233.307
401.638	269.379
404.048	256.12
406.459	278.118
408.869	289.436
411.28	261.488
413.691	238.599
416.101	181.754
418.512	122.057
420.922	85.4537
423.333	39.3812
425.743	31.2343
428.154	3.03949
430.565	0.262146
432.975	3.43433
435.386	2.12067
437.796	6.05182
440.207	1.00586
442.618	1.79627
445.028	13.8891
447.439	1.06397
449.849	10.4119
452.26	2.91473
454.671	13.9783
457.081	0.339844
459.492	6.64795
461.902	8.77124
464.313	4.33545
466.723	23.2424
469.134	24.1963
471.545	28.1106
473.955	23.3871
476.366	29.7023
478.776	35.7636
481.187	18.3441
483.598	29.3154
486.008	42.9413
488.419	51.2377
490.829	49.5657
493.24	66.8397
495.65	94.8638
498.061	76.6219
500.472	92.7667
502.882	109.187
505.293	122.572
507.703	140.597
510.114	135.945
512.524	148.899
514.935	113.826
517.346	112.028
519.756	126.018
522.167	96.3193
524.577	96.9388
526.988	111.553
529.399	69.2234
531.809	87.803
534.22	90.1714
536.63	102.88
539.041	106.682
541.451	89.5945
543.862	82.1954
546.273	73.8602
548.683	63.1617
551.094	63.638
553.504	57.199
555.915	52.6919
558.326	53.5333
560.736	49.8467
563.147	21.5637
565.557	21.0691
567.968	5.94525
570.378	6.67627
572.789	8.95727
575.2	2.08722
577.61	15.5962
580.021	26.5379
582.431	7.82636
584.842	8.48047
587.253	40.6943
589.663	24.0292
592.074	0.613159
594.484	17.6401
596.895	21.9335
599.305	29.061
601.716	5.3913
604.127	3.19861
606.537	31.8138
608.948	8.2323
611.358	13.0606
613.769	3.02502
616.179	29.7422
618.59	13.9426
621.001	14.5236
623.411	19.0164
625.822	7.43549
628.232	24.4133
630.643	10.1213
633.053	18.0764
635.464	46.4271
637.875	63.8728
640.285	60.5677
642.696	59.8113
645.106	30.5449
647.517	35.8274
649.928	25.7157
652.338	26.3746
654.749	23.9388
657.159	21.4677
659.57	36.3279
661.981	33.9737
664.391	38.9919
666.802	15.0272
669.212	0.791748
671.623	30.007
674.033	14.0419
676.444	18.1804
678.855	11.4585
681.265	3.95221
683.676	21.4862
686.086	13.9088
688.497	1.05518
690.908	9.10315
693.318	8.21796
695.729	20.5145
698.139	52.9464
700.55	73.2372
702.96	97.8397
705.371	140.935
707.782	205.651
710.192	244.806
712.603	317.196
715.013	399.853
717.424	445.704
719.835	537.512
722.245	568.068
724.656	595.412
727.066	539.77
729.477	478.752
731.887	390.802
734.298	278.519
736.709	259.071
739.119	213.596
741.53	188.855
743.94	168.62
746.351	145.356
748.761	123.287
751.172	105.768
753.583	93.7024
755.993	98.9997
758.404	76.2271
760.814	59.9523
763.225	49.8894
765.636	5.60321
768.046	15.0429
770.457	14.4232
772.867	36.2604
775.278	18.5261
777.688	21.8754
780.099	8.72876
782.51	27.4307
784.92	20.0043
787.331	34.0399
789.741	29.8677
792.152	15.9371
794.563	15.5828
796.973	0.741913
799.384	3.50357
801.794	9.01065
804.205	7.39795
806.615	0.575592
809.026	18.9472
811.437	11.8228
813.847	22.0794
816.258	10.413
818.668	15.5222
821.079	10.5358
823.49	12.7718
825.9	1.40692
828.311	33.1447
830.721	29.3811
833.132	33.9324
835.542	15.1219
837.953	27.0433
840.364	15.6248
842.774	33.0347
845.185	21.8975
847.595	17.7183
850.006	1.58536
852.417	13.607
854.827	36.7222
857.238	15.5464
859.648	28.1312
862.059	25.0149
864.469	27.3427
866.88	40.7185
869.291	2.77545
871.701	29.0496
874.112	16.7312
876.522	22.7593
878.933	19.4341
881.343	5.918
883.754	28.8456
886.165	31.0129
888.575	8.15149
890.986	13.9139
893.396	23.4813
895.807	10.279
898.218	11.8575
900.628	2.36337
903.039	8.06921
905.449	4.06744
907.86	6.88953
910.27	13.0797
912.681	18.0455
915.092	2.43823
917.502	9.91779
919.913	2.75436
922.323	8.1879
924.734	10.293
927.145	25.6929
929.555	26.2727
931.966	15.9629
934.376	16.6176
936.787	24.6973
939.197	37.9448
941.608	24.9331
944.019	29.6491
946.429	23.6531
948.84	23.9451
951.25	27.7214
953.661	31.5201
956.072	41.4779
958.482	46.7496
960.893	59.6475
963.303	63.1549
965.714	55.356
968.125	38.1861
970.535	59.0648
972.946	57.1046
975.356	70.5017
977.767	61.3376
980.177	52.3055
982.588	71.5429
984.999	63.2935
987.409	51.9175
989.82	52.8486
992.23	26.5588
994.641	47.3789
997.052	44.1491
999.462	31.5733
1001.87	40.9156
1004.28	44.9966
1006.69	50.0576
1009.1	25.0756
1011.51	23.0465
1013.93	43.7456
1016.34	10.8904
1018.75	1.13593
1021.16	10.0676
1023.57	5.2121
1025.98	14.3317
1028.39	6.3233
1030.8	7.4906
1033.21	8.93213
1035.62	11.1771
1038.03	11.4573
1040.44	12.4269
1042.85	9.33081
1045.26	36.0781
1047.67	36.2041
1050.08	36.0386
1052.49	42.1268
1054.9	45.4493
1057.32	68.2182
1059.73	70.4791
1062.14	69.4753
1064.55	71.9579
1066.96	61.3741
1069.37	48.5224
1071.78	37.6984
1074.19	16.9722
1076.6	6.86835
1079.01	12.4984
1081.42	25.0644
1083.83	22.9773
1086.24	1.20813
1088.65	16.2305
