Measurement: Raman, 780 nm, unoriented, Raman Data Processed
Mineral: Fluorellestadite
Rruff sample: R130124
Ideal chemistry: Ca_5_(SiO_4_)_1.5_(S^6+^O_4_)_1.5_F
Locality: Kopeisk, South Urals, Russia
Source: Rock Currier
Description: Green to blue acicular or hexagonal prismatic crystals, associated with opaque nenadkevichite.
Raman shift (cm-1)	intensity
102.288	0
105.663	1.07547
109.038	0.922218
112.413	0.930557
115.787	1.5183
119.162	2.74734
122.537	3.05769
125.912	3.27452
129.287	2.83433
132.662	1.50609
136.036	2.40874
139.411	2.58514
142.786	2.11498
146.161	1.59015
149.536	2.32227
152.911	1.22293
156.285	0.811195
159.66	1.06274
163.035	1.26821
166.41	0.752319
169.785	0.820747
173.159	0.194778
176.534	0.158249
179.909	0.022453
183.284	0.803612
186.659	0.160309
190.033	0.888031
193.408	0.702248
196.783	0.499329
200.158	0.321518
203.533	0.517891
206.907	1.09256
210.282	0.908501
213.657	1.53651
217.032	0.512512
220.407	0.376373
223.782	0.737503
227.156	0.766113
230.531	0.016907
233.906	1.53804
237.281	1.79036
240.656	2.08482
244.03	1.48198
247.405	2.02806
250.78	3.43881
254.155	2.36343
257.53	2.5556
260.904	2.88171
264.279	2.99136
267.654	4.17355
271.029	4.25896
274.404	3.74478
277.779	3.03519
281.153	1.91992
284.528	0.459839
287.903	0.894424
291.278	1.7309
294.653	2.09917
298.027	1.74669
301.402	1.59119
304.777	1.41624
308.152	1.62544
311.527	1.26771
314.902	1.89583
318.276	1.99236
321.651	1.59595
325.026	1.80101
328.401	0.432526
331.776	0.817566
335.151	1.02109
338.525	0.974014
341.9	0.808853
345.275	1.42261
348.65	0.651459
352.024	1.10115
355.399	0.344162
358.774	0.589554
362.149	0.41571
365.524	0.620468
368.899	0.900467
372.273	0.355927
375.648	1.18399
379.023	1.62315
382.398	2.00662
385.773	4.17386
389.147	4.29996
392.522	6.16099
395.897	7.81566
399.272	8.16179
402.647	7.94179
406.022	8.62059
409.396	7.71814
412.771	8.42779
416.146	8.66046
419.521	8.30987
422.896	8.61111
426.27	8.2482
429.645	7.44193
433.02	9.51356
436.395	9.30838
439.77	8.00214
443.144	8.95825
446.519	12.571
449.894	13.361
453.269	17.7092
456.644	21.9215
460.019	25.0712
463.393	21.4636
466.768	18.7515
470.143	17.3115
473.518	11.9197
476.893	8.71812
480.267	5.44345
483.642	4.71185
487.017	2.42099
490.392	0.402237
493.767	0.144592
497.142	0.673996
500.516	0.84021
503.891	0.291229
507.266	0.960022
510.641	0.987061
514.016	0.871506
517.39	1.21129
520.765	2.81667
524.14	2.35635
527.515	3.20877
530.89	1.8922
534.264	3.17212
537.639	2.08929
541.014	2.20521
544.389	2.51068
547.764	1.57492
551.139	1.97839
554.513	0.063965
557.888	1.07748
561.263	2.25217
564.638	1.9321
568.013	3.01233
571.388	2.63205
574.762	1.43585
578.137	1.23718
581.512	0.813477
584.887	2.03134
588.261	2.19296
591.636	1.45215
595.011	0.626678
598.386	1.44705
601.761	1.26721
605.136	2.0271
608.51	4.61398
611.885	7.31879
615.26	8.0141
618.635	10.1393
622.01	13.1393
625.385	12.4035
628.759	13.0762
632.134	10.4271
635.509	11.3324
638.884	12.3276
642.259	8.96564
645.633	7.7095
649.008	4.04309
652.383	3.14188
655.758	1.28046
659.133	0.403625
662.507	1.00613
665.882	0.240631
669.257	1.04199
672.632	0.733734
676.007	2.06042
679.381	0.738983
682.756	0.915955
686.131	2.1532
689.506	1.46576
692.881	3.29309
696.256	2.78519
699.63	3.63687
703.005	2.35043
706.38	1.72455
709.755	1.44189
713.13	2.3981
716.505	3.97369
719.879	3.39529
723.254	2.24115
726.629	3.61209
730.004	3.07309
733.379	2.70908
736.753	1.66385
740.128	1.25598
743.503	2.21674
746.878	1.46158
750.253	2.17108
753.627	0.708618
757.002	1.68137
760.377	2.21161
763.752	0.44574
767.127	2.0466
770.501	3.62329
773.876	2.73276
777.251	0.23056
780.626	2.25885
784.001	2.39807
787.376	3.50378
790.75	2.53104
794.125	2.6459
797.5	1.55777
800.875	1.1348
804.25	2.68616
807.625	3.22754
810.999	0.150574
814.374	0.139465
817.749	0.230713
821.124	1.90198
824.499	2.05414
827.873	1.53363
831.248	6.63257
834.623	8.14252
837.998	12.2413
841.373	13.7907
844.747	23.7273
848.122	27.4166
851.497	31.3159
854.872	31.2448
858.247	31.3752
861.621	21.0663
864.996	17.0179
868.371	12.7432
871.746	6.84564
875.121	4.61346
878.495	2.80524
881.87	1.44519
885.245	4.50055
888.62	0.503479
891.995	1.93341
895.37	1.62146
898.744	1.39435
902.119	2.5849
905.494	2.11408
908.869	1.27216
912.244	3.34882
915.619	4.02606
918.993	5.83618
922.368	4.94391
925.743	2.05682
929.118	5.20038
932.493	3.62952
935.867	2.09021
939.242	4.74707
942.617	5.30682
945.992	6.36304
949.367	3.37573
952.741	0.999084
956.116	2.77869
959.491	3.63019
962.866	2.4538
966.241	1.22803
969.615	0.5
972.99	0.065796
976.365	0.590698
979.74	3.75324
983.115	8.59625
986.49	14.1332
989.864	27.705
993.239	47.6375
996.614	71.8371
999.989	90.3326
1003.36	97.2447
1006.74	81.2598
1010.11	49.3187
1013.49	27.8662
1016.86	12.1676
1020.24	7.18494
1023.61	0.108765
1026.99	2.13074
1030.36	2.55518
1033.74	0.592773
1037.11	2.43066
1040.49	1.8678
1043.86	0.744019
1047.24	0.734375
1050.61	4.74341
1053.99	6.74219
1057.36	2.3573
1060.74	6.37439
1064.11	1.93616
1067.48	0.609497
1070.86	0.240479
1074.23	7.03442
1077.61	1.69397
1080.98	2.72119
1084.36	1.30579
1087.73	4.6825
1091.11	0.495117
1094.48	1.04309
1097.86	4.3938
1101.23	0.284546
1104.61	0.072021
1107.98	2.4552
1111.36	4.31787
1114.73	2.16382
1118.11	2.55957
1121.48	4.56018
1124.86	3.84033
1128.23	11.3298
1131.61	4.60925
1134.98	5.48267
1138.36	3.88977
1141.73	3.67114
1145.11	3.75012
1148.48	1.9259
1151.86	10.1663
1155.23	9.95703
1158.61	7.36877
1161.98	13.0952
1165.36	8.29724
1168.73	15.2513
1172.1	17.3413
1175.48	19.531
1178.85	15.0653
1182.23	13.7522
1185.6	7.5083
1188.98	11.3622
1192.35	14.8901
1195.73	13.356
1199.1	7.06494
1202.48	6.19849
1205.85	2.25977
1209.23	1.66724
1212.6	7.60767
1215.98	8.00464
1219.35	2.75342
1222.73	2.30493
1226.1	3.50977
1229.48	2.96826
1232.85	9.54297
1236.23	15.6636
1239.6	12.5261
1242.97	14.5706
1246.35	15.6418
1249.72	12.6924
1253.1	16.5312
1256.47	14.7361
1259.85	6.05225
1263.22	10.978
1266.6	1.51392
1269.97	7.39282
1273.35	3.68042
1276.72	7.14331
1280.1	4.71851
1283.47	0.577637
