Measurement: Raman, 780 nm, unoriented, Raman Data Processed
Mineral: Fluor-dravite
Rruff sample: R110031
Ideal chemistry: NaMg_3_Al_6_(Si_6_O_18_)(BO_3_)_3_(OH)_3_F
Locality: Kefalos Hill, Skotini Bay, Galissas, Syros Island, Aegean Sea, Greece
Source: William W Pinch
Description: Black massive, associated with actinolite and omphacite R110038
Raman shift (cm-1)	intensity
177.902	0
180.795	3.26941
183.688	5.76331
186.581	7.22961
189.473	1.79822
192.366	3.96582
195.259	2.14526
198.151	1.29919
201.044	28.1232
203.937	30.8818
206.829	73.5859
209.722	115.784
212.615	134.172
215.507	142.209
218.4	127.98
221.293	111.836
224.186	108.814
227.078	105.597
229.971	114.295
232.864	126.376
235.756	149.909
238.649	162.814
241.542	161.155
244.435	133.195
247.327	128.242
250.22	101.088
253.113	77.115
256.005	62.5095
258.898	58.6384
261.791	51.2043
264.683	56.1177
267.576	49.9126
270.469	45.5172
273.361	25.8624
276.254	35.3877
279.147	16.9215
282.04	13.6091
284.932	2.00244
287.825	2.72778
290.718	6.83826
293.61	2.67664
296.503	3.66785
299.396	4.30359
302.288	6.27893
305.181	14.7789
308.074	23.4718
310.967	25.235
313.859	33.7384
316.752	25.6318
319.645	15.5989
322.537	25.6295
325.43	23.1791
328.323	34.7479
331.216	40.2263
334.108	45.3876
337.001	59.6005
339.894	67.8133
342.786	84.058
345.679	89.2899
348.572	114.804
351.464	127.175
354.357	159.137
357.25	202.477
360.142	249.469
363.035	303.591
365.928	347.75
368.821	330.966
371.713	279.369
374.606	207.652
377.499	156.891
380.391	126.016
383.284	96.3629
386.177	93.056
389.07	83.2474
391.962	77.5129
394.855	66.313
397.748	58.6205
400.64	66.559
403.533	54.4408
406.426	41.1185
409.318	42.4978
412.211	5.67181
415.104	16.4019
417.997	9.2691
420.889	0.826477
423.782	3.83069
426.675	1.73285
429.567	5.25995
432.46	4.66547
435.353	2.34399
438.245	4.07178
441.138	2.42444
444.031	0.071167
446.923	4.19684
449.816	2.50055
452.709	3.92755
455.602	10.3072
458.494	9.54254
461.387	3.57416
464.28	11.6773
467.172	9.03351
470.065	9.76843
472.958	23.8491
475.851	30.7831
478.743	21.3511
481.636	29.7909
484.529	39.0054
487.421	50.1868
490.314	46.3234
493.207	50.0266
496.099	58.4598
498.992	68.556
501.885	60.0662
504.777	70.1785
507.67	68.1697
510.563	76.3838
513.456	83.2034
516.348	92.9851
519.241	83.2398
522.134	79.6201
525.026	91.2378
527.919	103.712
530.812	95.0041
533.705	100.901
536.597	103.394
539.49	104.755
542.383	95.2734
545.275	88.884
548.168	81.114
551.061	69.0149
553.953	57.749
556.846	59.6009
559.739	55.9039
562.631	41.3167
565.524	39.7524
568.417	24.7743
571.31	24.0939
574.202	17.327
577.095	18.4383
579.988	16.6614
582.88	10.0828
585.773	5.55896
588.666	1.49158
591.558	2.37213
594.451	0.56427
597.344	0.467896
600.237	1.18652
603.129	9.09399
606.022	1.81348
608.915	0.441101
611.807	2.73321
614.7	4.54565
617.593	10.1273
620.486	16.6143
623.378	13.6177
626.271	26.3508
629.164	30.2847
632.056	38.5977
634.949	30.2591
637.842	29.8304
640.734	31.633
643.627	31.8887
646.52	33.4365
649.413	34.6232
652.305	40.6114
655.198	38.5266
658.091	41.1616
660.983	44.9414
663.876	64.9499
666.769	81.6539
669.661	109.039
672.554	140.607
675.447	172.567
678.34	222.428
681.232	233.598
684.125	207.278
687.018	162.723
689.91	131.907
692.803	126.395
695.696	117.695
698.588	120.15
701.481	119.172
704.374	107.342
707.266	75.9723
710.159	47.5644
713.052	24.171
715.945	10.0643
718.837	7.63159
721.73	2.54614
724.623	3.03784
727.515	3.18811
730.408	11.113
733.301	3.22742
736.193	4.52356
739.086	0.267883
741.979	3.28876
744.872	5.01739
747.764	5.08008
750.657	11.3218
753.55	8.24762
756.442	6.14331
759.335	11.7341
762.228	11.3914
765.12	8.43292
768.013	6.7478
770.906	4.22199
773.799	4.28137
776.691	6.35156
779.584	4.69305
782.477	7.83887
785.369	10.1882
788.262	7.41315
791.155	26.3944
794.048	10.3018
796.94	7.80774
799.833	8.03516
802.726	2.07825
805.618	0.281921
808.511	4.22327
811.404	3.74255
814.296	3.43506
817.189	5.97565
820.082	11.3928
822.975	9.48352
825.867	6.8288
828.76	7.82971
831.653	7.72272
834.545	7.39795
837.438	4.24939
840.331	2.68774
843.223	0.870483
846.116	2.77753
849.009	7.8429
851.902	8.67572
854.794	11.0032
857.687	10.9909
860.58	13.0179
863.472	8.56238
866.365	5.48322
869.258	11.4631
872.15	10.3874
875.043	10.7794
877.936	2.62274
880.829	9.64654
883.721	11.4573
886.614	12.2623
889.507	10.1623
892.399	4.16248
895.292	5.31598
898.185	2.09857
901.077	3.27264
903.97	2.43457
906.863	4.58093
909.756	5.17804
912.648	2.62134
915.541	9.18341
918.434	7.14783
921.326	2.84167
924.219	2.0863
927.112	0.392517
930.005	1.51648
932.897	4.4129
935.79	0.577515
938.683	3.70606
941.575	4.38055
944.468	1.08081
947.361	0.726501
950.253	2.81525
953.146	4.62207
956.039	6.55847
958.932	5.89166
961.824	13.1865
964.717	5.7168
967.61	18.8648
970.502	12.8862
973.395	18.8099
976.288	14.8638
979.18	7.70648
982.073	26.7889
984.966	17.5093
987.859	26.25
990.751	29.4356
993.644	37.572
996.537	34.3529
999.429	39.2035
1002.32	43.2643
1005.22	53.2532
1008.11	61.2921
1011	69.3119
1013.89	74.1506
1016.78	71.8981
1019.68	78.674
1022.57	76.7344
1025.46	87.1721
1028.36	80.9252
1031.25	84.8051
1034.14	74.5289
1037.03	62.1498
1039.93	54.4846
1042.82	54.0897
1045.71	45.1979
1048.61	48.5683
1051.5	41.9854
1054.39	40.5393
1057.28	35.076
1060.18	36.7294
1063.07	39.4346
1065.96	31.4027
1068.85	33.2186
1071.75	24.9711
1074.64	22.4333
1077.53	9.71735
1080.42	8.89948
1083.32	8.46576
1086.21	6.76917
1089.1	8.00372
1092	4.2417
1094.89	8.66986
1097.78	7.40942
1100.67	4.24249
1103.57	7.21985
1106.46	6.04407
1109.35	9.67938
1112.24	2.17071
1115.14	9.1781
1118.03	1.32086
1120.92	0.058289
1123.82	3.8399
1126.71	8.62683
1129.6	2.53461
1132.49	3.79102
1135.39	0.337158
1138.28	3.11999
1141.17	3.7074
1144.06	8.48608
1146.96	7.9646
1149.85	4.23718
1152.74	1.72278
1155.63	4.64337
1158.53	5.34607
1161.42	4.54468
1164.31	5.24512
1167.21	9.16675
1170.1	11.2992
1172.99	10.5075
1175.88	9.22809
1178.78	6.22418
1181.67	14.7721
1184.56	8.31201
1187.45	15.3179
1190.35	8.82074
1193.24	16.8588
1196.13	1.27167
1199.03	10.2764
1201.92	7.92718
1204.81	15.9603
1207.7	4.72064
1210.6	12.3339
1213.49	11.4387
1216.38	10.9697
1219.27	9.05273
1222.17	11.6667
1225.06	5.48077
1227.95	9.30414
1230.85	7.60089
1233.74	6.82599
1236.63	6.04382
1239.52	10.3023
1242.42	8.72437
1245.31	9.25934
1248.2	11.301
1251.09	6.46411
1253.99	5.91455
1256.88	3.83374
1259.77	0.497314
1262.66	15.5629
1265.56	14.4442
1268.45	9.15906
1271.34	7.86377
1274.24	9.22266
1277.13	7.50629
1280.02	8.02148
1282.91	0.378174
