Measurement: Raman, 532 nm, unoriented, Raman Data Processed
Mineral: Fluorcalciopyrochlore
Rruff sample: R061003
Ideal chemistry: (Ca,Na)_2_(Nb^5+^,Ti^4+^)_2_O_6_F
Locality: Verity property, Blue River, British Columbia, Canada
Source: Michael Scott
Description: Reddish-brown octahedron
Measured chemistry: (Ca_1.03_Na_0.88_Sr_0.03_Ce_0.01_)_Σ1.95_(Nb_1.87_Ti_0.09_Ta_0.04_)_Σ2_O_6_[F_0.93_(OH)_0.01_]_Σ0.94_
Raman shift (cm-1)	intensity
230.481	0
233.373	0.597656
236.266	10.8945
239.159	300.953
242.051	724.824
244.944	987.039
247.837	1171.28
250.729	1213.67
253.622	1313.07
256.515	1468.82
259.407	2068.32
262.3	2436.11
265.193	2826.05
268.086	3300.15
270.978	3768.29
273.871	4205.12
276.764	4724.19
279.656	4978.53
282.549	5105.53
285.442	4671.71
288.334	4108.75
291.227	3758.9
294.12	2985.38
297.012	2393.69
299.905	1993.38
302.798	1668.92
305.691	1432.86
308.583	903.502
311.476	490.305
314.369	200.695
317.261	27.1113
320.154	96.3184
323.047	15.5273
325.94	8.5918
328.832	25.5371
331.725	30.8809
334.618	9.44141
337.51	191.066
340.403	344.951
343.296	486.838
346.188	710.918
349.081	1138.4
351.974	1593.4
354.866	1741.67
357.759	2123.49
360.652	2459.34
363.545	2799.24
366.437	3092.97
369.33	3228.64
372.223	3502.01
375.115	3805.17
378.008	3758.84
380.901	3832.51
383.793	3807.67
386.686	3966.74
389.579	3948.92
392.472	3931.95
395.364	3942.49
398.257	3924.14
401.15	3925.51
404.042	3964.04
406.935	4221.34
409.828	4515.09
412.721	4709.6
415.613	4945.48
418.506	5082.44
421.399	4956.48
424.291	4762.92
427.184	4475.71
430.077	4206.15
432.969	3931.04
435.862	3447.49
438.755	2872.57
441.647	2278.45
444.54	1984.86
447.433	1398.57
450.326	1029.63
453.218	669.951
456.111	390.615
459.004	46.3867
461.896	231.727
464.789	313.826
467.682	422.35
470.575	464.096
473.467	314.713
476.36	34.9082
479.253	530.144
482.145	1352.11
485.038	1987.27
487.931	2585.87
490.823	3014.53
493.716	3137.68
496.609	3168.97
499.501	3359.09
502.394	3055.55
505.287	3162.93
508.18	3091.62
511.072	2838.58
513.965	2673.58
516.858	2463.56
519.75	2249.07
522.643	2053.95
525.536	1675.73
528.428	1475.08
531.321	1128.42
534.214	1008.31
537.106	1077.35
539.999	1232.18
542.892	1248.61
545.785	1283.26
548.677	1115.23
551.57	910.273
554.463	681.234
557.355	608.441
560.248	178.691
563.141	284.805
566.034	142.508
568.926	219.164
571.819	384.582
574.712	955.512
577.604	1738.41
580.497	2817.81
583.39	3565.76
586.282	4796.69
589.175	5727.4
592.068	6823.03
594.961	8092.03
597.853	8967.96
600.746	10083.5
603.639	11119.8
606.531	11847.5
609.424	12664.5
612.317	13317.7
615.209	13620.8
618.102	14176.6
620.995	14591.1
623.888	14740.6
626.78	14500.5
629.673	14463.7
632.566	14065.9
635.458	13725.3
638.351	13310.7
641.244	12825.1
644.136	12200.5
647.029	11849.5
649.922	11331.9
652.814	10410.6
655.707	9497.16
658.6	8633.73
661.493	7695.57
664.385	6790.1
667.278	6025.84
670.171	5213.91
673.063	4270.89
675.956	3330.82
678.849	2688.09
681.741	2222.67
684.634	1889.07
687.527	1128.62
690.42	942.195
693.312	514.471
696.205	233.234
699.098	45.4551
701.99	207.316
704.883	274.768
707.776	369.139
710.668	369.908
713.561	406.195
716.454	302.66
719.347	262.816
722.239	51.4609
725.132	23.2363
728.025	195.193
730.917	268.019
733.81	385.191
736.703	555.078
739.596	644.402
742.488	821.655
745.381	1037.71
748.274	1191.34
751.166	1250.22
754.059	1431.45
756.952	1522.7
759.844	1634.78
762.737	1620.92
765.63	1721.08
768.522	1782.83
771.415	1756.03
774.308	1611.51
777.201	1654.97
780.093	1722.56
782.986	1753.47
785.879	1891.86
788.771	2073.2
791.664	2396.54
794.557	2715.76
797.449	3063.48
800.342	3434.01
803.235	3907.22
806.128	4256.73
809.02	4552.07
811.913	4664.27
814.806	4713.41
817.698	4652.05
820.591	4569.09
823.484	4222.19
826.376	3965.59
829.269	3706.16
832.162	3315.26
835.054	2951.96
837.947	2538.49
840.84	2188.37
843.733	1905.67
846.625	1641.01
849.518	1339.59
852.411	1061.62
855.303	966.061
858.196	878.532
861.089	751.251
863.981	731.58
866.874	638.851
869.767	680.488
872.66	680.992
875.552	634.105
878.445	749.238
881.338	780.163
884.23	844.989
887.123	778.884
890.016	817.45
892.908	843.432
895.801	815.703
898.694	779.96
901.587	668.726
904.479	588.838
907.372	477.141
910.265	600.417
913.157	336.751
916.05	247.352
918.943	152.427
921.835	94.5854
924.728	78.5293
927.621	31.4067
930.514	25.4351
933.406	91.9971
936.299	78.147
939.192	145.133
942.084	83.6294
944.977	110.117
947.87	82.4805
950.763	71.3506
953.655	36.3438
956.548	11.5337
959.441	37.4199
962.333	45.7339
965.226	91.6592
968.119	121.993
971.011	151.085
973.904	229.894
976.797	224.879
979.689	289.98
982.582	272.627
985.475	331.964
988.368	306.441
991.26	331.693
994.153	344.457
997.046	309.998
999.938	296.279
1002.83	258.406
1005.72	214.629
1008.62	196.842
1011.51	181.826
1014.4	99.9297
1017.29	126.041
1020.19	89.03
1023.08	50.927
1025.97	66.8538
1028.87	72.8643
1031.76	5.83789
1034.65	34.5054
1037.54	31.7654
1040.44	4.69287
1043.33	20.1951
1046.22	2.03565
1049.11	31.573
1052.01	58.9331
1054.9	79.9641
1057.79	112.701
1060.68	159.362
1063.58	151.647
1066.47	157.045
1069.36	249.579
1072.26	221.065
1075.15	283.684
1078.04	304.598
1080.93	373.363
1083.83	407.973
1086.72	396.643
1089.61	418.226
1092.51	427.93
1095.4	430.44
1098.29	427.38
1101.18	401.966
1104.08	362.213
1106.97	351.228
1109.86	293.713
1112.75	249.651
1115.65	237.97
1118.54	219.065
1121.43	230.798
1124.32	256.815
1127.22	292.487
1130.11	331.933
1133	350.57
1135.89	339.238
1138.79	358.317
1141.68	355.32
1144.57	313.263
1147.47	286.571
1150.36	243.481
1153.25	245.885
1156.14	226.75
1159.04	189.154
1161.93	184.21
1164.82	154.808
1167.71	110.249
1170.61	120.287
1173.5	116.691
1176.39	104.437
1179.29	52.4194
1182.18	67.718
1185.07	74.6909
1187.96	57.2605
1190.86	0.378418
1193.75	27.196
1196.64	32.874
1199.54	4.69653
1202.43	0.051758
1205.32	15.9993
1208.21	6.32519
1211.11	5.78979
1214	36.167
1216.89	16.7834
1219.78	11.4902
1222.68	2.18897
1225.57	44.5322
1228.46	1.75415
1231.35	12.6694
1234.25	8.40967
1237.14	30.9163
1240.03	31.9729
1242.92	48.7432
1245.82	26.4927
1248.71	79.3926
1251.6	53.7688
1254.5	53.5125
1257.39	44.2693
1260.28	32.8149
1263.17	69.5364
1266.07	39.8332
1268.96	26.7507
1271.85	35.2998
1274.74	10.7722
1277.64	28.0166
1280.53	5.53003
1283.42	3.39697
