Measurement: Raman, 532 nm, unoriented, Raman Data Processed
Mineral: Fluorcalciomicrolite
Rruff sample: R130022
Ideal chemistry: (Ca,Na)_2_Ta^5+^_2_O_6_F
Locality: Emdal mines, Muiane, Mozambique
Source: Royal Ontario Museum
Description: Yellowish brown transparent fragment
Measured chemistry: (Ca_1.14_Na_0.78_U_0.03_)_Σ=1.95_(Ta_1.63_Nb_0.18_Ti_0.15_Sb_0.02_Sn_0.02_)_Σ=2_O_6_[F_0.73_(OH)_0.24_]_Σ=0.97_
Raman shift (cm-1)	intensity
215.676	0
218.569	0.998738
221.462	0.036063
224.354	4.41223
227.247	4.70705
230.14	2.44893
233.032	0.919037
235.925	1.42353
238.818	4.70636
241.71	5.9995
244.603	8.72399
247.496	9.2114
250.389	8.24579
253.281	7.95672
256.174	10.6354
259.067	11.9555
261.959	10.8194
264.852	14.7323
267.745	17.9526
270.637	18.6832
273.53	21.2661
276.423	25.3454
279.316	26.1851
282.208	30.3631
285.101	30.8775
287.994	34.295
290.886	36.21
293.779	36.4339
296.672	34.6349
299.565	34.5596
302.457	33.5
305.35	31.1179
308.243	28.0823
311.135	23.1284
314.028	19.8155
316.921	18.8383
319.813	13.9887
322.706	12.3939
325.599	12.125
328.491	10.7418
331.384	10.8194
334.277	12.0181
337.17	11.6286
340.062	10.7087
342.955	11.4437
345.848	7.1596
348.74	6.47165
351.633	6.68635
354.526	3.06008
357.418	3.95148
360.311	2.7917
363.204	0.965866
366.097	0.190117
368.989	0.387947
371.882	1.03871
374.775	1.1965
377.667	0.490769
380.56	0.216196
383.453	0.483903
386.346	1.3379
389.238	0.446245
392.131	0.437305
395.024	0.442104
397.916	1.48509
400.809	0.436292
403.702	0.881334
406.594	1.41202
409.487	1.41191
412.38	1.19293
415.272	2.7309
418.165	2.48269
421.058	2.47657
423.951	2.66309
426.843	1.93941
429.736	2.50424
432.629	1.87786
435.521	2.06016
438.414	2.57883
441.307	3.26289
444.2	2.12145
447.092	2.64055
449.985	2.65229
452.878	2.98658
455.77	0.298679
458.663	2.35852
461.556	0.729315
464.448	0.405308
467.341	0.737499
470.234	0.191569
473.127	0.532248
476.019	2.28257
478.912	2.47797
481.805	2.22341
484.697	5.49286
487.59	5.89568
490.483	8.84872
493.375	14.283
496.268	17.4614
499.161	23.5731
502.053	27.0579
504.946	30.6897
507.839	32.2907
510.732	33.331
513.624	29.121
516.517	24.3083
519.41	20.7387
522.302	17.6791
525.195	13.7329
528.088	15.1807
530.981	12.7865
533.873	13.8087
536.766	14.1379
539.659	15.1675
542.551	14.3642
545.444	14.953
548.337	14.3421
551.229	12.9276
554.122	12.6638
557.015	9.52423
559.908	8.98586
562.8	7.25057
565.693	5.00085
568.586	2.82901
571.478	1.76794
574.371	0.759035
577.264	0.578146
580.156	0.018686
583.049	0.747661
585.942	0.331259
588.835	0.960229
591.727	0.423267
594.62	1.77068
597.513	2.07692
600.405	6.45405
603.298	7.63948
606.191	11.4774
609.083	14.058
611.976	17.1656
614.869	22.1133
617.761	26.411
620.654	28.0056
623.547	30.8605
626.44	33.0162
629.332	34.0373
632.225	37.2724
635.118	39.0139
638.01	39.1879
640.903	38.8295
643.796	39.0932
646.688	40.3701
649.581	39.4225
652.474	40.9632
655.367	40.6153
658.259	39.8042
661.152	38.4404
664.045	37.7896
666.937	39.2075
669.83	40.2402
672.723	37.7053
675.615	37.4503
678.508	35.2654
681.401	34.287
684.294	31.0363
687.186	29.5088
690.079	25.494
692.972	22.4003
695.864	18.037
698.757	15.2027
701.65	12.0865
704.543	8.09666
707.435	6.42573
710.328	2.96026
713.221	0.810337
716.113	0.44432
719.006	1.04871
721.899	0.647329
724.791	0.451731
727.684	0.034299
730.577	1.80148
733.47	0.762878
736.362	0.288321
739.255	1.60141
742.148	1.61683
745.04	0.366252
747.933	1.85624
750.826	4.22064
753.718	6.0511
756.611	9.35958
759.504	15.0515
762.396	18.7055
765.289	22.892
768.182	28.6874
771.075	34.4157
773.967	41.3091
776.86	46.8692
779.753	50.8608
782.645	56.2859
785.538	61.8596
788.431	65.7522
791.323	72.1059
794.216	75.2282
797.109	79.0439
800.002	80.5391
802.894	81.5013
805.787	80.8523
808.68	80.9588
811.572	78.0306
814.465	77.1942
817.358	74.0464
820.25	70.1905
823.143	67.9742
826.036	62.9717
828.929	57.7519
831.821	52.0014
834.714	51.1307
837.607	44.6069
840.5	42.7819
843.392	37.323
846.285	32.842
849.178	29.0932
852.07	24.8412
854.963	23.2003
857.856	18.8258
860.748	16.0933
863.641	12.7615
866.534	8.60824
869.427	7.07173
872.319	4.64785
875.212	3.24914
878.105	2.46175
880.997	1.68521
883.89	0.306457
886.783	1.44954
889.675	1.15946
892.568	0.583275
895.461	0.59822
898.354	0.355225
901.246	0.134389
904.139	0.103295
907.032	0.700159
909.924	0.336483
912.817	0.612747
915.71	0.385496
918.602	0.148746
921.495	0.11814
924.388	0.752283
927.28	0.706211
930.173	1.15151
933.066	0.981072
935.959	1.98785
938.851	1.75387
941.744	2.36634
944.637	2.78472
947.529	1.76777
950.422	1.56031
953.315	1.77085
956.207	1.23534
959.1	1.05834
961.993	2.10458
964.886	2.28162
967.778	3.37646
970.671	3.07374
973.564	4.00733
976.456	5.06445
979.349	5.31787
982.242	4.69933
985.135	5.0511
988.027	6.87974
990.92	6.32906
993.813	6.29153
996.705	5.50447
999.598	5.38447
1002.49	4.87639
1005.38	3.41224
1008.28	3.44868
1011.17	2.48373
1014.06	2.55935
1016.95	0.891957
1019.85	1.04
1022.74	0.24265
1025.63	0.743604
1028.53	0.348275
1031.42	0.232397
1034.31	0.034319
1037.2	0.68862
1040.1	0.777571
1042.99	0.206001
1045.88	0.513204
1048.77	0.671475
1051.67	0.153194
1054.56	1.00277
1057.45	1.57513
1060.35	2.05016
1063.24	2.17469
1066.13	1.70462
1069.02	2.96482
1071.92	3.92856
1074.81	5.10163
1077.7	5.74481
1080.59	6.80393
1083.49	6.07703
1086.38	7.92221
1089.27	8.00141
1092.16	7.98679
1095.06	8.54189
1097.95	8.69396
1100.84	8.49715
1103.73	9.426
1106.63	8.3116
1109.52	8.54196
1112.41	9.17883
1115.31	9.01983
1118.2	8.68029
1121.09	8.68572
1123.98	8.48621
1126.88	8.27199
1129.77	7.6911
1132.66	8.12456
1135.56	7.58491
1138.45	7.55371
1141.34	5.79765
1144.23	5.8139
1147.13	5.0981
1150.02	4.96527
1152.91	4.79192
1155.8	4.00524
1158.7	2.81081
1161.59	3.78274
1164.48	1.89817
1167.38	2.39582
1170.27	1.10347
1173.16	1.8788
1176.05	1.69612
1178.94	1.68504
1181.84	1.27807
1184.73	0.104379
1187.62	0.184482
1190.52	0.149583
1193.41	0.232441
1196.3	0.193917
1199.19	0.047994
1202.09	0.291063
1204.98	0.760864
1207.87	0.08236
1210.77	0.28293
1213.66	1.1121
1216.55	0.031973
1219.44	0.062147
1222.34	0.269562
1225.23	1.98788
1228.12	1.28414
1231.01	1.689
1233.91	1.05912
1236.8	1.10602
1239.69	1.25284
1242.59	1.59788
1245.48	2.13904
1248.37	1.98614
1251.26	1.60836
1254.16	1.66604
1257.05	1.10293
1259.94	2.05404
1262.83	1.30305
1265.73	1.24209
1268.62	2.30253
1271.51	0.50063
1274.4	2.51842
1277.3	0.916591
1280.19	1.90874
1283.08	2.49842
1285.97	1.82468
1288.87	2.09026
1291.76	0.535067
1294.65	1.34502
1297.55	1.57526
1300.44	0.414478
