Measurement: Raman, 514 nm, unoriented, Raman Data Processed
Mineral: Fluorite
Rruff sample: R050046
Ideal chemistry: CaF_2_
Locality: Shangbao, Lei Yang, Hunan Province, China
Source: Eugene Schlepp
Description: Pale purple crystal
Measured chemistry: Ca_1.000_ F_2.000_
Raman shift (cm-1)	intensity
126.758	0
130.922	474.053
135.083	243.021
139.243	735.388
143.401	505.814
147.557	634.229
151.711	410.75
155.863	457.141
160.013	334.187
164.161	393.705
168.308	241.98
172.452	194.407
176.594	96.099
180.734	74.531
184.872	124.086
189.008	37.138
193.143	104.829
197.275	260.267
201.405	312.962
205.534	493.896
209.66	367.111
213.784	94.273
217.907	123.506
222.027	72.51
226.146	6.028
230.263	15.637
234.377	12.582
238.49	9.276
242.601	2.328
246.709	10.062
250.816	101.312
254.921	26.504
259.024	65.471
263.125	80.297
267.224	33.993
271.321	308.482
275.416	383.803
279.51	623.271
283.601	840.919
287.69	1067.9
291.778	1192.24
295.863	1401.03
299.947	1859.84
304.029	2763.94
308.108	4746.99
312.186	10040.9
316.262	25015.9
320.336	42871
324.408	30152.3
328.478	14212.4
332.546	8040.26
336.612	5171.44
340.677	3928.77
344.739	3036.37
348.799	2349.78
352.858	2016.86
356.915	1782.66
360.969	1573.61
365.022	1502.72
369.073	1625.79
373.122	1515.73
377.169	1588.44
381.215	1811.49
385.258	1475.26
389.299	1647.17
393.339	1651.9
397.376	1570.92
401.412	1530.14
405.446	1496.16
409.478	1586.11
413.508	1459.05
417.536	1397.58
421.562	1492.69
425.586	1669.96
429.609	1508.68
433.629	1580.03
437.648	1411.48
441.665	1430.36
445.68	1622.88
449.693	1396.94
453.704	1464.63
457.713	1342.44
461.721	1284.84
465.726	1258.98
469.73	981.748
473.731	952.9
477.731	631.69
481.729	554.707
485.725	484.24
489.72	350.383
493.712	293.352
497.703	247.781
501.691	152.649
505.678	261.03
509.663	202.465
513.646	216.591
517.627	245.191
521.607	169.753
525.584	89.121
529.56	126.282
533.534	8.199
537.506	225.872
541.476	70.214
545.444	161.481
549.41	49.568
553.375	109.562
557.337	140.467
561.298	83.48
565.257	20.771
569.214	174.506
573.17	78.992
577.123	83.673
581.075	128.546
585.024	25.062
588.972	168.313
592.918	57.348
596.863	91.859
600.805	33.68
604.746	19.779
608.685	7.051
612.621	107.742
616.557	54.534
620.49	185.048
624.421	135.817
628.351	180.979
632.279	297.661
636.205	123.637
640.129	68.845
644.051	11.214
647.972	85.968
651.89	24.826
655.807	88.08
659.722	250.329
663.636	144.575
667.547	230.27
671.457	83.52
675.365	283.056
679.271	410.972
683.175	418.13
687.077	357.624
690.978	360.303
694.877	349.531
698.774	232.926
702.669	303.326
706.562	461.453
710.454	312.129
714.344	196.361
718.232	211.25
722.118	241.873
726.002	167.107
729.885	235.863
733.766	159.062
737.645	318.211
741.522	44.312
745.397	210.215
749.271	224.387
753.143	87.645
757.013	104.08
760.881	206.074
764.748	107.227
768.613	4.83
772.476	7.51
776.337	228.713
780.196	28.342
784.054	15.395
787.91	30.666
791.764	75.533
795.616	179.232
799.467	118.205
803.316	83.453
807.163	412.859
811.008	47.58
814.851	64.529
818.693	40.867
822.533	108.682
826.371	148.779
830.208	65.943
834.042	121.75
837.875	260.633
841.706	328.115
845.536	80.537
849.363	53.51
853.189	26.879
857.013	319.039
860.836	61.125
864.656	179.031
868.475	146.717
872.292	108.186
876.108	181.137
879.922	521.318
883.733	375.77
887.544	281.574
891.352	214.189
895.159	159.289
898.964	302.229
902.767	85.643
906.568	239.307
910.368	614.209
914.166	523.963
917.962	223.844
921.757	834.559
925.55	1074.47
929.341	910.92
933.13	473.799
936.918	619.387
940.703	357.627
944.488	300.234
948.27	1403.82
952.051	464.318
955.83	302.207
959.607	240.389
963.383	165.047
967.156	361.992
970.928	324.074
974.699	284.385
978.468	142.238
982.234	56.516
986	317.754
989.763	301.336
993.525	50.539
997.285	67.758
1001.04	386.385
1004.8	231.711
1008.55	223.332
1012.31	280.695
1016.06	350.203
1019.81	625.014
1023.56	367.705
1027.31	591.697
1031.05	666.967
1034.79	431.865
1038.53	479.041
1042.27	543.994
1046.01	417.316
1049.75	744.543
1053.48	587.086
1057.22	629.178
1060.95	196.365
1064.68	388.746
1068.4	501.676
1072.13	604.209
1075.86	525.949
1079.58	549.314
1083.3	286.066
1087.02	266.912
1090.74	169.348
1094.45	23.285
1098.17	45.75
1101.88	81.051
1105.59	79.125
1109.3	103.697
1113.01	57.986
1116.71	359.316
1120.42	257.67
1124.12	1007.04
1127.82	663.008
1131.52	510.129
1135.22	273.105
1138.91	566.926
1142.61	350.834
1146.3	433.033
1149.99	132.289
1153.68	266.9
1157.37	348.684
1161.06	83.297
1164.74	173.424
1168.42	108.881
1172.1	46.91
1175.78	119.467
1179.46	489.408
1183.14	215.84
1186.81	164.977
1190.48	124.023
1194.15	157.799
1197.83	45.477
1201.49	39.383
1205.16	183.812
1208.82	114.723
1212.49	60.619
1216.15	213.443
1219.81	151.719
1223.46	54.975
1227.12	108.783
1230.78	240.004
1234.43	215.467
1238.08	226.965
1241.73	273.412
1245.38	95.955
1249.03	39.213
1252.67	341.66
1256.31	212.639
1259.95	358.021
1263.6	335.09
1267.23	243.008
1270.87	146.111
1274.51	188.109
1278.14	216.258
1281.77	273.277
1285.4	357.057
1289.03	460.291
1292.66	246.941
1296.28	344.857
1299.91	417.217
1303.53	312.639
1307.15	156.969
1310.77	320.365
1314.38	31.387
1318	315.596
1321.61	203.598
1325.23	13.574
1328.84	44.436
1332.45	152.57
1336.06	96.248
1339.66	52.064
1343.27	170.209
1346.87	14.602
1350.47	32.324
1354.07	57.508
1357.67	244.488
1361.26	374.703
1364.86	508.752
1368.45	245.805
1372.04	169.736
1375.63	138.645
1379.22	38.207
1382.81	150.812
1386.39	433.973
1389.98	427.6
1393.56	163.854
1397.14	495.299
1400.72	287.518
1404.3	111.17
1407.87	93.445
1411.45	77.186
1415.02	190.322
1418.59	35.695
1422.16	247.84
1425.73	249.824
1429.29	438.992
1432.86	304.131
1436.42	156.379
1439.98	197.182
1443.54	216.445
1447.1	404.227
1450.66	451.545
1454.21	339.521
1457.77	442.756
1461.32	529.932
1464.87	670.117
1468.42	226.299
1471.96	419.721
1475.51	423.746
1479.06	82.496
1482.6	74.055
1486.14	102.133
1489.68	26.695
