Measurement: Raman, 532 nm, unoriented, Raman Data Processed
Mineral: Fluorbritholite-(Ce)
Rruff sample: R070412
Ideal chemistry: (Ce^3+^,Ca)_5_(SiO_4_)_3_F
Locality: Lakarp, Norra Kärr, Gränna, Jönköping, Småland, Sweden
Source: Michael Scott
Description: Dark brown crystals embedded in massive enstatite matrix
Measured chemistry: (Ce_1.31_La_0.76_Nd_0.41_Pr_0.12_Y_0.08_Sm_0.06_Gd_0.05_Dy_0.02_Eu_0.01_Ca_1.90_Sr_0.03_Th_0.03_)_Σ=4.78_(Si_2.48_P_0.50_)_Σ=2.98_O_12_(F_0.68_OH_0.45_)_Σ=1.13_
Raman shift (cm-1)	intensity
177.143	0
180.035	121.32
182.928	6.70312
185.821	168.768
188.713	203.047
191.606	430.644
194.499	375.984
197.391	387.232
200.284	462.486
203.177	403.553
206.07	366.426
208.962	409.859
211.855	321.441
214.748	336.301
217.64	475.096
220.533	548.975
223.426	423.338
226.318	426.451
229.211	512.75
232.104	515.057
234.996	433.633
237.889	495.963
240.782	457.643
243.675	397.984
246.567	391.312
249.46	442.508
252.353	521.865
255.245	481.93
258.138	538.404
261.031	611.4
263.923	465.488
266.816	549.738
269.709	541.004
272.602	577.578
275.494	596.219
278.387	595.492
281.28	588.047
284.173	435.303
287.065	615.606
289.958	530.656
292.851	488.742
295.743	542.045
298.636	399.525
301.529	412.24
304.421	345.766
307.314	252.606
310.207	212.207
313.099	189.84
315.992	203.381
318.885	76.0625
321.778	92.6543
324.67	45.1191
327.563	16.0059
330.456	1.55078
333.348	3.52734
336.241	28.168
339.134	21.6758
342.026	53.1484
344.919	40.5801
347.812	22.7285
350.705	67.8672
353.597	101.398
356.49	111.676
359.383	282.787
362.275	263.275
365.168	258.285
368.061	360.221
370.954	495.363
373.846	463.371
376.739	644.059
379.632	694.137
382.524	779.154
385.417	772.553
388.31	712.064
391.202	829.549
394.095	731
396.988	589.596
399.88	702.094
402.773	659.809
405.666	590.438
408.559	632.582
411.451	528.408
414.344	538.67
417.237	503.147
420.129	399.875
423.022	353.66
425.915	537.045
428.808	411.051
431.7	259.336
434.593	376.275
437.486	193.211
440.378	245.492
443.271	166.074
446.164	219.125
449.056	255.312
451.949	94.1484
454.842	76.3203
457.735	80.3066
460.627	62.0039
463.52	9.50781
466.413	104
469.305	36.3711
472.198	53.4375
475.091	4.14844
477.983	113.799
480.876	107.459
483.769	104.734
486.661	42.8027
489.554	27.2695
492.447	36.3867
495.34	60.457
498.232	101.203
501.125	128.731
504.018	187.664
506.911	211.223
509.803	294.071
512.696	291.214
515.589	301.133
518.481	274.82
521.374	276.594
524.267	373.477
527.159	465.332
530.052	197.555
532.945	292.836
535.837	236.34
538.73	144.309
541.623	130.195
544.516	65.0391
547.408	111.777
550.301	152.609
553.194	61.9609
556.086	62.6289
558.979	151.172
561.872	61.3906
564.764	119.758
567.657	76.4492
570.55	119.055
573.443	111.773
576.335	159.164
579.228	297.383
582.121	281.297
585.013	250.164
587.906	303.808
590.799	133.367
593.692	360.891
596.584	315.309
599.477	395.141
602.37	360.973
605.262	391.129
608.155	378.004
611.048	248.125
613.94	371.254
616.833	339.658
619.726	326.109
622.619	319.113
625.511	311.383
628.404	292.18
631.297	271.309
634.189	189.934
637.082	209.531
639.975	116.715
642.867	104.543
645.76	56.3867
648.653	135.285
651.545	2.90625
654.438	185.727
657.331	158.719
660.224	112.969
663.116	85.7383
666.009	182.691
668.902	188.293
671.794	225.016
674.687	113.168
677.58	24.8789
680.472	36.0625
683.365	185.918
686.258	98.4297
689.151	170.008
692.043	168.398
694.936	149.606
697.829	48.543
700.721	19.6641
703.614	122.973
706.507	170.09
709.399	153.617
712.292	6.4375
715.185	246.269
718.078	18.4844
720.97	223.957
723.863	5.64844
726.756	237.691
729.648	241.191
732.541	176.484
735.434	106.777
738.327	123.625
741.219	233.691
744.112	85.6133
747.005	133.156
749.897	105.828
752.79	179.621
755.683	95.8242
758.576	142.633
761.468	33.1289
764.361	6.33203
767.254	66.6406
770.146	94.4297
773.039	3.44922
775.932	140.305
778.824	21.0273
781.717	65.0312
784.61	67.625
787.503	21.7891
790.395	34.0156
793.288	52.9844
796.181	24.0352
799.073	129.68
801.966	175.269
804.859	92.6484
807.751	267.539
810.644	391.254
813.537	549.336
816.429	704.508
819.322	955.785
822.215	1145.16
825.108	1456.1
828	1834.27
830.893	2028.29
833.786	2351.64
836.678	2740.67
839.571	2771.38
842.464	3040.02
845.356	3137.95
848.249	3013.29
851.142	2956.43
854.035	2651.32
856.927	2325.1
859.82	2151.63
862.713	1681.73
865.605	1531.94
868.498	1221.93
871.391	876.012
874.284	815.305
877.176	687.144
880.069	414.527
882.962	399.809
885.854	301.328
888.747	261.773
891.64	272.891
894.533	247.277
897.425	65.8164
900.318	168.981
903.211	102.402
906.103	129.793
908.996	12.8906
911.889	199.676
914.781	64.6094
917.674	79.9219
920.567	89.0781
923.46	134.644
926.352	219.477
929.245	227.961
932.138	280.582
935.03	415.309
937.923	731.328
940.816	868.027
943.708	729.594
946.601	806.098
949.494	889.582
952.386	926.508
955.279	984.438
958.172	835.606
961.065	733.555
963.957	522.582
966.85	519.699
969.743	255.734
972.635	76.4453
975.528	359.328
978.421	180.66
981.313	94.1367
984.206	41.832
987.099	75.4844
989.992	190.078
992.884	3.85938
995.777	36.1641
998.67	74.3008
1001.56	2.33984
1004.46	99.2305
1007.35	16.2891
1010.24	102.641
1013.13	56.3594
1016.03	5.66016
1018.92	120.312
1021.81	154.531
1024.7	72.2227
1027.6	111.16
1030.49	18.5117
1033.38	249.938
1036.28	72.9336
1039.17	39.2383
1042.06	216.93
1044.95	240.473
1047.85	128.652
1050.74	246.18
1053.63	134.973
1056.52	304.715
1059.42	354.004
1062.31	286.406
1065.2	72.2148
1068.09	309.113
1070.99	269.816
1073.88	159.891
1076.77	285.422
1079.66	330.727
1082.56	191.18
1085.45	225.496
1088.34	151.09
1091.24	157.188
1094.13	256.18
1097.02	182.789
1099.91	37.8125
1102.81	28.2617
1105.7	179.602
1108.59	188.894
1111.48	39.625
1114.38	75.6289
1117.27	56.0781
1120.16	105.266
1123.06	307.012
1125.95	252.582
1128.84	68.0859
1131.73	129.621
1134.63	103.848
1137.52	168.797
1140.41	111.375
1143.31	182.402
1146.2	202.109
1149.09	146.316
1151.98	189.992
1154.88	145.086
1157.77	118.012
1160.66	285.383
1163.55	150.051
1166.45	69.5234
1169.34	10.2852
1172.23	77.3789
1175.12	72.7031
1178.02	44.9648
1180.91	67.6094
1183.8	95.8516
1186.69	293.074
1189.59	30.9297
1192.48	150.07
1195.37	76.4961
1198.27	9.91016
1201.16	16.3164
1204.05	290.457
1206.94	102.461
1209.84	54.9609
1212.73	108.93
1215.62	1.55078
1218.52	67.7031
1221.41	206.359
1224.3	130.902
1227.19	179.969
1230.09	130.477
1232.98	118.875
1235.87	153.074
1238.76	105.152
1241.66	211.973
1244.55	122.996
1247.44	12.2969
1250.34	45.3125
1253.23	154.074
1256.12	337.809
1259.01	30.8906
1261.91	222.426
1264.8	180.809
1267.69	253.309
1270.58	225.84
1273.48	254.336
1276.37	204.109
1279.26	363.394
1282.15	201.539
1285.05	248.508
1287.94	144.859
1290.83	119.902
1293.72	242.852
1296.62	15.1602
1299.51	128.113
1302.4	0
