Measurement: Raman, 780 nm, unoriented, Raman Data Processed
Mineral: Fluor-uvite
Rruff sample: R050301
Ideal chemistry: CaMg_3_(Al_5_Mg)(Si_6_O_18_)(BO_3_)_3_(OH)_3_F
Locality: Brumado, Bahia, Brazil
Source: Eugene Schlepp
Description: Short prismatic green crystals
Measured chemistry: (Ca_0.68_Na_0.22_[box]_0.10_)(Mg_0.77_Al_0.16_Ti_0.03_[box]_0.04_)_3_(Mg_1.00_Al_5.00_)(BO_3_)_3_Si_6.00_O_18_((OH)_3_F)
Raman shift (cm-1)	intensity
120.486	0
123.379	4.05713
126.272	2.52832
129.164	7.02051
132.057	7.11597
134.95	3.34155
137.842	2.30298
140.735	9.75244
143.628	19.0107
146.52	20.603
149.413	24.0093
152.306	28.8677
155.199	22.4321
158.091	18.3611
160.984	9.01855
163.877	8.82056
166.769	9.86011
169.662	9.56934
172.555	5.53003
175.447	5.88818
178.34	7.03662
181.233	2.28345
184.126	1.32129
187.018	8.84644
189.911	15.4187
192.804	21.2498
195.696	37.2417
198.589	45.2022
201.482	44.4946
204.375	46.6702
207.267	48.9031
210.16	56.8534
213.053	86.1258
215.945	48.9371
218.838	22.6141
221.731	13.229
224.623	18.092
227.516	11.6364
230.409	9.56665
233.302	16.9099
236.194	23.8419
239.087	39.0575
241.98	35.0418
244.872	34.5499
247.765	12.1393
250.658	15.3418
253.55	13.3264
256.443	9.01343
259.336	4.69727
262.228	11.1387
265.121	12.3009
268.014	19.2341
270.907	14.4735
273.799	10.5792
276.692	4.04968
279.585	1.06458
282.477	1.04871
285.37	0.218628
288.263	4.05847
291.156	0.715332
294.048	3.22278
296.941	2.11548
299.834	2.41357
302.726	2.53308
305.619	1.65002
308.512	2.29736
311.404	5.7218
314.297	13.1583
317.19	17.6119
320.082	18.1024
322.975	26.5216
325.868	26.3938
328.761	28.6855
331.653	34.3722
334.546	36.755
337.439	38.4117
340.331	34.7788
343.224	40.3397
346.117	46.4237
349.01	43.5929
351.902	45.5803
354.795	56.4199
357.688	68.2242
360.58	86.2794
363.473	107.521
366.366	124.724
369.258	127.963
372.151	125.214
375.044	91.2268
377.937	70.3577
380.829	44.5088
383.722	28.5961
386.615	24.5126
389.507	17.5523
392.4	8.45154
395.293	3.39978
398.185	9.87671
401.078	0.667114
403.971	3.58093
406.863	2.77917
409.756	1.95178
412.649	1.22424
415.541	2.59497
418.434	2.34155
421.327	1.20581
424.22	2.99414
427.112	1.35498
430.005	5.50171
432.898	0.305542
435.79	5.22864
438.683	5.97473
441.576	13.5004
444.469	9.97144
447.361	7.93579
450.254	13.1459
453.147	15.1371
456.039	16.5566
458.932	19.8867
461.825	23.9185
464.717	28.1681
467.61	33.2989
470.503	37.6968
473.396	40.2675
476.288	36.7285
479.181	41.3734
482.074	38.0133
484.966	37.1449
487.859	30.9574
490.752	22.9868
493.644	25.4607
496.537	24.7775
499.43	17.2246
502.322	9.93262
505.215	20.2794
508.108	16.3033
511.001	8.43481
513.893	11.4177
516.786	18.2883
519.679	17.1478
522.571	16.6406
525.464	16.0373
528.357	15.2891
531.25	12.9608
534.142	7.11304
537.035	5.74548
539.928	8.19312
542.82	6.49109
545.713	3.66467
548.606	0.779663
551.498	5.56067
554.391	1.91235
557.284	1.89172
560.177	4.94067
563.069	1.35083
565.962	3.88904
568.855	6.94104
571.747	1.47107
574.64	1.4801
577.533	1.89002
580.425	3.85339
583.318	1.50024
586.211	3.40686
589.104	0.328003
591.996	2.44971
594.889	0.364136
597.782	2.04773
600.674	4.96863
603.567	9.03955
606.46	1.64136
609.352	1.41663
612.245	8.88977
615.138	3.19214
618.03	2.6051
620.923	10.8898
623.816	12.5088
626.709	19.0577
629.601	21.7429
632.494	22.9793
635.387	13.5448
638.279	8.08972
641.172	9.82202
644.065	10.5466
646.957	14.4226
649.85	9.86255
652.743	9.01331
655.636	8.32898
658.528	8.77161
661.421	11.5273
664.314	8.17127
667.206	9.26636
670.099	7.06348
672.992	5.13147
675.885	2.71411
678.777	3.15283
681.67	8.69812
684.563	3.95019
687.455	7.21838
690.348	16.0814
693.241	13.1165
696.133	27.3023
699.026	37.7013
701.919	51.4319
704.812	49.6951
707.704	42.459
710.597	23.1334
713.49	12.5343
716.382	1.92151
719.275	1.44849
722.168	1.16321
725.06	1.54175
727.953	2.21936
730.846	3.37012
733.739	2.43018
736.631	2.60803
739.524	5.93396
742.417	6.3064
745.309	16.613
748.202	28.7312
751.095	39.1501
753.987	44.9733
756.88	56.5137
759.773	49.4373
762.665	46.1306
765.558	32.124
768.451	20.4591
771.344	18.9565
774.236	12.7667
777.129	11.3622
780.022	9.90515
782.914	7.3866
785.807	10.3317
788.7	7.06104
791.592	6.33801
794.485	10.6313
797.378	13.949
800.271	15.2604
803.163	10.9192
806.056	12.1412
808.949	17.2814
811.841	14.2622
814.734	12.9808
817.627	20.8408
820.519	9.2179
823.412	12.2992
826.305	5.84058
829.198	8.68481
832.09	7.77576
834.983	4.22644
837.876	5.67297
840.768	3.14917
843.661	5.06982
846.554	2.12122
849.447	1.01856
852.339	0.723877
855.232	3.05786
858.125	0.985596
861.017	4.65845
863.91	7.03833
866.803	4.87659
869.695	2.65552
872.588	7.02881
875.481	3.89954
878.374	4.19385
881.266	3.48206
884.159	4.4895
887.052	4.27905
889.944	3.65649
892.837	6.56506
895.73	6.21179
898.622	3.90894
901.515	4.19482
904.408	4.01269
907.301	1.27209
910.193	4.17517
913.086	3.70691
915.979	0.004639
918.871	0.608032
921.764	3.65674
924.657	0.556519
927.549	2.74085
930.442	1.82349
933.335	7.74133
936.227	4.16675
939.12	1.28186
942.013	4.25098
944.906	4.8418
947.798	7.2356
950.691	7.34985
953.584	9.8053
956.476	5.0249
959.369	10.4797
962.262	11.3455
965.154	10.5638
968.047	11.6188
970.94	9.01526
973.832	12.4499
976.725	6.07141
979.618	8.97644
982.511	4.85998
985.403	3.63013
988.296	3.9198
991.189	3.14233
994.081	3.34314
996.974	5.39002
999.867	2.32056
1002.76	1.0199
1005.65	0.987183
1008.54	2.05005
1011.44	1.04114
1014.33	5.82519
1017.22	6.61939
1020.12	11.2685
1023.01	12.8397
1025.9	17.2916
1028.79	19.7528
1031.69	23.9606
1034.58	25.0804
1037.47	31.2515
1040.37	28.4537
1043.26	29.1893
1046.15	32.4062
1049.04	33.1918
1051.93	31.4152
1054.83	26.7105
1057.72	30.4945
1060.61	29.8079
1063.51	35.2605
1066.4	39.4797
1069.29	40.7351
1072.18	39.099
1075.08	37.4164
1077.97	36.5421
1080.86	31.9823
1083.76	25.6306
1086.65	22.9074
1089.54	19.3015
1092.43	17.0388
1095.33	15.0658
1098.22	13.207
1101.11	11.6448
1104	0.715576
1106.9	0.035522
1109.79	3.70801
1112.68	0.108521
1115.58	1.51123
1118.47	4.98254
1121.36	2.79187
1124.25	3.823
1127.15	7.96021
1130.04	6.48926
1132.93	4.01404
1135.82	6.23987
1138.72	2.74182
1141.61	5.68604
1144.5	4.15381
1147.39	2.70813
1150.29	1.91833
1153.18	3.94934
1156.07	11.7261
1158.96	4.31519
1161.86	2.625
1164.75	0.501465
1167.64	0.460693
