Measurement: Raman, 780 nm, unoriented, Raman Data Processed
Mineral: Fluorapatite
Rruff sample: R050369
Ideal chemistry: Ca_5_(PO_4_)_3_F
Locality: Russia
Source: Eugene Schlepp
Description: Blueish-green hexagonal prismatic crystal
Measured chemistry: (Ca_0.99_Na_0.01_)_5_((P_0.98_S_0.02_)O_4_)_3_F_1.00_
Raman shift (cm-1)	intensity
129.164	0
132.057	7.11868
134.95	26.3631
137.842	54.3917
140.735	56.6435
143.628	12.1885
146.52	0.082184
149.413	0.214233
152.306	7.34039
155.199	25.4917
158.091	36.4849
160.984	28.3442
163.877	25.7429
166.769	20.146
169.662	25.1188
172.555	16.8678
175.447	21.6223
178.34	23.5601
181.233	26.4603
184.126	23.4825
187.018	28.9653
189.911	40.6625
192.804	42.9751
195.696	51.7911
198.589	51.6229
201.482	55.6772
204.375	59.4075
207.267	58.2744
210.16	54.0721
213.053	39.4841
215.945	32.9432
218.838	27.1219
221.731	23.5567
224.623	23.2846
227.516	22.1779
230.409	23.7084
233.302	18.9012
236.194	21.6892
239.087	9.00836
241.98	5.24701
244.872	7.92529
247.765	0.690918
250.658	4.08136
253.55	2.36578
256.443	6.69708
259.336	5.55945
262.228	15.7788
265.121	28.6383
268.014	31.0309
270.907	24.0543
273.799	13.1357
276.692	12.8394
279.585	18.493
282.477	32.1527
285.37	44.3478
288.263	61.171
291.156	81.1726
294.048	96.0032
296.941	130.858
299.834	169.742
302.726	201.554
305.619	233.768
308.512	265.844
311.404	314.501
314.297	338.204
317.19	403.817
320.082	447.702
322.975	485.904
325.868	523.578
328.761	546.392
331.653	544.794
334.546	544.589
337.439	527.925
340.331	516.452
343.224	506.853
346.117	481.017
349.01	450.799
351.902	424.209
354.795	377.736
357.688	343.432
360.58	290.008
363.473	233.866
366.366	179.021
369.258	128.09
372.151	89.3863
375.044	49.3364
377.937	21.8562
380.829	7.28809
383.722	10.475
386.615	14.0206
389.507	5.64966
392.4	11.906
395.293	27.3175
398.185	58.9332
401.078	93.0471
403.971	133.089
406.863	176.921
409.756	206.818
412.649	254.136
415.542	313.032
418.434	354.572
421.327	393.297
424.22	459.405
427.112	499.779
430.005	524.529
432.898	493.641
435.791	442.029
438.683	376.765
441.576	334.966
444.469	297.51
447.361	262.69
450.254	210.406
453.147	177.993
456.039	135.067
458.932	105.015
461.825	85.1493
464.717	72.2439
467.61	48.266
470.503	45.8
473.396	42.548
476.288	23.5034
479.181	16.4985
482.074	9.91187
484.966	8.33777
487.859	5.71277
490.752	0.191895
493.644	0.329224
496.537	2.7262
499.43	1.50232
502.323	0.477417
505.215	1.28357
508.108	10.0922
511.001	3.62573
513.893	1.80994
516.786	13.8279
519.679	14.9841
522.572	17.1155
525.464	17.623
528.357	16.6303
531.25	14.8293
534.142	11.4746
537.035	7.9895
539.928	3.00098
542.82	0.086548
545.713	2.39514
548.606	2.69812
551.499	1.55896
554.391	1.6413
557.284	7.97858
560.177	13.3303
563.069	35.135
565.962	52.4221
568.855	67.6888
571.747	82.176
574.64	102.134
577.533	150.218
580.426	192.588
583.318	166.107
586.211	123.998
589.104	136.314
591.996	139.26
594.889	96.369
597.782	70.4241
600.674	72.5087
603.567	91.8742
606.46	118.34
609.352	79.7881
612.245	36.6578
615.138	36.4269
618.03	28.7758
620.923	9.87842
623.816	12.3513
626.709	10.4019
629.601	10.4346
632.494	10.7875
635.387	8.55249
638.279	22.6786
641.172	23.5524
644.065	24.6393
646.957	24.1082
649.85	24.3748
652.743	19.9525
655.636	15.3068
658.528	15.6215
661.421	20.4767
664.314	12.3716
667.206	17.0211
670.099	10.7232
672.992	16.1444
675.885	17.0504
678.777	18.5657
681.67	14.9007
684.563	17.5544
687.455	15.1877
690.348	9.64575
693.241	7.43445
696.133	7.2243
699.026	7.95764
701.919	7.30707
704.812	2.77771
707.704	6.86633
710.597	8.71918
713.49	5.09216
716.382	4.50421
719.275	7.15265
722.168	0.365356
725.06	3.92389
727.953	0.026978
730.846	0.027405
733.739	5.14246
736.631	4.73651
739.524	4.47021
742.417	2.35877
745.309	1.19049
748.202	9.33307
751.095	5.86243
753.987	11.0044
756.88	17.9571
759.773	24.8574
762.665	31.0219
765.558	50.3341
768.451	55.4532
771.344	60.8969
774.236	74.0245
777.129	84.221
780.022	93.6694
782.914	95.2087
785.807	98.4224
788.7	103.808
791.592	108.1
794.485	108.105
797.378	108.114
800.271	105.947
803.163	108.183
806.056	111.823
808.949	106.312
811.841	109.62
814.734	111.384
817.627	116.537
820.519	119.879
823.412	125.333
826.305	126.202
829.198	130.661
832.09	133.878
834.983	139.341
837.876	134.651
840.768	131.617
843.661	126.323
846.554	106.712
849.447	89.3994
852.339	86.1358
855.232	67.4269
858.125	62.5419
861.017	51.3451
863.91	47.4171
866.803	36.3873
869.695	36.6858
872.588	33.4522
875.481	22.8702
878.374	21.7822
881.266	14.3987
884.159	10.7904
887.052	7.86435
889.944	8.52545
892.837	3.90021
895.73	3.85403
898.622	2.87485
901.515	2.05237
904.408	2.71652
907.301	2.28809
910.193	0.649445
913.086	0.547333
915.979	0.694275
918.871	4.84857
921.764	4.08225
924.657	1.80023
927.549	0.227539
930.442	2.89566
933.335	8.76361
936.227	13.9003
939.12	19.4638
942.013	33.7196
944.906	63.2671
947.798	112.312
950.691	221.173
953.584	360.966
956.476	556.322
959.369	918.8
962.262	1554.17
965.154	1854.92
968.047	855.666
970.94	310.32
973.833	126.842
976.725	55.0469
979.618	24.3468
982.511	13.5955
985.403	6.32474
988.296	6.71225
991.189	1.13431
994.082	3.38602
996.974	5.13413
999.867	9.02316
1002.76	17.8367
1005.65	27.6063
1008.54	39.0735
1011.44	38.9492
1014.33	24.1677
1017.22	21.852
1020.12	22.2281
1023.01	25.8381
1025.9	33.4494
1028.79	48.9867
1031.69	64.472
1034.58	71.7663
1037.47	72.7511
1040.37	81.3037
1043.26	74.9357
1046.15	69.1482
1049.04	70.5591
1051.94	89.551
1054.83	76.8076
1057.72	67.9191
1060.61	58.2107
1063.51	39.2758
1066.4	32.3268
1069.29	31.8326
1072.18	28.7053
1075.08	30.9156
1077.97	45.7994
1080.86	33.2276
1083.76	9.59051
1086.65	0.551941
1089.54	9.09717
1092.43	5.01373
1095.33	7.91992
1098.22	23.9436
1101.11	19.8649
1104	15.5852
1106.9	7.10553
1109.79	1.79089
1112.68	3.21033
1115.58	0.671936
1118.47	4.19263
1121.36	16.9197
