Measurement: Raman, 532 nm, unoriented, Raman Data Processed
Mineral: Fluorcalciopyrochlore
Rruff sample: R110198
Ideal chemistry: (Ca,Na)_2_(Nb^5+^,Ti^4+^)_2_O_6_F
Locality: St Lawrence Columbium mine, Oka complex, Oka, Quebec, Canada
Source: Donald Doell
Description: Dark brownish-red octahedra
Measured chemistry: (Ca_1.17_Na_0.49_Ce_0.19_Mn_0.03_La_0.03_Pr_0.01_Th_0.01_)(Nb_1.55_Ti_0.31_Fe_0.09_Zr_0.04_Ta_0.01_)O_6_[F_0.63_(OH)_0.37_]
Raman shift (cm-1)	intensity
217.289	0
220.182	0.328125
223.074	4.91962
225.967	2.3595
228.86	2.79053
231.752	2.21143
234.645	0.239258
237.538	1.92676
240.43	0.294861
243.323	0.700928
246.216	4.92505
249.109	8.18671
252.001	8.10126
254.894	9.28137
257.787	15.7833
260.679	15.402
263.572	16.1279
266.465	18.7419
269.358	21.4763
272.25	21.6144
275.143	26.515
278.036	26.6448
280.928	29.4862
283.821	25.4005
286.714	27.874
289.606	24.3412
292.499	27.5817
295.392	27.7927
298.284	29.8977
301.177	28.7877
304.07	31.5416
306.963	29.1444
309.855	26.6031
312.748	31.1663
315.641	27.6685
318.533	29.0657
321.426	24.0962
324.319	24.3682
327.212	22.6422
330.104	23.8491
332.997	17.9975
335.89	22.3307
338.782	20.8299
341.675	20.9047
344.568	17.7922
347.46	12.2765
350.353	11.031
353.246	12.5281
356.139	13.8051
359.031	11.8676
361.924	7.6145
364.817	7.81183
367.709	10.0874
370.602	4.31985
373.495	5.92084
376.387	3.2366
379.28	1.62534
382.173	1.50903
385.065	0.493286
387.958	0.633484
390.851	0.849457
393.744	0.844513
396.636	4.14072
399.529	2.55783
402.422	3.84827
405.314	4.10519
408.207	4.29791
411.1	4.91681
413.993	8.86514
416.885	5.08548
419.778	3.19638
422.671	3.1066
425.563	4.85611
428.456	4.94669
431.349	5.19034
434.241	3.16589
437.134	4.17926
440.027	1.58603
442.92	2.43658
445.812	1.1236
448.705	0.064301
451.598	1.35861
454.49	0.330902
457.383	0.138031
460.276	0.982819
463.168	2.0614
466.061	0.669983
468.954	0.650238
471.846	4.3002
474.739	3.97192
477.632	7.78638
480.525	6.20572
483.417	5.8132
486.31	8.89267
489.203	10.5171
492.095	9.32962
494.988	8.3728
497.881	9.16174
500.774	7.5564
503.666	11.2785
506.559	7.31177
509.452	8.14111
512.344	7.77902
515.237	5.48789
518.13	2.97409
521.022	1.86108
523.915	1.35232
526.808	1.38769
529.701	0.692505
532.593	0.454681
535.486	2.35629
538.379	0.456635
541.271	0.297791
544.164	3.21018
547.057	0.328217
549.949	2.29089
552.842	1.54346
555.735	4.68439
558.628	5.03293
561.52	3.57233
564.413	5.51544
567.306	5.81067
570.198	10.318
573.091	9.44638
575.984	12.8244
578.876	16.016
581.769	21.8257
584.662	20.8429
587.554	22.8122
590.447	23.8074
593.34	30.8473
596.232	29.9947
599.125	31.1882
602.018	31.1947
604.911	32.8546
607.803	33.6394
610.696	36.1715
613.589	35.7411
616.481	33.4612
619.374	35.177
622.267	36.4677
625.159	33.0547
628.052	31.742
630.945	31.1166
633.838	31.2652
636.73	33.5483
639.623	33.7773
642.516	31.9882
645.408	30.2085
648.301	31.6154
651.194	30.5727
654.087	30.5221
656.979	22.0767
659.872	19.8062
662.765	19.0095
665.657	21.7144
668.55	19.4301
671.443	13.1669
674.335	12.9505
677.228	7.35275
680.121	9.17127
683.014	4.56876
685.906	6.785
688.799	4.45032
691.692	2.82559
694.584	0.701416
697.477	1.5661
700.37	3.72201
703.263	7.26703
706.155	3.28586
709.048	0.857605
711.941	0.427826
714.833	2.27246
717.726	3.04691
720.619	5.61826
723.511	3.65573
726.404	1.12942
729.297	3.51614
732.189	8.35294
735.082	6.76077
737.975	10.4147
740.868	12.6127
743.76	16.6159
746.653	20.5119
749.546	22.1061
752.438	29.8553
755.331	33.9313
758.224	40.6258
761.116	42.282
764.009	43.4706
766.902	50.2537
769.795	55.2919
772.687	61.0718
775.58	68.3448
778.473	70.9951
781.365	79.3765
784.258	83.3164
787.151	85.8595
790.043	93.4209
792.936	98.2926
795.829	101.513
798.722	103.334
801.614	108.716
804.507	110.954
807.4	114.141
810.292	114.02
813.185	115.264
816.078	117.398
818.971	118.028
821.863	121.043
824.756	118.438
827.649	116.589
830.541	110.128
833.434	109.655
836.327	106.751
839.219	101.381
842.112	98.0178
845.005	92.9277
847.898	89.6542
850.79	79.6574
853.683	80.0926
856.576	78.1246
859.468	73.4743
862.361	67.9001
865.254	60.7133
868.146	55.7833
871.039	53.6141
873.932	47.9064
876.824	40.6084
879.717	36.3634
882.61	29.1819
885.503	21.9451
888.395	20.5447
891.288	14.3872
894.181	10.1044
897.073	5.91858
899.966	3.81883
902.859	0.464447
905.751	2.31128
908.644	3.56253
911.537	4.62169
914.43	4.75958
917.322	2.6972
920.215	2.99207
923.108	3.68148
926	0.979477
928.893	1.9055
931.786	0.829269
934.678	4.67221
937.571	3.37071
940.464	6.63585
943.357	9.3272
946.249	11.7433
949.142	12.5073
952.035	14.3929
954.927	15.4956
957.82	18.5727
960.713	22.1058
963.606	21.3535
966.498	21.6551
969.391	22.9208
972.284	19.0729
975.176	20.7161
978.069	18.762
980.962	16.9717
983.854	17.8817
986.747	17.7133
989.64	14.5988
992.533	15.2371
995.425	15.7057
998.318	11.9577
1001.21	12.3602
1004.1	11.682
1007	12.1189
1009.89	11.8511
1012.78	10.2462
1015.67	8.58411
1018.57	9.25075
1021.46	8.20992
1024.35	10.1278
1027.24	6.96863
1030.14	5.84916
1033.03	4.75897
1035.92	6.62646
1038.82	5.27
1041.71	3.89188
1044.6	6.48194
1047.49	6.25595
1050.39	3.54926
1053.28	5.0845
1056.17	5.42239
1059.07	5.45428
1061.96	3.26582
1064.85	4.56335
1067.74	0.978668
1070.63	2.48255
1073.53	0.829201
1076.42	3.69062
1079.31	2.52896
1082.21	2.63194
1085.1	1.4778
1087.99	4.25881
1090.88	3.82917
1093.78	1.16711
1096.67	0.704506
1099.56	3.3376
1102.45	0.61602
1105.35	0.7873
1108.24	0.106903
1111.13	2.38693
1114.03	0.062737
1116.92	0.331032
1119.81	0.508186
1122.7	1.03915
1125.6	0.957695
1128.49	1.43639
1131.38	0.733955
1134.28	0.466896
1137.17	0.486511
1140.06	1.53739
1142.95	1.02773
1145.85	0.692558
1148.74	2.02727
1151.63	0.282944
1154.52	1.52831
1157.42	2.39871
1160.31	0.362961
1163.2	1.38363
1166.09	4.10696
1168.99	0.441856
1171.88	2.39599
1174.77	2.99686
1177.66	1.95667
1180.56	0.177811
1183.45	3.26987
1186.34	1.3363
1189.24	0.455086
1192.13	1.46285
1195.02	2.71018
1197.91	2.51252
1200.81	2.01205
1203.7	2.92576
1206.59	1.25294
1209.48	3.36494
1212.38	0.913345
1215.27	3.81277
1218.16	1.37923
1221.06	0.20298
1223.95	3.88176
1226.84	1.29303
1229.73	0.446747
1232.63	1.92383
1235.52	0.951286
1238.41	3.37811
1241.31	1.8256
1244.2	2.80705
1247.09	1.9646
1249.98	0.329697
1252.88	2.39005
1255.77	1.52645
1258.66	1.4948
1261.55	0.652161
1264.45	1.80948
1267.34	3.30127
1270.23	3.13822
1273.12	1.3628
1276.02	1.32957
1278.91	1.9159
1281.8	2.26094
1284.69	1.30049
1287.59	3.072
1290.48	3.5313
1293.37	4.74388
1296.27	1.1899
1299.16	1.58801
1302.05	2.05471
