Measurement: Raman, 780 nm, unoriented, Raman Data Processed
Mineral: Foitite
Rruff sample: R050356
Ideal chemistry: [box](Fe^2+^_2_Al)Al_6_(Si_6_O_18_)(BO_3_)_3_(OH)_3_OH
Locality: Fano mine, Cahuilla Mountain, Riverside County, California, USA
Source: George Rossman
Description: Black prismatic, elongated and striated fragment
Measured chemistry: (Na_0.50_[box]_0.50_)_Σ=1_(Fe^2+^_1.94_Al_0.77_Li_0.15_Mn_0.10_Mg_0.04_)_Σ=3.00_Al_6.00_(BO_3_)_3_(Si_5.88_Al_0.12_)_Σ=6_O_18_(OH)_4_ ; B and Li not measured but estimated by charge balance
Raman shift (cm-1)	intensity
138.325	0
141.217	1.56335
144.11	0.248779
147.003	1.62024
149.895	1.72498
152.788	4.82959
155.681	7.22925
158.573	12.0023
161.466	11.7193
164.359	18.2008
167.251	16.8851
170.144	18.2672
173.037	14.5493
175.93	14.9705
178.822	10.1729
181.715	5.94763
184.608	3.97229
187.5	3.3808
190.393	0.132324
193.286	1.0556
196.179	6.1405
199.071	8.61133
201.964	9.78003
204.857	14.2675
207.749	23.5223
210.642	27.1119
213.535	36.9219
216.427	48.4676
219.32	60.5189
222.213	71.3517
225.106	79.9446
227.998	84.5392
230.891	96.6489
233.784	99.6394
236.676	103.736
239.569	93.5164
242.462	81.3546
245.354	68.8945
248.247	61.1221
251.14	54.0043
254.032	50.3166
256.925	49.7916
259.818	44.8358
262.711	36.669
265.603	31.609
268.496	26.9675
271.389	22.8323
274.281	16.3202
277.174	15.0024
280.067	10.4751
282.959	6.9787
285.852	4.51874
288.745	0.805542
291.638	0.606079
294.53	0.749756
297.423	2.3349
300.316	1.39984
303.208	0.337524
306.101	3.36322
308.994	5.41303
311.887	8.98889
314.779	9.5556
317.672	10.2081
320.565	9.57159
323.457	9.0802
326.35	10.4225
329.243	9.49707
332.135	13.6826
335.028	18.9153
337.921	21.171
340.813	26.8976
343.706	31.5111
346.599	41.6061
349.492	52.8542
352.384	63.0481
355.277	77.2713
358.17	93.142
361.062	109.923
363.955	122.044
366.848	121.674
369.74	108.448
372.633	86.1642
375.526	71.9901
378.419	55.7684
381.311	43.6212
384.204	37.0488
387.097	34.1425
389.989	29.6993
392.882	28.1241
395.775	26.3176
398.668	24.245
401.56	24.861
404.453	18.8329
407.346	17.3185
410.238	12.2548
413.131	8.69299
416.024	4.27747
418.916	0.649597
421.809	0.656494
424.702	1.35638
427.594	3.80664
430.487	2.59375
433.38	0.255005
436.273	0.24176
439.165	0.408081
442.058	1.86487
444.951	3.69354
447.843	3.53388
450.736	4.14984
453.629	3.27423
456.522	8.8327
459.414	10.1495
462.307	8.77112
465.2	11.4871
468.092	11.0562
470.985	13.2833
473.878	14.1675
476.77	15.9551
479.663	14.8945
482.556	18.6478
485.449	23.5309
488.341	21.4099
491.234	25.0841
494.127	29.9138
497.019	31.8816
499.912	34.3677
502.805	35.4453
505.697	41.2961
508.59	39.7709
511.483	45.0179
514.375	43.3993
517.268	48.806
520.161	49.7732
523.053	49.0152
525.946	47.3475
528.839	47.4738
531.732	46.2432
534.624	43.1449
537.517	45.8091
540.41	41.2696
543.302	41.0086
546.195	36.7865
549.088	33.9707
551.981	34.0249
554.873	30.0336
557.766	22.5769
560.659	19.0238
563.551	18.1639
566.444	14.5145
569.337	12.5605
572.229	10.8186
575.122	9.45569
578.015	5.03342
580.908	0.742249
583.8	1.2464
586.693	1.17783
589.586	1.21768
592.478	0.82724
595.371	2.95773
598.264	1.62558
601.156	0.282593
604.049	2.15045
606.942	0.041351
609.835	1.71771
612.727	2.49823
615.62	7.96039
618.513	13.6008
621.405	19.622
624.298	25.5399
627.191	33.0388
630.083	38.6198
632.976	41.3583
635.869	39.9694
638.761	32.4274
641.654	28.3378
644.547	23.3033
647.44	21.3293
650.332	16.8345
653.225	13.4698
656.118	11.9783
659.01	8.66321
661.903	9.42505
664.796	6.1499
667.688	10.1332
670.581	10.3791
673.474	14.7047
676.367	18.6483
679.259	16.9185
682.152	17.8802
685.045	20.7311
687.937	24.9576
690.83	24.8232
693.723	31.8055
696.615	29.2675
699.508	25.6947
702.401	17.2747
705.294	13.4027
708.186	7.0726
711.079	5.69342
713.972	3.76465
716.864	0.528656
719.757	1.9653
722.65	0.24881
725.543	0.353729
728.435	0.736206
731.328	0.017487
734.221	3.2644
737.113	2.46838
740.006	1.18024
742.899	3.75046
745.791	6.72195
748.684	6.15689
751.577	4.28793
754.47	2.72797
757.362	0.988098
760.255	2.4993
763.148	4.45505
766.04	0.973999
768.933	0.638184
771.826	2.0701
774.718	1.45868
777.611	3.55008
780.504	3.98257
783.396	1.82935
786.289	2.04504
789.182	0.138214
792.075	0.77298
794.967	2.20621
797.86	0.88678
800.753	2.83636
803.645	2.56311
806.538	1.03482
809.431	1.8367
812.323	3.57855
815.216	0.739532
818.109	2.90845
821.002	1.43076
823.894	2.08762
826.787	3.17682
829.68	4.26645
832.572	3.86716
835.465	1.18585
838.358	5.72772
841.25	5.12851
844.143	4.0094
847.036	2.48038
849.929	4.48862
852.821	5.65967
855.714	4.76831
858.607	4.22928
861.499	3.42664
864.392	5.21268
867.285	6.80322
870.178	4.96515
873.07	4.87833
875.963	4.33728
878.856	0.677551
881.748	5.00528
884.641	2.04733
887.534	3.13504
890.426	2.86374
893.319	0.249268
896.212	4.96634
899.105	0.370972
901.997	0.046722
904.89	2.11826
907.783	0.979797
910.675	0.146881
913.568	0.23877
916.461	0.969208
919.353	0.065674
922.246	0.973602
925.139	0.076477
928.032	1.52194
930.924	0.173553
933.817	1.2092
936.71	0.920349
939.602	0.434326
942.495	2.63239
945.388	5.89545
948.28	3.42548
951.173	3.74905
954.066	5.48325
956.958	5.23132
959.851	5.77698
962.744	5.33432
965.636	7.51105
968.529	7.67224
971.422	2.83652
974.315	6.29916
977.207	5.28729
980.1	4.48334
982.993	4.88367
985.885	5.86163
988.778	5.5202
991.671	4.15842
994.563	6.98801
997.456	8.89734
1000.35	9.43085
1003.24	11.8003
1006.13	10.9547
1009.03	11.0808
1011.92	10.9519
1014.81	12.2476
1017.71	13.7226
1020.6	11.8609
1023.49	10.8868
1026.38	14.7887
1029.28	10.447
1032.17	12.3933
1035.06	10.5489
1037.95	13.392
1040.85	12.342
1043.74	13.826
1046.63	13.7601
1049.53	14.975
1052.42	15.5134
1055.31	16.0518
1058.2	14.9244
1061.1	12.7133
1063.99	11.358
1066.88	6.03632
1069.77	5.37366
1072.67	6.01282
1075.56	2.33579
1078.45	4.0766
1081.34	3.95642
1084.24	2.35644
1087.13	3.75287
1090.02	1.3873
1092.91	2.9245
1095.81	2.94696
1098.7	3.47903
1101.59	1.97427
1104.49	0.434692
1107.38	3.14648
1110.27	0.906342
1113.16	0.207336
1116.06	0.456024
1118.95	0.676605
1121.84	0.327881
1124.73	1.22961
1127.63	0.884705
1130.52	0.7052
1133.41	1.4083
1136.31	0.18634
1139.2	0.720398
1142.09	2.06345
1144.98	2.02853
1147.88	3.45273
1150.77	3.04932
1153.66	2.46359
1156.56	1.82834
1159.45	5.56766
1162.34	3.98334
1165.23	3.60431
1168.12	3.54773
1171.02	4.72284
1173.91	3.29361
1176.8	3.76917
1179.7	2.50754
1182.59	7.57141
1185.48	6.09757
1188.37	2.1998
1191.27	2.56427
1194.16	3.58643
1197.05	3.28873
1199.94	3.69842
1202.84	5.40872
1205.73	2.0585
1208.62	1.50772
1211.52	0.372742
1214.41	2.87018
1217.3	5.00369
1220.19	0.619995
1223.09	2.6019
1225.98	3.23917
1228.87	2.40787
1231.77	1.40353
1234.66	0.959869
1237.55	1.63208
1240.44	2.73804
1243.34	0.625549
1246.23	2.146
1249.12	0.910858
1252.01	3.11841
1254.91	1.3587
1257.8	3.44937
1260.69	2.83868
1263.59	0.869019
1266.48	1.90317
1269.37	0.005005
1272.26	0.840057
1275.15	0.022827
