Measurement: Raman, 780 nm, unoriented, Raman Data Processed
Mineral: Forsterite
Rruff sample: R100099
Ideal chemistry: Mg_2_SiO_4_
Locality: Synthetic
Source: American Museum of Natural History
Description: Colorless fragments
Measured chemistry: (Mg_1.998_Ca_0.002_Zn_0.001_)_Î£=2.001_Si_1.000_O_4_
Raman shift (cm-1)	intensity
125.763	0
129.138	8.34058
132.513	2.53357
135.888	8.57153
139.263	4.28406
142.638	4.62939
146.012	12.0399
149.387	13.9751
152.762	9.03577
156.137	1.85083
159.512	3.19751
162.887	5.95691
166.261	4.797
169.636	0.958862
173.011	2.24036
176.386	2.53015
179.761	6.11572
183.135	5.0863
186.51	13.0507
189.885	7.2312
193.26	3.04968
196.635	5.92749
200.01	0.905396
203.384	0.333618
206.759	3.77161
210.134	9.34717
213.509	4.79492
216.884	8.56885
220.258	5.42896
223.633	15.6374
227.008	41.2341
230.383	24.0737
233.758	6.76245
237.132	6.49243
240.507	11.9645
243.882	12.3712
247.257	7.58362
250.632	6.8927
254.006	7.0603
257.381	3.08362
260.756	7.75561
264.131	4.17664
267.506	2.70227
270.881	4.87878
274.255	2.65613
277.63	7.70825
281.005	1.08606
284.38	4.20886
287.755	1.30176
291.13	13.4419
294.504	16.6384
297.879	29.6868
301.254	62.8341
304.629	128.629
308.004	67.6272
311.378	24.7876
314.753	13.6722
318.128	11.6227
321.503	12.7297
324.878	12.6387
328.252	21.3574
331.627	15.3755
335.002	9.99683
338.377	12.9531
341.752	12.5364
345.127	6.43164
348.501	9.84888
351.876	2.95019
355.251	5.11157
358.626	7.09302
362.001	4.23926
365.375	10.9106
368.75	1.59888
372.125	5.6062
375.5	1.56519
378.875	1.11108
382.25	0.013184
385.624	5.31348
388.999	2.78198
392.374	1.78442
395.749	0.924316
399.124	4.55371
402.498	2.39404
405.873	23.7285
409.248	27.8999
412.623	23.2195
415.998	8.07129
419.373	15.5444
422.747	26.7505
426.122	12.0759
429.497	19.4153
432.872	18.4285
436.247	20.781
439.622	19.1929
442.996	17.5029
446.371	7.55493
449.746	3.61426
453.121	1.32153
456.496	1.62891
459.87	0.563232
463.245	5.54102
466.62	5.01147
469.995	2.48584
473.37	6.31787
476.745	14.9382
480.119	11.8565
483.494	14.801
486.869	1.40527
490.244	11.8103
493.619	15.6289
496.993	10.416
500.368	8.02881
503.743	7.87402
507.118	11.0212
510.493	7.65674
513.867	1.85059
517.242	5.82568
520.617	2.32715
523.992	0.625977
527.367	1.66894
530.741	3.73169
534.116	3.92481
537.491	5.20606
540.866	0.806396
544.241	4.18896
547.616	5.22559
550.99	4.23071
554.365	11.3245
557.74	6.66431
561.115	8.28198
564.49	9.38892
567.865	6.9834
571.239	16.6081
574.614	15.7749
577.989	25.5947
581.364	32.2239
584.739	35.74
588.114	45.293
591.488	46.9651
594.863	36.4104
598.238	56.2415
601.613	59.3567
604.987	109.944
608.362	136.927
611.737	122.012
615.112	73.7698
618.487	38.6702
621.862	26.5469
625.236	18.0632
628.611	16.7715
631.986	14.5215
635.361	34.3852
638.736	19.6165
642.111	14.1494
645.485	3.02685
648.86	5.7478
652.235	3.21338
655.61	1.59692
658.985	0.612061
662.359	7.26074
665.734	1.32495
669.109	11.4062
672.484	7.75488
675.859	8.54517
679.234	13.9016
682.608	15.8726
685.983	9.66089
689.358	7.70215
692.733	10.6511
696.108	14.1646
699.482	9.32031
702.857	12.083
706.232	10.9722
709.607	15.5259
712.982	10.5181
716.356	25.2139
719.731	18.3716
723.106	19.0249
726.481	13.9565
729.856	19.8794
733.231	14.6597
736.605	11.3604
739.98	5.52393
743.355	10.9126
746.73	7.68408
750.105	7.8208
753.48	8.27734
756.854	8.96191
760.229	3.10303
763.604	18.7842
766.979	5.4126
770.354	11.022
773.728	4.9043
777.103	9.57617
780.478	5.9043
783.853	10.0249
787.228	11.1924
790.602	14.0459
793.977	13.6387
797.352	15.8271
800.727	22.1699
804.102	21.3227
807.477	67.9297
810.851	86.084
814.226	117.821
817.601	208.587
820.976	362.695
824.351	567.614
827.726	466.806
831.1	235.477
834.475	124.374
837.85	100.978
841.225	104.413
844.6	145.656
847.974	221.552
851.349	344.557
854.724	603.089
858.099	788.902
861.474	448.585
864.848	199.57
868.223	106.955
871.598	97.0547
874.973	71.8911
878.348	84.3916
881.722	119.829
885.097	106.113
888.472	35.8003
891.847	9.71729
895.222	16.0659
898.597	8.32617
901.971	0.500977
905.346	0.663574
908.721	13.2778
912.096	5.10644
915.471	1.43018
918.846	25.2349
922.22	17.2256
925.595	4.26221
928.97	2.31201
932.345	9.77539
935.72	7.09033
939.094	14.0923
942.469	18.2324
945.844	27.5957
949.219	23.9233
952.594	14.0947
955.968	30.8877
959.343	44.2944
962.718	83.9844
966.093	120.4
969.468	97.8096
972.843	43.0806
976.217	29.3223
979.592	7.58936
982.967	0.597656
986.342	4.99561
989.717	18.6025
993.091	7.20703
996.466	16.9019
999.841	21.3208
1003.22	16.3218
1006.59	18.1357
1009.97	3.26172
1013.34	17.356
1016.72	11.0098
1020.09	21.769
1023.47	13.2739
1026.84	44.5078
1030.21	16.667
1033.59	38.5591
1036.96	52.6724
1040.34	42.2329
1043.71	51.749
1047.09	46.1401
1050.46	56.6397
1053.84	35.4634
1057.21	23.1499
1060.59	31.6094
1063.96	21.9863
1067.34	32.6172
1070.71	14.8389
1074.09	16.9131
1077.46	43.9219
1080.84	31.0996
1084.21	30.9805
1087.59	21.0283
1090.96	41.5791
1094.34	13.7305
1097.71	17.6689
1101.09	4.59766
1104.46	4.24023
1107.84	32.5752
1111.21	18.4766
1114.59	18.8252
1117.96	9.9502
1121.34	6.20606
1124.71	22.3896
1128.08	19.6816
1131.46	33.0615
1134.83	14.3799
1138.21	33.0674
1141.58	55.542
1144.96	46.7578
1148.33	59.8223
1151.71	44.5986
1155.08	28.9033
1158.46	60.3623
1161.83	66.666
1165.21	54.794
1168.58	69.8047
1171.96	65.6465
1175.33	83.9795
1178.71	68.1338
1182.08	71.3916
1185.46	78.5225
1188.83	71.2949
1192.21	87.8457
1195.58	92.7783
1198.95	69.4463
1202.33	74.707
1205.7	63.1172
1209.08	66.8506
1212.45	82.6162
1215.83	77.8115
1219.2	36.541
1222.58	24.3086
1225.95	53.4111
1229.33	53.6592
1232.7	45.5215
1236.08	62.081
1239.45	6.3584
1242.83	13.4834
1246.2	1.18848
1249.58	18.6826
1252.95	1.49316
1256.33	27.042
1259.7	39.7334
1263.08	33.833
1266.45	47.081
1269.83	5.43164
1273.2	14.1416
1276.58	22.5381
1279.95	36.0312
1283.33	35.7246
