Measurement: Raman, 785 nm, unoriented, Raman Data RAW
Mineral: Franckeite
Rruff sample: R060946
Ideal chemistry: Pb^2+^_21.7_Sn^4+^_9.3_(Fe^2+^,Fe^3+^)_4.0_Sb^3+^_8.1_S^2-^_56.9_
Locality: Hoei tin mine, Kyushu Island, Japan
Source: Lloyd Twaites
Description: Black tabular metallic
Raman shift (cm-1)	intensity
104.654	50.2014
107.547	53.9297
110.439	56.3682
113.332	81.1084
116.225	137.357
119.118	135.874
122.01	129.846
124.903	199.553
127.796	381.485
130.688	671.872
133.581	782.703
136.474	558.003
139.366	443.124
142.259	439.838
145.152	544.142
148.044	692.276
150.937	711.702
153.83	605.08
156.723	551.372
159.615	510
162.508	541.109
165.401	498.208
168.293	490.201
171.186	466.69
174.079	444.85
176.971	436.636
179.864	428.564
182.757	422.554
185.65	440.8
188.542	442.19
191.435	461.721
194.328	468.163
197.22	476.388
200.113	474.291
203.006	486.635
205.899	480.954
208.791	473.157
211.684	471.748
214.577	475.108
217.469	501.211
220.362	523.675
223.255	551.878
226.147	577.842
229.04	585.113
231.933	597.22
234.825	623.371
237.718	599.656
240.611	598.312
243.504	606.738
246.396	587.646
249.289	585.697
252.182	575.085
255.074	551.399
257.967	543.973
260.86	516.056
263.752	499.952
266.645	480.395
269.538	479.088
272.43	487.296
275.323	493.913
278.216	507.367
281.109	503.935
284.001	453.471
286.894	396.167
289.787	355.233
292.679	314.132
295.572	283.475
298.465	271.336
301.358	276.365
304.25	307.507
307.143	338.648
310.036	381.907
312.928	423.155
315.821	448.446
318.714	426.69
321.606	388.759
324.499	324.344
327.392	302.186
330.284	259.376
333.177	232.889
336.07	222.675
338.963	201.109
341.855	180.138
344.748	169.211
347.641	157.466
350.533	140.2
353.426	136.487
356.319	134.343
359.212	132.46
362.104	125.09
364.997	125.194
367.89	119.982
370.782	112.915
373.675	114.038
376.568	121.562
379.46	124.94
382.353	114.288
385.246	116.03
388.139	114.971
391.031	114.291
393.924	107.057
396.817	109.11
399.709	109.047
402.602	101.014
405.495	106.112
408.387	105.872
411.28	104.904
414.173	108.956
417.065	105.607
419.958	103.479
422.851	105.427
425.744	103.393
428.636	109.033
431.529	97.9067
434.422	107.903
437.314	99.1651
440.207	100.411
443.1	106.47
445.993	98.7444
448.885	96.0574
451.778	98.571
454.671	102.763
457.563	106.075
460.456	97.3988
463.349	105.117
466.241	96.1538
469.134	97.4652
472.027	95.0043
474.92	104.929
477.812	96.8795
480.705	106.757
483.598	100.084
486.49	98.427
489.383	101.244
492.276	102.136
495.168	100.364
498.061	94.0817
500.954	97.8497
503.846	91.1158
506.739	93.1816
509.632	93.7527
512.524	80.639
515.417	90.6881
518.31	95.2033
521.203	86.6832
524.095	93.9856
526.988	87.8885
529.881	91.2626
532.773	92.4345
535.666	76.2585
538.559	87.6636
541.452	89.2272
544.344	85.2818
547.237	84.9557
550.13	86.281
553.022	84.769
555.915	80.2238
558.808	80.3281
561.7	78.8789
564.593	75.8333
567.486	84.6362
570.379	82.8356
573.271	80.9781
576.164	77.0244
579.057	79.1726
581.949	76.5139
584.842	74.9355
587.735	77.4551
590.627	73.6964
593.52	74.9511
596.413	77.9959
599.306	71.9651
602.198	70.4242
605.091	71.5444
607.984	65.8231
610.876	66.1998
613.769	71.8051
616.662	67.6957
619.554	64.796
622.447	61.0384
625.34	65.045
628.232	66.5248
631.125	68.3033
634.018	70.9391
636.911	61.0944
639.803	66.447
642.696	63.3879
645.589	62.7704
648.481	59.8452
651.374	59.5229
654.267	64.2577
657.159	58.876
660.052	57.9646
662.945	56.8143
665.838	63.4785
668.73	56.4241
671.623	59.8672
674.516	57.6964
677.408	55.8808
680.301	58.1987
683.194	59.2407
686.087	50.2053
688.979	59.5515
691.872	56.3887
694.765	63.4192
697.657	50.3965
700.55	52.7838
703.443	53.2023
706.335	47.4048
709.228	52.3214
712.121	52.9988
715.014	50.5778
717.906	59.6087
720.799	53.6439
723.692	52.9797
726.584	51.9531
729.477	53.0207
732.37	53.3725
735.262	50.7846
738.155	50.0624
741.048	53.296
743.94	52.4509
746.833	49.8478
749.726	49.9295
752.619	54.5776
755.511	51.69
758.404	50.329
761.297	49.0728
764.189	46.8428
767.082	50.6916
769.975	53.0992
772.867	47.7791
775.76	53.6724
778.653	52.755
781.545	50.1698
784.438	54.5473
787.331	50.253
790.224	43.3217
793.116	44.8306
796.009	45.0875
798.902	44.3663
801.794	48.4842
804.687	45.4507
807.58	50.755
810.472	49.366
813.365	48.8935
816.258	45.8496
819.151	51.0006
822.043	49.8586
824.936	44.2256
827.829	48.8521
830.721	49.4683
833.614	48.6505
836.507	48.438
839.399	46.2043
842.292	41.6274
845.185	42.3827
848.078	46.723
850.97	49.4008
853.863	47.154
856.756	48.4887
859.648	46.1998
862.541	45.0838
865.434	42.4816
868.327	49.3617
871.219	42.3834
874.112	39.4597
877.005	44.1171
879.897	47.4621
882.79	40.7383
885.683	46.2056
888.575	42.5552
891.468	46.3138
894.361	40.0552
897.254	52.998
900.146	43.2976
903.039	42.9205
905.932	43.6238
908.824	49.4515
911.717	45.5787
914.61	42.2738
917.502	50.345
920.395	43.9696
923.288	46.7859
926.181	33.3675
929.073	40.8738
931.966	46.8844
934.859	48.2075
937.751	48.4001
940.644	46.4528
943.537	46.234
946.429	48.4519
949.322	47.5485
952.215	37.827
955.107	48.1769
958	45.9861
960.893	44.0941
963.786	43.4083
966.678	50.1437
969.571	42.9029
972.464	49.4312
975.356	42.1466
978.249	38.2991
981.142	38.5171
984.034	41.7568
986.927	42.7101
989.82	40.0142
992.713	30.8203
995.605	42.9782
998.498	35.3425
1001.39	41.5073
1004.28	43.9629
1007.18	43.9022
1010.07	47.716
1012.96	41.4354
1015.85	42.0119
1018.75	41.9943
1021.64	27.0732
1024.53	39.2141
1027.42	39.7343
1030.32	48.2687
1033.21	38.3646
1036.1	47.7351
1039	39.9326
1041.89	48.3312
1044.78	42.0388
1047.67	45.5393
1050.57	38.7104
1053.46	44.1907
1056.35	48.4106
1059.24	50.755
1062.14	45.9163
1065.03	40.9338
1067.92	39.7841
1070.82	50.7092
1073.71	40.6113
1076.6	43.2381
1079.49	42.2307
1082.39	36.7921
1085.28	43.4622
1088.17	39.8446
1091.06	42.9109
1093.96	43.4967
1096.85	37.2788
1099.74	40.1544
1102.63	43.1689
1105.53	41.379
1108.42	47.7125
1111.31	44.2428
1114.21	38.4576
1117.1	47.5416
1119.99	36.9393
1122.88	40.7943
1125.78	38.7214
1128.67	41.4554
1131.56	37.986
1134.45	37.6258
1137.35	40.8257
1140.24	34.8165
1143.13	39.4914
1146.03	38.099
1148.92	39.712
1151.81	35.8055
1154.7	45.1746
1157.6	38.1824
1160.49	39.8827
1163.38	33.4235
1166.28	33.8595
1169.17	35.0639
1172.06	42.8824
1174.95	38.9395
1177.85	43.0471
1180.74	45.913
1183.63	38.9348
1186.52	31.2371
1189.42	37.9406
1192.31	39.3046
1195.2	32.633
1198.09	41.607
1200.99	43.5298
1203.88	35.2188
1206.77	28.8465
1209.66	35.1447
1212.56	36.0077
1215.45	40.7863
1218.34	36.0337
1221.24	37.0021
1224.13	39.8663
1227.02	35.7045
1229.91	36.5886
1232.81	30.3968
1235.7	31.9082
1238.59	33.1174
1241.48	41.7379
1244.38	41.4574
1247.27	34.3223
1250.16	39.2436
1253.06	43.0347
1255.95	34.9198
1258.84	33.7595
