Measurement: Raman, 532 nm, unoriented, Raman Data Processed
Mineral: Freieslebenite
Rruff sample: R060174
Ideal chemistry: Ag^1+^Pb^2+^Sb^3+^S^2-^_3_
Locality: Van Silver mine, Vancouver, British Columbia, Canada
Source: Ty Balacko, TB
Description: Pale steel-gray striated prismatic crystals
Measured chemistry: Ag_1.00_(Pb_0.95_Fe_0.05_)_Î£=1_Sb_1.00_S_3.00_
Raman shift (cm-1)	intensity
137.029	0
140.404	0.031775
143.779	0.492522
147.154	4.2916
150.528	6.20584
153.903	6.97137
157.278	6.38641
160.653	5.62553
164.028	5.96134
167.402	5.98014
170.777	5.33406
174.152	5.25758
177.527	4.23112
180.902	4.19185
184.277	3.85696
187.651	3.53127
191.026	2.90871
194.401	2.70163
197.776	2.15192
201.151	1.76892
204.525	1.42744
207.9	1.14923
211.275	0.45086
214.65	0.227868
218.025	0.183535
221.4	0.149645
224.774	0.027245
228.149	0.178103
231.524	0.038575
234.899	0.253084
238.274	0.026978
241.649	0.442883
245.023	0.037504
248.398	0.040046
251.773	0.387439
255.148	0.245202
258.523	0.85482
261.897	0.577652
265.272	1.18908
268.647	0.843217
272.022	1.27249
275.397	2.13965
278.772	3.21403
282.146	1.32553
285.521	1.71105
288.896	1.09056
292.271	1.04094
295.646	1.92625
299.02	0.933125
302.395	2.6304
305.77	2.75304
309.145	3.65863
312.52	4.07917
315.895	3.92221
319.269	2.27099
322.644	1.98961
326.019	1.02332
329.394	1.97936
332.769	0.144693
336.144	0.657227
339.518	0.00748
342.893	0.52228
346.268	0.03864
349.643	0.07699
353.018	0.003197
356.392	0.005662
359.767	0.268732
363.142	0.340675
366.517	0.641396
369.892	1.61968
373.267	0.963822
376.641	0.538686
380.016	0.513979
383.391	1.55549
386.766	1.15891
390.141	1.2279
393.515	1.51953
396.89	1.77326
400.265	1.0918
403.64	1.68955
407.015	1.32936
410.39	0.891219
413.764	1.227
417.139	0.957138
420.514	1.54993
423.889	0.984705
427.264	1.21162
430.639	0.594832
434.013	0.86342
437.388	0.75444
440.763	0.248618
444.138	0.195331
447.513	0.043302
450.887	0.036249
454.262	0.131063
457.637	0.039331
461.012	0.705785
464.387	0.005763
467.762	0.027693
471.136	0.906438
474.511	1.12489
477.886	0.264211
481.261	0.927335
484.636	0.07267
488.01	0.054883
491.385	0.885245
494.76	0.417981
498.135	0.955636
501.51	1.37626
504.885	1.27958
508.259	0.199673
511.634	0.923394
515.009	0.9497
518.384	0.733189
521.759	1.25648
525.134	0.003168
528.508	0.705926
531.883	0.210132
535.258	0.216314
538.633	0.332388
542.008	0.57468
545.382	0.869471
548.757	1.02933
552.132	0.021939
555.507	1.58648
558.882	0.356162
562.256	0.872313
565.631	0.038605
569.006	0.617601
572.381	0.683062
575.756	0.324874
579.131	1.16597
582.505	0.010132
585.88	1.15224
589.255	0.076952
592.63	0.783464
596.005	0.848442
599.38	0.342159
602.754	0.390537
606.129	0.725792
609.504	0.047499
612.879	1.00928
616.254	1.40844
619.629	0.016193
623.003	0.80233
626.378	0.231144
629.753	0.650575
633.128	0.80122
636.503	0.8509
639.877	0.678899
643.252	0.852874
646.627	0.814806
650.002	0.667144
653.377	1.30243
656.751	0.467838
660.126	0.585665
663.501	1.48081
666.876	0.069842
670.251	0.704417
673.626	1.14912
677	0.825617
680.375	1.38042
683.75	0.890394
687.125	0.459243
690.5	0.007217
693.875	0.291702
697.249	0.497029
700.624	0.400472
703.999	0.531037
707.374	0.059308
710.749	1.20357
714.124	0.934958
717.498	1.40758
720.873	0.161446
724.248	0.318212
727.623	0.142273
730.998	0.415413
734.372	1.118
737.747	0.009668
741.122	0.373072
744.497	0.412686
747.872	0.735039
751.246	0.1071
754.621	0.765675
757.996	0.368126
761.371	0.387548
764.746	0.108831
768.121	0.328065
771.495	0.459718
774.87	0.147973
778.245	0.667541
781.62	0.033764
784.995	0.16193
788.37	0.34953
791.744	0.451819
795.119	1.84862
798.494	0.722087
801.869	0.52783
805.244	0.319606
808.619	1.75597
811.993	0.682207
815.368	0.21034
818.743	0.133675
822.118	1.27151
825.493	0.285723
828.867	1.24404
832.242	1.99821
835.617	0.821761
838.992	0.368314
842.367	0.911236
845.741	0.35505
849.116	0.862527
852.491	1.14565
855.866	0.379644
859.241	0.846704
862.616	1.40507
865.99	0.119194
869.365	0.71005
872.74	1.39829
876.115	0.565218
879.49	0.812751
882.865	0.048361
886.239	0.825872
889.614	0.430789
892.989	0.328433
896.364	0.358384
899.739	0.608303
903.113	1.04767
906.488	0.140388
909.863	0.403274
913.238	0.338199
916.613	0.049709
919.987	0.803059
923.362	0.171757
926.737	0.657204
930.112	0.067503
933.487	0.071024
936.862	0.774506
940.236	0.342231
943.611	0.309316
946.986	0.628121
950.361	0.039812
953.736	0.138377
957.111	0.242849
960.485	0.374506
963.86	0.043821
967.235	0.569837
970.61	0.032657
973.985	0.216683
977.36	0.45451
980.734	1.1597
984.109	0.979537
987.484	1.73413
990.859	0.023396
994.234	0.337151
997.608	0.841703
1000.98	1.56551
1004.36	0.022091
1007.73	0.209666
1011.11	0.43854
1014.48	0.801835
1017.86	0.377396
1021.23	0.62786
1024.61	0.296211
1027.98	0.078671
1031.36	0.117098
1034.73	1.29736
1038.11	0.791321
1041.48	0.053498
1044.86	0.268384
1048.23	0.987217
1051.61	0.828845
1054.98	0.133637
1058.36	0.270464
1061.73	0.060341
1065.11	0.709642
1068.48	0.781613
1071.85	1.31122
1075.23	1.19597
1078.6	1.24266
1081.98	1.00301
1085.35	0.423928
1088.73	0.652244
1092.1	0.178163
1095.48	0.892791
1098.85	0.392182
1102.23	0.303695
1105.6	1.63766
1108.98	0.25661
1112.35	0.027305
1115.73	0.388382
1119.1	0.351172
1122.48	0.063596
1125.85	0.310659
1129.23	0.074473
1132.6	0.159209
1135.98	0.048022
1139.35	0.043735
1142.73	0.516448
1146.1	0.235198
1149.47	0.40544
1152.85	0.635988
1156.22	0.427182
1159.6	0.585861
1162.97	0.774548
1166.35	0.793137
1169.72	1.31478
1173.1	0.039788
1176.47	0.745606
1179.85	0.542522
1183.22	0.783262
1186.6	1.13641
1189.97	0.146425
1193.35	1.04043
1196.72	0.960705
1200.1	0.232776
1203.47	0.708772
1206.85	0.813582
1210.22	1.76477
1213.6	0.166364
1216.97	0.78319
1220.35	0.542551
1223.72	0.388669
1227.1	0.452328
1230.47	1.50871
1233.85	0.673579
1237.22	0.610784
1240.6	0.131424
1243.97	0.532893
1247.35	1.14038
1250.72	0.797997
1254.1	0.411294
1257.47	0.992528
1260.84	0.884028
1264.22	1.4049
1267.59	1.4663
1270.97	1.44505
1274.34	1.98165
1277.72	1.79647
1281.09	1.35341
1284.47	1.0419
1287.84	0.904154
1291.22	0.037916
1294.59	1.98179
1297.97	1.2168
1301.34	0.380135
