Measurement: Raman, 532 nm, unoriented, Raman Data Processed
Mineral: Frondelite
Rruff sample: R050622
Ideal chemistry: (Mn^2+^_0.5_Fe^3+^_0.5_)_2_Fe^3+^_3_(PO_4_)_3_(OH)_5_
Locality: Hagendorf, Bavaria, Germany
Source: University of Arizona Mineral Museum
Description: Black bladed crystals in divergent radial aggregates
Measured chemistry: (Mn^2+^_0.63_Fe^2+^_0.37_)_Î£=1_Fe^3+^_4.00_(P_1.00_O_4_)_3_(OH)_5_
Raman shift (cm-1)	intensity
153.791	0
156.683	1.5946
159.576	5.12421
162.469	1.08368
165.361	0.465424
168.254	3.60596
171.147	3.72244
174.039	1.94623
176.932	3.44235
179.825	1.31436
182.718	2.42191
185.61	4.72769
188.503	5.62939
191.396	7.61447
194.288	2.93124
197.181	7.07358
200.074	8.478
202.966	11.1665
205.859	18.7949
208.752	28.9718
211.645	38.7316
214.537	53.5275
217.43	62.7192
220.323	71.346
223.215	85.0547
226.108	87.0707
229.001	91.4929
231.893	84.8748
234.786	69.2653
237.679	52.2629
240.572	33.7115
243.464	27.8021
246.357	13.3583
249.25	14.7355
252.142	3.86877
255.035	1.61835
257.928	2.06039
260.82	1.86572
263.713	2.00574
266.606	3.0929
269.499	2.47705
272.391	4.26956
275.284	7.14206
278.177	10.7627
281.07	11.4043
283.962	10.3734
286.855	12.8325
289.748	13.3025
292.64	13.3312
295.533	14.1231
298.426	17.6009
301.318	17.0726
304.211	16.133
307.104	20.8687
309.997	18.9886
312.889	20.8254
315.782	20.4686
318.675	21.9086
321.567	16.8782
324.46	17.8076
327.353	16.0655
330.245	18.0295
333.138	11.1741
336.031	12.9579
338.923	10.8075
341.816	6.13306
344.709	5.52847
347.602	3.47855
350.494	1.65744
353.387	3.24924
356.28	4.44308
359.173	6.85336
362.065	8.96152
364.958	6.90109
367.851	10.2909
370.743	14.2108
373.636	12.3661
376.529	14.2471
379.421	16.3354
382.314	13.7053
385.207	13.4688
388.099	11.5517
390.992	6.74551
393.885	7.21307
396.778	5.32596
399.67	3.13036
402.563	2.33398
405.456	0.920868
408.348	2.40968
411.241	1.86955
414.134	0.64267
417.026	0.208481
419.919	5.68137
422.812	13.4126
425.705	19.9903
428.597	28.7476
431.49	30.4385
434.383	38.3044
437.276	41.2685
440.168	43.2226
443.061	43.284
445.954	43.9975
448.846	42.8137
451.739	41.9254
454.632	42.4076
457.524	43.1633
460.417	44.3982
463.31	45.7837
466.202	46.5827
469.095	45.923
471.988	45.872
474.881	47.1175
477.773	43.5617
480.666	42.5868
483.559	42.8311
486.451	41.8896
489.344	37.3683
492.237	35.8745
495.13	30.9349
498.022	25.7225
500.915	21.4583
503.808	17.3258
506.7	15.68
509.593	9.91785
512.486	8.88556
515.379	5.74445
518.271	5.25446
521.164	0.546219
524.057	2.74098
526.949	0.431213
529.842	2.14502
532.735	0.581421
535.627	0.919983
538.52	1.48917
541.413	1.59195
544.306	1.25732
547.198	3.15205
550.091	6.36638
552.984	5.14299
555.876	10.8128
558.769	13.5701
561.662	19.2626
564.554	22.2456
567.447	32.8647
570.34	43.4027
573.232	44.5655
576.125	42.758
579.018	41.3882
581.911	38.13
584.803	36.3635
587.696	36.3021
590.589	33.0626
593.481	29.4786
596.374	27.4512
599.267	24.3989
602.159	22.6517
605.052	24.4564
607.945	25.5689
610.838	23.6528
613.73	23.6306
616.623	23.698
619.516	18.8611
622.409	19.3909
625.301	20.221
628.194	13.7768
631.087	14.1845
633.979	7.51166
636.872	9.42407
639.765	7.47035
642.657	5.46396
645.55	0.764236
648.443	1.74773
651.336	3.26302
654.228	2.21538
657.121	0.875839
660.014	2.50536
662.906	1.75703
665.799	0.51445
668.692	0.021393
671.585	2.21811
674.477	0.375488
677.37	0.426971
680.263	0.565094
683.155	0.993378
686.048	1.66795
688.941	0.532532
691.833	3.22301
694.726	0.032028
697.619	3.09967
700.511	2.47026
703.404	1.40888
706.297	1.08102
709.19	3.41199
712.082	1.80713
714.975	0.272903
717.868	3.22894
720.76	0.14743
723.653	1.31638
726.546	0.961548
729.438	2.06163
732.331	3.02194
735.224	2.98731
738.117	0.737366
741.009	2.17949
743.902	1.10754
746.795	4.79086
749.687	4.00038
752.58	0.797073
755.473	2.1014
758.366	1.78889
761.258	1.25702
764.151	1.68411
767.044	2.14545
769.936	2.79404
772.829	2.95871
775.722	0.502991
778.615	1.53107
781.507	1.37833
784.4	1.49687
787.293	4.00026
790.185	0.122147
793.078	2.36902
795.971	2.02182
798.863	2.16771
801.756	1.46687
804.649	2.62761
807.542	2.32703
810.434	2.56674
813.327	2.96793
816.22	3.01723
819.112	3.50923
822.005	2.80867
824.898	1.7634
827.79	2.99654
830.683	2.10626
833.576	2.99881
836.469	3.62648
839.361	3.26288
842.254	2.88045
845.147	5.10806
848.039	5.50829
850.932	4.29984
853.825	5.08211
856.717	4.64999
859.61	5.98368
862.503	5.37265
865.396	4.4592
868.288	4.10284
871.181	6.1255
874.074	5.34164
876.966	4.62177
879.859	4.13106
882.752	2.8546
885.644	3.00823
888.537	3.32474
891.43	1.78538
894.323	2.04047
897.215	2.45218
900.108	4.89426
903.001	0.066483
905.894	2.57623
908.786	0.816551
911.679	0.663216
914.572	0.866074
917.464	0.516083
920.357	1.19771
923.25	0.6483
926.142	0.505692
929.035	0.143906
931.928	2.24893
934.821	0.896393
937.713	0.421661
940.606	1.86912
943.499	0.707672
946.391	0.177185
949.284	0.070145
952.177	0.121353
955.069	2.35587
957.962	5.10545
960.855	6.53191
963.748	3.00621
966.64	3.81671
969.533	4.9081
972.426	1.7711
975.318	2.48498
978.211	2.90449
981.104	4.70624
983.996	2.92319
986.889	4.13303
989.782	5.65697
992.675	6.61707
995.567	11.2771
998.46	8.23622
1001.35	8.09126
1004.25	10.2987
1007.14	10.1447
1010.03	6.237
1012.92	7.49474
1015.82	9.38216
1018.71	5.25711
1021.6	3.58069
1024.49	6.26689
1027.39	8.43256
1030.28	12.1436
1033.17	15.1808
1036.07	17.911
1038.96	18.5818
1041.85	22.5221
1044.74	22.3465
1047.64	24.461
1050.53	25.4784
1053.42	25.0447
1056.31	22.4135
1059.21	19.8269
1062.1	17.5449
1064.99	15.888
1067.88	12.7099
1070.78	10.3256
1073.67	6.81152
1076.56	5.69286
1079.46	4.66303
1082.35	3.75769
1085.24	0.047363
1088.13	4.5638
1091.03	6.13261
1093.92	2.49706
1096.81	6.30524
1099.7	10.2352
1102.6	15.8438
1105.49	17.7235
1108.38	23.2793
1111.28	25.2051
1114.17	28.1031
1117.06	32.6332
1119.95	28.2516
1122.85	23.6814
1125.74	18.9241
1128.63	14.35
1131.52	12.8472
1134.42	11.8022
1137.31	9.29613
1140.2	5.82552
1143.1	0.770432
1145.99	0.303116
1148.88	0.163879
1151.77	0.954239
1154.67	0.508987
1157.56	1.22818
1160.45	1.04727
1163.34	1.01483
1166.24	0.667671
1169.13	0.32914
1172.02	1.95301
1174.91	3.71434
1177.81	1.26385
1180.7	2.12624
1183.59	0.250145
1186.49	0.824135
1189.38	1.16844
1192.27	1.61863
1195.16	2.08475
1198.06	2.23149
1200.95	1.74353
1203.84	1.42654
1206.73	2.55578
1209.63	2.49451
1212.52	2.63322
1215.41	2.97491
1218.31	1.72417
1221.2	2.49232
1224.09	1.17013
1226.98	2.15305
1229.88	3.35516
1232.77	4.02161
1235.66	4.33119
1238.55	3.54267
1241.45	3.91077
1244.34	4.49447
1247.23	4.3966
1250.12	3.56735
1253.02	3.02579
1255.91	2.89316
1258.8	3.82544
1261.7	2.76027
1264.59	3.67097
1267.48	3.37672
1270.37	3.20013
1273.27	2.84927
1276.16	2.42278
1279.05	2.07751
1281.94	2.57829
1284.84	2.15252
1287.73	1.58429
1290.62	0.028732
1293.52	1.65143
1296.41	0.509964
1299.3	0.067513
1302.19	0.380814
