Measurement: Raman, 780 nm, unoriented, Raman Data Processed
Mineral: Fupingqiuite
Rruff sample: R160033
Ideal chemistry: (Na,Mn^2+^,[box])_2_Mn^2+^_2_Fe^3+^(PO_4_)_3_
Locality: Nancy Pegmatite, Argentina
Source: Jaroslav Hyrŝl
Description: Brown crystals, associated with light brown fillowite.
Measured chemistry: (Na_1.15_Mn^2+^_0. 36_Ca_0.05_)_Σ1.56_(Mn^2+^_1.20_Mg_0.41_Fe^2+^_0.39_)_Σ2.0_(Fe^3+^_0.78_Al_0.22_)_Σ1.0_(PO_4_)_3_
Raman shift (cm-1)	intensity
153.271	0
156.163	5.85638
159.056	1.74206
161.949	2.3429
164.842	7.18198
167.734	4.74814
170.627	9.45654
173.52	10.3021
176.412	9.93439
179.305	10.6974
182.198	8.04617
185.09	7.9628
187.983	4.36737
190.876	1.24539
193.769	2.35895
196.661	0.98999
199.554	1.25873
202.447	1.60031
205.339	1.72555
208.232	0.402985
211.125	0.573547
214.018	4.50397
216.91	6.00735
219.803	10.5618
222.696	13.7055
225.588	12.6677
228.481	16.6031
231.374	18.8381
234.266	18.0555
237.159	20.3753
240.052	23.0574
242.945	25.4381
245.837	23.0056
248.73	25.5042
251.623	19.6592
254.515	13.2647
257.408	12.2819
260.301	11.1224
263.193	12.9192
266.086	8.65527
268.979	5.26453
271.872	3.15924
274.764	1.88382
277.657	1.46555
280.55	1.9042
283.442	0.805481
286.335	1.3672
289.228	2.93918
292.12	2.33955
295.013	4.33164
297.906	4.15273
300.798	4.5257
303.691	5.30539
306.584	3.18205
309.476	3.98555
312.369	4.73724
315.262	5.0843
318.155	5.55957
321.047	5.9444
323.94	4.9949
326.833	5.93329
329.725	7.12477
332.618	7.63324
335.511	7.73045
338.404	8.63208
341.296	8.81657
344.189	9.85091
347.082	10.1253
349.974	10.3288
352.867	11.297
355.76	10.3047
358.652	10.1513
361.545	8.98644
364.438	8.5921
367.33	8.74255
370.223	6.84595
373.116	5.63428
376.009	4.03732
378.901	2.30882
381.794	1.51764
384.687	0.740967
387.579	0.475342
390.472	0.663818
393.365	0.616852
396.257	0.429077
399.15	1.08832
402.043	0.732025
404.935	0.502243
407.828	1.31184
410.721	2.58711
413.614	0.399033
416.506	1.31461
419.399	2.12555
422.292	2.21497
425.184	4.105
428.077	3.31174
430.97	3.6185
433.863	4.60393
436.755	4.22086
439.648	3.65422
442.541	6.00099
445.433	6.65875
448.326	8.03674
451.219	8.54735
454.111	8.04115
457.004	7.24803
459.897	7.23553
462.789	8.07048
465.682	8.26544
468.575	9.85794
471.468	9.66228
474.36	9.75833
477.253	9.29323
480.146	9.01573
483.038	10.1004
485.931	9.31749
488.824	10.8678
491.716	10.7201
494.609	8.98523
497.502	9.90982
500.395	7.64264
503.287	7.12663
506.18	7.68042
509.073	6.16618
511.965	5.22795
514.858	5.11362
517.751	3.59579
520.644	1.33826
523.536	1.2142
526.429	0.133194
529.322	0.037766
532.214	0.678688
535.107	0.236679
538	0.277252
540.892	0.190079
543.785	0.145042
546.678	2.81601
549.57	4.26822
552.463	7.37862
555.356	9.19195
558.249	9.75492
561.141	10.6507
564.034	10.0016
566.927	9.02849
569.819	9.19403
572.712	9.20876
575.605	9.37154
578.497	10.6654
581.39	12.4186
584.283	13.9513
587.176	14.7816
590.068	16.8076
592.961	18.3238
595.854	19.4971
598.746	19.42
601.639	20.3321
604.532	19.789
607.424	17.7292
610.317	18.3958
613.21	15.7611
616.102	13.8925
618.995	12.1935
621.888	10.3734
624.781	8.75076
627.673	5.40969
630.566	6.8856
633.459	4.35977
636.351	3.89987
639.244	3.1928
642.137	4.25195
645.029	4.35561
647.922	4.56211
650.815	4.26542
653.708	4.71934
656.6	4.57043
659.493	3.34268
662.386	3.20663
665.278	2.86142
668.171	0.732521
671.064	0.03949
673.957	1.96599
676.849	1.50131
679.742	0.551842
682.635	0.066628
685.527	0.549011
688.42	0.816605
691.313	1.36066
694.205	0.201332
697.098	0.798225
699.991	0.415276
702.884	0.687592
705.776	0.885246
708.669	0.125542
711.562	0.202484
714.454	1.44853
717.347	0.171127
720.24	0.03054
723.132	1.9118
726.025	1.19636
728.918	0.842796
731.81	0.650024
734.703	0.751488
737.596	2.24877
740.489	1.82298
743.381	0.745804
746.274	1.02895
749.167	0.209679
752.059	1.727
754.952	0.379059
757.845	1.97863
760.737	0.227371
763.63	1.40823
766.523	0.138031
769.415	0.500526
772.308	2.23849
775.201	1.26382
778.094	3.1438
780.986	2.14197
783.879	2.95091
786.772	2.69289
789.664	3.77756
792.557	2.36569
795.45	5.08708
798.342	4.38249
801.235	5.99422
804.128	4.88458
807.021	6.34129
809.913	7.90718
812.806	6.58601
815.699	8.09686
818.591	8.14874
821.484	8.06747
824.377	9.58437
827.269	9.41299
830.162	9.51249
833.055	10.1484
835.948	11.5847
838.84	12.3905
841.733	12.4715
844.626	12.042
847.518	13.0882
850.411	12.5545
853.304	13.2821
856.197	11.7125
859.089	13.8407
861.982	13.7618
864.875	13.5626
867.767	12.8917
870.66	12.1295
873.553	11.8318
876.445	11.58
879.338	9.56953
882.231	8.85718
885.123	6.67876
888.016	5.91666
890.909	6.89592
893.802	4.31634
896.694	3.29313
899.587	2.04964
902.48	2.25955
905.372	2.25512
908.265	0.017487
911.158	0.20755
914.05	0.696365
916.943	0.653557
919.836	1.54571
922.729	0.538879
925.621	0.247269
928.514	0.329239
931.407	1.03854
934.299	1.0623
937.192	1.70331
940.085	3.21265
942.977	4.65836
945.87	5.30399
948.763	7.60365
951.655	8.7349
954.548	12.167
957.441	14.7595
960.334	18.003
963.226	22.8389
966.119	28.3457
969.012	36.4858
971.904	44.0332
974.797	48.5683
977.69	49.877
980.582	48.8444
983.475	43.7115
986.368	36.5356
989.261	28.0169
992.153	23.1722
995.046	18.2761
997.939	12.6183
1000.83	8.17434
1003.72	6.41901
1006.62	5.20985
1009.51	5.2097
1012.4	3.21435
1015.29	3.69986
1018.19	2.08539
1021.08	2.53407
1023.97	0.967369
1026.87	0.875717
1029.76	0.807625
1032.65	0.604263
1035.54	0.985596
1038.44	0.408607
1041.33	1.07003
1044.22	1.64383
1047.12	0.208794
1050.01	2.39784
1052.9	2.04858
1055.79	3.08739
1058.68	3.87365
1061.58	5.10901
1064.47	5.74135
1067.36	6.59863
1070.26	7.03417
1073.15	8.44159
1076.04	8.67014
1078.93	9.44001
1081.83	9.816
1084.72	10.1105
1087.61	10.6202
1090.51	9.79649
1093.4	10.3502
1096.29	9.5117
1099.18	9.9342
1102.08	9.35202
1104.97	9.52844
1107.86	9.7365
1110.75	8.43926
1113.65	8.61232
1116.54	7.28413
1119.43	6.29187
1122.33	4.84638
1125.22	5.15402
1128.11	4.68242
1131	3.3836
1133.9	4.48888
1136.79	2.49477
1139.68	2.6382
1142.57	2.27544
1145.47	1.97829
1148.36	3.36462
1151.25	0.671944
1154.14	0.178757
1157.04	0.645012
1159.93	0.239349
1162.82	0.922577
1165.71	0.26223
1168.61	1.13596
1171.5	1.43268
1174.39	0.350525
1177.29	1.40758
1180.18	1.61308
1183.07	0.750183
1185.96	0.429985
1188.86	0.952629
1191.75	0.808594
1194.64	0.978401
1197.54	0.941078
1200.43	0.995285
1203.32	1.25458
1206.21	1.53307
1209.11	1.07007
1212	3.26286
1214.89	1.6777
1217.78	1.93664
1220.68	1.09313
1223.57	1.44186
1226.46	1.99355
1229.35	2.88819
1232.25	1.36265
1235.14	1.35705
1238.03	1.12248
1240.92	1.29989
1243.82	1.75053
1246.71	1.20934
1249.6	0.783684
1252.5	0.799408
1255.39	1.97042
1258.28	0.707634
1261.17	0.447403
1264.07	1.42071
1266.96	1.34522
1269.85	1.21206
1272.74	0.247871
1275.64	1.08135
1278.53	0.623459
1281.42	1.30852
1284.32	0.234375
