Measurement: Raman, 780 nm, unoriented, Raman Data Processed
Mineral: Gadolinite-(Y)
Rruff sample: R120138
Ideal chemistry: Fe^2+^Be_2_Y^3+^_2_(SiO_4_)_2_O_2_
Locality: Ytterby, Uppland, Sweden
Source: William Shelton
Description: Vitreous black massive
Raman shift (cm-1)	intensity
97.9492	0
101.324	0.973999
104.699	5.68304
108.074	5.66467
111.448	4.73407
114.823	8.27649
118.198	6.06262
121.573	11.2562
124.948	5.04407
128.322	6.54864
131.697	0.822083
135.072	3.7934
138.447	0.20459
141.822	1.05469
145.197	3.48419
148.571	1.93646
151.946	1.20416
155.321	6.33496
158.696	5.30212
162.071	5.02795
165.446	1.60608
168.82	1.90564
172.195	2.87708
175.57	2.35883
178.945	0.85022
182.32	0.87738
185.694	2.64203
189.069	0.361023
192.444	4.18298
195.819	2.01605
199.194	3.11615
202.569	4.47583
205.943	7.23047
209.318	6.76758
212.693	4.87122
216.068	7.24133
219.442	5.83203
222.817	7.0221
226.192	7.55987
229.567	7.3634
232.942	6.76318
236.317	8.31244
239.691	10.0256
243.066	8.2149
246.441	8.38251
249.816	6.75085
253.191	5.05707
256.565	0.343933
259.94	3.27447
263.315	0.675415
266.69	0.333862
270.065	2.42529
273.44	0.019958
276.814	1.47266
280.189	0.396484
283.564	1.54089
286.939	0.971191
290.314	2.60938
293.688	2.15924
297.063	1.91797
300.438	2.34222
303.813	1.53937
307.188	6.93811
310.562	4.75617
313.937	4.21698
317.312	4.13379
320.687	5.3305
324.062	2.30463
327.437	4.28455
330.811	5.65796
334.186	5.01929
337.561	6.91681
340.936	6.05914
344.311	5.21472
347.685	6.73663
351.06	5.05499
354.435	7.05933
357.81	8.24872
361.185	8.91803
364.56	10.7569
367.934	11.5333
371.309	10.6743
374.684	9.1294
378.059	12.4605
381.434	8.19501
384.808	7.61438
388.183	8.67248
391.558	8.3764
394.933	5.81329
398.308	4.75793
401.683	4.29169
405.057	5.1236
408.432	4.21082
411.807	1.53998
415.182	1.27985
418.557	3.16022
421.931	2.07147
425.306	0.207458
428.681	0.416626
432.056	4.47986
435.431	2.1203
438.805	2.07379
442.18	2.96295
445.555	0.305237
448.93	0.907776
452.305	0.117249
455.68	3.67938
459.054	4.41278
462.429	4.5871
465.804	1.83368
469.179	0.885742
472.554	6.12006
475.928	0.46814
479.303	0.688049
482.678	2.6206
486.053	0.94281
489.428	1.00855
492.803	0.435486
496.177	0.28476
499.552	0.396423
502.927	2.38275
506.302	1.92822
509.677	0.344574
513.051	1.77197
516.426	1.29288
519.801	1.29498
523.176	3.43088
526.551	2.41284
529.926	1.74097
533.3	1.46878
536.675	1.49463
540.05	2.11935
543.425	0.922974
546.799	3.39102
550.174	3.10352
553.549	2.19464
556.924	2.46631
560.299	3.66196
563.674	2.91623
567.048	4.87482
570.423	2.52268
573.798	2.41934
577.173	0.906616
580.548	2.96286
583.923	2.41867
587.297	7.27667
590.672	0.665314
594.047	1.17465
597.422	1.20373
600.797	0.163513
604.171	1.91153
607.546	0.05954
610.921	0.857269
614.296	0.447357
617.671	0.564636
621.045	0.533447
624.42	3.68066
627.795	0.31781
631.17	1.8125
634.545	2.80887
637.919	2.67304
641.294	2.1589
644.669	3.68491
648.044	3.37711
651.419	4.41833
654.794	3.34174
658.168	5.43015
661.543	2.07468
664.918	1.64004
668.293	4.65521
671.668	4.85919
675.043	4.38794
678.417	5.11984
681.792	2.36255
685.167	3.19037
688.542	4.82852
691.917	5.39929
695.291	4.61456
698.666	3.7305
702.041	1.55176
705.416	3.34302
708.791	2.2948
712.165	3.12085
715.54	2.63351
718.915	5.28369
722.29	4.76382
725.665	5.08533
729.039	5.41559
732.414	4.49335
735.789	3.68326
739.164	3.95834
742.539	4.64941
745.914	5.10944
749.288	5.18088
752.663	2.85977
756.038	2.71933
759.413	3.7096
762.788	4.45776
766.163	4.03162
769.537	2.35916
772.912	1.96762
776.287	2.04382
779.662	0.525604
783.037	0.904114
786.411	0.276611
789.786	3.02805
793.161	0.234863
796.536	0.470856
799.911	0.868256
803.285	0.974731
806.66	0.531189
810.035	0.19986
813.41	1.46521
816.785	0.374512
820.159	1.45023
823.534	0.523834
826.909	0.830261
830.284	1.94302
833.659	2.31357
837.034	2.73605
840.408	4.51856
843.783	6.66446
847.158	5.89352
850.533	8.02084
853.908	7.14304
857.283	10.2067
860.657	8.13937
864.032	10.5814
867.407	9.8421
870.782	10.6905
874.157	10.4502
877.531	8.78388
880.906	9.25391
884.281	12.0666
887.656	10.9582
891.031	9.72592
894.405	9.00299
897.78	9.57324
901.155	11.1056
904.53	8.53922
907.905	8.64767
911.279	8.41596
914.654	8.77719
918.029	9.23032
921.404	7.35962
924.779	6.86984
928.154	6.5697
931.528	9.51044
934.903	6.13791
938.278	9.00372
941.653	5.82959
945.028	7.39694
948.403	4.63504
951.777	5.48972
955.152	5.15951
958.527	4.18741
961.902	4.39731
965.277	4.91418
968.651	3.99936
972.026	3.38168
975.401	2.0159
978.776	2.70993
982.151	4.27356
985.525	1.76157
988.9	1.367
992.275	2.01758
995.65	1.25052
999.025	0.199493
1002.4	2.39801
1005.77	0.169769
1009.15	1.22098
1012.52	0.279297
1015.9	1.60294
1019.27	1.07449
1022.65	0.588898
1026.02	0.682343
1029.4	1.89365
1032.77	0.630859
1036.15	0.666168
1039.52	0.900421
1042.9	4.08789
1046.27	1.17837
1049.65	0.79834
1053.02	1.8815
1056.4	3.11356
1059.77	3.65521
1063.15	0.668396
1066.52	1.49384
1069.9	2.73142
1073.27	2.18866
1076.64	2.81226
1080.02	2.20547
1083.39	2.64804
1086.77	2.87534
1090.14	2.61307
1093.52	5.36429
1096.89	1.97073
1100.27	1.76544
1103.64	0.773743
1107.02	1.24676
1110.39	0.687042
1113.77	1.07184
1117.14	0.213409
1120.52	0.77301
1123.89	0.394318
1127.27	2.78665
1130.64	1.68329
1134.02	2.81027
1137.39	1.23727
1140.77	4.09314
1144.14	2.80353
1147.52	1.51596
1150.89	4.25665
1154.27	4.51434
1157.64	4.45862
1161.02	2.58167
1164.39	2.66037
1167.77	2.52795
1171.14	4.58203
1174.52	5.10809
1177.89	4.35724
1181.27	4.14999
1184.64	3.34842
1188.01	2.33405
1191.39	4.89639
1194.76	2.69885
1198.14	5.0784
1201.51	4.19458
1204.89	6.97073
1208.26	2.62466
1211.64	3.6929
1215.01	2.42194
1218.39	2.81665
1221.76	3.03552
1225.14	4.34369
1228.51	1.95935
1231.89	1.10782
1235.26	1.79736
1238.64	2.68732
1242.01	0.881195
1245.39	0.487305
1248.76	0.626251
1252.14	2.23001
1255.51	0.897522
1258.88	2.45819
1262.26	2.00763
1265.63	2.5267
1269.01	0.984955
1272.38	1.7146
1275.76	1.04242
1279.13	1.90707
1282.51	0.651917
