Measurement: Raman, 780 nm, unoriented, Raman Data Processed
Mineral: Gadolinite-(Y)
Rruff sample: R060351
Ideal chemistry: Fe^2+^Be_2_Y^3+^_2_(SiO_4_)_2_O_2_
Locality: Hittero, Vest-Agder, Norway
Source: Herb Obodda
Description: Dark brown vitreous fragment
Measured chemistry: Be_2.00_Fe^2+^_1.00_(Y_1.75_Nd_0.14_Ce_0.09_La_0.02_)_Î£=2_Si_2.00_O_10_; trace amounts of Ca and Sm; Be not measured but assumed by stoichiometry
Raman shift (cm-1)	intensity
103.104	0
106.479	7.30359
109.854	2.46936
113.228	3.19128
116.603	12.3097
119.978	2.82996
123.353	6.55566
126.728	8.06494
130.102	1.87024
133.477	1.29565
136.852	6.88794
140.227	4.39002
143.602	9.39771
146.977	8.07251
150.351	9.81775
153.726	4.70471
157.101	5.87976
160.476	8.41528
163.851	4.71692
167.226	1.1925
170.6	6.5155
173.975	6.39478
177.35	3.10754
180.725	4.68494
184.1	2.35449
187.474	2.23377
190.849	5.02734
194.224	5.92468
197.599	0.862061
200.974	6.88721
204.349	1.13574
207.723	3.08435
211.098	3.9386
214.473	3.56946
217.848	0.212769
221.223	15.5548
224.597	19.527
227.972	12.4182
231.347	12.0467
234.722	13.9908
238.097	6.75513
241.471	8.50183
244.846	12.4519
248.221	11.244
251.596	7.36023
254.971	12.6661
258.346	7.9469
261.72	10.1122
265.095	14.2967
268.47	13.3896
271.845	10.9503
275.22	7.62903
278.594	12.8483
281.969	13.8335
285.344	13.6836
288.719	16.7761
292.094	12.2861
295.469	14.9622
298.843	6.89392
302.218	4.56885
305.593	9.00989
308.968	7.28503
312.343	7.85046
315.717	2.36255
319.092	0.194458
322.467	9.58923
325.842	4.64185
329.217	1.04944
332.592	3.66577
335.966	6.05847
339.341	2.15942
342.716	1.20471
346.091	0.764404
349.466	5.63574
352.841	11.0184
356.215	9.53687
359.59	13.5272
362.965	19.1774
366.34	26.0314
369.715	25.2853
373.089	35.2469
376.464	35.525
379.839	34.9493
383.214	48.1309
386.589	43.7191
389.964	47.0353
393.338	49.5829
396.713	48.5701
400.088	47.596
403.463	54.3927
406.838	56.0889
410.212	57.7602
413.587	64.7461
416.962	50.502
420.337	58.853
423.712	65.363
427.087	50.5986
430.461	58.4648
433.836	52.5629
437.211	46.7251
440.586	47.6246
443.961	46.1085
447.335	40.6005
450.71	42.9451
454.085	34.9602
457.46	31.7407
460.835	27.0848
464.209	20.5727
467.584	17.1063
470.959	19.4451
474.334	13.7135
477.709	12.6472
481.084	1.81848
484.458	14.3886
487.833	4.57288
491.208	2.37048
494.583	6.25366
497.958	7.68872
501.332	1.02551
504.707	0.724854
508.082	5.90186
511.457	3.3335
514.832	7.32764
518.207	0.004028
521.581	5.64038
524.956	1.36267
528.331	6.39722
531.706	11.4596
535.081	4.77051
538.455	7.44446
541.83	1.81372
545.205	1.92065
548.58	5.88489
551.955	7.54981
555.33	7.55212
558.704	6.59412
562.079	6.3811
565.454	9.55945
568.829	3.00806
572.204	5.52649
575.578	4.60767
578.953	4.21594
582.328	1.17212
585.703	4.02002
589.078	3.77356
592.452	11.8169
595.827	4.36804
599.202	3.51269
602.577	3.61169
605.952	4.94885
609.327	2.32263
612.701	4.88672
616.076	4.75537
619.451	6.64362
622.826	3.20935
626.201	10.9092
629.576	6.89246
632.95	7.98706
636.325	6.34027
639.7	11.608
643.075	13.5446
646.45	3.87805
649.824	0.214478
653.199	8.02026
656.574	9.5556
659.949	8.63483
663.324	2.35535
666.698	7.31805
670.073	7.49182
673.448	12.9345
676.823	12.7599
680.198	14.7713
683.573	12.7111
686.947	9.38672
690.322	6.39996
693.697	7.69678
697.072	6.35504
700.447	10.2455
703.822	11.4003
707.196	12.0256
710.571	1.22815
713.946	13.1171
717.321	8.57202
720.696	10.3886
724.07	6.31915
727.445	14.3126
730.82	8.00598
734.195	4.84918
737.57	11.5731
740.944	11.8111
744.319	15.1614
747.694	7.03796
751.069	12.6579
754.444	5.64569
757.818	3.83264
761.193	11.0524
764.568	6.87976
767.943	5.508
771.318	4.00464
774.693	2.73505
778.067	5.26703
781.442	1.22919
784.817	4.39587
788.192	1.94544
791.567	1.76617
794.942	1.38019
798.316	2.06989
801.691	0.512878
805.066	1.06097
808.441	3.67157
811.816	1.77063
815.19	0.097229
818.565	3.39655
821.94	2.90369
825.315	4.18274
828.69	9.15924
832.064	9.86377
835.439	9.16016
838.814	13.555
842.189	12.7725
845.564	11.4764
848.939	21.2094
852.313	22.3566
855.688	22.3015
859.063	26.7191
862.438	32.1375
865.813	24.9802
869.188	26.6055
872.562	29.9202
875.937	34.6659
879.312	34.0839
882.687	39.6287
886.062	39.3159
889.436	38.9223
892.811	43.6078
896.186	40.7925
899.561	40.7363
902.936	44.4349
906.311	43.0358
909.685	26.7401
913.06	25.142
916.435	31.9146
919.81	18.9814
923.185	20.5878
926.559	16.5294
929.934	18.7351
933.309	14.2216
936.684	14.0322
940.059	4.03601
943.433	10.2789
946.808	9.0152
950.183	10.6128
953.558	8.28046
956.933	8.30872
960.308	3.54028
963.682	7.72455
967.057	3.95807
970.432	7.61896
973.807	6.28363
977.182	1.17993
980.557	8.16065
983.931	1.52173
987.306	0.840576
990.681	0.89978
994.056	0.442139
997.431	0.851379
1000.8	1.33655
1004.18	4.32898
1007.55	5.58722
1010.93	2.05475
1014.3	1.92029
1017.68	2.4939
1021.05	1.5509
1024.43	3.32574
1027.8	2.42804
1031.18	6.8772
1034.55	0.218384
1037.93	5.48859
1041.3	3.90826
1044.68	7.27301
1048.05	4.20966
1051.43	8.59741
1054.8	9.2121
1058.18	2.97015
1061.55	7.24469
1064.93	12.7241
1068.3	11.2128
1071.68	7.69946
1075.05	8.85889
1078.43	7.96021
1081.8	17.177
1085.18	4.57642
1088.55	11.609
1091.92	4.01355
1095.3	4.02332
1098.67	6.04236
1102.05	9.10803
1105.42	2.84686
1108.8	9.62787
1112.17	5.68872
1115.55	0.668091
1118.92	0.83374
1122.3	0.028381
1125.67	0.453979
1129.05	5.60388
1132.42	1.51355
1135.8	4.12335
1139.17	6.70105
1142.55	2.36304
1145.92	5.24695
1149.3	4.15021
1152.67	10.1877
1156.05	2.90747
1159.42	14.464
1162.8	14.8566
1166.17	20.627
1169.55	9.45062
1172.92	17.9287
1176.3	14.3004
1179.67	18.8537
1183.05	23.1647
1186.42	16.0544
1189.8	23.3927
1193.17	23.725
1196.55	22.2358
1199.92	24.504
1203.29	33.0601
1206.67	17.2473
1210.04	22.3135
1213.42	26.8915
1216.79	32.0969
1220.17	30.8268
1223.54	26.1242
1226.92	39.5999
1230.29	32.5404
1233.67	24.8701
1237.04	29.6205
1240.42	19.5974
1243.79	25.764
1247.17	26.7322
1250.54	22.3332
1253.92	17.7576
1257.29	17.0968
1260.67	17.0177
1264.04	14.1396
1267.42	20.3903
1270.79	9.45508
1274.17	6.70142
1277.54	13.5922
1280.91	10.6755
1284.29	5.58386
