Measurement: Raman, 532 nm, unoriented, Raman Data Processed
Mineral: Gadolinite-(Y)
Rruff sample: R060351
Ideal chemistry: Fe^2+^Be_2_Y^3+^_2_(SiO_4_)_2_O_2_
Locality: Hittero, Vest-Agder, Norway
Source: Herb Obodda
Description: Dark brown vitreous fragment
Measured chemistry: Be_2.00_Fe^2+^_1.00_(Y_1.75_Nd_0.14_Ce_0.09_La_0.02_)_Î£=2_Si_2.00_O_10_; trace amounts of Ca and Sm; Be not measured but assumed by stoichiometry
Raman shift (cm-1)	intensity
189.326	0
192.219	5.18848
195.112	4.25171
198.004	4.25037
200.897	5.43335
203.79	8.38086
206.682	5.2146
209.575	9.19238
212.468	8.7113
215.36	7.4021
218.253	13.5377
221.146	7.86292
224.038	5.35376
226.931	5.50061
229.824	7.78223
232.717	13.4541
235.609	10.7524
238.502	8.96631
241.395	2.93945
244.287	0.163208
247.18	2.32617
250.073	3.51794
252.965	8.30054
255.858	12.2201
258.751	8.18567
261.644	4.53442
264.536	9.59326
267.429	10.9249
270.322	5.98523
273.214	6.20984
276.107	6.12341
279	12.2361
281.892	13.6215
284.785	6.51502
287.678	20.3347
290.571	16.2273
293.463	19.0894
296.356	15.4542
299.249	16.0941
302.141	18.562
305.034	16.3694
307.927	21.0277
310.82	24.9285
313.712	16.2885
316.605	14.1796
319.498	18.7508
322.39	21.2136
325.283	11.9282
328.176	18.08
331.068	12.5411
333.961	11.2533
336.854	12.6222
339.747	15.0945
342.639	13.5488
345.532	6.95544
348.425	8.94507
351.317	5.93189
354.21	6.73962
357.103	8.08191
359.995	8.44415
362.888	11.7278
365.781	10.1907
368.673	5.17188
371.566	11.6357
374.459	6.28516
377.352	7.15832
380.244	0.473572
383.137	6.17957
386.03	5.58008
388.922	8.69208
391.815	8.24396
394.708	9.56378
397.601	9.09442
400.493	8.88397
403.386	6.29028
406.279	3.68378
409.171	6.64777
412.064	7.74316
414.957	10.9929
417.849	4.27167
420.742	3.41229
423.635	7.78052
426.527	0.244995
429.42	10.8567
432.313	2.24646
435.206	9.44415
438.098	7.78558
440.991	6.12146
443.884	2.13824
446.776	2.74036
449.669	2.35205
452.562	2.92017
455.454	1.04449
458.347	6.08728
461.24	5.80792
464.133	2.44714
467.025	7.4845
469.918	4.23901
472.811	3.50293
475.703	4.53796
478.596	4.21136
481.489	0.504517
484.382	14.4755
487.274	8.25207
490.167	7.36664
493.06	8.92737
495.952	7.53357
498.845	16.4256
501.738	11.11
504.63	15.1537
507.523	17.6295
510.416	16.7711
513.308	13.3121
516.201	21.8191
519.094	17.5291
521.987	15.0483
524.879	15.9418
527.772	12.7419
530.665	18.057
533.557	20.9993
536.45	19.7805
539.343	18.4811
542.236	13.9698
545.128	16.051
548.021	10.3912
550.914	17.9022
553.806	12.3492
556.699	14.8078
559.592	9.44806
562.484	11.9565
565.377	14.9812
568.27	11.5493
571.163	5.91339
574.055	2.34424
576.948	1.98761
579.841	4.84424
582.733	8.39276
585.626	1.54034
588.519	6.54211
591.411	2.66339
594.304	3.45148
597.197	2.52216
600.09	3.27673
602.982	3.88629
605.875	4.10004
608.768	5.58704
611.66	7.62018
614.553	0.287231
617.446	2.78626
620.338	3.1759
623.231	6.20239
626.124	3.00934
629.016	0.108765
631.909	4.51593
634.802	4.45941
637.695	0.915649
640.587	7.57861
643.48	6.0683
646.373	10.9558
649.265	10.3558
652.158	7.19537
655.051	18.5026
657.943	18.7488
660.836	22.6264
663.729	18.2965
666.622	22.6134
669.514	28.1937
672.407	21.9629
675.3	29.8633
678.192	28.35
681.085	29.0274
683.978	28.4169
686.87	30.3171
689.763	29.5111
692.656	29.2034
695.549	30.016
698.441	28.5055
701.334	25.8487
704.227	27.6351
707.119	29.1412
710.012	30.148
712.905	26.1559
715.798	26.7201
718.69	21.4296
721.583	21.8368
724.476	21.5817
727.368	19.1469
730.261	24.8042
733.154	21.9487
736.046	26.7456
738.939	22.3391
741.832	18.6208
744.725	24.1779
747.617	21.5803
750.51	22.0085
753.403	24.0366
756.295	21.2778
759.188	17.225
762.081	13.7127
764.973	15.9943
767.866	14.3456
770.759	10.4801
773.652	9.83154
776.544	7.01685
779.437	4.59595
782.33	7.86566
785.222	6.18805
788.115	0.306213
791.008	0.670105
793.9	1.03564
796.793	1.98401
799.686	6.68713
802.578	0.79303
805.471	3.52588
808.364	2.65338
811.257	3.00427
814.149	3.07404
817.042	3.11585
819.935	3.0506
822.827	4.2384
825.72	2.71551
828.613	5.164
831.505	10.576
834.398	7.33209
837.291	17.412
840.184	23.0078
843.076	22.6155
845.969	31.8185
848.862	30.7242
851.754	32.4757
854.647	42.2716
857.54	45.9588
860.433	45.2107
863.325	52.1954
866.218	56.6829
869.111	64.3566
872.003	69.1298
874.896	74.6881
877.789	72.9584
880.681	78.6242
883.574	83.7356
886.467	83.9857
889.36	89.426
892.252	95.7347
895.145	98.0088
898.038	100.81
900.93	99.2417
903.823	93.8353
906.716	89.7798
909.608	91.9562
912.501	82.3666
915.394	72.8546
918.287	73.6125
921.179	64.744
924.072	59.17
926.965	45.0821
929.857	46.3108
932.75	40.4
935.643	36.757
938.535	27.2931
941.428	19.5401
944.321	21.2539
947.213	14.7431
950.106	18.1218
952.999	16.0317
955.892	16.4216
958.784	12.5754
961.677	15.8708
964.57	11.3671
967.462	7.88745
970.355	13.5504
973.248	12.2646
976.14	9.3443
979.033	10.1229
981.926	14.4903
984.819	9.93289
987.711	10.2399
990.604	2.39093
993.497	3.59518
996.389	1.87045
999.282	2.41421
1002.17	1.51205
1005.07	0.59668
1007.96	1.54727
1010.85	1.2211
1013.75	4.40259
1016.64	3.75742
1019.53	1.74615
1022.42	2.5928
1025.32	1.47788
1028.21	0.611237
1031.1	1.11984
1033.99	2.12158
1036.89	1.09699
1039.78	4.62183
1042.67	2.70532
1045.57	2.10626
1048.46	4.47882
1051.35	1.33667
1054.24	9.65707
1057.14	3.41568
1060.03	2.81589
1062.92	8.28867
1065.81	6.74149
1068.71	0.086395
1071.6	10.0366
1074.49	5.34885
1077.38	7.24786
1080.28	9.56717
1083.17	8.72162
1086.06	11.5263
1088.96	8.2583
1091.85	11.5497
1094.74	7.24454
1097.63	7.57684
1100.53	7.81836
1103.42	0.79776
1106.31	6.67807
1109.2	7.13206
1112.1	13.3027
1114.99	7.35074
1117.88	7.82095
1120.78	8.58501
1123.67	7.43437
1126.56	6.50032
1129.45	10.4043
1132.35	3.78267
1135.24	7.94243
1138.13	4.70471
1141.02	12.6543
1143.92	6.15613
1146.81	9.46347
1149.7	0.858337
1152.6	9.29187
1155.49	5.92796
1158.38	6.24577
1161.27	8.20116
1164.17	8.8862
1167.06	4.71063
1169.95	5.31204
1172.84	12.1829
1175.74	4.55366
1178.63	6.86124
1181.52	2.00151
1184.41	4.2999
1187.31	6.47119
1190.2	6.94534
1193.09	6.75488
1195.99	8.43805
1198.88	7.57327
1201.77	6.3224
1204.66	3.7691
1207.56	5.03967
1210.45	5.36743
1213.34	7.01399
1216.23	0.715729
1219.13	3.99074
1222.02	1.97536
1224.91	2.50529
1227.81	2.97295
1230.7	7.19492
1233.59	5.64258
1236.48	6.94336
1239.38	1.73209
1242.27	7.33157
1245.16	0.448578
1248.05	0.173782
1250.95	6.49753
1253.84	3.23747
1256.73	0.281494
1259.62	7.92953
1262.52	8.16031
1265.41	5.28101
1268.3	1.12972
1271.2	1.29817
1274.09	2.84509
1276.98	1.42107
1279.87	3.44968
1282.77	5.7729
1285.66	6.55742
1288.55	2.07098
1291.44	0.832809
1294.34	5.66563
1297.23	2.24094
1300.12	6.00247
1303.02	0
