Measurement: Raman, 532 nm, unoriented, Raman Data Processed
Mineral: Gadolinite-(Y)
Rruff sample: R120138
Ideal chemistry: Fe^2+^Be_2_Y^3+^_2_(SiO_4_)_2_O_2_
Locality: Ytterby, Uppland, Sweden
Source: William Shelton
Description: Vitreous black massive
Raman shift (cm-1)	intensity
212.784	0
215.676	2.47354
218.569	3.26981
221.462	1.39448
224.354	1.40089
227.247	1.39658
230.14	0.840256
233.032	1.44562
235.925	3.99054
238.818	2.67302
241.71	2.4764
244.603	3.58012
247.496	2.5968
250.389	0.683533
253.281	0.400787
256.174	2.29308
259.067	1.84952
261.959	0.806702
264.852	1.01297
267.745	0.540741
270.637	0.6185
273.53	0.27919
276.423	0.080185
279.316	0.056137
282.208	3.11899
285.101	0.040909
287.994	1.88386
290.886	2.72653
293.779	2.46382
296.672	2.29822
299.565	2.97682
302.457	3.22197
305.35	3.70032
308.243	4.63557
311.135	4.70444
314.028	6.49004
316.921	6.22932
319.813	5.60767
322.706	5.2007
325.599	5.66583
328.491	6.01712
331.384	6.45592
334.277	6.25694
337.17	5.42606
340.062	9.14116
342.955	8.51613
345.848	8.16257
348.74	6.27432
351.633	6.04909
354.526	6.90892
357.418	5.61813
360.311	5.33664
363.204	6.87251
366.097	6.55936
368.989	4.96512
371.882	5.21858
374.775	5.09168
377.667	4.43793
380.56	2.65051
383.453	4.94598
386.346	2.19229
389.238	3.25247
392.131	2.94479
395.024	2.98404
397.916	1.59927
400.809	1.19598
403.702	1.03381
406.594	1.28757
409.487	0.061157
412.38	0.474335
415.272	1.25137
418.165	1.68982
421.058	0.824677
423.951	1.3804
426.843	0.107269
429.736	2.09891
432.629	0.343292
435.521	0.514221
438.414	1.75845
441.307	2.68817
444.2	1.4296
447.092	1.82468
449.985	1.00864
452.878	1.69656
455.77	0.238129
458.663	1.71164
461.556	0.158783
464.448	1.57675
467.341	1.07431
470.234	0.660461
473.127	2.72873
476.019	2.71121
478.912	3.28763
481.805	4.58289
484.697	2.87955
487.59	3.26993
490.483	4.03451
493.375	4.48071
496.268	3.65082
499.161	4.18533
502.053	4.07626
504.946	4.8425
507.839	4.29529
510.732	5.06903
513.624	4.58188
516.517	6.10075
519.41	5.58145
522.302	4.02675
525.195	4.67748
528.088	4.25464
530.981	4.04665
533.873	6.29341
536.766	4.58165
539.659	4.52208
542.551	4.3665
545.444	4.59964
548.337	3.97463
551.229	3.52379
554.122	4.11322
557.015	2.18549
559.908	3.29942
562.8	3.98378
565.693	4.01524
568.586	2.13823
571.478	3.69936
574.371	3.20697
577.264	2.30548
580.156	3.70142
583.049	1.2791
585.942	1.76218
588.835	1.87341
591.727	1.78471
594.62	1.55261
597.513	1.79628
600.405	1.72797
603.298	0.561707
606.191	0.550034
609.083	0.307877
611.976	0.587143
614.869	0.430771
617.761	2.86905
620.654	0.009033
623.547	0.451859
626.44	0.999008
629.332	1.77814
632.225	0.206436
635.118	0.291122
638.01	1.73674
640.903	0.261459
643.796	0.955414
646.688	1.5914
649.581	3.26971
652.474	3.0694
655.367	2.18247
658.259	4.5049
661.152	3.36133
664.045	3.09122
666.937	3.68951
669.83	5.76256
672.723	5.3649
675.615	6.36595
678.508	5.63617
681.401	5.91267
684.294	6.10081
687.186	5.5051
690.079	6.95116
692.972	7.56316
695.864	6.33067
698.757	4.41319
701.65	5.61337
704.543	5.4879
707.435	6.04207
710.328	5.55684
713.221	4.72636
716.113	3.94215
719.006	5.40153
721.899	4.09744
724.791	4.98584
727.684	4.31
730.577	4.97617
733.47	3.12721
736.362	3.06096
739.255	4.80418
742.148	3.36386
745.04	4.01417
747.933	3.42755
750.826	2.4473
753.718	1.88214
756.611	2.06297
759.504	2.50388
762.396	1.7973
765.289	2.65747
768.182	1.05234
771.075	1.31473
773.967	2.5734
776.86	1.49455
779.753	1.41003
782.645	0.064957
785.538	0.994904
788.431	0.169647
791.323	0.16951
794.216	0.887756
797.109	0.135742
800.002	0.376251
802.894	0.194016
805.787	0.993301
808.68	0.978546
811.572	0.518188
814.465	0.946259
817.358	1.35861
820.25	0.222946
823.143	1.3219
826.036	1.10907
828.929	1.46994
831.821	1.8735
834.714	3.2597
837.607	4.60725
840.5	4.09888
843.392	5.52924
846.285	5.2803
849.178	5.74298
852.07	6.72232
854.963	7.84824
857.856	10.2111
860.748	8.62599
863.641	11.3516
866.534	9.13666
869.427	9.42093
872.319	11.5688
875.212	10.9532
878.105	9.18712
880.997	10.8359
883.89	10.5059
886.783	11.1676
889.675	10.6714
892.568	11.0949
895.461	9.98137
898.354	10.6466
901.246	10.0857
904.139	9.26686
907.032	9.9016
909.924	10.7244
912.817	9.62295
915.71	9.84605
918.602	9.60431
921.495	8.26909
924.388	9.13644
927.28	8.39067
930.173	7.90294
933.066	7.61444
935.959	7.42847
938.851	6.23051
941.744	4.8174
944.637	5.47212
947.529	5.94809
950.422	6.32986
953.315	4.78592
956.207	3.89877
959.1	2.72372
961.993	4.79213
964.886	3.95396
967.778	4.14557
970.671	3.60689
973.564	3.49371
976.456	3.24553
979.349	3.16431
982.242	2.05443
985.135	1.88313
988.027	1.88464
990.92	3.2545
993.813	0.035919
996.705	0.190193
999.598	0.644531
1002.49	0.713036
1005.38	0.010597
1008.28	0.219971
1011.17	0.095001
1014.06	0.061562
1016.95	0.065002
1019.85	0.64679
1022.74	0.221367
1025.63	0.279228
1028.53	0.491028
1031.42	0.54718
1034.31	0.316589
1037.2	0.333755
1040.1	0.225677
1042.99	0.13636
1045.88	0.288261
1048.77	0.106094
1051.67	0.157661
1054.56	0.222466
1057.45	1.45617
1060.35	0.069511
1063.24	0.647621
1066.13	0.290764
1069.02	0.076309
1071.92	1.22827
1074.81	1.31551
1077.7	1.59351
1080.59	0.369476
1083.49	1.20178
1086.38	1.34275
1089.27	1.77296
1092.16	1.89219
1095.06	1.69747
1097.95	2.06515
1100.84	0.999298
1103.73	3.73947
1106.63	0.4566
1109.52	1.47631
1112.41	1.26705
1115.31	1.17198
1118.2	1.40452
1121.09	1.4269
1123.98	1.48019
1126.88	0.904419
1129.77	1.23817
1132.66	1.08529
1135.56	0.905704
1138.45	1.10851
1141.34	1.34715
1144.23	0.163105
1147.13	1.23067
1150.02	1.0333
1152.91	1.71002
1155.8	1.35447
1158.7	0.553288
1161.59	0.869534
1164.48	0.726151
1167.38	1.06307
1170.27	0.916805
1173.16	0.938103
1176.05	0.912838
1178.94	0.672531
1181.84	1.14185
1184.73	1.78009
1187.62	0.791885
1190.52	0.554688
1193.41	0.830051
1196.3	1.26388
1199.19	1.24017
1202.09	1.08153
1204.98	0.868549
1207.87	0.907661
1210.77	0.697403
1213.66	0.800785
1216.55	0.53875
1219.44	0.236389
1222.34	0.894077
1225.23	0.502678
1228.12	0.451431
1231.01	0.082405
1233.91	0.446682
1236.8	0.538742
1239.69	0.27211
1242.59	0.636013
1245.48	0.746788
1248.37	0.345654
1251.26	0.777306
1254.16	1.39713
1257.05	1.06449
1259.94	0.576447
1262.83	0.689507
1265.73	0.283092
1268.62	0.761681
1271.51	0.614071
1274.4	0.355289
1277.3	0.134544
1280.19	0.336067
1283.08	0.118473
1285.97	0.855595
1288.87	0.533573
1291.76	1.40857
1294.65	0.48386
1297.55	1.09068
1300.44	0.434807
