Measurement: Raman, 532 nm, unoriented, Raman Data Processed
Mineral: Gadolinite-(Y)
Rruff sample: R070340
Ideal chemistry: Fe^2+^Be_2_Y^3+^_2_(SiO_4_)_2_O_2_
Locality: Ytterøya Mine, Røvika, Ytterøya (island), Levanger, Nord-Trøndelag, Norway
Source: Michael Scott
Description: Black vitreous, metamict massive, a portion of the sample was heated, and is recorded under R080129.
Raman shift (cm-1)	intensity
191.124	0
194.017	1.38013
196.909	17.6916
199.802	35.1855
202.695	46.1585
205.587	38.2978
208.48	11.3125
211.373	60.7954
214.266	41.4048
217.158	37.398
220.051	50.9839
222.944	41.1707
225.836	32.179
228.729	34.2102
231.622	53.9846
234.514	16.9587
237.407	22.1589
240.3	29.4346
243.192	23.7139
246.085	5.51294
248.978	29.2825
251.871	4.54248
254.763	12.4163
257.656	5.27661
260.549	28.3477
263.441	5.70264
266.334	5.24756
269.227	35.489
272.12	8.90747
275.012	1.02344
277.905	14.2725
280.798	22.4546
283.69	23.3584
286.583	43.4749
289.476	7.26001
292.368	51.916
295.261	56.9487
298.154	25.7725
301.046	79.8682
303.939	44.8813
306.832	31.5706
309.725	63.8088
312.617	52.896
315.51	42.1572
318.403	37.9316
321.295	36.2837
324.188	54.8748
327.081	96.2669
329.974	66.8677
332.866	72.2249
335.759	63.1189
338.652	58.9944
341.544	81.677
344.437	59.4836
347.33	62.5002
350.223	42.8113
353.115	78.779
356.008	75.105
358.901	74.5842
361.793	91.0801
364.686	98.1116
367.579	69.2268
370.471	39.626
373.364	73.926
376.257	69.8013
379.149	33.0872
382.042	57.8442
384.935	75.0471
387.828	47.9849
390.72	32.3286
393.613	69.8359
396.506	30.1228
399.398	16.4204
402.291	28.4905
405.184	31.3154
408.077	2.88037
410.969	21.991
413.862	40.5803
416.755	36.8867
419.647	33.939
422.54	40.8127
425.433	10.8828
428.325	2.55347
431.218	18.9482
434.111	41.3713
437.003	17.0613
439.896	26.2612
442.789	23.0637
445.682	15.3752
448.574	23.2112
451.467	11.198
454.36	4.448
457.252	26.2485
460.145	16.4702
463.038	21.2156
465.93	13.8711
468.823	10.0149
471.716	23.3545
474.609	12.6218
477.501	29.5884
480.394	35.5164
483.287	42.1348
486.179	37.9541
489.072	49.0925
491.965	46.8015
494.858	64.8179
497.75	46.9304
500.643	65.9375
503.536	61.7002
506.428	88.5452
509.321	79.7165
512.214	72.6179
515.106	70.823
517.999	58.8132
520.892	119.989
523.784	62.1211
526.677	101.881
529.57	45.2612
532.463	89.4148
535.355	80.5496
538.248	97.2124
541.141	90.0837
544.033	123.884
546.926	110.213
549.819	100.803
552.712	90.3032
555.604	98.8115
558.497	85.4937
561.39	77.9614
564.282	12.5725
567.175	51.2324
570.068	47.0542
572.96	56.6982
575.853	54.8464
578.746	81.5012
581.639	54.4053
584.531	41.2082
587.424	59.7725
590.317	46.8962
593.209	51.7373
596.102	28.0618
598.995	49.0657
601.888	62.0454
604.78	15.4731
607.673	29.0652
610.566	51.0813
613.458	10.5027
616.351	9.70801
619.244	12.4627
622.136	30.1785
625.029	8.68896
627.922	9.94995
630.814	13.5227
633.707	32.9819
636.6	24.6162
639.493	41.2029
642.385	39.0925
645.278	49.5557
648.171	61.8645
651.063	101.09
653.956	79.5476
656.849	74.2612
659.741	61.7205
662.634	112.177
665.527	111.647
668.42	79.0081
671.312	79.0286
674.205	106.434
677.098	113.044
679.99	111.838
682.883	53.1728
685.776	85.2417
688.668	24.645
691.561	114.624
694.454	64.1548
697.347	49.636
700.239	59.4402
703.132	56.5913
706.025	56.0288
708.917	43.9553
711.81	35.0864
714.703	56.2678
717.596	26.8572
720.488	50.6287
723.381	5.56519
726.274	29.9805
729.166	39.7095
732.059	52.3513
734.952	61.0806
737.844	41.5154
740.737	71.0625
743.63	24.6406
746.523	8.36914
749.415	12.875
752.308	52.5518
755.201	31.7026
758.093	57.8203
760.986	32.0168
763.879	41.4668
766.771	63.9085
769.664	12.0393
772.557	8.26514
775.45	19.4646
778.342	11.8716
781.235	2.20874
784.128	2.52905
787.02	9.3645
789.913	36.6768
792.806	5.41016
795.698	22.3709
798.591	8.80542
801.484	30.8955
804.377	3.302
807.269	13.6909
810.162	2.62817
813.055	30.5095
815.947	13.9358
818.84	27.7146
821.733	58.4624
824.625	12.0154
827.518	37.4751
830.411	63.071
833.304	34.595
836.196	48.2647
839.089	66.1182
841.982	79.3984
844.874	59.6265
847.767	99.9937
850.66	126.595
853.553	157.512
856.445	131.845
859.338	135.561
862.231	156.955
865.123	167.816
868.016	168.866
870.909	124.253
873.801	163.743
876.694	161.218
879.587	140.046
882.48	163.344
885.372	174.096
888.265	147.556
891.158	144.855
894.05	116.812
896.943	130.437
899.836	148.763
902.729	139.19
905.621	146.602
908.514	137.511
911.407	111.388
914.299	130.723
917.192	101.058
920.085	82.3809
922.977	134.519
925.87	94.948
928.763	84.0776
931.655	114.759
934.548	85.4697
937.441	101.555
940.334	72.3748
943.226	51.1797
946.119	90.6685
949.012	45.3525
951.904	50.7739
954.797	44.3235
957.69	61.0684
960.582	70.0466
963.475	42.5335
966.368	61.9304
969.261	21.3806
972.153	38.4656
975.046	58.8164
977.939	18.6692
980.831	34.9348
983.724	25.7895
986.617	40.2368
989.51	14.3466
992.402	34.4852
995.295	29.8289
998.188	15.6448
1001.08	1.70459
1003.97	26.7633
1006.87	2.32373
1009.76	7.89624
1012.65	5.32861
1015.54	6.42859
1018.44	22.0231
1021.33	11.9358
1024.22	16.5169
1027.12	10.8798
1030.01	10.0027
1032.9	27.8088
1035.79	9.90076
1038.68	16.3199
1041.58	16.4507
1044.47	18.4645
1047.36	31.8927
1050.26	36.7779
1053.15	25.1509
1056.04	33.5759
1058.93	25.1949
1061.83	48.1213
1064.72	18.9992
1067.61	24.1717
1070.51	10.8057
1073.4	22.8529
1076.29	25.1017
1079.18	12.3166
1082.08	30.972
1084.97	0.702637
1087.86	17.1814
1090.75	17.6567
1093.65	37.6432
1096.54	26.6207
1099.43	5.22949
1102.33	20.9128
1105.22	30.5493
1108.11	21.3132
1111	28.9547
1113.9	21.2468
1116.79	10.4261
1119.68	47.6586
1122.57	24.3523
1125.47	26.286
1128.36	13.5087
1131.25	6.29175
1134.14	33.1694
1137.04	29.7447
1139.93	46.6742
1142.82	28.7961
1145.71	15.7698
1148.61	27.8203
1151.5	1.61621
1154.39	6.72815
1157.29	52.9302
1160.18	14.8678
1163.07	27.7766
1165.96	30.8002
1168.86	33.2069
1171.75	43.3815
1174.64	39.2651
1177.54	49.6585
1180.43	22.428
1183.32	70.1638
1186.21	32.4166
1189.11	8.34876
1192	17.2385
1194.89	34.496
1197.78	45.5761
1200.68	38.0376
1203.57	22.0214
1206.46	35.3597
1209.36	19.6706
1212.25	35.386
1215.14	3.6366
1218.03	29.0072
1220.93	15.221
1223.82	2.35486
1226.71	12.7943
1229.6	26.3303
1232.5	4.99365
1235.39	15.6237
1238.28	8.51672
1241.17	22.9923
1244.07	18.2373
1246.96	8.32007
1249.85	21.463
1252.74	15.598
1255.64	46.0524
1258.53	23.4739
1261.42	18.4779
1264.32	33.1941
1267.21	21.4893
1270.1	21.4586
1272.99	12.2618
1275.89	32.5177
1278.78	14.8557
1281.67	10.497
1284.57	11.1792
1287.46	7.52319
1290.35	21.9534
1293.24	40.9958
1296.14	22.6186
1299.03	19.4737
1301.92	31.637
1304.81	34.6986
1307.71	13.1443
1310.6	10.7833
1313.49	18.3325
