Measurement: Raman, 780 nm, unoriented, Raman Data Processed
Mineral: Gahnite
Rruff sample: R170037
Ideal chemistry: Zn^2+^Al_2_O_4_
Locality: Silberberg mine, Bodenmais, Zwiesel, Bavarian Forest, Lower Bavaria, Bavaria, Germany
Source: Rock Currier
Description: Massive dark to bluish-green
Measured chemistry: (Zn_0.57_Fe_0.22_Mg_0.21_Mn_0.02_)(Al_1.94_Fe_0.06_)O_4_
Raman shift (cm-1)	intensity
146.4	0
149.293	0.85421
152.186	2.29613
155.078	2.83261
157.971	2.14642
160.864	3.29221
163.756	2.04115
166.649	1.50466
169.542	1.35065
172.435	0.294235
175.327	0.536018
178.22	0.552574
181.113	0.434715
184.005	0.557495
186.898	1.73415
189.791	2.26785
192.684	2.02843
195.576	2.30064
198.469	2.57867
201.362	4.36919
204.254	3.82482
207.147	3.35461
210.04	2.79858
212.932	2.38053
215.825	1.41779
218.718	1.10545
221.611	2.33861
224.503	1.93993
227.396	1.41203
230.289	2.41379
233.181	2.00373
236.074	2.45309
238.967	3.20777
241.859	2.34571
244.752	2.60231
247.645	2.66157
250.537	2.94871
253.43	1.81832
256.323	2.22084
259.216	1.83228
262.108	1.54179
265.001	1.77555
267.894	0.247574
270.786	0.114918
273.679	0.039665
276.572	0.110634
279.464	0.065643
282.357	0.01965
285.25	0.872429
288.143	1.22501
291.035	1.02238
293.928	0.123341
296.821	0.645084
299.713	1.18225
302.606	0.78693
305.499	0.493042
308.392	0.425755
311.284	1.16266
314.177	0.772541
317.07	0.756985
319.962	1.13995
322.855	0.791897
325.748	1.53853
328.64	0.934925
331.533	0.921795
334.426	1.24773
337.319	0.959702
340.211	0.441284
343.104	1.11942
345.997	0.851048
348.889	1.21202
351.782	0.941547
354.675	0.370598
357.567	0.136574
360.46	0.528465
363.353	0.231155
366.246	0.957539
369.138	0.183857
372.031	0.235851
374.924	0.417892
377.816	0.110435
380.709	0.16399
383.602	0.721161
386.495	0.909664
389.387	1.64122
392.28	2.33032
395.173	3.72051
398.065	4.33556
400.958	5.59663
403.851	7.12516
406.743	10.6552
409.636	14.2126
412.529	13.1361
415.421	7.67654
418.314	3.48661
421.207	1.8334
424.1	0.85601
426.992	1.39239
429.885	0.532444
432.778	0.795094
435.67	1.04891
438.563	0.143711
441.456	0.631905
444.349	0.24905
447.241	0.165825
450.134	0.255215
453.027	0.166119
455.919	0.104179
458.812	0.708553
461.705	0.967922
464.597	0.53545
467.49	1.27028
470.383	0.98867
473.276	0.980316
476.168	1.16487
479.061	1.18704
481.954	1.14647
484.846	1.51548
487.739	1.70993
490.632	2.06424
493.524	1.83113
496.417	1.11354
499.31	1.51089
502.202	0.9632
505.095	0.878185
507.988	1.3307
510.881	0.800125
513.773	0.869339
516.666	0.700001
519.559	0.894718
522.451	0.081772
525.344	0.416462
528.237	0.249138
531.13	0.182842
534.022	0.629818
536.915	0.101475
539.808	0.354424
542.7	0.25164
545.593	0.446838
548.486	0.38081
551.378	0.310917
554.271	0.567238
557.164	0.627827
560.057	1.18552
562.949	1.46217
565.842	1.77584
568.735	1.05996
571.627	1.28538
574.52	0.93668
577.413	1.39348
580.305	0.948143
583.198	1.80505
586.091	1.16145
588.984	1.77568
591.876	0.953686
594.769	1.77371
597.662	2.08319
600.554	2.27318
603.447	2.852
606.34	3.68379
609.232	5.84271
612.125	5.81568
615.018	7.38802
617.911	7.18981
620.803	7.71727
623.696	7.80657
626.589	6.16432
629.481	5.1011
632.374	4.876
635.267	3.46753
638.159	4.13215
641.052	3.31021
643.945	3.90103
646.838	4.84464
649.73	5.25642
652.623	6.00582
655.516	5.34506
658.408	3.17339
661.301	2.24065
664.194	0.860062
667.087	0.137547
669.979	0.753353
672.872	0.13562
675.765	0.585384
678.657	0.066654
681.55	0.936092
684.443	1.34347
687.335	1.06791
690.228	2.38743
693.121	2.83898
696.014	3.4113
698.906	3.66564
701.799	3.19116
704.692	2.90378
707.584	2.66342
710.477	1.73551
713.37	0.865662
716.262	0.066036
719.155	0.890709
722.048	0.593475
724.941	0.616379
727.833	0.423218
730.726	0.33366
733.619	1.31748
736.511	1.58306
739.404	1.99988
742.297	3.05721
745.189	3.77632
748.082	4.13031
750.975	4.75915
753.867	4.21715
756.76	4.6888
759.653	4.00005
762.546	3.26717
765.438	2.73426
768.331	2.60509
771.224	1.99409
774.116	1.93839
777.009	0.86945
779.902	1.23633
782.795	0.829426
785.687	0.428421
788.58	0.335892
791.473	0.348972
794.365	0.141426
797.258	0.378326
800.151	0.449329
803.043	0.548306
805.936	0.201206
808.829	0.271793
811.722	0.533806
814.614	0.120468
817.507	0.344017
820.4	0.824551
823.292	0.217121
826.185	1.03338
829.078	1.05939
831.971	1.05818
834.863	0.486485
837.756	1.79556
840.649	1.4847
843.541	0.967022
846.434	1.62776
849.327	1.86207
852.219	2.00118
855.112	1.66399
858.005	2.11366
860.898	1.90304
863.79	2.20664
866.683	1.92454
869.576	1.68786
872.468	1.77943
875.361	1.52667
878.254	1.60685
881.146	1.64827
884.039	0.636349
886.932	1.34664
889.824	0.561958
892.717	0.613289
895.61	0.048698
898.503	0.601357
901.395	0.177898
904.288	0.191372
907.181	0.229677
910.073	0.410791
912.966	0.472839
915.859	0.026812
918.751	0.040894
921.644	0.186419
924.537	0.085299
927.43	0.046646
930.322	0.358721
933.215	0.423561
936.108	0.737041
939	0.024494
941.893	0.525301
944.786	0.533255
947.678	1.73308
950.571	0.8685
953.464	0.343365
956.357	0.380512
959.249	0.205601
962.142	0.880817
965.035	1.09961
967.927	0.686548
970.82	0.189075
973.713	0.729881
976.606	0.795076
979.498	0.692719
982.391	0.626471
985.284	0.760275
988.176	0.37602
991.069	1.04006
993.962	0.316618
996.854	0.511374
999.747	0.719597
1002.64	1.0692
1005.53	0.450518
1008.42	1.22566
1011.32	1.33889
1014.21	0.948858
1017.1	0.898596
1020	0.895639
1022.89	1.12193
1025.78	0.730844
1028.67	0.799637
1031.57	0.846634
1034.46	1.43208
1037.35	1.73026
1040.24	1.49838
1043.14	0.854702
1046.03	1.34234
1048.92	1.01767
1051.82	1.16344
1054.71	0.68421
1057.6	1.24716
1060.49	0.531134
1063.39	1.04942
1066.28	0.953648
1069.17	1.44624
1072.07	0.446026
1074.96	0.206745
1077.85	0.626545
1080.74	0.270376
1083.63	1.03074
1086.53	0.235998
1089.42	0.475565
1092.31	0.432276
1095.21	0.085535
1098.1	0.151506
1100.99	0.142544
1103.88	0.170971
1106.78	0.464323
1109.67	0.225418
1112.56	0.405628
1115.45	0.128185
1118.35	0.264507
1121.24	0.180971
1124.13	0.535292
1127.03	0.50831
1129.92	0.146435
1132.81	0.219885
1135.7	0.826042
1138.6	0.702663
1141.49	0.694166
1144.38	0.719595
1147.28	0.086222
1150.17	0.226999
1153.06	0.168739
1155.95	0.362875
1158.85	0.647785
1161.74	0.881851
1164.63	0.676226
1167.52	0.300642
1170.42	0.403418
1173.31	0.477438
1176.2	0.048189
1179.1	0.157204
1181.99	0.455957
1184.88	0.543081
1187.77	0.516663
1190.66	0.95018
1193.56	0.4384
1196.45	0.528492
1199.34	0.087135
1202.24	0.450996
1205.13	0.348869
1208.02	0.096611
1210.91	0.447536
1213.81	0.74011
1216.7	1.15566
1219.59	0.572788
1222.48	0.75835
1225.38	0.501991
1228.27	0.628952
1231.16	0.074678
1234.06	0.353685
1236.95	0.17548
1239.84	0.275728
1242.73	0.607882
1245.63	0.440191
1248.52	0.653833
1251.41	0.088593
1254.31	0.487846
1257.2	0.739777
1260.09	0.399706
1262.98	0.625208
1265.88	0.56768
1268.77	0.342955
1271.66	0.081255
1274.55	0.880219
1277.45	0.237112
1280.34	0.285921
