Measurement: Raman, 532 nm, unoriented, Raman Data Processed
Mineral: Gahnite
Rruff sample: R170037
Ideal chemistry: Zn^2+^Al_2_O_4_
Locality: Silberberg mine, Bodenmais, Zwiesel, Bavarian Forest, Lower Bavaria, Bavaria, Germany
Source: Rock Currier
Description: Massive dark to bluish-green
Measured chemistry: (Zn_0.57_Fe_0.22_Mg_0.21_Mn_0.02_)(Al_1.94_Fe_0.06_)O_4_
Raman shift (cm-1)	intensity
177.81	0
180.703	0.857941
183.596	1.28343
186.488	4.46031
189.381	3.42915
192.274	2.23631
195.167	4.66724
198.059	5.21594
200.952	4.36479
203.845	4.12424
206.737	4.57114
209.63	7.13039
212.523	5.08621
215.416	5.05835
218.308	3.20137
221.201	1.00079
224.094	0.43573
226.986	0.356949
229.879	0.434418
232.772	0.062393
235.664	0.872925
238.557	0.647202
241.45	0.240982
244.343	0.059479
247.235	0.462204
250.128	1.106
253.021	2.10182
255.913	2.38022
258.806	3.24875
261.699	3.1012
264.591	2.53809
267.484	2.00046
270.377	3.07318
273.27	2.98793
276.162	3.08598
279.055	1.7753
281.948	2.47627
284.84	2.62572
287.733	2.12831
290.626	2.51953
293.519	0.861008
296.411	2.76805
299.304	1.22191
302.197	2.21046
305.089	1.60716
307.982	0.904648
310.875	0.472748
313.767	1.0889
316.66	0.218811
319.553	0.856201
322.445	0.533157
325.338	0.663177
328.231	0.731339
331.124	0.648911
334.016	0.375778
336.909	0.509247
339.802	1.74271
342.694	1.76498
345.587	0.950638
348.48	2.01378
351.373	3.24907
354.265	2.97942
357.158	1.53337
360.051	1.91228
362.943	1.0607
365.836	2.1351
368.729	1.11476
371.621	0.71257
374.514	2.26085
377.407	0.340057
380.3	0.299713
383.192	1.46256
386.085	4.78827
388.978	5.68742
391.87	8.50839
394.763	16.3967
397.656	25.3292
400.548	34.8191
403.441	44.0082
406.334	56.3295
409.226	77.0378
412.119	97.2564
415.012	84.9658
417.905	41.256
420.797	18.2541
423.69	9.9419
426.583	7.44074
429.475	5.87286
432.368	4.26593
435.261	4.05377
438.154	3.72008
441.046	2.78011
443.939	1.7354
446.832	1.55832
449.724	0.188591
452.617	0.635674
455.51	0.334564
458.402	0.193771
461.295	2.93393
464.188	3.3853
467.08	3.43585
469.973	5.42001
472.866	6.85393
475.759	7.83256
478.651	7.18513
481.544	7.84969
484.437	8.81692
487.329	10.3238
490.222	9.11552
493.115	8.71133
496.007	8.00212
498.9	7.33119
501.793	8.20021
504.686	10.5912
507.578	11.7686
510.471	11.4076
513.364	6.9603
516.256	5.90283
519.149	6.13187
522.042	5.52488
524.934	4.47712
527.827	2.81944
530.72	1.43956
533.613	0.48291
536.505	0.651321
539.398	0.707397
542.291	0.915222
545.183	0.985413
548.076	0.670975
550.969	2.53693
553.861	2.82107
556.754	5.151
559.647	5.64519
562.54	7.01921
565.432	8.2384
568.325	8.76964
571.218	8.33128
574.11	8.97699
577.003	8.62859
579.896	10.0665
582.788	12.1985
585.681	12.9191
588.574	14.7523
591.467	18.5802
594.359	19.1933
597.252	22.8849
600.145	24.0824
603.037	28.8751
605.93	34.9367
608.823	45.1661
611.716	56.5003
614.608	69.6996
617.501	77.7267
620.394	83.1023
623.286	82.5904
626.179	75.9253
629.072	62.7469
631.964	50.4547
634.857	44.3678
637.75	40.2545
640.643	40.5568
643.535	45.6174
646.428	52.4849
649.321	65.2287
652.213	78.3831
655.106	84.5694
657.999	77.6013
660.891	49.8504
663.784	24.7526
666.677	9.11142
669.569	4.09401
672.462	0.533524
675.355	2.48164
678.248	2.8604
681.14	0.043915
684.033	2.1376
686.926	6.61302
689.818	11.6169
692.711	15.3959
695.604	21.7614
698.496	24.0294
701.389	25.4769
704.282	22.2825
707.175	19.2731
710.067	14.3166
712.96	9.22044
715.853	5.30392
718.745	4.10683
721.638	4.08495
724.531	3.2252
727.423	5.87524
730.316	5.87979
733.209	8.04373
736.102	9.78854
738.994	15.4106
741.887	18.4145
744.78	27.1779
747.672	33.1447
750.565	41.8768
753.458	45.8333
756.351	45.9761
759.243	42.5901
762.136	35.5578
765.029	27.4591
767.921	23.9782
770.814	17.1001
773.707	14.2963
776.599	12.2825
779.492	8.79184
782.385	5.13513
785.278	4.15651
788.17	2.82393
791.063	1.47688
793.956	0.226898
796.848	0.198639
799.741	1.43895
802.634	0.063797
805.526	0.885834
808.419	0.941284
811.312	0.10141
814.205	1.26369
817.097	1.43939
819.99	0.523529
822.883	1.06593
825.775	2.36501
828.668	3.00859
831.561	2.92313
834.453	5.42865
837.346	5.96248
840.239	5.99724
843.132	7.17882
846.024	8.58115
848.917	7.93863
851.81	8.59975
854.702	7.59013
857.595	8.64433
860.488	8.80971
863.38	8.51057
866.273	8.42042
869.166	9.23119
872.059	7.89699
874.951	9.50351
877.844	6.04015
880.737	6.75536
883.629	5.4239
886.522	5.6125
889.415	3.89455
892.308	3.67157
895.2	2.6194
898.093	0.8992
900.986	1.04749
903.878	2.75233
906.771	0.042397
909.664	0.019516
912.556	0.927551
915.449	0.298355
918.342	0.379402
921.235	0.457024
924.127	0.206161
927.02	0.141312
929.913	0.194618
932.805	0.338074
935.698	0.138229
938.591	1.99293
941.483	0.85228
944.376	2.45859
947.269	1.66841
950.162	2.50581
953.054	2.94849
955.947	2.86026
958.84	2.42618
961.732	3.30155
964.625	2.31696
967.518	3.75687
970.41	3.33362
973.303	2.76162
976.196	2.18412
979.088	2.33238
981.981	3.41023
984.874	2.76902
987.767	2.56143
990.659	2.52806
993.552	1.72479
996.445	2.08244
999.337	3.19834
1002.23	3.41259
1005.12	2.67613
1008.02	2.33069
1010.91	2.37924
1013.8	3.39382
1016.69	2.49728
1019.59	2.80596
1022.48	3.44264
1025.37	3.83927
1028.26	4.33725
1031.16	4.71162
1034.05	5.94749
1036.94	5.40996
1039.84	5.60144
1042.73	5.29654
1045.62	5.5433
1048.51	4.66419
1051.41	4.5208
1054.3	4.76363
1057.19	3.98288
1060.08	2.70452
1062.98	3.34708
1065.87	2.78912
1068.76	2.28805
1071.65	2.29883
1074.55	2.5871
1077.44	0.730553
1080.33	1.222
1083.23	1.39866
1086.12	2.03033
1089.01	0.846001
1091.9	0.938271
1094.8	0.387352
1097.69	0.63295
1100.58	0.996147
1103.47	1.38012
1106.37	0.460846
1109.26	0.385536
1112.15	0.232101
1115.05	0.205116
1117.94	1.05416
1120.83	1.30035
1123.72	0.411423
1126.62	0.388031
1129.51	0.203728
1132.4	0.262604
1135.29	0.316994
1138.19	1.4734
1141.08	1.97985
1143.97	0.97187
1146.87	0.061852
1149.76	0.199203
1152.65	0.546898
1155.54	0.035309
1158.44	0.350845
1161.33	0.073425
1164.22	0.778244
1167.11	0.298859
1170.01	0.763763
1172.9	1.5733
1175.79	1.29956
1178.68	2.13606
1181.58	1.61869
1184.47	1.34071
1187.36	2.03847
1190.26	2.17348
1193.15	1.69633
1196.04	2.95377
1198.93	1.88211
1201.83	1.88712
1204.72	1.11596
1207.61	1.75859
1210.51	1.99617
1213.4	1.40919
1216.29	2.2367
1219.18	2.60796
1222.08	1.80849
1224.97	1.26406
1227.86	2.10678
1230.75	1.80776
1233.65	2.36451
1236.54	2.02183
1239.43	2.53779
1242.32	2.66576
1245.22	3.41202
1248.11	3.18149
1251	3.19559
1253.89	2.63622
1256.79	2.31314
1259.68	1.85327
1262.57	2.46825
1265.47	2.79665
1268.36	1.52784
1271.25	1.53313
1274.14	1.88585
1277.04	0.852859
1279.93	1.17305
1282.82	1.0581
1285.71	0.303894
1288.61	0.577217
1291.5	0.739304
1294.39	1.46532
1297.29	1.19784
1300.18	0.001472
