Measurement: Raman, 532 nm, unoriented, Raman Data Processed
Mineral: Gaidonnayite
Rruff sample: R070472
Ideal chemistry: Na_2_Zr^4+^Si_3_O_9_2H_2_O
Locality: Poudrette quarry, Mont Saint-Hilaire, Rouville County, Qu√©bec, Canada
Source: Michael Scott
Description: Colorless to light brown prismatic crystals, co-type material, associated with colorless albite and pyrite. Fluoresces green under short wave ultraviolet light.
Raman shift (cm-1)	intensity
165.101	0
167.994	2.28125
170.886	327.477
173.779	603.172
176.672	642.422
179.565	254.859
182.457	47.7227
185.35	195.883
188.243	10.5117
191.135	502.32
194.028	500.363
196.921	317.609
199.813	180.367
202.706	250.41
205.599	176.141
208.492	80.1133
211.384	2.71484
214.277	200.152
217.17	25.0352
220.062	81.0312
222.955	371.457
225.848	258.691
228.74	628.5
231.633	840.098
234.526	552.477
237.418	703.5
240.311	671.125
243.204	790.762
246.097	844.117
248.989	800.016
251.882	681.094
254.775	588.981
257.667	609.07
260.56	534.176
263.453	661.57
266.346	785.375
269.238	860.195
272.131	735.144
275.024	656.004
277.916	587.164
280.809	344.34
283.702	559.598
286.594	392.894
289.487	313.723
292.38	387.734
295.272	291.41
298.165	106.965
301.058	91.4961
303.951	231.57
306.843	334.414
309.736	662.66
312.629	949.047
315.521	908.328
318.414	1130.88
321.307	1316.63
324.2	1813.62
327.092	1900.95
329.985	1603.5
332.878	1367.09
335.77	1184.56
338.663	1226.34
341.556	983.961
344.448	618.644
347.341	239.633
350.234	475.91
353.127	628.641
356.019	625.207
358.912	589.996
361.805	467.934
364.697	477.238
367.59	328.609
370.483	328.984
373.375	284.141
376.268	318.461
379.161	316.543
382.053	68.6445
384.946	185.074
387.839	118.766
390.732	46.5312
393.624	122.125
396.517	73.4805
399.41	110.527
402.302	13.3438
405.195	48.5469
408.088	118.055
410.981	319.527
413.873	190.098
416.766	96.7305
419.659	132.441
422.551	36.4336
425.444	52.7539
428.337	119.289
431.229	39.0859
434.122	157.977
437.015	377.133
439.908	379.371
442.8	229.957
445.693	218.492
448.586	406.93
451.478	490.281
454.371	624.926
457.264	934.039
460.156	657.656
463.049	210.609
465.942	229.961
468.834	239.621
471.727	433.086
474.62	554.574
477.513	588.824
480.405	718.66
483.298	595.41
486.191	482.777
489.083	405.691
491.976	204.824
494.869	301.586
497.762	410.535
500.654	561.465
503.547	651.816
506.44	1392.16
509.332	2424.29
512.225	3791.78
515.118	5332.66
518.01	6549.56
520.903	7023.49
523.796	5633.73
526.688	3803.74
529.581	2532.06
532.474	1977.98
535.367	1572.96
538.259	1220.37
541.152	854.871
544.045	875.633
546.937	695.664
549.83	607.016
552.723	320.582
555.615	181.992
558.508	124.519
561.401	182.832
564.294	111.527
567.186	225.75
570.079	304.773
572.972	352.727
575.864	292.441
578.757	172.156
581.65	12.0742
584.543	15.375
587.435	76.6992
590.328	88.8945
593.221	39.8203
596.113	19.5781
599.006	129.332
601.899	99.0156
604.791	324.312
607.684	178.492
610.577	273.598
613.47	197.297
616.362	71.5039
619.255	102.727
622.148	120.391
625.04	12.3867
627.933	34.4609
630.826	83.332
633.718	160.051
636.611	9.44922
639.504	69.3555
642.396	166.07
645.289	184.035
648.182	225.746
651.075	138.453
653.967	397.863
656.86	354.141
659.753	345.473
662.645	529.629
665.538	708.746
668.431	700.418
671.323	769.828
674.216	923.426
677.109	1007.28
680.002	1051.36
682.894	1021.05
685.787	942.238
688.68	894.043
691.572	663.875
694.465	612.656
697.358	312.004
700.25	396.695
703.143	413.137
706.036	598.094
708.929	343.641
711.821	35.0625
714.714	190.734
717.607	269.723
720.5	158.07
723.392	38.957
726.285	139.809
729.178	119.66
732.07	199.504
734.963	366.719
737.856	264.234
740.748	478.883
743.641	426.887
746.534	599.156
749.427	409.332
752.319	219.031
755.212	232.867
758.105	309.519
760.997	326.301
763.89	76.1445
766.783	75.1016
769.675	146.211
772.568	168.894
775.461	131.508
778.354	35.5352
781.246	276.121
784.139	219.606
787.032	320.152
789.924	290.652
792.817	160.731
795.71	4.64844
798.602	14.7109
801.495	116.879
804.388	224.586
807.28	119.57
810.173	85.918
813.066	178.598
815.959	206.016
818.851	21.6094
821.744	165.84
824.637	327.828
827.529	302.836
830.422	277.078
833.315	99.5977
836.207	24.4297
839.1	116.344
841.993	28.625
844.886	99.6211
847.778	22.8711
850.671	15.1719
853.564	52.1562
856.456	8.61328
859.349	31.0859
862.242	306.641
865.135	335.566
868.027	100.898
870.92	163.648
873.813	50.1914
876.705	196.812
879.598	371.285
882.491	321.414
885.383	408.32
888.276	282.469
891.169	558.387
894.062	567.168
896.954	616.742
899.847	459.902
902.74	707.75
905.632	1221.29
908.525	1660.12
911.418	1920.85
914.31	2421.96
917.203	2935.78
920.096	3384.44
922.989	3524.22
925.881	3331.25
928.774	2836.14
931.667	2353.39
934.559	2067.71
937.452	1637.24
940.345	1302.37
943.237	1087.92
946.13	1005.52
949.023	780.781
951.915	641.766
954.808	557.945
957.701	478.988
960.594	384.367
963.486	489.531
966.379	347.406
969.272	415.25
972.164	543.387
975.057	415.539
977.95	252.289
980.842	124.777
983.735	27.9062
986.628	256.676
989.521	244.18
992.413	185.613
995.306	95.5117
998.199	216.215
1001.09	46.4297
1003.98	21.875
1006.88	35.5977
1009.77	125.441
1012.66	228.789
1015.55	252.066
1018.45	164.984
1021.34	26.2812
1024.23	153.637
1027.13	544.777
1030.02	1100.44
1032.91	1257.69
1035.8	1125.88
1038.7	818.934
1041.59	1054.64
1044.48	1072.53
1047.38	996.731
1050.27	1172.06
1053.16	960.211
1056.05	814.426
1058.94	656.293
1061.84	658.629
1064.73	724.234
1067.62	744.793
1070.52	698.09
1073.41	596.234
1076.3	373.531
1079.19	341.191
1082.09	243.168
1084.98	381.648
1087.87	367.711
1090.77	155.609
1093.66	270.356
1096.55	240.941
1099.44	325.812
1102.34	289.543
1105.23	211.184
1108.12	64.7266
1111.01	117.981
1113.91	366.035
1116.8	287.719
1119.69	245.074
1122.59	63.957
1125.48	28.7969
1128.37	156.504
1131.26	136.832
1134.16	196.301
1137.05	124.812
1139.94	176.891
1142.83	256.91
1145.73	46.2422
1148.62	150.926
1151.51	221.773
1154.4	167.43
1157.3	101.891
1160.19	31.1758
1163.08	41.0195
1165.97	6.05078
1168.87	58.5352
1171.76	200.824
1174.65	280.594
1177.55	237.844
1180.44	165.844
1183.33	373.797
1186.22	349.894
1189.12	350.332
1192.01	108.121
1194.9	279.91
1197.8	261.918
1200.69	173.195
1203.58	215.969
1206.47	182.75
1209.37	69.2539
1212.26	12.2734
1215.15	99.4805
1218.04	313.875
1220.94	420.871
1223.83	426.258
1226.72	294.375
1229.62	230.584
1232.51	90.3144
1235.4	34.7812
1238.29	25.6445
1241.19	166.69
1244.08	101.656
1246.97	215.586
1249.86	82.6836
1252.76	258.531
1255.65	83.7285
1258.54	56.8516
1261.43	42.1562
1264.33	265.752
1267.22	255.004
1270.11	158.309
1273.01	160.693
1275.9	163.43
1278.79	22.9375
1281.68	177.815
1284.58	267.096
1287.47	227.736
1290.36	290.894
1293.25	250.016
1296.15	183.332
1299.04	55.0996
1301.93	20.2734
