Measurement: Raman, 532 nm, unoriented, Raman Data Processed
Mineral: Gaidonnayite
Rruff sample: R140540
Ideal chemistry: Na_2_Zr^4+^Si_3_O_9_2H_2_O
Locality: Prefeitura quarry, Pocos de Caldas, Minas Gerais, Brazil
Source: Luiz Menezes
Description: Isolated colorless or grey granular crystals
Raman shift (cm-1)	intensity
146.191	0
149.084	3.09228
151.976	18.5957
154.869	13.083
157.762	5.03613
160.654	2.1543
163.547	22.7363
166.44	33.5303
169.333	30.9448
172.225	31.48
175.118	23.1846
178.011	33.3897
180.903	2.74268
183.796	2.74023
186.689	3.07275
189.581	10.7075
192.474	32.5415
195.367	18.5161
198.26	20.8574
201.152	19.4551
204.045	4.10742
206.938	2.10693
209.83	13.5503
212.723	2.19678
215.616	23.3872
218.508	28.0723
221.401	29.2383
224.294	27.9429
227.186	48.8247
230.079	42.9116
232.972	38.7754
235.865	44.2036
238.757	81.6977
241.65	98.6899
244.543	103.731
247.435	75.6157
250.328	50.5518
253.221	51.0796
256.113	47.4375
259.006	46.042
261.899	41.1768
264.792	43.5298
267.684	42.4331
270.577	29.2051
273.47	58.77
276.362	46.1123
279.255	55.5127
282.148	35.8945
285.041	39.0684
287.933	28.6665
290.826	21.4502
293.719	26.457
296.611	28.6519
299.504	10.2476
302.397	3.24853
305.289	16.8413
308.182	14.1123
311.075	41.8867
313.967	35.9492
316.86	29.041
319.753	19.0889
322.646	33.1084
325.538	47.3208
328.431	51.8149
331.324	32.625
334.216	45.769
337.109	51.8735
340.002	52.1187
342.894	61.6352
345.787	27.918
348.68	17.0523
351.573	2.77685
354.465	15.3208
357.358	15.2622
360.251	38.8794
363.143	36.041
366.036	61.4399
368.929	30.9526
371.822	36.0772
374.714	30.9141
377.607	37.541
380.5	24.1221
383.392	27.8115
386.285	28.7051
389.178	34.2578
392.07	9.4082
394.963	12.6797
397.856	0.970703
400.748	19.2002
403.641	36.5137
406.534	12.1523
409.427	8.1416
412.319	9.32031
415.212	22.7861
418.105	40.374
420.997	62.8623
423.89	36.374
426.783	16.5664
429.675	36.2744
432.568	8.62305
435.461	5.68262
438.354	1.30078
441.246	18.1074
444.139	16.8369
447.032	21.4131
449.924	5.38769
452.817	10.3066
455.71	16.4688
458.603	33.1484
461.495	33.8994
464.388	35.2139
467.281	32.7617
470.173	33.8506
473.066	24.248
475.959	37.2647
478.851	18.8906
481.744	23.8486
484.637	51.5264
487.529	63.2451
490.422	65.2793
493.315	65.2002
496.208	40.3457
499.1	41.9668
501.993	58.5361
504.886	74.6016
507.778	120.158
510.671	188.954
513.564	276.619
516.457	410.296
519.349	543.829
522.242	596.456
525.135	447.556
528.027	260.056
530.92	162.44
533.813	110.394
536.705	82.5166
539.598	57.2353
542.491	33.9141
545.384	37.7471
548.276	51.8711
551.169	31.6523
554.062	15.3184
556.954	0.18457
559.847	13.5693
562.74	16.292
565.632	15.3242
568.525	2.87988
571.418	1.20312
574.311	17.2422
577.203	12.6924
580.096	7.97754
582.989	21.542
585.881	32.4336
588.774	22.1621
591.667	21.084
594.559	8.21289
597.452	9.91895
600.345	4.15039
603.237	4.62988
606.13	8.76367
609.023	15.0537
611.916	16.002
614.808	11.6406
617.701	3.98926
620.594	12.8867
623.486	0.391602
626.379	0.003906
629.272	7.05957
632.164	2.97461
635.057	10.6963
637.95	11.9443
640.843	4.58106
643.735	1.47363
646.628	1.18262
649.521	10.1299
652.413	23.2246
655.306	20.2158
658.199	10.583
661.091	19.9365
663.984	41.4717
666.877	54.2188
669.77	55.5889
672.662	71.8701
675.555	71.915
678.448	77.5469
681.34	105.778
684.233	88.1865
687.126	83.2363
690.019	71.7598
692.911	61.8281
695.804	40.6719
698.697	24.0684
701.589	21.1035
704.482	25.0547
707.375	34.9551
710.267	29.665
713.16	28.0264
716.053	48.7178
718.946	43.6533
721.838	46.8584
724.731	62.2178
727.624	70.0156
730.516	60.8125
733.409	58.7529
736.302	77.6797
739.194	91.9893
742.087	80.7871
744.98	88.6211
747.872	112.725
750.765	108.458
753.658	87.1777
756.551	67.1094
759.443	47.7207
762.336	49.4248
765.229	27.6006
768.121	46.5039
771.014	32.3262
773.907	24.3369
776.799	29.1064
779.692	19.2598
782.585	25.04
785.478	41.6484
788.37	21.6934
791.263	10.5957
794.156	12.2646
797.048	9.6084
799.941	9.57617
802.834	14.8994
805.726	40.7822
808.619	43.6973
811.512	39.4131
814.405	13.9551
817.297	25.1621
820.19	52.2422
823.083	32.7881
825.975	16.6514
828.868	7.7334
831.761	0.466797
834.654	5.6543
837.546	6.63769
840.439	7.84961
843.332	21.3809
846.224	16.4912
849.117	8.48242
852.01	7.30078
854.902	3.59473
857.795	26.1807
860.688	44.667
863.581	18.9805
866.473	1.99219
869.366	11.3516
872.259	36.1299
875.151	23.709
878.044	6.4668
880.937	13.1328
883.829	5.22266
886.722	2.48535
889.615	13.1328
892.508	42.9473
895.4	56.6397
898.293	51.1426
901.186	48.1221
904.078	81.0947
906.971	102.502
909.864	126.611
912.756	173.705
915.649	242.965
918.542	323.397
921.434	458.969
924.327	574.163
927.22	520.623
930.113	361.797
933.005	249.089
935.898	157.096
938.791	122.566
941.683	89.7666
944.576	76.5938
947.469	58.3115
950.361	54.7266
953.254	39.6318
956.147	18.124
959.04	12.0479
961.932	4.21582
964.825	26.6748
967.718	42.1133
970.61	34.6445
973.503	39.7949
976.396	24.3643
979.288	31.3711
982.181	31.8447
985.074	23.8564
987.967	22.8057
990.859	18.4434
993.752	19.4873
996.645	4.20801
999.537	15.8623
1002.43	10.4131
1005.32	0.327148
1008.22	6.37305
1011.11	12.376
1014	7.96875
1016.89	19.2373
1019.79	12.3975
1022.68	6.00098
1025.57	17.541
1028.46	18.4043
1031.36	1.44629
1034.25	29.9629
1037.14	42.2949
1040.04	52.4893
1042.93	78.4775
1045.82	80.7705
1048.71	73.1279
1051.61	94.1279
1054.5	112.394
1057.39	110.891
1060.28	93.6543
1063.18	64.8701
1066.07	45.6094
1068.96	28.0303
1071.86	14.4492
1074.75	16.123
1077.64	10.956
1080.53	5.96875
1083.43	20.7275
1086.32	18.084
1089.21	14.0664
1092.1	20.4736
1095	12.6699
1097.89	28.4248
1100.78	18.6572
1103.67	11.7646
1106.57	2.33106
1109.46	7.5
1112.35	11.0957
1115.24	7.89551
1118.14	19.1963
1121.03	21.3457
1123.92	18.291
1126.82	6.53516
1129.71	17.7822
1132.6	2.93457
1135.49	8.60449
1138.39	16.9375
1141.28	25.0664
1144.17	26.9619
1147.07	18.8857
1149.96	14.2383
1152.85	27.1367
1155.74	44.2783
1158.64	29.5654
1161.53	31.5254
1164.42	26.0303
1167.31	29.2822
1170.21	21.2031
1173.1	31.6895
1175.99	33.772
1178.88	41.3608
1181.78	50.0508
1184.67	34.6855
1187.56	42.2422
1190.46	43.8154
1193.35	39.8579
1196.24	28.4565
1199.13	17.5391
1202.03	23.8467
1204.92	26.6309
1207.81	31.4092
1210.7	30.9692
1213.6	16.7021
1216.49	18.0791
1219.38	40.2559
1222.28	22.8369
1225.17	1.29102
1228.06	1.07031
1230.95	11.4976
1233.85	13.7056
1236.74	12.2012
1239.63	15.794
1242.52	10.9956
1245.42	23.2383
1248.31	20.2964
1251.2	36.8628
1254.1	25.2358
1256.99	27.1968
1259.88	12.3403
1262.77	24.665
1265.67	2.06152
1268.56	1.98291
1271.45	9.98926
1274.34	11.3384
1277.24	12.8027
1280.13	3.604
1283.02	30.0727
1285.91	17.2495
1288.81	26.4668
1291.7	8.55615
1294.59	18.186
1297.49	2.84228
1300.38	0.180664
