Measurement: Raman, 532 nm, unoriented, Raman Data Processed
Mineral: Galenobismutite
Rruff sample: R110057
Ideal chemistry: Pb^2+^Bi^3+^_2_S^2-^_4_
Locality: Vena Cobalt mines, Bergslagen, Sweden
Source: William W Pinch
Description: Gray metallic massive
Raman shift (cm-1)	intensity
152.685	0
155.578	0.644783
158.471	0.399139
161.363	2.09536
164.256	7.493
167.149	11.9444
170.041	16.0619
172.934	19.1264
175.827	23.8537
178.72	28.7923
181.612	28.2084
184.505	29.9799
187.398	31.3663
190.29	29.5115
193.183	28.7744
196.076	28.0394
198.968	29.2186
201.861	30.4728
204.754	31.8326
207.647	32.2912
210.539	33.9117
213.432	32.7939
216.325	33.3087
219.217	33.3603
222.11	33.4974
225.003	31.3352
227.895	30.0992
230.788	29.0794
233.681	26.8797
236.573	23.9403
239.466	24.6563
242.359	23.5474
245.252	21.4552
248.144	21.0731
251.037	18.5
253.93	18.0555
256.822	16.8942
259.715	15.2396
262.608	13.5531
265.5	11.8918
268.393	10.15
271.286	11.3532
274.179	10.0296
277.071	8.95099
279.964	9.42923
282.857	9.75114
285.75	8.12102
288.642	7.40838
291.535	4.7408
294.428	4.87825
297.32	3.74518
300.213	1.67289
303.106	1.09198
305.998	0.09515
308.891	0.056076
311.784	1.20049
314.676	0.167839
317.569	0.524853
320.462	0.728069
323.355	0.145287
326.247	0.394436
329.14	0.743931
332.033	0.411713
334.925	1.51632
337.818	0.429237
340.711	1.28308
343.603	0.956539
346.496	1.66092
349.389	2.09651
352.281	1.52355
355.174	2.67677
358.067	2.93341
360.96	2.56006
363.852	3.22255
366.745	2.96671
369.638	2.29749
372.53	4.01324
375.423	3.79155
378.316	3.74924
381.209	3.3978
384.101	2.63891
386.994	2.36902
389.887	3.06219
392.779	2.55154
395.672	1.16812
398.565	1.9467
401.457	2.01348
404.35	0.832573
407.243	1.4574
410.135	2.10436
413.028	0.975779
415.921	1.34341
418.814	1.77523
421.706	0.492128
424.599	1.17756
427.492	1.28287
430.384	2.19874
433.277	1.237
436.17	0.535164
439.062	1.28732
441.955	1.33106
444.848	1.1925
447.741	1.27056
450.633	1.60397
453.526	0.922112
456.419	0.874479
459.311	1.72173
462.204	1.54149
465.097	1.01196
467.99	1.41363
470.882	0.651447
473.775	0.296623
476.668	0.515539
479.56	0.049463
482.453	0.278368
485.346	0.641575
488.238	0.111572
491.131	0.415222
494.024	0.024239
496.916	0.382339
499.809	1.35607
502.702	0.299585
505.595	0.799366
508.487	0.846848
511.38	1.73515
514.273	1.54525
517.165	0.936642
520.058	0.572855
522.951	0.477011
525.844	1.00647
528.736	2.17305
531.629	1.68333
534.522	0.427885
537.414	0.817802
540.307	0.840624
543.2	0.997753
546.092	1.10342
548.985	0.19282
551.878	1.30474
554.771	0.854666
557.663	1.47691
560.556	1.7878
563.449	0.333073
566.341	0.963701
569.234	0.97151
572.127	1.47566
575.019	0.850931
577.912	1.56259
580.805	1.16986
583.697	0.632771
586.59	0.337385
589.483	0.910721
592.376	0.599155
595.268	1.11451
598.161	0.993649
601.054	0.9886
603.946	0.223063
606.839	1.21244
609.732	1.11319
612.625	1.26347
615.517	1.72663
618.41	1.12691
621.303	1.56168
624.195	0.793703
627.088	1.44172
629.981	0.671772
632.873	0.666033
635.766	0.341448
638.659	0.947805
641.552	1.25437
644.444	1.00405
647.337	1.33307
650.23	1.0596
653.122	0.585905
656.015	0.794062
658.908	0.856651
661.8	1.24879
664.693	1.71859
667.586	0.28821
670.479	0.903355
673.371	0.59334
676.264	0.368435
679.157	0.424015
682.049	0.602154
684.942	0.740688
687.835	0.372313
690.727	0.095907
693.62	0.630936
696.513	0.336052
699.405	1.22596
702.298	0.038113
705.191	0.568275
708.084	0.706509
710.976	1.70027
713.869	0.548615
716.762	0.739435
719.654	1.51642
722.547	1.73046
725.44	2.13206
728.332	1.16378
731.225	1.97239
734.118	1.13089
737.011	1.73358
739.903	1.31209
742.796	1.23668
745.689	1.35883
748.581	1.23634
751.474	0.677208
754.367	0.672447
757.26	0.818661
760.152	2.02205
763.045	1.66115
765.938	1.05811
768.83	1.91757
771.723	1.00552
774.616	0.029453
777.508	1.17727
780.401	1.04442
783.294	0.844913
786.187	1.55663
789.079	0.74744
791.972	0.819916
794.865	1.42114
797.757	0.029675
800.65	1.16067
803.543	1.34908
806.435	1.12733
809.328	1.2785
812.221	1.77732
815.114	1.75329
818.006	1.44093
820.899	1.99483
823.792	2.43434
826.684	1.88001
829.577	1.98208
832.47	1.94244
835.362	1.7548
838.255	2.63638
841.148	3.32224
844.04	3.19204
846.933	3.34626
849.826	2.32117
852.719	3.67991
855.611	3.21065
858.504	3.1164
861.397	3.46062
864.289	2.87435
867.182	2.58911
870.075	2.37957
872.967	2.17742
875.86	2.92631
878.753	2.60633
881.646	2.0228
884.538	1.3331
887.431	1.72195
890.324	1.31033
893.216	0.068825
896.109	0.680891
899.002	0.033106
901.894	0.663996
904.787	0.205629
907.68	0.018978
910.573	0.787903
913.465	0.166206
916.358	0.372597
919.251	0.669607
922.143	0.508398
925.036	0.670301
927.929	0.072044
930.822	0.429691
933.714	1.2311
936.607	1.12102
939.5	0.257593
942.392	0.803507
945.285	0.937021
948.178	0.756466
951.07	1.21489
953.963	1.34497
956.856	1.37833
959.749	0.212603
962.641	1.51126
965.534	0.877949
968.427	0.51441
971.319	0.958067
974.212	1.53521
977.105	0.497406
979.997	1.13581
982.89	0.873077
985.783	0.004787
988.676	0.667982
991.568	0.121357
994.461	0.981495
997.354	0.457827
1000.25	0.616211
1003.14	0.439255
1006.03	1.68283
1008.92	1.13202
1011.82	1.11029
1014.71	0.456877
1017.6	1.04164
1020.5	1.0927
1023.39	1.42882
1026.28	0.939579
1029.17	1.42054
1032.07	2.16039
1034.96	2.30034
1037.85	1.70936
1040.74	1.71626
1043.64	1.47859
1046.53	0.724327
1049.42	1.76485
1052.32	1.74141
1055.21	0.744209
1058.1	1.41863
1060.99	1.63075
1063.89	0.201696
1066.78	0.377026
1069.67	0.491236
1072.56	0.386221
1075.46	0.172689
1078.35	0.836136
1081.24	0.511703
1084.13	0.322388
1087.03	0.501116
1089.92	0.110909
1092.81	1.08866
1095.7	0.667717
1098.6	1.01307
1101.49	0.877716
1104.38	0.915899
1107.28	0.616957
1110.17	1.04977
1113.06	1.33464
1115.95	0.12796
1118.85	1.36014
1121.74	0.670338
1124.63	0.18251
1127.53	0.614996
1130.42	0.73732
1133.31	0.192392
1136.2	0.612442
1139.1	0.389154
1141.99	0.56526
1144.88	1.1487
1147.77	0.173214
1150.67	0.825254
1153.56	0.188219
1156.45	0.430004
1159.35	0.521881
1162.24	1.00715
1165.13	1.0856
1168.02	0.723005
1170.92	0.970919
1173.81	0.848133
1176.7	0.831221
1179.59	1.32209
1182.49	0.736404
1185.38	0.659492
1188.27	0.367867
1191.16	1.13251
1194.06	0.182144
1196.95	1.15856
1199.84	0.658104
1202.73	0.721334
1205.63	0.758791
1208.52	0.677177
1211.41	0.084415
1214.31	0.664633
1217.2	0.785795
1220.09	0.632299
1222.98	0.27565
1225.88	1.1835
1228.77	0.645166
1231.66	0.107296
1234.56	0.401981
1237.45	0.099081
1240.34	0.886992
1243.23	0.469982
1246.13	0.377899
1249.02	0.241407
1251.91	0.380228
1254.8	0.711269
1257.7	0.371065
1260.59	0.095331
1263.48	0.590256
1266.38	1.09897
1269.27	1.50053
1272.16	0.364857
1275.05	0.805515
1277.95	0.821564
1280.84	0.180691
1283.73	0.274126
1286.62	0.22707
1289.52	0.262268
1292.41	0.836964
1295.3	0.006533
1298.19	1.22471
1301.09	1.31033
