Measurement: Raman, 780 nm, unoriented, Raman Data Processed
Mineral: Galenobismutite
Rruff sample: R110057
Ideal chemistry: Pb^2+^Bi^3+^_2_S^2-^_4_
Locality: Vena Cobalt mines, Bergslagen, Sweden
Source: William W Pinch
Description: Gray metallic massive
Raman shift (cm-1)	intensity
168.26	3.76111
171.153	6.75867
174.046	12.426
176.938	10.7489
179.831	5.40369
182.724	5.19287
185.616	1.08826
188.509	5.35486
191.402	5.29443
194.294	16.379
197.187	14.7117
200.08	13.3262
202.972	22.1771
205.865	25.7094
208.758	32.5701
211.651	47.5372
214.543	51.0511
217.436	54.1311
220.329	57.7085
223.221	75.0711
226.114	81.6497
229.007	85.9241
231.899	82.2466
234.792	82.6018
237.685	84.752
240.578	83.3486
243.47	78.4456
246.363	87.5767
249.256	90.6683
252.148	81.7664
255.041	78.7878
257.934	79.4158
260.827	74.1439
263.719	65.1365
266.612	67.9111
269.505	58.1659
272.397	55.1133
275.29	43.4864
278.183	38.0153
281.075	38.5519
283.968	30.6
286.861	27.5598
289.753	23.7131
292.646	22.3417
295.539	15.4871
298.432	15.7043
301.324	8.4389
304.217	12.6655
307.11	11.7324
310.002	8.26318
312.895	6.44714
315.788	8.88013
318.68	7.34253
321.573	10.9006
324.466	8.45282
327.359	9.05426
330.251	7.99207
333.144	7.86896
336.037	10.5831
338.929	8.70404
341.822	6.51318
344.715	8.59119
347.608	9.03766
350.5	8.35449
353.393	8.19183
356.286	6.03198
359.178	0.409058
362.071	1.6861
364.964	1.08331
367.856	6.8465
370.749	3.82257
373.642	0.229614
376.534	2.65387
379.427	0.061646
382.32	3.43732
385.213	3.58209
388.105	1.32098
390.998	3.99872
393.891	0.187683
396.783	2.26154
399.676	2.32819
402.569	4.04858
405.462	7.26154
408.354	8.87146
411.247	9.99774
414.14	18.2702
417.032	22.1732
419.925	32.0342
422.818	36.4504
425.71	49.3722
428.603	57.3298
431.496	68.8138
434.389	72.3157
437.281	73.2278
440.174	67.9688
443.067	61.243
445.959	52.8292
448.852	41.7926
451.745	34.9791
454.637	30.3723
457.53	29.4337
460.423	24.3197
463.315	21.9615
466.208	20.9003
469.101	19.0023
471.994	14.9231
474.886	20.8563
477.779	17.5296
480.672	16.1459
483.564	13.3525
486.457	9.67041
489.35	12.318
492.243	12.2419
495.135	5.93127
498.028	11.0732
500.921	7.17206
503.813	7.41968
506.706	7.96857
509.599	11.0314
512.491	8.74353
515.384	10.8171
518.277	3.57574
521.169	3.0603
524.062	1.00989
526.955	3.32422
529.848	4.55279
532.74	2.63623
535.633	0.464172
538.526	5.52356
541.418	2.33356
544.311	1.96808
547.204	1.59369
550.096	0.375244
552.989	0.770996
555.882	6.34833
558.775	3.61749
561.667	2.29321
564.56	2.04205
567.453	1.99475
570.345	2.46857
573.238	3.96686
576.131	3.99701
579.024	0.052551
581.916	3.79211
584.809	2.20526
587.702	6.44788
590.594	5.43286
593.487	7.4848
596.38	14.3328
599.272	15.9247
602.165	15.3073
605.058	21.1244
607.951	14.8145
610.843	15.7535
613.736	13.2244
616.629	10.8388
619.521	7.50604
622.414	10.5325
625.307	9.21216
628.199	7.72186
631.092	8.87781
633.985	9.15949
636.878	3.17926
639.77	3.33179
642.663	5.74341
645.556	4.18292
648.448	2.97681
651.341	0.899292
654.234	4.59479
657.126	2.7887
660.019	3.22473
662.912	1.44446
665.804	0.720886
668.697	3.48309
671.59	1.20959
674.483	1.20917
677.375	2.64929
680.268	2.39911
683.161	2.43567
686.053	2.21021
688.946	1.7254
691.839	3.97131
694.731	0.260559
697.624	0.637512
700.517	6.8902
703.41	3.02692
706.302	1.62701
709.195	1.64215
712.088	3.5119
714.98	2.78137
717.873	7.22345
720.766	2.98853
723.659	2.91065
726.551	7.01721
729.444	5.92725
732.337	6.6369
735.229	5.91376
738.122	1.90601
741.015	2.94513
743.907	0.65509
746.8	3.8064
749.693	6.46991
752.586	3.18292
755.478	2.71429
758.371	4.26245
761.264	3.40289
764.156	0.48877
767.049	5.19025
769.942	0.263428
772.834	3.38409
775.727	0.598389
778.62	0.747498
781.513	4.75085
784.405	5.45068
787.298	1.21594
790.191	0.527771
793.083	5.95404
795.976	7.15002
798.869	2.16266
801.761	4.00354
804.654	2.61536
807.547	8.06219
810.439	5.78943
813.332	1.35309
816.225	4.33514
819.118	8.31665
822.01	9.63666
824.903	6.12494
827.796	7.9696
830.688	6.34051
833.581	4.59808
836.474	5.82855
839.366	7.78076
842.259	4.81787
845.152	5.51837
848.045	6.48334
850.937	11.7767
853.83	7.42865
856.723	8.1712
859.615	11.6601
862.508	9.83307
865.401	3.99438
868.293	4.80066
871.186	6.74847
874.079	5.34564
876.972	2.3512
879.864	0.287537
882.757	2.9624
885.65	3.67371
888.542	0.084167
891.435	0.324707
894.328	0.839417
897.221	0.316101
900.113	0.252808
903.006	2.38306
905.899	0.653015
908.791	3.47711
911.684	0.225708
914.577	2.02637
917.469	4.33392
920.362	3.5022
923.255	12.4582
926.148	12.5998
929.04	15.8073
931.933	23.6101
934.826	25.2147
937.718	31.9094
940.611	43.1751
943.504	49.3741
946.396	62.9004
949.289	82.2684
952.182	99.5305
955.074	117.293
957.967	131.759
960.86	141.943
963.753	142.746
966.645	132.484
969.538	112.819
972.431	91.9789
975.323	67.5139
978.216	46.9593
981.109	34.8028
984.001	31.163
986.894	19.5955
989.787	18.954
992.68	12.965
995.572	13.4669
998.465	10.8507
1001.36	8.91107
1004.25	4.28845
1007.14	1.30395
1010.04	4.46753
1012.93	2.81366
1015.82	6.94641
1018.71	5.02197
1021.61	5.04248
1024.5	2.40533
1027.39	2.59827
1030.29	6.60242
1033.18	5.82568
1036.07	5.68713
1038.96	5.88812
1041.86	8.06946
1044.75	8.6225
1047.64	0.010742
1050.53	2.99377
1053.43	0.891968
1056.32	2.94604
1059.21	6.41925
1062.1	5.41229
1065	5.82965
1067.89	7.143
1070.78	6.68091
1073.67	5.3996
1076.57	0.041382
1079.46	0.030823
1082.35	4.12006
1085.25	10.8325
1088.14	2.48633
1091.03	7.46967
1093.92	9.20392
1096.82	3.59424
1099.71	2.33948
1102.6	2.68378
1105.49	3.91534
1108.39	11.5134
1111.28	6.55322
1114.17	1.1864
1117.07	0.671814
1119.96	0.215149
1122.85	6.89447
1125.74	0.919922
1128.64	4.43915
1131.53	3.60449
1134.42	1.55505
1137.32	3.46631
1140.21	10.1869
1143.1	6.61169
1145.99	9.60352
1148.88	9.27856
1151.78	2.81146
1154.67	14.4989
1157.56	4.66876
1160.46	4.92481
1163.35	9.44116
1166.24	6.9892
1169.13	9.02008
1172.03	8.15778
1174.92	6.37524
1177.81	8.26807
1180.7	15.0503
1183.6	2.11438
1186.49	6.1792
1189.38	4.65741
1192.28	7.73071
1195.17	10.3441
1198.06	6.19482
1200.95	11.7364
1203.85	8.30035
1206.74	4.77618
1209.63	9.20795
1212.53	6.97046
1215.42	3.46716
1218.31	9.04297
1221.2	4.00177
1224.1	9.81995
1226.99	8.37018
1229.88	5.96045
1232.77	1.03766
1235.67	5.17926
1238.56	4.65228
1241.45	0.817505
1244.34	2.13586
1247.24	8.12885
1250.13	1.05176
1253.02	6.24536
1255.91	6.87537
1258.81	7.41242
1261.7	10.6853
1264.59	7.07947
1267.49	5.8363
1270.38	4.16687
1273.27	4.67676
1276.16	6.29047
1279.06	3.3869
1281.95	5.75812
1284.84	2.8764
