Measurement: Raman, 780 nm, unoriented, Raman Data Processed
Mineral: Ganomalite
Rruff sample: R050387
Ideal chemistry: Pb^2+^_3_Ca_2_(SiO_4_)(Si_2_O_7_)
Locality: Sells, Pima County, Arizona, USA
Source: University of Arizona Mineral Museum
Description: Yellowish-red massive
Raman shift (cm-1)	intensity
226.552	0
229.445	5.67285
232.337	15.9396
235.23	13.0138
238.123	22.8978
241.015	12.2065
243.908	9.99939
246.801	2.89148
249.694	1.14258
252.586	2.28467
255.479	5.8645
258.372	2.58081
261.264	1.80719
264.157	13.9202
267.05	4.89203
269.942	12.2947
272.835	23.47
275.728	23.7894
278.62	36.1085
281.513	53.5795
284.406	62.2589
287.299	75.5925
290.191	79.6052
293.084	92.5149
295.977	103.248
298.869	96.6929
301.762	92.8444
304.655	86.1132
307.548	77.2878
310.44	79.1815
313.333	73.2049
316.226	61.8394
319.118	70.3483
322.011	76.9597
324.904	83.8659
327.796	80.9208
330.689	86.6184
333.582	90.1573
336.474	99.2975
339.367	99.0201
342.26	100.765
345.152	105.109
348.045	97.7414
350.938	97.1473
353.831	78.4768
356.723	75.9406
359.616	68.948
362.509	62.6827
365.401	54.9303
368.294	50.7275
371.187	50.4268
374.079	48.177
376.972	33.0424
379.865	35.2324
382.758	35.6931
385.65	25.4064
388.543	25.6686
391.436	14.7336
394.328	9.10132
397.221	11.1882
400.114	13.9567
403.007	7.38928
405.899	5.36707
408.792	6.93713
411.685	1.64893
414.577	2.03729
417.47	4.1709
420.363	2.63672
423.255	0.225098
426.148	1.53186
429.041	2.66321
431.933	3.25055
434.826	1.50085
437.719	3.28894
440.612	2.87152
443.504	1.75433
446.397	1.25244
449.29	0.945496
452.182	1.34808
455.075	8.64661
457.968	11.4743
460.861	14.52
463.753	24.1641
466.646	22.3887
469.539	31.8351
472.431	32.3733
475.324	28.9466
478.217	32.5988
481.109	35.7269
484.002	31.0415
486.895	27.8729
489.788	24.4141
492.68	28.3617
495.573	17.3935
498.466	27.6168
501.358	20.2325
504.251	16.2686
507.144	11.7702
510.036	8.47104
512.929	3.28287
515.822	5.93356
518.715	3.91583
521.607	4.76682
524.5	6.19867
527.393	18.4395
530.285	30.0821
533.178	39.6694
536.071	56.0482
538.963	67.4131
541.856	95.5503
544.749	107.879
547.641	116.067
550.534	107.094
553.427	87.8489
556.32	58.3006
559.212	44.0161
562.105	31.8537
564.998	25.3667
567.89	16.1616
570.783	14.2135
573.676	9.98142
576.568	9.75613
579.461	2.46545
582.354	5.22278
585.247	5.9462
588.139	1.75525
591.032	4.70871
593.925	1.55295
596.817	1.15186
599.71	7.3031
602.603	6.54971
605.495	9.59576
608.388	7.89597
611.281	10.689
614.174	8.88892
617.066	11.9668
619.959	16.6016
622.852	11.7923
625.744	13.1332
628.637	7.80835
631.53	7.78169
634.423	9.52258
637.315	6.77447
640.208	6.33801
643.101	7.3107
645.993	7.87288
648.886	5.22047
651.779	5.89415
654.671	1.50194
657.564	2.57559
660.457	3.55876
663.35	2.03301
666.242	8.70979
669.135	6.35612
672.028	8.01434
674.92	6.02869
677.813	9.59085
680.706	7.80481
683.598	9.19237
686.491	8.41414
689.384	9.28191
692.277	9.76143
695.169	9.34477
698.062	4.85611
700.955	7.67441
703.847	6.13724
706.74	6.8682
709.633	7.0283
712.525	4.52492
715.418	2.9503
718.311	4.33119
721.203	2.38621
724.096	2.55917
726.989	0.866287
729.882	0.393097
732.774	1.82594
735.667	3.98554
738.56	1.88915
741.452	0.117767
744.345	0.68306
747.238	3.03195
750.13	1.52325
753.023	0.761444
755.916	3.34558
758.809	2.36127
761.701	4.53839
764.594	4.67679
767.487	8.63333
770.379	9.22945
773.272	11.6003
776.165	9.96974
779.058	12.1535
781.95	17.5362
784.843	26.5809
787.736	32.5337
790.628	42.5811
793.521	51.4143
796.414	65.1518
799.306	78.8621
802.199	91.7251
805.092	106.56
807.985	114.597
810.877	111.198
813.77	102.793
816.663	92.4468
819.555	84.7555
822.448	65.638
825.341	50.7816
828.233	41.2405
831.126	26.519
834.019	15.9281
836.912	9.43158
839.804	6.59668
842.697	6.55963
845.59	4.63525
848.482	6.13528
851.375	6.16596
854.268	2.73535
857.16	12.6457
860.053	12.4482
862.946	18.9977
865.838	24.3352
868.731	31.6281
871.624	41.1114
874.517	47.4817
877.409	49.2472
880.302	44.5889
883.195	50.6451
886.087	48.8714
888.98	40.0133
891.873	30.4965
894.765	32.3724
897.658	20.6047
900.551	23.6939
903.444	23.6132
906.336	22.182
909.229	21.287
912.122	23.0701
915.014	22.1121
917.907	23.7689
920.8	20.9117
923.692	18.4063
926.585	8.03206
929.478	4.89255
932.37	5.09112
935.263	1.56697
938.156	0.162201
941.049	0.858444
943.941	1.26715
946.834	3.50621
949.727	0.346329
952.619	5.78867
955.512	8.07845
958.405	13.442
961.298	16.0377
964.19	24.3068
967.083	20.4463
969.976	24.2617
972.868	16.0065
975.761	11.2409
978.654	6.74528
981.546	0.909698
984.439	1.614
987.332	0.970535
990.225	3.38791
993.117	4.80655
996.01	5.09628
998.903	3.44797
1001.79	2.46034
1004.69	1.59573
1007.58	3.48012
1010.47	0.416962
1013.37	2.58618
1016.26	1.04799
1019.15	2.66392
1022.04	11.3348
1024.94	4.98901
1027.83	7.9671
1030.72	7.86174
1033.62	3.67577
1036.51	6.02304
1039.4	7.42676
1042.29	5.63255
1045.19	10.7947
1048.08	10.4613
1050.97	5.37987
1053.86	5.07098
1056.76	5.0753
1059.65	8.86641
1062.54	5.18233
1065.43	4.52533
1068.33	6.24292
1071.22	7.70091
1074.11	3.48421
1077.01	6.47357
1079.9	3.74944
1082.79	4.87152
1085.68	6.13753
1088.58	4.48755
1091.47	5.93927
1094.36	7.3148
1097.25	4.36548
1100.15	1.00101
1103.04	6.57559
1105.93	2.16475
1108.83	2.79343
1111.72	0.409271
1114.61	4.76857
1117.5	1.14752
1120.4	5.75961
1123.29	4.87108
1126.18	3.55519
1129.07	1.32063
1131.97	1.60133
1134.86	3.56844
1137.75	1.43636
1140.64	4.72771
1143.54	2.40593
1146.43	0.625122
1149.32	1.32277
1152.22	0.78389
1155.11	4.53204
1158	4.12381
1160.89	0.411758
1163.79	1.87264
1166.68	4.63767
1169.57	4.50098
1172.46	4.73137
1175.36	2.76269
1178.25	0.613327
1181.14	0.643173
1184.04	1.89894
1186.93	4.94749
1189.82	3.31772
1192.71	7.16887
1195.61	2.49606
1198.5	3.35695
1201.39	1.40878
1204.28	4.69875
1207.18	4.38455
1210.07	4.13928
1212.96	1.90407
1215.86	3.03705
1218.75	5.37088
1221.64	2.89134
1224.53	0.445663
1227.43	4.94579
1230.32	4.03571
1233.21	1.64502
1236.1	0.663284
1239	4.181
1241.89	5.85809
1244.78	5.57748
1247.67	4.27313
1250.57	2.50186
1253.46	5.5538
1256.35	0.178452
1259.25	3.22743
1262.14	2.31074
1265.03	2.22507
1267.92	5.51936
1270.82	4.10617
1273.71	3.09105
1276.6	2.42255
1279.49	3.28124
1282.39	4.83324
1285.28	0
