Measurement: Raman, 532 nm, unoriented, Raman Data Processed
Mineral: Ganomalite
Rruff sample: R050387
Ideal chemistry: Pb^2+^_3_Ca_2_(SiO_4_)(Si_2_O_7_)
Locality: Sells, Pima County, Arizona, USA
Source: University of Arizona Mineral Museum
Description: Yellowish-red massive
Raman shift (cm-1)	intensity
223.489	0
226.382	6.34045
229.275	22.0463
232.167	26.5727
235.06	35.9301
237.953	27.1019
240.845	18.59
243.738	0.427856
246.631	4.0448
249.524	4.41406
252.416	2.73926
255.309	2.74536
258.202	7.25476
261.094	16.1321
263.987	21.5692
266.88	24.8967
269.772	28.1364
272.665	35.3016
275.558	50.4836
278.451	71.3945
281.343	82.8871
284.236	101.772
287.129	110.457
290.021	130.438
292.914	123.054
295.807	116.947
298.7	107.061
301.592	108.058
304.485	92.1224
307.378	75.0099
310.27	61.382
313.163	40.4659
316.056	36.5612
318.948	30.5896
321.841	34.1797
324.734	35.3961
327.627	53.8362
330.519	65.3584
333.412	89.9446
336.305	104.071
339.197	111.897
342.09	119.49
344.983	121.378
347.875	123.147
350.768	132.933
353.661	114.811
356.553	105.536
359.446	93.8218
362.339	85.3665
365.231	76.4523
368.124	61.1434
371.017	60.3404
373.91	56.2231
376.802	57.0082
379.695	47.559
382.588	44.3715
385.48	47.3551
388.373	37.0454
391.266	24.1357
394.159	20.9048
397.051	11.5951
399.944	13.9152
402.837	6.49133
405.729	11.3372
408.622	1.56946
411.515	3.66431
414.407	1.29871
417.3	3.13464
420.193	3.44006
423.086	7.53558
425.978	0.773132
428.871	5.45526
431.764	11.0247
434.656	13.4211
437.549	4.85358
440.442	3.65063
443.334	1.02527
446.227	6.73096
449.12	0.701111
452.012	0.698364
454.905	10.1102
457.798	23.4776
460.691	38.5392
463.583	45.4791
466.476	60.3727
469.369	74.3189
472.261	77.766
475.154	83.3706
478.047	85.8503
480.94	89.3243
483.832	88.2694
486.725	81.8251
489.618	84.6884
492.51	83.3348
495.403	85.8488
498.296	89.4639
501.188	78.1035
504.081	60.8766
506.974	45.9192
509.866	19.1078
512.759	4.24048
515.652	0.65332
518.545	7.65735
521.437	7.37939
524.33	14.3056
527.223	28.1442
530.115	57.424
533.008	90.3951
535.901	139.397
538.794	192.283
541.686	247.629
544.579	300.666
547.472	302.735
550.364	279.368
553.257	220.655
556.15	169.747
559.043	127.81
561.935	90.4805
564.828	61.6532
567.721	40.819
570.613	34.1973
573.506	19.7431
576.399	8.31827
579.291	5.84604
582.184	0.054169
585.077	0.181366
587.969	1.9169
590.862	3.06323
593.755	0.697998
596.648	2.88837
599.54	11.8509
602.433	16.1545
605.326	22.2161
608.218	31.0032
611.111	34.9884
614.004	40.158
616.896	49.2471
619.789	49.6561
622.682	49.1935
625.574	39.6699
628.467	34.5056
631.36	30.8988
634.253	34.3203
637.145	33.709
640.038	31.5251
642.931	25.6883
645.823	24.3777
648.716	24.8436
651.609	19.9834
654.501	21.0422
657.394	17.7691
660.287	19.4905
663.18	22.6749
666.072	16.5802
668.965	18.4461
671.858	19.3862
674.75	18.375
677.643	18.0769
680.536	18.4306
683.428	15.2333
686.321	19.5062
689.214	16.7062
692.107	18.7605
694.999	12.9504
697.892	15.501
700.785	12.6398
703.677	12.596
706.57	11.0034
709.463	10.0331
712.356	10.2588
715.248	4.62193
718.141	7.90715
721.034	5.11435
723.926	4.56747
726.819	0.317047
729.712	2.35715
732.604	3.32573
735.497	1.43353
738.39	2.63295
741.283	1.91791
744.175	2.13231
747.068	4.34024
749.961	3.42044
752.853	0.95549
755.746	2.76932
758.639	5.99309
761.531	8.86064
764.424	16.7893
767.317	32.9271
770.21	20.5415
773.102	18.01
775.995	24.0242
778.888	28.7202
781.78	35.3075
784.673	49.5414
787.566	66.5448
790.458	89.9268
793.351	120.699
796.244	161.381
799.136	200.083
802.029	237.036
804.922	268.263
807.815	277.598
810.707	272.903
813.6	254.277
816.493	226.762
819.385	188.342
822.278	152.005
825.171	119.875
828.063	84.1164
830.956	55.6821
833.849	43.7538
836.742	23.6521
839.634	14.1667
842.527	7.95529
845.42	2.42047
848.312	3.15634
851.205	0.758209
854.098	6.52048
856.99	13.4732
859.883	20.6549
862.776	27.7823
865.669	46.945
868.561	60.0774
871.454	71.2064
874.347	88.0141
877.239	111.073
880.132	115.322
883.025	113.702
885.918	114.66
888.81	97.8592
891.703	91.8319
894.596	75.7284
897.488	77.0938
900.381	71.5715
903.274	72.0588
906.166	71.1351
909.059	76.9136
911.952	81.3047
914.845	84.9304
917.737	84.6399
920.63	75.0238
923.523	61.5944
926.415	45.2501
929.308	31.0613
932.201	19.4552
935.093	10.0115
937.986	3.38562
940.879	0.466736
943.771	1.48889
946.664	6.01028
949.557	2.4372
952.45	0.312744
955.342	6.69026
958.235	15.9715
961.128	22.2477
964.02	31.934
966.913	33.0953
969.806	33.8254
972.698	20.4836
975.591	13.6418
978.484	6.1044
981.377	4.06952
984.269	4.54657
987.162	2.19759
990.055	2.70608
992.947	4.00229
995.84	1.06441
998.733	1.03662
1001.63	3.07597
1004.52	1.89911
1007.41	4.46164
1010.3	2.16953
1013.2	3.66072
1016.09	5.04863
1018.98	6.97375
1021.87	8.73811
1024.77	9.4389
1027.66	12.5554
1030.55	14.2208
1033.44	15.7889
1036.34	18.6446
1039.23	17.9605
1042.12	20.9374
1045.02	18.2293
1047.91	18.6175
1050.8	19.2295
1053.69	20.0616
1056.59	17.5709
1059.48	16.3401
1062.37	11.7225
1065.27	11.0978
1068.16	9.00058
1071.05	11.2175
1073.94	10.4769
1076.84	7.30978
1079.73	8.82896
1082.62	8.7815
1085.51	6.6385
1088.41	4.95793
1091.3	2.83451
1094.19	4.16831
1097.09	3.58736
1099.98	19.2949
1102.87	3.54549
1105.76	3.3483
1108.65	2.88071
1111.55	5.67326
1114.44	2.1352
1117.33	2.00623
1120.23	2.96694
1123.12	0.673904
1126.01	2.11429
1128.9	0.345688
1131.8	1.51335
1134.69	2.4527
1137.58	2.66523
1140.47	0.768425
1143.37	2.30599
1146.26	1.67971
1149.15	2.75571
1152.05	0.825546
1154.94	0.24807
1157.83	1.98318
1160.72	2.00291
1163.62	1.45744
1166.51	1.68381
1169.4	2.32673
1172.3	3.44949
1175.19	3.43515
1178.08	2.37594
1180.97	3.15622
1183.87	1.98981
1186.76	2.07548
1189.65	2.83335
1192.54	2.73349
1195.44	1.78986
1198.33	1.84093
1201.22	4.46549
1204.12	2.23426
1207.01	3.78278
1209.9	3.79434
1212.79	5.21989
1215.68	3.26388
1218.58	4.97859
1221.47	3.52415
1224.36	4.20316
1227.26	1.75984
1230.15	4.09654
1233.04	3.4432
1235.93	4.83402
1238.83	4.91262
1241.72	2.71062
1244.61	2.06352
1247.51	2.07063
1250.4	1.83604
1253.29	1.69684
1256.18	1.6344
1259.08	0.201752
1261.97	2.95103
1264.86	2.44176
1267.75	3.53133
1270.65	1.56354
1273.54	1.01422
1276.43	0.939262
1279.33	0.024109
1282.22	0.641182
1285.11	4.62685
1288	0.40786
1290.9	3.51059
1293.79	1.64341
1296.68	0.996658
1299.57	3.67277
1302.47	0.481972
