Measurement: Raman, 780 nm, unoriented, Raman Data Processed
Mineral: Gaspeite
Rruff sample: R060366
Ideal chemistry: Ni^2+^CO_3_
Locality: Pilbara Region, Western Australia, Australia
Source: Herb Obodda
Description: Green fine-grained massive coating
Measured chemistry: (Ni_0.67_Mg_0.30_Ca_0.02_Co_0.01_)_Î£=1_CO_3_
Raman shift (cm-1)	intensity
142.638	0.054825
145.53	1.97134
148.423	1.09079
151.316	1.7288
154.208	1.21421
157.101	0.914715
159.994	0.570805
162.887	0.905853
165.779	1.19208
168.672	1.20631
171.565	0.457794
174.457	0.38509
177.35	0.597504
180.243	1.6127
183.135	0.955387
186.028	0.024349
188.921	0.504379
191.814	1.14604
194.706	1.37847
197.599	0.202677
200.492	1.64388
203.384	1.30176
206.277	2.46043
209.17	3.35035
212.062	4.34051
214.955	4.21004
217.848	5.32624
220.74	5.93279
223.633	6.42925
226.526	6.87402
229.419	5.37334
232.311	5.17558
235.204	4.88012
238.097	5.39933
240.989	5.59911
243.882	4.99424
246.775	5.36965
249.667	2.80617
252.56	1.94082
255.453	1.30637
258.346	0.284233
261.238	1.3713
264.131	2.66839
267.024	0.570272
269.916	1.09823
272.809	0.623413
275.702	0.569
278.594	0.380669
281.487	0.35515
284.38	1.17278
287.273	1.67784
290.165	0.487841
293.058	1.89801
295.951	1.04365
298.843	1.57598
301.736	0.700901
304.629	0.717649
307.522	2.21215
310.414	2.49724
313.307	3.83702
316.2	4.22603
319.092	5.94052
321.985	6.24916
324.878	8.04749
327.77	10.1502
330.663	12.9611
333.556	14.8437
336.449	13.8669
339.341	12.4891
342.234	8.40829
345.127	5.52574
348.019	5.29052
350.912	1.86271
353.805	2.05644
356.697	2.48854
359.59	1.47963
362.483	0.102039
365.375	0.652695
368.268	0.792515
371.161	0.661516
374.054	0.398415
376.946	0.842543
379.839	0.919022
382.732	1.01386
385.624	0.588095
388.517	0.630648
391.41	0.034346
394.303	0.802227
397.195	1.91616
400.088	1.04987
402.981	0.887547
405.873	1.20591
408.766	0.072151
411.659	0.140888
414.551	0.156681
417.444	0.588684
420.337	1.12528
423.229	0.523571
426.122	0.685762
429.015	1.44527
431.908	0.880713
434.8	1.5147
437.693	0.400324
440.586	0.578798
443.478	1.47561
446.371	1.6794
449.264	1.49974
452.156	1.35115
455.049	1.86439
457.942	0.840805
460.835	2.43296
463.727	1.85758
466.62	2.12016
469.513	0.827972
472.405	0.511023
475.298	1.54913
478.191	0.750038
481.084	1.14922
483.976	1.59988
486.869	0.983088
489.762	1.245
492.654	1.51971
495.547	1.21372
498.44	1.71384
501.332	0.473309
504.225	0.748596
507.118	1.14784
510.01	1.22186
512.903	1.67312
515.796	0.350718
518.689	1.22705
521.581	0.272015
524.474	0.79423
527.367	0.061949
530.259	0.167645
533.152	0.609667
536.045	0.967081
538.938	1.91575
541.83	0.078421
544.723	1.53899
547.616	2.99616
550.508	1.89842
553.401	1.73116
556.294	2.04136
559.186	1.21573
562.079	1.44295
564.972	0.628429
567.865	0.938017
570.757	0.75145
573.65	1.04152
576.543	0.235774
579.435	0.387675
582.328	0.804489
585.221	0.167244
588.114	0.610912
591.006	0.873419
593.899	0.071026
596.792	0.344093
599.684	1.00601
602.577	0.916521
605.47	1.48494
608.362	1.74933
611.255	0.130371
614.148	1.35428
617.04	1.83372
619.933	0.063049
622.826	0.78199
625.719	1.16064
628.611	1.61862
631.504	1.54986
634.397	0.780197
637.289	1.13019
640.182	0.92625
643.075	0.900873
645.967	1.25061
648.86	0.042646
651.753	0.284271
654.646	1.55265
657.538	1.68159
660.431	1.11981
663.324	0.533197
666.216	1.10447
669.109	1.26289
672.002	1.50756
674.894	1.28718
677.787	0.652275
680.68	1.04287
683.573	0.347435
686.465	0.477829
689.358	1.30641
692.251	1.19357
695.143	0.697754
698.036	1.23279
700.929	1.28241
703.822	0.649645
706.714	0.930849
709.607	1.78153
712.5	0.730583
715.392	0.423775
718.285	1.07905
721.178	0.315287
724.07	1.57463
726.963	2.02949
729.856	1.59159
732.749	1.81328
735.641	1.20025
738.534	1.91376
741.427	1.38668
744.319	2.37161
747.212	0.288275
750.105	0.277136
752.997	1.57205
755.89	0.656805
758.783	1.13476
761.676	0.599136
764.568	0.378479
767.461	1.10721
770.354	0.522858
773.246	0.724129
776.139	0.022751
779.032	0.494143
781.924	1.04447
784.817	0.561155
787.71	1.24935
790.602	0.703444
793.495	1.12298
796.388	1.3115
799.281	1.44638
802.173	1.02785
805.066	1.48486
807.959	1.72976
810.851	0.92053
813.744	1.53071
816.637	1.44255
819.529	1.34322
822.422	1.45363
825.315	1.33191
828.208	1.14889
831.1	2.30564
833.993	0.733629
836.886	1.01916
839.778	1.87642
842.671	0.598122
845.564	2.24194
848.457	0.812979
851.349	1.72127
854.242	2.09631
857.135	2.16256
860.027	2.22697
862.92	2.74553
865.813	1.91043
868.705	2.08532
871.598	1.41672
874.491	2.60619
877.384	1.64002
880.276	1.99099
883.169	0.90008
886.062	0.640364
888.954	1.39781
891.847	0.536373
894.74	1.24666
897.632	0.497576
900.525	1.51662
903.418	0.854599
906.311	0.187534
909.203	0.205003
912.096	0.049687
914.989	0.93783
917.881	0.119927
920.774	1.10694
923.667	0.543375
926.559	1.21628
929.452	0.967021
932.345	0.67318
935.237	0.204011
938.13	0.02578
941.023	0.501453
943.916	0.763622
946.808	0.758285
949.701	1.33819
952.594	0.06247
955.486	0.896579
958.379	0.19579
961.272	1.27754
964.164	0.634801
967.057	0.753347
969.95	1.14238
972.843	0.448104
975.735	1.18788
978.628	0.729361
981.521	0.549109
984.413	1.30233
987.306	0.929466
990.199	1.14356
993.091	0.493678
995.984	1.13726
998.877	1.0578
1001.77	1.69864
1004.66	0.192664
1007.55	1.61862
1010.45	1.38756
1013.34	0.258823
1016.23	0.323246
1019.13	0.472099
1022.02	0.615604
1024.91	0.518673
1027.8	0.632979
1030.7	0.681599
1033.59	0.175503
1036.48	1.26616
1039.38	0.355593
1042.27	0.408637
1045.16	0.038967
1048.05	1.41691
1050.94	2.30647
1053.84	1.53592
1056.73	1.47436
1059.62	1.30998
1062.52	3.26895
1065.41	2.92373
1068.3	5.18428
1071.19	6.90673
1074.09	7.97379
1076.98	11.7916
1079.87	15.6124
1082.77	21.442
1085.66	23.3554
1088.55	25.9069
1091.44	23.4578
1094.34	18.0363
1097.23	13.1714
1100.12	10.1217
1103.01	7.88053
1105.91	5.73794
1108.8	2.57859
1111.69	1.67738
1114.59	2.99126
1117.48	1.56401
1120.37	1.04933
1123.26	2.14913
1126.16	1.58326
1129.05	1.24893
1131.94	2.18839
1134.83	0.542782
1137.73	0.192266
1140.62	0.925327
1143.51	1.10095
1146.4	0.140842
1149.3	0.032078
1152.19	0.816568
1155.08	0.704678
1157.97	0.262075
1160.87	1.04158
1163.76	2.67728
1166.65	1.69115
1169.55	0.188477
1172.44	0.469164
1175.33	1.21028
1178.22	0.500813
1181.12	0.935108
1184.01	1.17966
1186.9	0.485067
1189.8	2.12177
1192.69	1.81076
1195.58	1.37228
1198.47	0.30546
1201.37	0.766012
1204.26	0.500769
1207.15	0.673573
1210.04	0.10984
1212.94	0.009777
1215.83	2.27391
1218.72	1.3019
1221.62	1.90483
1224.51	1.55147
1227.4	1.06736
1230.29	1.30112
1233.19	0.413744
1236.08	0.191853
1238.97	0.807926
1241.86	0.419357
1244.76	0.810671
1247.65	1.33528
1250.54	0.420462
1253.43	1.69553
1256.33	1.54462
1259.22	1.13742
1262.11	0.009636
1265.01	1.62614
1267.9	0.228512
1270.79	1.15114
1273.68	0.238749
1276.58	0.987896
1279.47	0.995859
1282.36	0.109097
1285.25	0.751501
