Measurement: Raman, 780 nm, unoriented, Raman Data Processed
Mineral: Gaudefroyite
Rruff sample: R050675
Ideal chemistry: Ca_4_Mn^3+^_3_(BO_3_)_3_(CO_3_)O_3_
Locality: Wessels mine, Cape Province, South Africa
Source: University of Arizona Mineral Museum
Description: Black hexagonal stubby dipyramidal crystals
Measured chemistry: Ca_4.00_(Mn^3+^_2.98_[box]_0.02_)_Σ=3_(BO_3_)_3_(CO_3_)(O_2.94_(OH)_0.06_)_Σ=3_ ; B, C, H not measured but estimated by charge balance.
Raman shift (cm-1)	intensity
135.416	0
138.309	0.249775
141.201	1.19084
144.094	1.59103
146.987	2.31327
149.879	1.04591
152.772	1.931
155.665	3.44914
158.557	4.73827
161.45	4.56976
164.343	4.59377
167.236	3.38418
170.128	2.72519
173.021	0.69297
175.914	0.485388
178.806	0.231821
181.699	0.325817
184.592	0.428112
187.484	0.356682
190.377	0.210485
193.27	0.72896
196.162	0.401516
199.055	0.989693
201.948	1.26673
204.841	1.25476
207.733	0.914675
210.626	1.58934
213.519	2.87904
216.411	2.82145
219.304	4.65077
222.197	4.71931
225.089	5.71627
227.982	5.83548
230.875	6.27482
233.768	7.34974
236.66	7.84015
239.553	8.67428
242.446	8.80602
245.338	8.84774
248.231	6.68136
251.124	4.32262
254.017	2.35354
256.909	0.375835
259.802	0.639351
262.695	2.0913
265.587	4.24367
268.48	7.64844
271.373	12.4132
274.265	17.379
277.158	24.0607
280.051	29.8443
282.943	34.1126
285.836	31.8383
288.729	24.771
291.622	16.2759
294.514	10.3801
297.407	6.29576
300.3	4.7788
303.192	2.31138
306.085	1.81454
308.978	1.65326
311.87	1.08106
314.763	2.24853
317.656	3.89828
320.548	5.51708
323.441	7.94806
326.334	10.8477
329.227	13.4694
332.119	13.3128
335.012	14.1113
337.905	10.6348
340.797	9.9291
343.69	6.17181
346.583	5.01492
349.476	2.52585
352.368	0.630987
355.261	0.258045
358.154	0.340513
361.046	0.063515
363.939	0.20435
366.832	0.37114
369.724	1.12147
372.617	1.50408
375.51	2.05499
378.402	3.1278
381.295	3.54985
384.188	3.59786
387.081	4.33633
389.973	4.40654
392.866	5.37625
395.759	3.9256
398.651	3.8991
401.544	3.44273
404.437	3.11363
407.329	3.11533
410.222	1.84936
413.115	2.03342
416.008	1.28396
418.9	1.09696
421.793	0.148664
424.686	0.03706
427.578	0.855504
430.471	0.404282
433.364	1.18612
436.257	0.862653
439.149	0.824792
442.042	0.53668
444.935	0.520311
447.827	1.62782
450.72	0.524621
453.613	1.52298
456.505	1.45012
459.398	0.023865
462.291	1.13081
465.183	1.05142
468.076	0.516942
470.969	1.26115
473.861	1.51571
476.754	0.896708
479.647	1.7086
482.54	0.399148
485.432	0.334465
488.325	0.204102
491.218	0.82127
494.11	0.417839
497.003	0.623122
499.896	0.07984
502.788	0.280112
505.681	0.103742
508.574	0.154436
511.467	0.328047
514.359	0.447978
517.252	1.37979
520.145	1.44445
523.037	2.86688
525.93	3.58648
528.823	3.09424
531.716	3.95642
534.608	2.36943
537.501	3.07853
540.394	2.38616
543.286	1.01313
546.179	1.06133
549.072	0.955748
551.964	0.260759
554.857	0.077492
557.75	0.911572
560.643	0.254889
563.535	0.573335
566.428	0.972175
569.321	2.91188
572.213	1.47988
575.106	1.71122
577.999	1.52666
580.891	1.07566
583.784	0.872184
586.677	0.170825
589.569	1.41555
592.462	0.776464
595.355	0.82614
598.248	0.112272
601.14	0.895073
604.033	0.494893
606.926	0.531033
609.818	0.420219
612.711	0.536916
615.604	0.043615
618.496	0.410886
621.389	1.68765
624.282	2.34092
627.174	3.38158
630.067	4.61632
632.96	5.43066
635.853	9.84679
638.745	12.9142
641.638	15.7789
644.531	19.5392
647.423	20.015
650.316	18.2002
653.209	13.4851
656.101	9.17918
658.994	6.49379
661.887	6.27809
664.78	5.34993
667.672	5.35602
670.565	5.01124
673.458	3.89966
676.35	2.36171
679.243	1.93046
682.136	1.70497
685.029	1.09613
687.921	0.574233
690.814	0.032928
693.707	0.329483
696.599	0.624414
699.492	0.218468
702.385	0.915447
705.277	0.198804
708.17	0.246557
711.063	0.65857
713.955	0.289188
716.848	0.2034
719.741	0.682157
722.634	0.190414
725.526	0.343313
728.419	0.206131
731.312	0.828499
734.204	0.533572
737.097	0.208904
739.99	1.39488
742.882	0.725127
745.775	0.653579
748.668	0.530139
751.561	1.04794
754.453	0.629666
757.346	1.60244
760.239	0.882695
763.131	1.45069
766.024	0.602517
768.917	0.719179
771.809	0.96663
774.702	0.201807
777.595	0.691175
780.487	0.3498
783.38	0.687994
786.273	0.529717
789.166	0.296044
792.058	1.1082
794.951	0.968921
797.844	1.25111
800.736	0.830461
803.629	0.688608
806.522	0.806761
809.414	0.497529
812.307	1.89043
815.2	0.712987
818.093	1.13164
820.985	1.45226
823.878	1.29723
826.771	1.14709
829.663	1.56986
832.556	1.03696
835.449	2.59068
838.341	1.59649
841.234	1.0023
844.127	1.02229
847.02	1.04397
849.912	1.5484
852.805	1.20093
855.698	1.0523
858.59	0.731396
861.483	1.5954
864.376	1.56496
867.269	1.11013
870.161	0.51039
873.054	1.25124
875.947	1.21001
878.839	0.624142
881.732	0.098145
884.625	0.645288
887.517	0.4174
890.41	0.397296
893.303	0.700994
896.195	0.232741
899.088	1.19784
901.981	0.20508
904.874	1.09726
907.766	0.294443
910.659	0.086671
913.552	1.79776
916.444	1.07113
919.337	1.54062
922.23	3.11191
925.122	2.56717
928.015	2.55402
930.908	3.18168
933.801	2.49608
936.693	2.51431
939.586	2.45868
942.479	1.32592
945.371	1.61565
948.264	0.033114
951.157	0.003234
954.049	0.053121
956.942	0.672203
959.835	1.37013
962.727	0.576204
965.62	0.496037
968.513	0.75322
971.406	0.266566
974.298	1.24101
977.191	0.872713
980.084	1.35734
982.976	1.18528
985.869	0.118973
988.762	1.03873
991.654	1.01893
994.547	0.858866
997.44	0.562259
1000.33	1.23271
1003.23	0.662536
1006.12	1.61463
1009.01	0.236953
1011.9	0.523339
1014.8	1.08638
1017.69	0.489854
1020.58	1.37641
1023.47	0.706552
1026.37	0.434387
1029.26	0.09861
1032.15	0.91075
1035.05	1.52792
1037.94	1.31735
1040.83	0.937516
1043.72	0.844136
1046.62	0.477671
1049.51	1.35799
1052.4	0.871565
1055.29	1.06924
1058.19	0.772122
1061.08	0.275325
1063.97	0.78361
1066.87	1.76025
1069.76	1.01385
1072.65	1.66097
1075.54	1.85738
1078.43	1.76903
1081.33	0.708633
1084.22	1.19096
1087.11	0.333693
1090.01	0.062631
1092.9	0.919886
1095.79	0.080226
1098.68	0.434184
1101.58	0.130289
1104.47	0.797184
1107.36	0.066309
1110.26	0.452285
1113.15	0.075152
1116.04	0.799525
1118.93	0.068805
1121.83	0.574156
1124.72	1.41401
1127.61	0.993924
1130.5	1.09609
1133.4	0.93747
1136.29	0.90266
1139.18	0.636397
1142.08	0.687037
1144.97	0.411477
1147.86	0.703221
1150.75	0.538234
1153.65	0.763365
1156.54	0.563011
1159.43	0.860021
1162.32	0.163081
1165.22	0.399634
1168.11	0.928107
1171	2.53116
1173.89	2.27236
1176.79	2.96564
1179.68	2.80098
1182.57	3.94712
1185.46	3.01162
1188.36	4.0527
1191.25	4.29734
1194.14	4.64693
1197.04	3.67241
1199.93	4.71678
1202.82	4.67764
1205.71	3.75245
1208.61	2.8498
1211.5	3.08821
1214.39	2.70988
1217.29	3.09757
1220.18	2.73543
1223.07	2.20115
1225.96	2.59876
1228.86	2.59872
1231.75	1.0627
1234.64	0.902945
1237.53	0.969098
1240.43	1.46168
1243.32	0.903631
1246.21	0.63598
1249.11	0.806742
1252	0.83787
1254.89	0.966859
1257.78	0.645631
1260.67	1.15016
1263.57	0.630649
1266.46	0.125759
1269.35	0.405593
1272.25	0.24027
1275.14	0.351769
1278.03	0.494906
