Measurement: Raman, 780 nm, unoriented, Raman Data Processed
Mineral: Gearksutite
Rruff sample: R050657
Ideal chemistry: CaAlF_4_(OH)H_2_O
Locality: Jamestown, Colorado, USA
Source: University of Arizona Mineral Museum
Description: White fragment
Measured chemistry: (Ca_0.98_Sr_0.02_)Al_1.00_F_4.00_(OH)Â·H_2_O
Raman shift (cm-1)	intensity
111.792	0
115.167	2.06369
118.542	7.42075
121.917	25.0079
125.291	43.0189
128.666	74.3587
132.041	34.9826
135.416	13.5778
138.791	25.9428
142.166	32.023
145.54	40.3946
148.915	11.2063
152.29	7.12759
155.665	4.70355
159.04	0.774841
162.414	2.43323
165.789	5.8533
169.164	6.88083
172.539	0.842804
175.914	0.329132
179.288	23.1832
182.663	24.2551
186.038	40.6108
189.413	47.7952
192.788	61.0798
196.162	51.3665
199.537	41.0613
202.912	37.55
206.287	43.9025
209.662	53.2508
213.037	47.4624
216.411	22.2087
219.786	5.24399
223.161	8.19852
226.536	20.782
229.911	25.4986
233.286	37.8606
236.66	34.2586
240.035	32.1362
243.41	29.0886
246.785	36.8235
250.16	38.8281
253.534	65.3585
256.909	62.7937
260.284	69.028
263.659	65.0796
267.034	40.5174
270.408	35.7704
273.783	34.9307
277.158	34.4314
280.533	26.6288
283.908	22.8462
287.283	20.6799
290.657	22.0222
294.032	11.4023
297.407	16.9886
300.782	9.1496
304.157	6.1362
307.531	3.75644
310.906	3.30981
314.281	3.98285
317.656	4.95673
321.031	1.77542
324.406	3.50818
327.78	5.17911
331.155	4.91339
334.53	19.1915
337.905	11.3841
341.279	12.4747
344.654	22.2541
348.029	27.612
351.404	33.4796
354.779	30.538
358.154	17.1269
361.528	30.5608
364.903	26.1468
368.278	27.9909
371.653	20.4157
375.028	28.2539
378.402	32.8302
381.777	37.3239
385.152	28.3987
388.527	19.613
391.902	10.0872
395.277	10.5631
398.651	3.72354
402.026	2.96018
405.401	4.91385
408.776	7.05362
412.151	9.707
415.526	13.5639
418.9	6.32986
422.275	23.6494
425.65	26.9762
429.025	30.775
432.399	32.8068
435.774	27.9215
439.149	21.0672
442.524	23.5166
445.899	11.1765
449.274	23.7797
452.648	19.6617
456.023	22.8623
459.398	17.2464
462.773	9.61008
466.148	9.98615
469.522	4.62683
472.897	1.71872
476.272	2.27982
479.647	1.44241
483.022	5.66647
486.397	4.49582
489.771	5.00595
493.146	1.80667
496.521	1.83893
499.896	0.019806
503.271	6.23688
506.645	9.71274
510.02	1.65073
513.395	8.00623
516.77	9.34042
520.145	9.71851
523.519	12.0508
526.894	21.209
530.269	22.8668
533.644	25.8301
537.019	31.6436
540.394	40.7295
543.768	52.7363
547.143	49.1079
550.518	56.5483
553.893	57.8551
557.268	59.3227
560.643	76.8813
564.017	88.6806
567.392	100.253
570.767	114.853
574.142	137.099
577.516	139.074
580.891	104.438
584.266	64.7016
587.641	39.8618
591.016	26.5411
594.391	15.0562
597.765	6.77615
601.14	8.9838
604.515	0.572754
607.89	4.78537
611.265	3.05203
614.639	1.91318
618.014	15.7359
621.389	7.01129
624.764	6.25821
628.139	13.2696
631.514	4.03598
634.888	10.5181
638.263	13.1109
641.638	12.2573
645.013	4.87347
648.388	3.60049
651.763	3.23984
655.137	3.48511
658.512	0.961914
661.887	3.02155
665.262	2.6627
668.636	0.034439
672.011	4.87918
675.386	2.59451
678.761	8.20053
682.136	6.90312
685.511	7.54639
688.885	9.70493
692.26	8.82755
695.635	10.7483
699.01	15.5247
702.385	6.38461
705.76	17.4544
709.134	8.8517
712.509	23.7986
715.884	21.9318
719.259	17.3708
722.634	15.259
726.008	4.78255
729.383	6.01917
732.758	11.7676
736.133	9.03618
739.508	11.9664
742.882	15.3888
746.257	16.6068
749.632	15.8912
753.007	10.9804
756.382	14.2942
759.756	16.4987
763.131	12.6549
766.506	6.45747
769.881	5.80884
773.256	10.8077
776.631	7.11881
780.005	0.297455
783.38	10.6634
786.755	2.92609
790.13	11.4084
793.505	10.6562
796.88	6.6398
800.254	1.84015
803.629	3.38599
807.004	9.71817
810.379	7.32347
813.754	5.41832
817.128	8.45908
820.503	9.13606
823.878	9.13277
827.253	4.37994
830.628	9.04105
834.002	12.1952
837.377	4.99019
840.752	12.9208
844.127	9.79326
847.502	4.06842
850.876	4.61909
854.251	7.9491
857.626	5.89444
861.001	6.54364
864.376	5.90176
867.751	10
871.125	6.4976
874.5	6.79601
877.875	16.0288
881.25	0.89563
884.625	10.5375
888	6.82352
891.374	3.22253
894.749	7.14195
898.124	9.04988
901.499	5.55511
904.874	4.18767
908.248	4.66399
911.623	3.4794
914.998	7.60495
918.373	5.15979
921.748	2.61122
925.122	11.9818
928.497	2.67064
931.872	0.463074
935.247	4.78177
938.622	2.40843
941.996	1.20354
945.371	3.72905
948.746	7.41286
952.121	12.5777
955.496	0.420593
958.87	7.33263
962.245	3.01096
965.62	9.24336
968.995	9.26169
972.37	7.91188
975.745	7.44156
979.119	11.944
982.494	9.56412
985.869	14.5469
989.244	8.80164
992.619	0.820267
995.994	2.46642
999.368	1.31081
1002.74	2.98561
1006.12	8.19786
1009.49	11.1769
1012.87	3.89844
1016.24	7.81572
1019.62	7.73181
1022.99	10.0432
1026.37	3.90951
1029.74	0.065628
1033.12	4.50563
1036.49	9.87544
1039.87	2.98073
1043.24	6.99498
1046.62	5.08682
1049.99	3.87543
1053.37	9.01778
1056.74	6.83754
1060.12	7.98198
1063.49	9.66219
1066.87	13.3742
1070.24	15.5467
1073.61	16.7137
1076.99	12.412
1080.36	20.5154
1083.74	22.3129
1087.11	19.6355
1090.49	21.2921
1093.86	16.9584
1097.24	21.237
1100.61	17.191
1103.99	13.525
1107.36	9.01617
1110.74	8.49046
1114.11	9.56226
1117.49	15.811
1120.86	8.04633
1124.24	1.98907
1127.61	2.0473
1130.99	5.11337
1134.36	4.82991
1137.74	1.3486
1141.11	1.29181
1144.48	4.9863
1147.86	6.19879
1151.23	5.64166
1154.61	1.59949
1157.98	8.98064
1161.36	10.2098
1164.73	2.71094
1168.11	0.51416
1171.48	10.9573
1174.86	12.4906
1178.23	6.07951
1181.61	6.47357
1184.98	5.32124
1188.36	12.7041
1191.73	10.5828
1195.11	2.85883
1198.48	11.914
1201.86	12.7924
1205.23	11.5571
1208.61	11.9851
1211.98	5.62843
1215.36	2.20282
1218.73	5.02411
1222.11	7.78503
1225.48	8.05164
1228.86	3.13037
1232.23	3.20283
1235.61	3.69194
1238.98	11.8235
1242.36	4.57858
1245.73	5.75618
1249.11	6.7513
1252.48	4.24045
1255.85	1.37935
1259.23	0.470734
1262.6	2.47849
1265.98	2.43317
1269.35	10.0102
1272.73	7.92557
1276.1	10.6311
1279.48	4.58389
1282.85	3.91943
1286.23	0
