Measurement: Raman, 514 nm, unoriented, Raman Data Processed
Mineral: Gedrite
Rruff sample: R050339
Ideal chemistry: [box]Mg_2_(Mg_3_Al_2_)(Si_6_Al_2_)O_22_(OH)_2_
Locality: Bamble, Telemark, Norway
Source: California Institute of Technology
Description: Dark gray cleavage fragment
Measured chemistry: ([box]_0.61_Na_0.39_)(Mg_4.55_Fe^2+^_1.40_Al_0.91_Ti_0.07_Ca_0.07_)_Σ7_(Si_6.56_Al_1.44_)_Σ8_O_22_(OH)_2_
Raman shift (cm-1)	intensity
151.321	0
155.002	9.25586
158.681	150.566
162.359	287.182
166.036	267.422
169.711	576.287
173.385	406.836
177.058	529.24
180.729	789.369
184.399	797.289
188.067	929.867
191.734	1329.54
195.4	1078.42
199.064	1116.51
202.727	1065.59
206.389	922.74
210.049	713.668
213.708	749.037
217.366	636.539
221.022	649.182
224.677	619.606
228.33	580.201
231.982	400.973
235.633	344.902
239.282	213.723
242.93	183.518
246.577	89.8789
250.222	143.715
253.866	286.203
257.508	577.332
261.149	204.856
264.789	17.1602
268.427	10.9004
272.064	30.627
275.7	205.393
279.334	3.39062
282.967	240.631
286.598	84.1094
290.229	64.7285
293.857	189.59
297.485	173.856
301.111	227.451
304.735	185.16
308.358	96.8867
311.98	295.441
315.601	362.631
319.22	139.516
322.837	107.715
326.454	22.2715
330.068	319.926
333.682	145.402
337.294	369.941
340.905	311.688
344.514	229.66
348.122	295.482
351.729	305.949
355.334	230.035
358.938	151.717
362.54	251.32
366.141	255.09
369.741	459.463
373.339	500.572
376.936	307.846
380.531	536.268
384.126	564.779
387.718	342.428
391.31	385.223
394.9	645.16
398.488	344.644
402.075	264.848
405.661	257.172
409.245	544.346
412.828	135.758
416.41	500.113
419.99	313.246
423.569	370.867
427.146	377.846
430.722	196.519
434.297	33.6875
437.87	252.951
441.442	236.315
445.012	149.852
448.581	156.549
452.149	238.406
455.715	256.74
459.28	75.1211
462.843	87.2227
466.405	149.926
469.965	10.3828
473.525	295.385
477.082	212.84
480.639	205.617
484.194	237.228
487.747	34.8906
491.3	236.568
494.85	195.264
498.4	164.844
501.948	189.356
505.494	34.9492
509.039	58.3613
512.583	156.258
516.125	164.867
519.666	120.555
523.206	280.338
526.744	416.213
530.281	243.203
533.816	475.232
537.35	481.312
540.882	337.461
544.413	139.652
547.943	263.881
551.471	85.1602
554.998	338.576
558.523	178.1
562.047	46.6582
565.57	460.264
569.091	221.846
572.611	168.457
576.129	189.15
579.646	216.805
583.162	33.498
586.676	194.26
590.188	34.0156
593.7	87.2207
597.209	280.394
600.718	219.957
604.225	12.3672
607.73	283.031
611.235	356.668
614.737	262.947
618.239	342.998
621.739	34.2461
625.237	272.404
628.734	222.99
632.23	272.252
635.724	513.461
639.217	535.936
642.708	494.99
646.198	686.25
649.687	961.883
653.174	1209.68
656.66	1130.96
660.144	1359.04
663.627	1354.38
667.108	2143.65
670.588	2318.88
674.067	2078.42
677.544	1412.44
681.02	1134.02
684.494	770.535
687.967	815.424
691.438	656.973
694.908	347.055
698.377	624.834
701.844	399.098
705.31	474.143
708.774	622.461
712.237	199.139
715.698	438.873
719.158	460.842
722.617	239.023
726.074	153.592
729.53	269.307
732.984	222.072
736.437	278.512
739.888	35.2969
743.338	231.269
746.787	121.562
750.234	109.812
753.68	306.57
757.124	266.816
760.567	417.945
764.008	268.977
767.448	468.356
770.887	562.371
774.324	113.637
777.759	424.254
781.194	45.6641
784.626	393.859
788.058	509.906
791.488	189.078
794.916	133.938
798.343	39.0352
801.769	5.83984
805.193	40.8906
808.616	360.223
812.037	81.1328
815.457	26.7695
818.875	27.3633
822.292	73.6836
825.707	58.8633
829.122	90.832
832.534	260.652
835.945	107.129
839.355	176.309
842.763	31.4961
846.17	191.582
849.576	83.5547
852.98	275.273
856.382	179.945
859.783	101.449
863.183	160.742
866.581	348.894
869.978	247.863
873.373	0.28125
876.767	71.1055
880.159	290.707
883.55	85.2383
886.94	63.7188
890.328	192.09
893.714	239.172
897.1	151.113
900.483	200.012
903.866	277.305
907.246	171.922
910.626	363.156
914.004	260.422
917.38	250
920.755	457.273
924.129	550.129
927.501	238.156
930.872	492.109
934.241	391.066
937.609	252.477
940.975	257.32
944.34	355.195
947.703	396.766
951.065	265.113
954.426	415.574
957.785	486.809
961.142	449.008
964.499	306.332
967.853	75.5195
971.207	180.828
974.558	347.309
977.909	568.414
981.258	566.68
984.605	474.555
987.951	493.309
991.295	249.195
994.639	326.492
997.98	428.875
1001.32	335.238
1004.66	449.664
1008	672.238
1011.33	678.906
1014.67	684.141
1018	675.844
1021.33	524.148
1024.66	681.691
1027.99	765.481
1031.32	492.602
1034.64	666.586
1037.97	549.516
1041.29	674.57
1044.61	365.273
1047.93	362.883
1051.25	270.109
1054.56	398.246
1057.88	404.832
1061.19	274.871
1064.51	432.371
1067.82	680.289
1071.13	252.406
1074.43	224.902
1077.74	348.473
1081.05	561.047
1084.35	360.453
1087.65	302.906
1090.95	253.906
1094.25	514.199
1097.55	285.281
1100.85	277.242
1104.14	317.019
1107.43	60.6914
1110.73	242.535
1114.02	465.988
1117.31	532.094
1120.59	513.426
1123.88	4.19922
1127.16	194.777
1130.45	141.125
1133.73	401.742
1137.01	102.027
1140.29	205.078
1143.57	243.856
1146.84	155.461
1150.12	118.926
1153.39	338.316
1156.66	85.5859
1159.93	21.2031
1163.2	283.117
1166.46	304.203
1169.73	298.602
1172.99	449.356
1176.26	10.2344
1179.52	328.156
1182.78	380.809
1186.04	26.375
1189.29	252.773
1192.55	360.34
1195.8	345.652
1199.05	332.402
1202.31	210.914
1205.55	323.008
1208.8	120.438
1212.05	308.938
1215.29	247.59
1218.54	377.281
1221.78	240.059
1225.02	169.305
1228.26	134.664
1231.5	155.562
1234.73	15.9219
1237.97	512.273
1241.2	160.461
1244.43	2.47266
1247.66	41.3516
1250.89	158.016
1254.12	115.473
1257.34	428.344
1260.57	177.656
1263.79	282.805
1267.01	139.695
1270.23	419.809
