Measurement: Raman, 785 nm, unoriented, Raman Data Processed
Mineral: Gehlenite
Rruff sample: R070478
Ideal chemistry: Ca_2_Al(SiAl)O_7_
Locality: Durham Ranch, South of Gillette, Sublette County, Wyoming, USA
Source: Michael Scott
Description: Brown short, tetragonal prismatic crystals, associated with esseneite R061123
Measured chemistry: (Ca_1.65_Na_0.34_K_0.01_)_Σ=2_(Al_0.64_Mg_0.21_Fe^3+^_0.15_)_Σ=1_(Si_1.56_Al_0.44_)_Σ=1_O_7_ ; = gray phase. The light phase is esseneite: (Ca_0.97_Na_0.03_)_Σ=1_(Fe^3+^_0.72_Mg_0.23_Ti_0.05_)_Σ=1_(Al_0.79_Si_0.21_)_Σ=1_Si_1.00_O_6_ (esseneite)
Raman shift (cm-1)	intensity
183.111	0
185.521	129.137
187.932	79.7422
190.342	79.6055
192.753	215.984
195.163	102.496
197.574	135.434
199.985	262.613
202.395	235.668
204.806	239.836
207.216	291.086
209.627	430.242
212.038	397.832
214.448	635.66
216.859	393.164
219.269	726.34
221.68	953.894
224.09	1052.93
226.501	1099.33
228.912	1086.5
231.322	1060.07
233.733	989.801
236.143	1133.4
238.554	1122.03
240.965	984.68
243.375	794.867
245.786	775.09
248.196	721.203
250.607	642.137
253.018	391.125
255.428	400.582
257.839	455.664
260.249	235.699
262.66	12.5469
265.07	91.7148
267.481	38.6328
269.892	71.1016
272.302	99.0508
274.713	150.062
277.123	287.902
279.534	505.82
281.945	676.953
284.355	809.672
286.766	1095.97
289.176	1562.01
291.587	1786.96
293.997	2022.81
296.408	2420.86
298.819	2570.41
301.229	2584
303.64	2799.5
306.05	2794.69
308.461	2854.18
310.872	2806.17
313.282	2966.64
315.693	2912.72
318.103	2898.5
320.514	3062.02
322.924	3180.28
325.335	3427.86
327.746	3415.2
330.156	3426.94
332.567	3436.91
334.977	3422.11
337.388	3544.38
339.798	3137.05
342.209	3145.13
344.62	2996.51
347.03	3025.32
349.441	2536.5
351.851	2540.82
354.262	2135.34
356.673	1919.07
359.083	1737.52
361.494	1619.31
363.904	1395.56
366.315	1082.89
368.726	890.352
371.136	728.008
373.547	477.16
375.957	285.098
378.368	327.742
380.778	101.273
383.189	73.5234
385.6	73.9336
388.01	13.2617
390.421	64.7266
392.831	12.1758
395.242	28.8906
397.652	57.7695
400.063	51.6406
402.474	198.602
404.884	76.125
407.295	0.828125
409.705	139.734
412.116	61.1055
414.527	129.217
416.937	180.236
419.348	227.471
421.758	254.9
424.169	254.805
426.579	381.711
428.99	451.025
431.401	569.449
433.811	638.326
436.222	540.562
438.632	823.256
441.043	871.121
443.454	849.613
445.864	903.537
448.275	1038.61
450.685	1154.03
453.096	984.082
455.507	1018.92
457.917	1125.85
460.328	1158.46
462.738	1237.25
465.149	1112.37
467.559	1138.61
469.97	1165.87
472.381	1144.82
474.791	1157.69
477.202	1278.44
479.612	1404.66
482.023	1364.04
484.433	1114.54
486.844	1165.75
489.255	1098.72
491.665	951.498
494.076	881.467
496.486	863.373
498.897	593.348
501.308	634.15
503.718	627.455
506.129	455.346
508.539	367.248
510.95	344.969
513.361	391.617
515.771	205.869
518.182	189.402
520.592	42.543
523.003	87.8711
525.413	15.627
527.824	66.6172
530.235	16.2656
532.645	81.2344
535.056	100.08
537.466	132.615
539.877	41.8945
542.288	90.3769
544.698	10.207
547.109	52.3457
549.519	422.418
551.93	484.959
554.341	762.848
556.751	906.371
559.162	998.928
561.572	943.65
563.983	876.373
566.393	985.994
568.804	947.18
571.215	843.307
573.625	1004.51
576.036	1068.61
578.446	1319.54
580.857	1278.82
583.268	1546.97
585.678	1626.56
588.089	1915.36
590.499	2154.27
592.91	2358.02
595.32	2625.83
597.731	3039.61
600.141	3493.95
602.552	3876.65
604.963	4211.8
607.373	4602.15
609.784	5106.16
612.194	5300.92
614.605	5457.76
617.016	5729.87
619.426	5833.39
621.837	5834.04
624.247	5737.49
626.658	5630.47
629.068	5451.85
631.479	5284.13
633.89	4813.36
636.3	4320.61
638.711	3904.41
641.121	3624.28
643.532	3247.54
645.943	3060.8
648.353	2974.92
650.764	2923.23
653.174	3062.54
655.585	2979.32
657.995	2699.4
660.406	2452.89
662.817	1861.74
665.227	1439.28
667.638	925.287
670.048	601.314
672.459	392.676
674.87	203.234
677.28	66.5078
679.691	121.242
682.101	170.941
684.512	107.986
686.923	8.82227
689.333	7.58398
691.744	9.57031
694.154	18.2695
696.565	99.7246
698.975	317.812
701.386	402.488
703.797	316.182
706.207	701.828
708.618	861.356
711.028	1163.73
713.439	1407.79
715.85	1735.19
718.26	2249.98
720.671	2548.39
723.081	2980.11
725.492	3164.94
727.902	3389.6
730.313	3170.92
732.724	2818.24
735.134	2568.65
737.545	2250.94
739.955	1878.87
742.366	1556.08
744.777	1314.48
747.187	859.875
749.598	938.148
752.008	666.348
754.419	486.025
756.829	347.44
759.24	341.086
761.651	170.244
764.061	154.402
766.472	2.01953
768.882	9.58008
771.293	89.7305
773.703	10.2109
776.114	27.1758
778.525	102.861
780.935	64.8945
783.346	69.2734
785.756	242.543
788.167	235.174
790.578	296.629
792.988	329.098
795.399	328.332
797.809	312.213
800.22	294.709
802.63	420.357
805.041	289.617
807.452	376.893
809.862	244.908
812.273	211.582
814.683	212.49
817.094	315.943
819.505	152.438
821.915	133.299
824.326	62.7383
826.736	73.9121
829.147	181.891
831.558	191.908
833.968	180.779
836.379	194.481
838.789	201.004
841.2	160.772
843.61	244.393
846.021	362.603
848.432	338.549
850.842	313.785
853.253	277.205
855.663	279.441
858.074	291.106
860.485	237.078
862.895	191.215
865.306	14.0039
867.716	55.8281
870.127	97.082
872.537	28.1758
874.948	44.7168
877.359	67.0684
879.769	8.83008
882.18	121.738
884.59	180.668
887.001	384.129
889.412	725.193
891.822	909.674
894.233	1190
896.643	1564.16
899.054	1901.63
901.464	2098.83
903.875	2264.46
906.286	2410.28
908.696	2343.5
911.107	2266.54
913.517	1979.37
915.928	1765.67
918.338	1682.64
920.749	1478.46
923.16	1388.72
925.57	1298.39
927.981	1241.86
930.391	1307.55
932.802	1130.13
935.213	970.141
937.623	901.277
940.034	682.199
942.444	641.283
944.855	599.746
947.265	590.609
949.676	519.738
952.087	430.156
954.497	266.477
956.908	280.647
959.318	274.74
961.729	281.658
964.14	340.195
966.55	225.725
968.961	356.051
971.371	280.147
973.782	245.617
976.192	333.705
978.603	361.379
981.014	317.182
983.424	311.859
985.835	372.277
988.245	294.959
990.656	272.82
993.067	443.897
995.477	499.074
997.888	527.521
1000.3	605.906
1002.71	501.365
1005.12	394.144
1007.53	391.461
1009.94	404.455
1012.35	341.627
1014.76	226.434
1017.17	382.562
1019.58	225.853
1021.99	216.232
1024.4	115.914
1026.82	183.703
1029.22	28.1484
1031.64	132.9
1034.05	27.0156
1036.46	93.6289
1038.87	4.29688
1041.28	27.0547
1043.69	183.822
1046.1	4.79688
1048.51	150.492
1050.92	81.9805
1053.33	155.805
1055.74	111.432
1058.15	124.186
1060.56	197.17
1062.97	177.668
1065.38	326.641
1067.8	363.576
1070.2	377.09
1072.62	397.283
1075.03	455.711
1077.44	363.309
1079.85	261.951
1082.26	113.324
1084.67	171.688
1087.08	120.402
1089.49	46.2441
1091.9	186.906
1094.31	154.273
1096.72	54.6191
1099.13	107.277
1101.54	64.0039
1103.95	1.00977
