Measurement: Raman, 785 nm, unoriented, Raman Data Processed
Mineral: Geminite
Rruff sample: R070434
Ideal chemistry: Cu^2+^(As^5+^O_3_OH)H_2_O
Locality: Jáchymov (St Joachimsthal), Ostrov, Krusné Hory Mountains (Erzgebirge), Karlovy Vary Region, Bohemia (Böhmen; Boehmen), Czech Republic
Source: Michael Scott
Description: Stellate aggregates of pale green bladed crystals
Raman shift (cm-1)	intensity
160.081	0
162.973	44.1119
165.866	64.6886
168.759	62.2942
171.651	77.9191
174.544	78.219
177.437	54.2285
180.329	80.2738
183.222	72.7903
186.115	32.999
189.008	40.8939
191.9	8.18042
194.793	10.1323
197.686	61.9753
200.578	12.3098
203.471	4.46314
206.364	12.2289
209.256	23.2006
212.149	23.2416
215.042	0.745483
217.935	7.95276
220.827	7.01099
223.72	2.31763
226.613	15.824
229.505	26.7174
232.398	26.3602
235.291	2.29285
238.184	18.1597
241.076	40.035
243.969	63.8009
246.862	27.8846
249.754	48.2846
252.647	26.9969
255.54	90.7278
258.432	69.3855
261.325	87.0806
264.218	49.4702
267.111	92.326
270.003	92.194
272.896	59.1936
275.789	83.3198
278.681	62.4712
281.574	17.2048
284.467	46.0635
287.359	14.463
290.252	5.11499
293.145	2.1427
296.038	19.1904
298.93	10.8307
301.823	20.2824
304.716	10.33
307.608	7.06165
310.501	30.3138
313.394	8.80591
316.286	43.0195
319.179	56.148
322.072	51.438
324.964	49.977
327.857	34.2595
330.75	57.8935
333.643	91.0601
336.535	98.9514
339.428	42.0134
342.321	62.6727
345.213	57.656
348.106	43.5295
350.999	68.4089
353.892	48.6069
356.784	36.6733
359.677	33.8229
362.57	31.7583
365.462	40.792
368.355	46.4863
371.248	43.9661
374.14	35.0591
377.033	10.9337
379.926	57.4304
382.818	81.9406
385.711	14.0975
388.604	54.6316
391.497	43.7657
394.389	24.7216
397.282	53.9424
400.175	27.8995
403.067	9.69885
405.96	40.4364
408.853	17.3361
411.745	6.73511
414.638	38.3236
417.531	36.7184
420.424	53.4635
423.316	21.9757
426.209	50.8907
429.102	50.102
431.994	30.981
434.887	25.6694
437.78	24.4112
440.673	54.1683
443.565	0.234009
446.458	4.56738
449.351	14.9131
452.243	9.32581
455.136	16.7034
458.029	19.7302
460.921	21.7508
463.814	41.0962
466.707	19.0039
469.599	21.9146
472.492	21.4503
475.385	51.7703
478.278	57.6091
481.17	44.2592
484.063	33.4125
486.956	40.4005
489.848	31.9447
492.741	31.0864
495.634	32.2677
498.526	45.7132
501.419	31.1345
504.312	30.3738
507.205	40.3834
510.097	20.3479
512.99	50.1449
515.883	11.3161
518.775	8.8822
521.668	36.8252
524.561	28.7712
527.454	9.74438
530.346	19.7346
533.239	44.7825
536.132	33.5605
539.024	37.7105
541.917	46.5094
544.81	33.8634
547.702	56.4918
550.595	22.0079
553.488	34.4207
556.38	30.2183
559.273	61.9688
562.166	61.0119
565.059	56.938
567.951	32.8618
570.844	23.3273
573.737	39.2227
576.629	47.9184
579.522	45.9738
582.415	38.2475
585.308	31.6681
588.2	38.0909
591.093	5.27429
593.986	23.1061
596.878	10.0597
599.771	18.4293
602.664	36.2586
605.556	37.4192
608.449	36.7265
611.342	40.2377
614.235	40.5407
617.127	26.1644
620.02	20.2864
622.913	6.34082
625.805	34.1244
628.698	40.834
631.591	30.9284
634.483	18.6483
637.376	26.9718
640.269	49.0212
643.162	32.3236
646.054	26.8221
648.947	7.93164
651.84	19.7759
654.732	46.8794
657.625	22.8895
660.518	47.6625
663.41	30.4649
666.303	0.120483
669.196	18.3932
672.088	27.2459
674.981	39.0149
677.874	35.1151
680.767	17.5422
683.659	33.0978
686.552	26.9277
689.445	15.4237
692.337	24.6266
695.23	1.6236
698.123	35.0073
701.015	15.5672
703.908	4.13178
706.801	13.3562
709.694	58.2705
712.586	2.14313
715.479	10.2383
718.372	50.9619
721.264	33.2789
724.157	39.1046
727.05	40.0439
729.942	60.4244
732.835	37.115
735.728	94.7906
738.621	69.3958
741.513	56.1212
744.406	54.242
747.299	66.3615
750.191	47.3351
753.084	51.9268
755.977	42.6437
758.87	52.6902
761.762	41.5504
764.655	42.3346
767.548	43.5979
770.44	27.7037
773.333	1.84692
776.226	6.91626
779.118	3.91431
782.011	1.05383
784.904	8.14636
787.797	25.7034
790.689	19.2116
793.582	32.6522
796.475	11.4927
799.367	64.7412
802.26	60.5386
805.153	43.8273
808.045	97.3754
810.938	58.1812
813.831	113.937
816.723	107.831
819.616	105.761
822.509	105.289
825.402	77.9488
828.294	139.024
831.187	131.832
834.08	165.289
836.972	225.897
839.865	246.273
842.758	305.255
845.65	343.547
848.543	358.581
851.436	420.14
854.329	395.548
857.221	444.585
860.114	462.644
863.007	443.331
865.899	499.962
868.792	477.1
871.685	521.909
874.577	557.373
877.47	605.294
880.363	643.326
883.256	659.323
886.148	622.244
889.041	628.723
891.934	600.436
894.826	566.326
897.719	563.736
900.612	518.082
903.505	493.22
906.397	424.532
909.29	411.37
912.183	332.869
915.075	351.885
917.968	278.193
920.861	231.149
923.753	200.794
926.646	144.543
929.539	161.125
932.432	97.4193
935.324	99.1203
938.217	64.5418
941.11	38.8309
944.002	17.2474
946.895	15.6146
949.788	14.3652
952.68	15.6619
955.573	21.9243
958.466	20.7657
961.359	7.22351
964.251	41.5883
967.144	18.1569
970.037	10.0394
972.929	16.4341
975.822	4.65485
978.715	9.77631
981.607	37.0944
984.5	27.907
987.393	15.2916
990.285	8.8819
993.178	1.38184
996.071	52.6368
998.964	26.5305
1001.86	21.3189
1004.75	21.3929
1007.64	55.8887
1010.53	16.2824
1013.43	21.5696
1016.32	43.8159
1019.21	54.8891
1022.11	43.5544
1025	48.0026
1027.89	15.0845
1030.78	31.7058
1033.68	37.1469
1036.57	58.0772
1039.46	42.2095
1042.35	59.079
1045.25	52.6211
1048.14	10.663
1051.03	47.4307
1053.92	43.7555
1056.82	63.0489
1059.71	17.6889
1062.6	37.3367
1065.5	34.9185
1068.39	7.89044
1071.28	56.2228
1074.17	65.1815
1077.07	52.9586
1079.96	39.0416
1082.85	23.842
1085.74	61.5571
1088.64	11.0986
1091.53	7.73144
1094.42	6.67188
1097.32	61.3575
1100.21	5.74091
1103.1	12.6163
1105.99	65.882
1108.89	27.5471
1111.78	34.3179
1114.67	35.6228
1117.56	39.1014
1120.46	40.7238
1123.35	40.4101
1126.24	34.8306
1129.13	26.2457
1132.03	16.2909
1134.92	26.8823
1137.81	26.6327
1140.71	14.3185
1143.6	3.54376
1146.49	43.717
1149.38	42.0005
1152.28	40.9468
1155.17	38.4888
1158.06	45.0242
1160.95	38.5594
1163.85	43.6004
1166.74	33.6942
1169.63	23.4095
1172.53	19.9784
1175.42	3.56915
1178.31	14.6035
1181.2	7.18018
1184.1	28.2454
1186.99	55.6512
1189.88	32.7212
1192.78	34.0531
1195.67	45.2797
1198.56	31.1574
1201.45	37.8878
1204.35	28.0858
1207.24	27.4149
1210.13	17.9957
1213.02	19.549
1215.92	29.7471
1218.81	12.9564
