Measurement: Raman, 532 nm, unoriented, Raman Data Processed
Mineral: Geminite
Rruff sample: R070434
Ideal chemistry: Cu^2+^(As^5+^O_3_OH)H_2_O
Locality: Jáchymov (St Joachimsthal), Ostrov, Krusné Hory Mountains (Erzgebirge), Karlovy Vary Region, Bohemia (Böhmen; Boehmen), Czech Republic
Source: Michael Scott
Description: Stellate aggregates of pale green bladed crystals
Raman shift (cm-1)	intensity
156.672	0
159.565	52.636
162.458	109.377
165.351	110.994
168.243	117.941
171.136	119.946
174.029	140.036
176.921	184.092
179.814	210.464
182.707	143.909
185.6	88.0895
188.492	31.2635
191.385	43.9866
194.278	13.6056
197.17	1.67956
200.063	0.658813
202.956	4.52344
205.848	53.9885
208.741	48.4381
211.634	47.2238
214.526	34.5549
217.419	16.5863
220.312	3.75879
223.205	1.03577
226.097	85.2424
228.99	43.7094
231.883	47.7272
234.775	109.704
237.668	121.029
240.561	156.6
243.453	144.627
246.346	130.94
249.239	123.644
252.132	108.901
255.024	57.739
257.917	41.7778
260.81	38.5876
263.702	55.7106
266.595	36.673
269.488	12.2092
272.38	37.2073
275.273	61.9784
278.166	50.4288
281.059	56.7651
283.951	84.6631
286.844	40.178
289.737	18.3749
292.629	10.4092
295.522	16.0955
298.415	24.1577
301.308	13.3005
304.2	9.41895
307.093	33.4659
309.986	20.8381
312.878	34.3727
315.771	24.9139
318.664	37.2477
321.556	73.4868
324.449	120.469
327.342	163.524
330.235	183.974
333.127	191.996
336.02	198.755
338.913	169.855
341.805	144.907
344.698	151.763
347.591	141.92
350.483	121.084
353.376	113.02
356.269	36.4568
359.162	59.8912
362.054	78.9961
364.947	140.076
367.84	59.4919
370.732	93.6231
373.625	61.9273
376.518	53.1824
379.411	27.8823
382.303	58.1863
385.196	41.5193
388.089	75.6785
390.981	67.397
393.874	106.805
396.767	106.395
399.659	89.4609
402.552	71.615
405.445	119.715
408.337	93.7715
411.23	89.0527
414.123	67.5305
417.016	64.5281
419.908	57.042
422.801	92.1352
425.694	72.9326
428.586	43.5205
431.479	15.9734
434.372	31.0447
437.264	15.1172
440.157	60.2183
443.05	50.4973
445.943	77.5584
448.835	107.123
451.728	115.01
454.621	98.282
457.513	86.0015
460.406	88.2422
463.299	56.3103
466.192	12.3789
469.084	89.427
471.977	43.0767
474.87	57.3988
477.762	78.3303
480.655	72.0309
483.548	109.335
486.44	147.527
489.333	100.821
492.226	156.944
495.118	134.847
498.011	86.7998
500.904	59.1749
503.797	73.5658
506.689	38.0609
509.582	24.3224
512.475	3.12097
515.367	14.2373
518.26	1.42822
521.153	1.08667
524.045	11.6744
526.938	22.356
529.831	23.6444
532.724	3.82752
535.616	3.66626
538.509	2.62488
541.402	17.9246
544.294	44.7936
547.187	20.9556
550.08	41.6024
552.972	23.6221
555.865	51.3469
558.758	20.5248
561.651	34.609
564.543	66.9412
567.436	73.7654
570.329	53.4314
573.221	77.433
576.114	66.6283
579.007	62.9747
581.899	82.1779
584.792	49.7169
587.685	48.2129
590.578	68.5653
593.47	44.9325
596.363	71.0151
599.256	24.5794
602.149	61.9597
605.041	55.0133
607.934	62.9917
610.827	60.0399
613.719	31.3475
616.612	27.7623
619.505	46.5205
622.397	58.0646
625.29	37.8914
628.183	59.2835
631.076	46.8428
633.968	61.7229
636.861	55.9033
639.754	47.1986
642.646	26.0902
645.539	47.9427
648.432	62.6547
651.324	99.4952
654.217	92.9346
657.11	110.677
660.003	95.1865
662.895	76.27
665.788	106.557
668.681	89.0223
671.573	80.8584
674.466	77.6992
677.359	89.033
680.251	82.4119
683.144	71.1089
686.037	65.8484
688.929	26.3016
691.822	52.7327
694.715	46.6118
697.608	15.9823
700.5	31.6436
703.393	36.3984
706.286	24.1099
709.178	20.1484
712.071	26.1457
714.964	16.2791
717.856	29.8445
720.749	24.4517
723.642	50.8982
726.535	99.9216
729.427	132.187
732.32	197.564
735.213	246.235
738.105	278.309
740.998	294.859
743.891	269.947
746.784	215.207
749.676	186.656
752.569	146.934
755.462	77.2571
758.354	28.8125
761.247	64.5154
764.14	40.2275
767.033	35.8262
769.925	65.2717
772.818	10.3013
775.711	21.3355
778.603	44.7183
781.496	58.8069
784.389	44.0371
787.281	6.88208
790.174	45.1887
793.067	127.052
795.96	203.195
798.852	355.274
801.745	544.216
804.638	703.413
807.53	870.088
810.423	1000.79
813.316	1076.07
816.208	968.586
819.101	845.783
821.994	689.814
824.886	631.216
827.779	578.979
830.672	611.126
833.565	679.388
836.457	763.043
839.35	931.18
842.243	1073.86
845.135	1295.55
848.028	1456.63
850.921	1493.87
853.813	1444.1
856.706	1323.64
859.599	1194.12
862.492	1017.13
865.384	913.791
868.277	952.303
871.17	948.22
874.062	1013.93
876.955	1121.46
879.848	1268.72
882.74	1365.9
885.633	1468.43
888.526	1431.02
891.419	1340.86
894.311	1262.87
897.204	1165.34
900.097	1065.44
902.989	944.569
905.882	839.034
908.775	732.034
911.668	653.715
914.56	623.684
917.453	558.819
920.346	581.148
923.238	675.215
926.131	643.131
929.024	597.184
931.916	449.718
934.809	339.691
937.702	216.718
940.595	113.259
943.487	33.3235
946.38	6.50977
949.273	23.0706
952.165	36.0095
955.058	35.4341
957.951	38.2754
960.843	23.9441
963.736	9.58691
966.629	7.99609
969.521	15.9387
972.414	12.6045
975.307	36.9458
978.2	8.1936
981.092	45.022
983.985	42.8279
986.878	95.468
989.77	65.4453
992.663	72.3552
995.556	94.7729
998.448	97.626
1001.34	119.448
1004.23	113.026
1007.13	86.6243
1010.02	94.2007
1012.91	71.6921
1015.8	62.1592
1018.7	109.118
1021.59	71.854
1024.48	80.3689
1027.38	70.5491
1030.27	54.7861
1033.16	81.8381
1036.05	51.3799
1038.95	54.1721
1041.84	81.9153
1044.73	82.9292
1047.62	49.7668
1050.52	19.541
1053.41	53.4285
1056.3	49.4507
1059.19	65.1846
1062.09	61.6843
1064.98	35.0557
1067.87	52.114
1070.77	20.1233
1073.66	27.49
1076.55	58.0767
1079.44	29.4915
1082.34	48.0513
1085.23	70.4099
1088.12	32.3528
1091.02	0.732178
1093.91	34.0168
1096.8	40.7456
1099.69	36.9766
1102.59	9.08423
1105.48	8.73145
1108.37	25.283
1111.26	17.0439
1114.16	40.2058
1117.05	8.98071
1119.94	10.0112
1122.84	7.76953
1125.73	30.4165
1128.62	20.9639
1131.51	21.4717
1134.41	20.3105
1137.3	12.9294
1140.19	39.6882
1143.08	4.43164
1145.98	50.9155
1148.87	12.9829
1151.76	7.1106
1154.65	35.9895
1157.55	1.10132
1160.44	7.68408
1163.33	29.092
1166.22	44.793
1169.12	27.1372
1172.01	56.9285
1174.9	34.218
1177.8	2.05518
1180.69	36.2407
1183.58	22.1855
1186.47	21.917
1189.37	29.2949
1192.26	2.94922
1195.15	20.8098
1198.05	14.8362
1200.94	35.8154
1203.83	31.437
1206.72	43.2131
1209.62	27.8762
1212.51	39.4956
1215.4	20.5627
1218.29	10.4126
1221.19	48.3655
1224.08	57.3616
1226.97	25.9504
1229.87	30.8066
1232.76	14.3887
1235.65	13.6182
1238.54	19.0418
1241.44	52.449
1244.33	19.3264
1247.22	4.49048
1250.11	32.2578
1253.01	0.341064
1255.9	1.14502
1258.79	23.9514
1261.68	46.4336
1264.58	33.8755
1267.47	30.8462
1270.36	41.9446
1273.26	66.0466
1276.15	17.0864
1279.04	22.396
1281.93	38.626
1284.83	20.1443
1287.72	20.8438
1290.61	27.8298
1293.5	29.4436
1296.4	47.8362
1299.29	67.5388
1302.18	5.74854
1305.08	34.5876
