Measurement: Raman, 532 nm, unoriented, Raman Data Processed
Mineral: Georgbokiite
Rruff sample: R070111
Ideal chemistry: Cu^2+^_5_O_2_(Se^4+^O_3_)_2_Cl_2_
Locality: Tolbachik Volcano, Kamchatka Peninsula, Russia
Source: Michael Scott
Description: Deep reddish brown polished fragments embedded in epoxy, co-type material
Measured chemistry: light phase: Cu_5.00_O_2_(Se^4+^_1.00_O_3_)_2_Cl_2.00_
Raman shift (cm-1)	intensity
146.806	0
150.181	6.83331
153.555	21.4792
156.93	17.1447
160.305	47.7422
163.68	54.954
167.055	20.6224
170.429	38.2496
173.804	68.4931
177.179	126.078
180.554	150.366
183.929	214.501
187.304	235.777
190.678	151.228
194.053	126.816
197.428	109.632
200.803	146.686
204.178	209.04
207.553	218.473
210.927	265.528
214.302	269.884
217.677	264.266
221.052	261.082
224.427	220.71
227.801	152.99
231.176	95.0333
234.551	17.2528
237.926	36.4423
241.301	5.27533
244.675	11.5132
248.05	15.7059
251.425	10.0192
254.8	9.93127
258.175	18.8418
261.55	2.41321
264.924	20.1801
268.299	42.9648
271.674	45.0545
275.049	97.1696
278.424	85.0821
281.799	89.1279
285.173	109.637
288.548	119.273
291.923	99.7737
295.298	117.106
298.673	94.1088
302.048	119.46
305.422	129.29
308.797	131.833
312.172	111.73
315.547	84.3691
318.921	61.9078
322.296	64.7261
325.671	75.2651
329.046	94.1527
332.421	60.7445
335.796	55.6409
339.17	54.8536
342.545	23.6726
345.92	21.7153
349.295	36.3633
352.67	32.2905
356.045	2.40894
359.419	31.8299
362.794	41.8401
366.169	18.2135
369.544	20.9152
372.919	19.2635
376.293	16.0235
379.668	7.22278
383.043	7.47742
386.418	19.9067
389.793	4.59326
393.168	43.854
396.542	45.1082
399.917	43.8323
403.292	46.4513
406.667	40.0514
410.042	17.0427
413.416	29.1148
416.791	8.97772
420.166	50.7861
423.541	14.4752
426.916	26.9487
430.291	2.45636
433.665	17.3144
437.04	21.6286
440.415	26.218
443.79	1.68396
447.165	14.1194
450.539	10.5173
453.914	12.7606
457.289	9.86328
460.664	6.00629
464.039	1.85907
467.413	4.96082
470.788	9.76276
474.163	8.73993
477.538	22.38
480.913	22.9971
484.288	25.0639
487.662	72.4322
491.037	107.517
494.412	123.378
497.787	163.179
501.162	206.328
504.537	289.603
507.911	357.666
511.286	380.743
514.661	371.634
518.036	338.039
521.411	275.985
524.785	215.5
528.16	169.178
531.535	95.9874
534.91	95.7755
538.285	69.0468
541.659	50.3148
545.034	67.7135
548.409	79.3834
551.784	44.6495
555.159	63.3783
558.534	59.4741
561.908	86.9166
565.283	109.947
568.658	95.4628
572.033	119.91
575.408	88.701
578.783	99.0137
582.157	72.3882
585.532	47.811
588.907	42.2499
592.282	33.4628
595.657	19.3118
599.032	20.6408
602.406	4.25787
605.781	1.28278
609.156	23.08
612.531	2.08899
615.906	1.03699
619.28	19.6932
622.655	27.0391
626.03	30.0098
629.405	18.2639
632.78	6.93036
636.154	1.95435
639.529	16.5229
642.904	6.34814
646.279	16.373
649.654	18.093
653.029	26.8799
656.403	27.4634
659.778	19.5827
663.153	11.2342
666.528	20.5247
669.903	17.0971
673.278	29.2152
676.652	17.217
680.027	71.1762
683.402	76.8886
686.777	117.754
690.152	165.622
693.526	224.137
696.901	305.135
700.276	350.157
703.651	340.691
707.026	328.521
710.4	278.934
713.775	281.626
717.15	265.206
720.525	196.198
723.9	137.248
727.274	92.8192
730.649	101.9
734.024	70.4445
737.399	92.9789
740.774	89.5823
744.149	128.103
747.524	114.195
750.898	128.589
754.273	104.369
757.648	66.2387
761.023	23.446
764.398	30.6455
767.772	19.315
771.147	9.48682
774.522	9.47955
777.897	24.2402
781.272	9.73956
784.646	9.79724
788.021	27.9535
791.396	29.5118
794.771	12.9106
798.146	48.3131
801.521	81.4684
804.895	83.2694
808.27	135.284
811.645	210.691
815.02	242.334
818.395	329.778
821.769	343.12
825.144	308.011
828.519	248.868
831.894	186.125
835.269	139.649
838.644	77.3797
842.018	70.782
845.393	41.0615
848.768	50.2766
852.143	11.8691
855.518	21.7211
858.893	1.49329
862.267	2.36585
865.642	51.6437
869.017	25.0505
872.392	8.72199
875.766	30.5845
879.141	25.0098
882.516	15.9329
885.891	5.54907
889.266	9.31451
892.641	2.82129
896.015	15.3353
899.39	16.8598
902.765	3.8346
906.14	15.0718
909.515	16.4052
912.89	27.1108
916.264	12.2418
919.639	19.1666
923.014	30.7817
926.389	3.88098
929.764	23.7904
933.139	21.385
936.513	6.10474
939.888	12.4432
943.263	13.1925
946.638	14.3688
950.013	28.2592
953.387	3.1507
956.762	27.6512
960.137	16.0469
963.512	13.8128
966.887	1.56824
970.261	22.8745
973.636	8.97247
977.011	32.4312
980.386	7.08392
983.761	9.69366
987.136	9.63983
990.51	4.33435
993.885	0.558716
997.26	20.5862
1000.63	14.6036
1004.01	15.0964
1007.38	21.0517
1010.76	24.5748
1014.13	19.3777
1017.51	17.4162
1020.88	20.3972
1024.26	17.6443
1027.63	17.6442
1031.01	13.9943
1034.38	31.4078
1037.76	17.8852
1041.13	7.71899
1044.51	32.265
1047.88	36.1323
1051.26	15.6048
1054.63	26.3334
1058.01	25.8726
1061.38	30.8554
1064.76	17.7081
1068.13	19.8817
1071.51	14.5027
1074.88	22.9448
1078.26	56.0049
1081.63	1.92004
1085.01	17.1228
1088.38	30.4397
1091.76	20.7989
1095.13	8.73926
1098.51	31.9814
1101.88	54.5992
1105.25	26.056
1108.63	57.6369
1112	15.1864
1115.38	1.82446
1118.75	42.0866
1122.13	6.41962
1125.5	24.0045
1128.88	2.52087
1132.25	11.4978
1135.63	13.2092
1139	7.09625
1142.38	24.7987
1145.75	34.983
1149.13	24.0064
1152.5	10.4438
1155.88	17.601
1159.25	19.1627
1162.63	24.929
1166	25.399
1169.38	43.1072
1172.75	2.59821
1176.12	4.89716
1179.5	4.61694
1182.88	26.0944
1186.25	3.77838
1189.62	10.9377
1193	12.4529
1196.37	13.9955
1199.75	25.7541
1203.12	16.9197
1206.5	29.0554
1209.87	0.347839
1213.25	27.2737
1216.62	37.522
1220	47.2916
1223.37	15.7868
1226.75	43.134
1230.12	65.5465
1233.5	60.8993
1236.87	20.1527
1240.25	21.3502
1243.62	23.1434
1247	2.48334
1250.37	45.0857
1253.75	20.7703
1257.12	26.8444
1260.5	14.0895
1263.87	23.0682
1267.24	3.71478
1270.62	25.4352
1273.99	42.1258
1277.37	24.588
1280.74	44.3177
1284.12	43.8505
1287.49	34.7753
1290.87	12.9161
1294.24	49.2409
1297.62	24.0259
1300.99	18.9385
1304.37	14.8216
1307.74	5.50897
