Measurement: Raman, 532 nm, unoriented, Raman Data Processed
Mineral: Georgbarsanovite
Rruff sample: R070101
Ideal chemistry: Na_12_(Mn^2+^,Sr)_3_Ca_6_Fe^2+^_3_Zr^4+^_3_Nb^5+^Si_25_O_76_Cl_2_H_2_O
Locality: Petrelius Mountain, Khibiny Massif, Kola Peninsula, Russia
Source: Michael Scott
Description: Brown crystal fragment, co-type material
Raman shift (cm-1)	intensity
149.7	0
152.593	164.167
155.486	254.269
158.378	137.034
161.271	3.92688
164.164	32.8791
167.056	97.0161
169.949	208.108
172.842	313.23
175.734	321.237
178.627	486.633
181.52	581.886
184.412	881.407
187.305	1168.67
190.198	1344.09
193.091	1622.14
195.983	1797.11
198.876	2033.88
201.769	1911.64
204.661	1881.28
207.554	1757.55
210.447	1458.73
213.339	1212.54
216.232	959.189
219.125	760.801
222.018	702.521
224.91	346.853
227.803	419.652
230.696	301.045
233.588	223.32
236.481	118.361
239.374	27.2658
242.266	44.9092
245.159	46.8364
248.052	47.3108
250.945	2.80071
253.837	5.79356
256.73	92.4192
259.623	61.74
262.515	27.2764
265.408	228.188
268.301	332.513
271.193	544.529
274.086	810.234
276.979	795.004
279.872	849.541
282.764	937.264
285.657	1010.87
288.55	1046.09
291.442	1070.6
294.335	1110.25
297.228	1228.71
300.12	1292.29
303.013	1437.93
305.906	1534.43
308.798	1345.25
311.691	1221.15
314.584	892.065
317.477	547.455
320.369	425.296
323.262	461.203
326.155	497.119
329.047	753.994
331.94	828.918
334.833	1096.76
337.725	1111.04
340.618	1060.78
343.511	934.534
346.404	609.33
349.296	471.15
352.189	374.955
355.082	244.068
357.974	198.051
360.867	31.4751
363.76	148.216
366.652	12.7391
369.545	44.2462
372.438	83.9407
375.33	6.41586
378.223	40.9583
381.116	138.101
384.009	337.657
386.901	593.491
389.794	735.638
392.687	832.836
395.579	695.082
398.472	669.126
401.365	613.66
404.257	586.056
407.15	559.283
410.043	624.39
412.936	677.302
415.828	650.477
418.721	544.159
421.614	455.59
424.506	339.023
427.399	322.227
430.292	454.3
433.184	407.981
436.077	481.374
438.97	550.648
441.863	734.659
444.755	774.253
447.648	796.907
450.541	901.147
453.433	905.627
456.326	824.646
459.219	770.153
462.111	686.384
465.004	538.444
467.897	468.019
470.789	426.618
473.682	239.564
476.575	136.093
479.468	20.1788
482.36	7.0709
485.253	56.1933
488.146	42.9969
491.038	79.9597
493.931	62.6032
496.824	198.33
499.716	354.543
502.609	445.005
505.502	588.911
508.395	719.847
511.287	828.452
514.18	762.099
517.073	808.828
519.965	920.376
522.858	857.417
525.751	1000.75
528.644	1089.02
531.536	1228.13
534.429	1235.56
537.322	1425.07
540.214	1262.17
543.107	1165.15
546	1325.04
548.892	1461.71
551.785	1743.28
554.678	2252.16
557.57	2870.16
560.463	3241.44
563.356	3482.16
566.249	3761
569.141	3655.39
572.034	2639.57
574.927	1568.07
577.819	925.826
580.712	529.293
583.605	201.226
586.497	21.7851
589.39	1.19803
592.283	7.29347
595.176	5.52836
598.068	30.4792
600.961	135.011
603.854	419.321
606.746	615.796
609.639	805.416
612.532	1086.25
615.424	1136.29
618.317	1131.35
621.21	978.449
624.102	807.974
626.995	547.809
629.888	401.974
632.781	260.324
635.673	256.587
638.566	81.2665
641.459	70.9969
644.351	38.0819
647.244	3.70564
650.137	112.85
653.029	6.75305
655.922	37.2207
658.815	47.1619
661.708	49.644
664.6	41.3623
667.493	62.9493
670.386	9.62088
673.278	79.0743
676.171	284.24
679.064	358.725
681.956	546.634
684.849	812.9
687.742	1070.86
690.635	1248.82
693.527	1637.76
696.42	1920.62
699.313	2106.09
702.205	2237.43
705.098	2287.11
707.991	1785.24
710.883	1284.6
713.776	982.225
716.669	725.32
719.562	724.78
722.454	904.652
725.347	1082.11
728.24	1414.58
731.132	1879.69
734.025	2270.7
736.918	2611.06
739.81	2812.36
742.703	2877.49
745.596	2579.46
748.489	2342.85
751.381	2221.62
754.274	1920.92
757.167	1909.33
760.059	1692.56
762.952	1466.77
765.845	1341.14
768.737	1038.99
771.63	826.291
774.523	728.922
777.415	522.363
780.308	424.074
783.201	257.901
786.094	203.049
788.986	143.682
791.879	141.773
794.772	130.853
797.664	218.603
800.557	52.6138
803.45	81.3423
806.342	41.4017
809.235	62.2911
812.128	46.2696
815.02	45.4194
817.913	56.6761
820.806	40.7859
823.699	41.4914
826.591	3.78733
829.484	5.65594
832.377	48.1218
835.269	22.3783
838.162	34.8662
841.055	37.8543
843.947	29.1753
846.84	110.374
849.733	78.9347
852.626	10.0818
855.518	8.94768
858.411	81.7055
861.304	29.1032
864.196	72.5065
867.089	45.4184
869.982	132.203
872.875	119.532
875.767	186.813
878.66	169.838
881.553	224.775
884.445	308.14
887.338	354.507
890.231	606.298
893.123	879.411
896.016	1170.78
898.909	1272.01
901.802	1517.73
904.694	1443.43
907.587	1407.68
910.48	1343.89
913.372	1032.64
916.265	977.086
919.158	1060.88
922.05	1199.59
924.943	1745.8
927.836	2203.36
930.728	2801.52
933.621	3429.89
936.514	3723.22
939.407	3747.38
942.299	3337.89
945.192	2754.17
948.085	2372.75
950.977	1840.09
953.87	1292.56
956.763	1005.75
959.655	715.638
962.548	597.498
965.441	300.407
968.333	277.223
971.226	12.0679
974.119	257.188
977.012	39.429
979.904	68.0549
982.797	194.849
985.69	81.1145
988.582	88.6641
991.475	320.473
994.368	393.323
997.26	850.035
1000.15	975.099
1003.05	1103.61
1005.94	1112.23
1008.83	1081.69
1011.72	1369.02
1014.62	1551.24
1017.51	1872.54
1020.4	1996.84
1023.29	2255.12
1026.19	2397.42
1029.08	2321.87
1031.97	2156.46
1034.87	1797.14
1037.76	1286.64
1040.65	872.466
1043.54	404.961
1046.44	191.487
1049.33	152.846
1052.22	331.342
1055.11	321.458
1058.01	787.601
1060.9	1398.43
1063.79	1895.59
1066.68	2793.1
1069.58	3292.49
1072.47	3443.99
1075.36	3461.18
1078.26	3150.25
1081.15	2383.15
1084.04	1543.14
1086.93	1131.69
1089.83	503.624
1092.72	497.648
1095.61	391.029
1098.51	276.042
1101.4	176.347
1104.29	28.1215
1107.18	24.4052
1110.08	12.559
1112.97	35.8919
1115.86	94.5925
1118.75	23.6865
1121.65	0.322659
1124.54	51.1905
1127.43	5.0323
1130.33	2.85247
1133.22	83.427
1136.11	96.3552
1139	62.3187
1141.89	146.785
1144.79	190.737
1147.68	101.693
1150.57	146.898
1153.47	294.46
1156.36	133.325
1159.25	299.66
1162.14	339.826
1165.04	133.066
1167.93	232.215
1170.82	387.003
1173.71	179.762
1176.61	139.79
1179.5	267.134
1182.39	141.027
1185.29	210.975
1188.18	281.562
1191.07	247.593
1193.96	191.756
1196.86	244.352
1199.75	107.454
1202.64	251.979
1205.54	121.115
1208.43	108.056
1211.32	239.188
1214.21	93.1141
1217.11	15.0533
1220	124.952
1222.89	19.4195
1225.78	241.496
1228.68	110.362
1231.57	270.973
1234.46	26.4561
1237.35	70.389
1240.25	245.946
1243.14	83.3854
1246.03	167.685
1248.92	15.304
1251.82	68.95
1254.71	101.614
1257.6	179.709
1260.5	137.67
1263.39	146.125
1266.28	134.007
1269.17	132.805
1272.07	123.881
1274.96	27.2862
1277.85	173.101
1280.74	135.668
1283.64	205.32
1286.53	155.51
1289.42	64.8658
1292.32	32.5544
1295.21	166.02
1298.1	49.7135
1300.99	0.832572
