Measurement: Raman, 785 nm, unoriented, Raman Data Processed
Mineral: Georgbarsanovite
Rruff sample: R070101
Ideal chemistry: Na_12_(Mn^2+^,Sr)_3_Ca_6_Fe^2+^_3_Zr^4+^_3_Nb^5+^Si_25_O_76_Cl_2_H_2_O
Locality: Petrelius Mountain, Khibiny Massif, Kola Peninsula, Russia
Source: Michael Scott
Description: Brown crystal fragment, co-type material
Raman shift (cm-1)	intensity
162.29	0
165.183	20.7158
168.075	114.4
170.968	158.023
173.861	203.352
176.754	149.124
179.646	237.394
182.539	336.496
185.432	449.899
188.324	642.482
191.217	730.865
194.11	904.422
197.002	1033.25
199.895	1155.16
202.788	1140.08
205.68	1048.32
208.573	947.984
211.466	867.436
214.359	763.017
217.251	630.979
220.144	561.692
223.037	501.904
225.929	414.107
228.822	318.178
231.715	152.288
234.607	109.089
237.5	45.7648
240.393	36.8397
243.286	21.7763
246.178	26.326
249.071	18.0568
251.964	23.5597
254.856	65.6227
257.749	76.7116
260.642	108.392
263.534	222.817
266.427	258.713
269.32	265.071
272.213	381.711
275.105	373.131
277.998	352.01
280.891	321.781
283.783	229.806
286.676	218.909
289.569	285.51
292.462	191.178
295.354	112.32
298.247	220.334
301.14	110.907
304.032	206.986
306.925	213.389
309.818	142.926
312.71	140.659
315.603	11.9464
318.496	22.5851
321.389	47.839
324.281	67.0985
327.174	4.11
330.067	0.990265
332.959	122.374
335.852	150.625
338.745	136.773
341.637	125.649
344.53	141.533
347.423	255.346
350.315	159.589
353.208	173.227
356.101	178.42
358.994	46.6779
361.886	69.5808
364.779	51.3575
367.672	11.8621
370.564	65.3354
373.457	103.307
376.35	84.4958
379.243	154.655
382.135	203.773
385.028	206.899
387.921	359.036
390.813	451.586
393.706	426.238
396.599	349.676
399.491	285.693
402.384	280.023
405.277	231.868
408.17	245.186
411.062	138.564
413.955	181.386
416.848	140.61
419.74	87.4596
422.633	121.54
425.526	113.01
428.418	111.013
431.311	71.7545
434.204	34.9168
437.096	45.021
439.989	14.4481
442.882	7.13715
445.775	6.34011
448.667	24.1568
451.56	23.2243
454.453	1.03789
457.345	60.534
460.238	36.1955
463.131	30.9271
466.024	124.635
468.916	30.9446
471.809	10.4335
474.702	4.78281
477.594	1.5871
480.487	7.32668
483.38	20.9998
486.272	13.9675
489.165	44.7479
492.058	45.0405
494.95	115.952
497.843	38.6907
500.736	131.312
503.629	167.866
506.521	207.011
509.414	246.696
512.307	222.338
515.199	233.185
518.092	175.874
520.985	227.412
523.878	263.181
526.77	194.554
529.663	262.209
532.556	248.946
535.448	224.774
538.341	287.342
541.234	243.657
544.126	216.689
547.019	196.701
549.912	348.071
552.804	471.579
555.697	668.069
558.59	926.719
561.482	1150.39
564.375	1191.01
567.268	1398.49
570.161	1404.88
573.053	996.971
575.946	563.446
578.839	258.156
581.731	220.487
584.624	110.464
587.517	78.3351
590.409	30.2721
593.302	38.0559
596.195	62.4617
599.088	123.322
601.98	84.1231
604.873	212.516
607.766	296.82
610.658	420.257
613.551	529.971
616.444	545.449
619.337	479.141
622.229	395.214
625.122	326.414
628.015	219.708
630.907	218.732
633.8	47.315
636.693	7.0855
639.585	24.8064
642.478	9.84436
645.371	19.0119
648.264	8.99964
651.156	5.46405
654.049	2.16915
656.942	5.94918
659.834	10.2106
662.727	13.5905
665.62	15.0173
668.513	19.2482
671.405	19.4143
674.298	14.9429
677.191	55.488
680.083	149.25
682.976	242.796
685.869	398.908
688.761	383.908
691.654	538.872
694.547	600.309
697.439	755.574
700.332	833.804
703.225	904.027
706.118	831.422
709.01	681.717
711.903	523.096
714.796	342.645
717.688	303.4
720.581	230.967
723.474	206.41
726.366	202.458
729.259	302.791
732.152	404.125
735.045	460.733
737.937	646.348
740.83	652.874
743.723	623.605
746.615	517.465
749.508	528.29
752.401	450.552
755.293	371.189
758.186	313.273
761.079	276.52
763.972	277.872
766.864	197.789
769.757	179.676
772.65	183.72
775.542	148.44
778.435	82.1242
781.328	76.7512
784.221	121.709
787.113	78.3734
790.006	81.21
792.899	12.8397
795.791	22.1576
798.684	5.16165
801.577	20.7741
804.469	5.30823
807.362	14.4749
810.255	8.87168
813.148	20.9451
816.04	2.27014
818.933	19.0081
821.826	14.5018
824.718	14.917
827.611	27.5582
830.504	50.364
833.396	4.74456
836.289	46.4419
839.182	4.01617
842.074	32.1276
844.967	21.5182
847.86	36.5931
850.753	24.8914
853.645	37.1276
856.538	13.6552
859.431	21.329
862.323	71.1686
865.216	7.46018
868.109	15.195
871.001	6.52129
873.894	1.91139
876.787	10.1204
879.68	14.0251
882.572	19.3933
885.465	7.00497
888.358	60.8972
891.25	61.3754
894.143	123.945
897.036	113.145
899.928	134.134
902.821	120.008
905.714	115.276
908.607	111.205
911.499	104.991
914.392	152.812
917.285	78.3941
920.177	50.8872
923.07	105.422
925.963	189.141
928.856	287.797
931.748	367.213
934.641	425.946
937.534	482.873
940.426	404.58
943.319	391.255
946.212	375.057
949.104	271.273
951.997	126.326
954.89	84.2654
957.783	14.6149
960.675	15.3484
963.568	21.6367
966.461	30.2732
969.353	4.75545
972.246	21.886
975.139	19.8675
978.031	17.5123
980.924	32.0926
983.817	0.286636
986.71	34.1004
989.602	22.0969
992.495	115.582
995.388	231.527
998.28	286.603
1001.17	333.813
1004.07	312.262
1006.96	328.896
1009.85	300.385
1012.74	298.787
1015.64	313.877
1018.53	362.915
1021.42	385.736
1024.32	445.548
1027.21	415.835
1030.1	502.853
1032.99	447.325
1035.88	352.48
1038.78	303.23
1041.67	242.858
1044.56	236.351
1047.46	197.17
1050.35	211.782
1053.24	320.247
1056.13	488.306
1059.03	645.923
1061.92	775.264
1064.81	985.95
1067.7	1164.43
1070.6	1287.92
1073.49	1406.73
1076.38	1342.51
1079.28	1232.77
1082.17	1038.09
1085.06	794.471
1087.95	739.919
1090.85	591.95
1093.74	507.45
1096.63	390.473
1099.53	218.409
1102.42	154.182
1105.31	38.9294
1108.2	25.1644
1111.1	9.37778
1113.99	37.6399
1116.88	118.728
1119.77	202.688
1122.67	192.243
1125.56	209.584
1128.45	128.869
1131.34	32.823
