Measurement: Raman, 780 nm, unoriented, Raman Data Processed
Mineral: Gerdtremmelite
Rruff sample: R100224
Ideal chemistry: Zn^2+^Al_2_As^5+^O_4_(OH)_5_
Locality: Tsumeb, Namibia
Source: William Pinch
Description: Spherical aggregrates of tabular brown crystals with white pyrophyllite on scorodite. This is a portion of the type sample.
Raman shift (cm-1)	intensity
185.582	0
188.475	2.09838
191.368	5.25711
194.261	4.30199
197.153	3.79412
200.046	4.21184
202.939	5.14155
205.831	4.23605
208.724	0.047665
211.617	4.00032
214.509	4.72611
217.402	6.53929
220.295	6.16493
223.188	9.9335
226.08	5.47285
228.973	8.29858
231.866	8.21029
234.758	8.94995
237.651	8.2239
240.544	10.2751
243.436	5.65344
246.329	3.88601
249.222	0.543976
252.114	3.02247
255.007	3.65861
257.9	4.47595
260.793	4.1357
263.685	4.4043
266.578	1.79459
269.471	1.74725
272.363	2.39941
275.256	1.45843
278.149	2.22045
281.041	4.07126
283.934	2.3433
286.827	0.262016
289.719	1.84097
292.612	4.51207
295.505	4.00788
298.398	4.08688
301.29	8.98789
304.183	10.5745
307.076	8.57641
309.968	7.59262
312.861	10.9592
315.754	9.0024
318.647	11.478
321.539	16.6868
324.432	16.081
327.325	15.5622
330.217	14.3323
333.11	10.8088
336.003	10.5496
338.895	6.5172
341.788	10.3122
344.681	11.2289
347.574	8.19904
350.466	5.13522
353.359	7.29049
356.252	6.32932
359.144	6.34188
362.037	4.01638
364.93	4.93684
367.822	2.42134
370.715	0.91161
373.608	3.95847
376.5	2.48043
379.393	0.199543
382.286	1.63285
385.179	1.19873
388.071	1.25634
390.964	0.011497
393.857	0.521629
396.749	0.246704
399.642	4.23522
402.535	2.69794
405.427	3.21818
408.32	4.11195
411.213	4.62484
414.106	4.67069
416.998	7.10334
419.891	7.62424
422.784	4.28582
425.676	7.93713
428.569	4.34232
431.462	1.88264
434.354	2.59387
437.247	3.90374
440.14	3.53297
443.033	7.56183
445.925	10.8168
448.818	2.26818
451.711	6.30818
454.603	5.96122
457.496	5.12707
460.389	10.8712
463.281	10.0677
466.174	7.06735
469.067	12.6759
471.959	9.15413
474.852	10.4858
477.745	10.3341
480.638	6.90455
483.53	10.7543
486.423	12.5692
489.316	12.0088
492.208	11.4597
495.101	11.7995
497.994	10.6862
500.887	12.625
503.779	13.9695
506.672	11.2789
509.565	11.623
512.457	11.1166
515.35	5.58561
518.243	9.0654
521.135	5.81375
524.028	4.91209
526.921	5.45014
529.813	6.44681
532.706	0.414337
535.599	2.45952
538.492	4.52511
541.384	2.20205
544.277	3.14352
547.17	1.51801
550.062	1.53002
552.955	0.140148
555.848	0.326004
558.74	2.40212
561.633	5.19132
564.526	4.41957
567.418	1.21758
570.311	3.80718
573.204	7.39686
576.097	1.87515
578.989	3.45405
581.882	8.8831
584.775	0.570751
587.667	5.51097
590.56	7.28937
593.453	5.92512
596.346	4.54505
599.238	8.26351
602.131	4.90778
605.024	4.91523
607.916	5.2228
610.809	2.31202
613.702	2.479
616.594	6.38251
619.487	5.42937
622.38	7.39233
625.273	1.92212
628.165	2.70723
631.058	2.83934
633.951	4.3911
636.843	3.99184
639.736	3.53568
642.629	1.5045
645.521	0.570772
648.414	1.09726
651.307	4.9135
654.199	2.31315
657.092	2.95684
659.985	1.88427
662.878	2.45489
665.77	3.39361
668.663	8.35593
671.556	3.53044
674.448	5.18398
677.341	0.071133
680.234	3.71764
683.126	3.85024
686.019	3.84473
688.912	3.64629
691.805	4.51758
694.697	3.44339
697.59	3.71414
700.483	1.68445
703.375	5.30311
706.268	7.35255
709.161	2.51269
712.053	5.47978
714.946	2.97691
717.839	2.99924
720.731	3.7149
723.624	6.42702
726.517	1.33117
729.41	2.17493
732.302	0.194233
735.195	0.010574
738.088	4.2636
740.98	0.122431
743.873	3.26774
746.766	0.420586
749.659	0.054741
752.551	0.706043
755.444	2.68455
758.337	0.22884
761.229	0.333088
764.122	1.25324
767.015	2.43296
769.907	1.66893
772.8	4.40735
775.693	2.08191
778.586	2.17484
781.478	5.71678
784.371	2.4306
787.264	0.050095
790.156	6.32104
793.049	4.03604
795.942	3.71965
798.834	6.68235
801.727	6.8386
804.62	6.89875
807.513	3.39857
810.405	8.67579
813.298	4.74433
816.191	6.34467
819.083	6.8406
821.976	2.46554
824.869	3.71984
827.761	6.57928
830.654	8.18822
833.547	4.68909
836.439	6.5224
839.332	9.682
842.225	15.6304
845.118	13.9893
848.01	21.403
850.903	24.3295
853.796	32.347
856.688	34.3286
859.581	43.2433
862.474	43.83
865.366	48.3181
868.259	45.9191
871.152	43.9285
874.044	38.5903
876.937	28.5238
879.83	26.376
882.723	20.9453
885.615	10.9631
888.508	15.1575
891.401	7.98355
894.293	8.66461
897.186	5.49205
900.079	5.66145
902.971	5.8857
905.864	0.313438
908.757	1.91479
911.65	4.58034
914.542	2.1077
917.435	0.662235
920.328	4.55643
923.22	0.38364
926.113	2.69412
929.006	3.54198
931.899	0.459984
934.791	2.96893
937.684	3.4052
940.577	2.3534
943.469	0.674187
946.362	5.0803
949.255	2.14672
952.147	3.27376
955.04	0.971008
957.933	5.64023
960.825	3.68691
963.718	4.80833
966.611	5.00809
969.504	3.51767
972.396	3.82447
975.289	1.86656
978.182	5.31494
981.074	1.35825
983.967	4.62489
986.86	4.86724
989.752	2.58214
992.645	2.79603
995.538	3.40355
998.431	5.31958
1001.32	2.0833
1004.22	2.78379
1007.11	5.33653
1010	1.43463
1012.89	6.02494
1015.79	2.8129
1018.68	4.20777
1021.57	5.89581
1024.46	7.84621
1027.36	3.82006
1030.25	6.82668
1033.14	0.108257
1036.04	4.23444
1038.93	2.37962
1041.82	5.57179
1044.71	3.93552
1047.61	4.97844
1050.5	0.668222
1053.39	5.27111
1056.29	5.7674
1059.18	6.90039
1062.07	4.05416
1064.96	6.70101
1067.86	0.487452
1070.75	0.55739
1073.64	0.554865
1076.53	5.77833
1079.43	6.25227
1082.32	0.27034
1085.21	2.34971
1088.1	4.27335
1091	7.50314
1093.89	4.05811
1096.78	4.40637
1099.67	4.8094
1102.57	3.21507
1105.46	7.00446
1108.35	3.18474
1111.25	0.246424
1114.14	4.61813
1117.03	3.66991
1119.92	3.39546
1122.82	2.65724
1125.71	0.961189
1128.6	4.5585
1131.49	3.58403
1134.39	1.09785
1137.28	3.49373
1140.17	3.83872
1143.07	1.02508
1145.96	2.01503
1148.85	1.7389
1151.74	2.51248
1154.64	0.203136
1157.53	0.807617
1160.42	2.08612
1163.31	2.99115
1166.21	3.48487
1169.1	5.17729
1171.99	1.57543
1174.88	4.61438
1177.78	3.44701
1180.67	4.67827
1183.56	1.97345
1186.46	3.33826
1189.35	1.05027
1192.24	2.38075
1195.13	3.61037
1198.03	3.8288
1200.92	4.72558
1203.81	2.90726
1206.7	4.86136
1209.6	3.31135
1212.49	5.53611
1215.38	3.54721
1218.28	3.45442
1221.17	5.72384
1224.06	1.32719
1226.95	5.00142
1229.85	4.42641
1232.74	0.723652
1235.63	1.62716
1238.53	1.37549
1241.42	4.56475
1244.31	4.47756
1247.2	2.95538
1250.1	4.31363
1252.99	1.44339
1255.88	3.50831
1258.77	4.30445
1261.67	3.38362
1264.56	7.70135
1267.45	5.80249
1270.34	6.85852
1273.24	1.71556
1276.13	2.51088
1279.02	4.40862
1281.91	5.92121
1284.81	0
