Measurement: Raman, 514 nm, unoriented, Raman Data Processed
Mineral: Germanite
Rruff sample: R050439
Ideal chemistry: Cu^1+^_8_Cu^2+^_5_Fe^3+^_2_Ge^4+^_2_S^2-^_16_
Locality: Tsumeb mine, Tsumeb, Otavi District, Oshikoto, Namibia
Source: University of Arizona Mineral Museum
Description: Black with purple hints, massive
Measured chemistry: (Cu_11.61_Fe^2+^_0.87_Zn_0.52_)_Σ=13_Fe_2.00_(Ge_1.71_As_0.29_)_Σ=2_S_16.00_ ; = dark-gray phase. (Cu_10.59_Zn_0.41_)_Σ=11_Fe_4.00_(Ge_1.46_As_0.54_)_Σ=2_S_16.00_ = lighter-gray phase. Lightest phase is PbS.
Raman shift (cm-1)	intensity
154.48	0
158.63	44.267
162.779	235.259
166.926	186.498
171.07	131.586
175.213	88.246
179.354	21.43
183.493	28.562
187.63	69.449
191.765	200.738
195.898	233.746
200.029	551.61
204.158	723.455
208.285	1279.29
212.41	863.296
216.533	832.396
220.654	517.519
224.773	198.747
228.891	133.379
233.006	32.968
237.119	29.184
241.231	4.868
245.34	52.985
249.448	111.742
253.553	174.354
257.657	359.818
261.758	530.119
265.858	714.255
269.956	692.239
274.052	816.079
278.146	850.734
282.237	746.014
286.327	646.122
290.416	590.918
294.502	487.252
298.586	349.78
302.668	244.844
306.749	270.797
310.827	191.581
314.903	119.571
318.978	109.41
323.051	124.454
327.121	250.102
331.19	237.055
335.257	251.213
339.322	519.984
343.385	619.291
347.446	709.288
351.505	751.115
355.563	574.025
359.618	367.817
363.672	293.016
367.723	226.026
371.773	331.87
375.821	296.646
379.866	206.534
383.91	230.281
387.952	270.44
391.992	244.153
396.031	254.226
400.067	222.835
404.101	246.887
408.134	289.836
412.165	352.884
416.193	139.83
420.22	58.546
424.245	64.501
428.268	133.172
432.289	72.74
436.309	100.203
440.326	9.448
444.342	23.788
448.355	36.872
452.367	15.191
456.377	38.536
460.385	18.061
464.391	72.313
468.395	35.305
472.398	18.013
476.398	53.534
480.397	37.852
484.394	52.124
488.389	101.779
492.382	65.755
496.373	97.079
500.362	84.851
504.349	82.621
508.335	112.043
512.319	84.01
516.3	142.297
520.28	142.667
524.259	138.274
528.235	136.403
532.209	63.666
536.182	107.566
540.152	135.862
544.121	65.597
548.088	104.176
552.053	123.706
556.017	140.027
559.978	185.787
563.938	99.083
567.895	217.854
571.851	219.571
575.805	236.18
579.758	266.365
583.708	286.385
587.657	302.887
591.603	342.086
595.548	256.95
599.491	309.458
603.432	257.18
607.372	258.319
611.309	186.918
615.245	204.229
619.179	231.686
623.111	211.81
627.041	134.294
630.97	190.244
634.896	226.919
638.821	162.755
642.744	199.292
646.665	204.916
650.584	228.108
654.502	193.025
658.418	207.796
662.331	167.952
666.244	111.453
670.154	147.083
674.062	137.067
677.969	135.696
681.874	90.354
685.777	181.131
689.678	156.454
693.577	0.147
697.475	70.402
701.371	103.445
705.265	74.31
709.157	54.689
713.047	143.329
716.936	165.961
720.823	45.935
724.708	14.753
728.591	28.441
732.472	96.419
736.352	56.416
740.23	79.295
744.106	39.694
747.98	105.266
751.853	49.797
755.723	88.135
759.592	65.62
763.459	61.447
767.325	92.751
771.188	51.731
775.05	37.673
778.91	53.547
782.768	23.506
786.625	71.364
790.479	96.126
794.332	48.766
798.183	8.545
802.033	30.881
805.88	6.875
809.726	52.248
813.57	40.293
817.413	22.264
821.253	82.156
825.092	14.978
828.929	57.732
832.764	51.391
836.598	39.091
840.429	49.37
844.259	28.687
848.088	32.958
851.914	58.501
855.739	95.51
859.562	3.215
863.383	60.89
867.203	20.787
871.02	44.858
874.836	74.724
878.65	46.999
882.463	24.369
886.274	10.838
890.083	7.171
893.89	40.423
897.695	24.562
901.499	4.223
905.301	16.178
909.102	52.22
912.9	96.828
916.697	56.775
920.492	54.715
924.285	55.708
928.077	48.969
931.867	123.792
935.655	84.504
939.442	37.135
943.226	41.812
947.009	12.485
950.791	129.174
954.57	72.164
958.348	64.075
962.124	74.133
965.899	71.46
969.671	41.656
973.442	79.992
977.211	98.358
980.979	161.966
984.745	67.57
988.509	19.154
992.271	179.656
996.032	115.45
999.791	141.658
1003.55	131.604
1007.3	162.512
1011.06	171.955
1014.81	156.221
1018.56	153.785
1022.31	134.652
1026.06	120.26
1029.8	228.838
1033.55	213.182
1037.29	163.037
1041.03	164.398
1044.77	161.789
1048.5	157.724
1052.24	197.097
1055.97	140.124
1059.7	147.86
1063.43	182.964
1067.16	170.957
1070.89	199.133
1074.61	171.98
1078.34	110.708
1082.06	223.833
1085.78	238.502
1089.5	121.809
1093.21	174.611
1096.93	120.375
1100.64	117.079
1104.35	150.996
1108.06	103.732
1111.77	120.374
1115.48	97.096
1119.18	82.857
1122.89	97.906
1126.59	58.607
1130.29	101.162
1133.99	89.045
1137.68	43.824
1141.38	48.234
1145.07	38.421
1148.76	27.438
1152.45	7.737
1156.14	6.857
1159.83	40.95
1163.51	62.753
1167.19	41.591
1170.88	41.364
1174.56	10.812
1178.23	36.17
1181.91	11.832
1185.59	52.594
1189.26	58.965
1192.93	59.722
1196.6	132.245
1200.27	39.585
1203.94	44.225
1207.6	120.786
1211.27	19.492
1214.93	34.008
1218.59	100.722
1222.25	115.936
1225.9	135.147
1229.56	126.18
1233.21	140.25
1236.86	132.755
1240.51	45.047
1244.16	43.912
1247.81	73.799
1251.45	87.988
1255.1	133.619
1258.74	5.891
1262.38	126.232
1266.02	98.45
1269.66	45.209
1273.29	155.924
1276.93	21.25
1280.56	76.308
1284.19	26.984
1287.82	89.438
1291.45	122.52
1295.07	151.139
1298.7	29.441
1302.32	20.641
1305.94	123.924
1309.56	115.415
1313.18	109.45
1316.8	38.026
1320.41	19.21
1324.02	24.792
1327.63	3.68
1331.24	103.027
1334.85	87.98
1338.46	41.518
1342.06	114.371
1345.67	48.516
1349.27	31.532
1352.87	71.844
1356.47	135.677
1360.07	146.015
1363.66	21.77
1367.25	168.758
1370.85	139.338
1374.44	20.722
1378.03	45.715
1381.61	147.071
1385.2	49.299
1388.78	4.711
1392.37	73.566
1395.95	159.458
1399.53	138.314
1403.1	103.079
1406.68	34.592
1410.26	8.97
1413.83	85.428
1417.4	70.339
1420.97	167.925
1424.54	52.88
1428.1	5.641
1431.67	163.973
1435.23	131.656
1438.8	38.946
1442.36	56.644
1445.91	162.109
1449.47	147.965
1453.03	74.635
1456.58	144.467
1460.13	36.412
1463.68	36.63
1467.23	20.881
1470.78	7.574
1474.33	109.595
1477.87	54.856
1481.42	81.359
1484.96	86.587
1488.5	53.757
1492.04	51.049
1495.57	73.062
1499.11	94.22
1502.64	33.304
1506.17	23.612
1509.71	72.195
1513.23	74.334
1516.76	77.793
