Measurement: Raman, 532 nm, unoriented, Raman Data Processed
Mineral: Gersdorffite-P213
Rruff sample: R070304
Ideal chemistry: Ni^3+^(AsS)^3-^
Locality: Aït Ahmane, Bou Azzer, Anti-Atlas Mts, Morocco
Source: Michael Scott
Description: Steel gray metallic massive, this sample used by Bayliss to create ICDD data. Structure refined to determine space group.
Measured chemistry: (Ni_0.99_Co_0.01_)_Σ=1_As_1.00_S_1.00_ ; trace amounts of Fe
Raman shift (cm-1)	intensity
133.27	0
136.645	55.0425
140.019	95.966
143.394	0.352509
146.769	30.7243
150.144	6.80751
153.519	52.1604
156.894	19.611
160.268	5.19542
163.643	60.9096
167.018	1.72644
170.393	34.8563
173.768	1.31488
177.143	13.1883
180.517	4.71678
183.892	30.4588
187.267	17.1305
190.642	27.7417
194.017	38.8864
197.391	37.2029
200.766	70.8681
204.141	98.8015
207.516	129.431
210.891	181.347
214.266	269.321
217.64	380.436
221.015	289.951
224.39	182.296
227.765	97.3683
231.14	50.742
234.514	44.8807
237.889	51.6284
241.264	21.2891
244.639	46.8471
248.014	29.45
251.388	42.0111
254.763	7.65321
258.138	9.56595
261.513	19.0379
264.888	0.781952
268.263	9.10674
271.637	10.5214
275.012	1.97429
278.387	11.5401
281.762	32.531
285.137	37.9073
288.512	34.1515
291.886	24.5046
295.261	56.8056
298.636	35.5353
302.011	47.6744
305.386	37.6728
308.76	67.6387
312.135	70.4134
315.51	97.0976
318.885	134.19
322.26	158.486
325.635	192.867
329.009	139.6
332.384	86.059
335.759	98.2026
339.134	90.3718
342.509	91.64
345.883	82.5508
349.258	63.078
352.633	68.4319
356.008	24.2137
359.383	21.8036
362.757	13.9701
366.132	23.6496
369.507	6.94395
372.882	11.0982
376.257	18.8764
379.632	4.76476
383.006	26.21
386.381	8.99944
389.756	37.0685
393.131	34.3596
396.506	17.0263
399.88	21.8907
403.255	18.4012
406.63	4.21106
410.005	36.2518
413.38	18.4193
416.755	6.6875
420.129	13.9787
423.504	23.6159
426.879	20.7819
430.254	46.0289
433.629	45.5512
437.003	9.9368
440.378	39.1298
443.753	26.2236
447.128	36.5257
450.503	21.4556
453.878	18.2214
457.252	22.2513
460.627	22.2102
464.002	13.5098
467.377	19.8376
470.752	15.2201
474.127	17.6945
477.501	24.3821
480.876	15.1763
484.251	32.5521
487.626	4.87935
491.001	5.16655
494.375	27.7071
497.75	3.77574
501.125	21.274
504.5	15.4783
507.875	22.3669
511.25	5.39235
514.624	20.4331
517.999	0.708466
521.374	10.0924
524.749	24.8661
528.124	19.9235
531.498	28.449
534.873	48.5545
538.248	29.427
541.623	3.79201
544.998	14.6245
548.372	4.18741
551.747	29.0238
555.122	6.72972
558.497	25.6496
561.872	45.0004
565.247	10.6179
568.621	31.422
571.996	20.9176
575.371	0.921463
578.746	15.8596
582.121	1.23267
585.495	31.4716
588.87	16.4073
592.245	34.1887
595.62	8.03452
598.995	2.82508
602.37	12.7572
605.744	30.3222
609.119	50.4314
612.494	26.3977
615.869	4.37875
619.244	27.0161
622.619	20.7924
625.993	6.16235
629.368	31.2536
632.743	42.3817
636.118	33.4814
639.493	17.6172
642.867	14.4694
646.242	15.9185
649.617	9.26851
652.992	19.9837
656.367	20.1533
659.741	34.9387
663.116	51.8702
666.491	36.1579
669.866	36.804
673.241	1.90524
676.616	28.3468
679.99	31.7741
683.365	21.6924
686.74	13.0469
690.115	26.4455
693.49	51.5908
696.865	26.676
700.239	25.5428
703.614	34.4277
706.989	30.8457
710.364	24.3898
713.739	13.9864
717.113	21.942
720.488	39.2396
723.863	27.8251
727.238	39.4928
730.613	26.4286
733.987	14.1213
737.362	10.3287
740.737	6.77025
744.112	13.9666
747.487	36.4672
750.862	5.10368
754.236	17.9524
757.611	22.4653
760.986	6.96413
764.361	44.9359
767.736	16.3266
771.111	9.57793
774.485	28.4218
777.86	14.062
781.235	16.847
784.61	11.6766
787.985	17.1438
791.359	22.6976
794.734	27.7158
798.109	2.88252
801.484	20.228
804.859	14.1941
808.234	33.6739
811.608	11.9425
814.983	12.6417
818.358	3.5045
821.733	16.2417
825.108	8.75374
828.482	10.1001
831.857	12.5627
835.232	21.4961
838.607	9.69742
841.982	9.48448
845.356	2.73489
848.731	42.2772
852.106	18.3433
855.481	27.1172
858.856	50.2446
862.231	18.5855
865.605	37.7608
868.98	45.7483
872.355	20.4223
875.73	24.6558
879.105	11.073
882.48	21.1337
885.854	48.6531
889.229	6.08825
892.604	25.0348
895.979	24.5039
899.354	19.57
902.729	3.11606
906.103	39.7471
909.478	26.7486
912.853	3.28648
916.228	41.7531
919.602	10.59
922.977	6.78864
926.352	16.3937
929.727	16.8887
933.102	48.1782
936.477	44.5065
939.851	34.4228
943.226	1.63306
946.601	31.5891
949.976	7.67792
953.351	33.4232
956.726	1.24026
960.1	30.4021
963.475	10.462
966.85	18.188
970.225	14.84
973.6	19.2347
976.974	39.4575
980.349	23.5541
983.724	25.3618
987.099	24.4163
990.474	18.473
993.848	14.2892
997.223	18.697
1000.6	25.3843
1003.97	23.6977
1007.35	5.73473
1010.72	22.0019
1014.1	38.4723
1017.47	34.1318
1020.85	37.5889
1024.22	25.5468
1027.6	26.2636
1030.97	26.752
1034.35	34.7581
1037.72	19.9935
1041.1	37.4645
1044.47	28.0802
1047.85	0.894104
1051.22	33.0707
1054.6	37.2653
1057.97	12.0069
1061.35	29.9147
1064.72	17.1186
1068.09	17.1238
1071.47	24.1683
1074.84	13.547
1078.22	17.9473
1081.59	17.7783
1084.97	37.6194
1088.34	27.8102
1091.72	22.682
1095.09	23.7003
1098.47	15.6215
1101.84	48.0011
1105.22	18.384
1108.59	37.0728
1111.97	10.7938
1115.34	6.07622
1118.72	22.5967
1122.09	30.9231
1125.47	41.7747
1128.84	20.4411
1132.22	11.0589
1135.59	14.9253
1138.97	15.685
1142.34	3.81771
1145.71	15.2432
1149.09	23.4483
1152.46	12.7589
1155.84	31.3944
1159.21	11.2728
1162.59	7.07927
1165.96	24.6919
1169.34	10.6578
1172.71	11.5071
1176.09	26.0499
1179.46	12.346
1182.84	14.659
1186.21	31.955
1189.59	20.2732
1192.96	16.2958
1196.34	10.5034
1199.71	23.525
1203.09	21.6983
1206.46	34.9641
1209.84	23.7428
1213.21	34.4716
1216.59	59.5862
1219.96	13.961
1223.34	7.4279
1226.71	11.4135
1230.09	24.9446
1233.46	9.03545
1236.84	20.9154
1240.21	30.0446
1243.59	59.7687
1246.96	30.2478
1250.34	26.0752
1253.71	34.9605
1257.08	21.0002
1260.46	11.0995
1263.83	5.5808
1267.21	29.4454
1270.58	13.0854
1273.96	36.7652
1277.33	11.3685
1280.71	4.87303
1284.08	19.8423
1287.46	45.8032
1290.83	9.97102
1294.21	1.85794
1297.58	39.557
1300.96	36.1126
1304.33	32.0411
1307.71	36.279
1311.08	22.8433
1314.46	0.026169
