Measurement: Raman, 532 nm, unoriented, Raman Data Processed
Mineral: Gerstleyite
Rruff sample: R060255
Ideal chemistry: Na_2_(Sb,As)_8_S_13_2H_2_O
Locality: Western mine, Boron, Kern County, California, USA
Source: Michael Scott
Description: Deep red granular or platy aggregates
Measured chemistry: Na_1.13_(Sb_8.23_Fe_0.29_As_0.18_Cu_0.01_)_Σ=8.71_S_13_(OH)·3.75H_2_O
Raman shift (cm-1)	intensity
177.831	0
180.724	16.0742
183.616	33.676
186.509	33.4194
189.402	30.1846
192.294	10.4246
195.187	12.5874
198.08	19.9753
200.972	0.234863
203.865	3.43262
206.758	8.65625
209.651	30.3894
212.543	6.4458
215.436	14.1519
218.329	34.1089
221.221	68.4329
224.114	123.956
227.007	161.661
229.899	214.426
232.792	243.886
235.685	261.654
238.578	258.629
241.47	264.735
244.363	247.906
247.256	240.395
250.148	253.515
253.041	270.654
255.934	319.564
258.827	356.57
261.719	405.673
264.612	425.23
267.505	502.757
270.397	550.476
273.29	632.469
276.183	687.745
279.075	810.198
281.968	950.918
284.861	1062.05
287.753	1028.97
290.646	933.311
293.539	847.297
296.432	736.998
299.324	646.296
302.217	579.75
305.11	522.103
308.002	482.985
310.895	467.616
313.788	446.97
316.68	427.749
319.573	453.039
322.466	476.591
325.359	488.019
328.251	481.041
331.144	462.519
334.037	478.06
336.929	456.637
339.822	396.154
342.715	296.87
345.608	196.015
348.5	122.888
351.393	71.2751
354.286	35.7909
357.178	16.5463
360.071	5.43457
362.964	9.9574
365.856	15.9667
368.749	21.6049
371.642	19.616
374.534	11.813
377.427	9.67554
380.32	5.77954
383.213	11.1034
386.105	21.2887
388.998	18.0756
391.891	17.4994
394.783	1.83325
397.676	7.37305
400.569	5.00952
403.462	9.18567
406.354	9.44238
409.247	35.9949
412.14	25.3917
415.032	33.0565
417.925	30.5845
420.818	32.233
423.71	53.0552
426.603	63.7263
429.496	60.9105
432.389	49.7867
435.281	60.5981
438.174	73.7329
441.067	58.035
443.959	65.9591
446.852	61.5123
449.745	51.3127
452.637	53.2469
455.53	31.3307
458.423	49.7225
461.315	36.9836
464.208	39.426
467.101	35.7806
469.994	42.5793
472.886	40.9324
475.779	43.0238
478.672	27.3304
481.564	21.8068
484.457	33.1676
487.35	44.7478
490.243	27.376
493.135	12.103
496.028	34.962
498.921	18.2025
501.813	6.42517
504.706	4.5083
507.599	18.4316
510.491	0.432373
513.384	16.7017
516.277	12.5493
519.169	19.1976
522.062	6.77051
524.955	12.8447
527.848	19.8281
530.74	21.1907
533.633	15.6821
536.526	20.7578
539.418	13.4431
542.311	1.32752
545.204	1.85498
548.096	13.3727
550.989	10.1943
553.882	4.43469
556.775	3.23706
559.667	19.1956
562.56	1.01392
565.453	1.48645
568.345	19.0888
571.238	19.2288
574.131	12.8762
577.024	6.24646
579.916	26.1619
582.809	18.2427
585.702	27.2014
588.594	2.60303
591.487	14.9343
594.38	20.647
597.272	8.9408
600.165	12.3937
603.058	21.8624
605.95	10.6349
608.843	15.1675
611.736	15.6759
614.629	23.6945
617.521	24.2941
620.414	21.0178
623.307	17.6316
626.199	5.08032
629.092	29.4696
631.985	13.2135
634.877	13.9528
637.77	15.5286
640.663	10.1639
643.556	18.5758
646.448	5.0719
649.341	8.63013
652.234	14.6426
655.126	16.5699
658.019	7.38306
660.912	19.1874
663.804	4.99304
666.697	15.5465
669.59	3.87353
672.482	1.93286
675.375	11.4283
678.268	7.37854
681.161	9.64783
684.053	12.6951
686.946	1.85852
689.839	24.6877
692.731	29.0432
695.624	1.78088
698.517	5.37109
701.409	11.0276
704.302	17.2946
707.195	7.63025
710.088	19.8879
712.98	33.6432
715.873	25.899
718.766	0.835449
721.658	4.99622
724.551	6.86218
727.444	19.4716
730.337	7.95252
733.229	3.76282
736.122	26.9722
739.015	21.5972
741.907	6.38391
744.8	17.0422
747.693	16.3426
750.585	17.736
753.478	15.5104
756.371	23.6513
759.264	18.4294
762.156	9.09644
765.049	10.7634
767.942	16.682
770.834	7.12073
773.727	4.0658
776.62	15.8908
779.513	2.78626
782.405	1.50244
785.298	4.79614
788.191	26.3146
791.083	21.9091
793.976	11.5066
796.869	4.8772
799.761	9.58105
802.654	13.535
805.547	30.1135
808.439	15.3243
811.332	19.792
814.225	14.9155
817.118	24.4219
820.01	16.8138
822.903	20.9534
825.796	23.6094
828.688	9.70007
831.581	14.9486
834.474	13.7443
837.366	8.95801
840.259	5.69373
843.152	6.74414
846.045	21.2715
848.937	21.6063
851.83	11.6298
854.723	16.6937
857.615	9.25073
860.508	12.215
863.401	16.8411
866.293	10.2732
869.186	5.42761
872.079	7.06934
874.972	14.5895
877.864	24.2752
880.757	10.547
883.65	18.3096
886.542	8.12366
889.435	21.6854
892.328	14.6009
895.221	14.1555
898.113	8.04663
901.006	8.45483
903.899	24.656
906.791	7.00305
909.684	22.5692
912.577	8.63721
915.469	26.7484
918.362	15.6
921.255	2.08667
924.148	19.1708
927.04	15.7643
929.933	13.1102
932.826	16.2142
935.718	1.38464
938.611	17.9437
941.504	20.9213
944.396	18.3796
947.289	13.7571
950.182	19.5598
953.074	7.04443
955.967	2.09644
958.86	3.92456
961.753	15.5415
964.645	0.435547
967.538	2.02112
970.431	19.1612
973.323	3.80457
976.216	4.29236
979.109	15.2492
982.001	25.5408
984.894	20.8987
987.787	30.2308
990.68	38.4457
993.572	37.206
996.465	35.2068
999.358	19.0837
1002.25	13.5991
1005.14	6.23682
1008.04	16.1119
1010.93	4.70557
1013.82	18.797
1016.71	7.47424
1019.61	14.1395
1022.5	18.442
1025.39	15.7087
1028.29	24.5398
1031.18	4.73584
1034.07	12.8486
1036.96	8.36487
1039.86	17.0008
1042.75	17.3686
1045.64	14.8917
1048.53	17.8096
1051.43	17.0039
1054.32	6.62537
1057.21	23.7485
1060.1	16.4092
1063	10.0199
1065.89	13.2728
1068.78	14.7308
1071.67	9.05774
1074.57	10.2439
1077.46	1.0542
1080.35	23.6621
1083.25	12.6554
1086.14	6.9696
1089.03	9.53015
1091.92	8.40259
1094.82	11.3744
1097.71	17.7726
1100.6	17.6389
1103.49	9.92798
1106.39	15.9492
1109.28	22.7502
1112.17	12.0878
1115.07	17.5742
1117.96	24.3214
1120.85	17.9875
1123.74	0.944092
1126.64	15.104
1129.53	24.1893
1132.42	4.18115
1135.32	10.2513
1138.21	16.7302
1141.1	20.0767
1143.99	5.82861
1146.88	16.4734
1149.78	12.804
1152.67	13.8895
1155.56	8.27637
1158.46	10.1957
1161.35	2.3147
1164.24	5.24341
1167.13	9.19983
1170.03	7.19702
1172.92	6.65405
1175.81	6.8302
1178.7	25.0261
1181.6	20.2875
1184.49	6.42664
1187.38	17.0169
1190.28	25.1665
1193.17	13.1273
1196.06	19.1255
1198.95	19.5648
1201.85	5.5675
1204.74	15.1857
1207.63	2.38025
1210.53	0.688232
1213.42	11.0511
1216.31	13.5118
1219.2	6.74219
1222.1	4.89075
1224.99	12.8186
1227.88	11.4927
1230.77	7.72009
1233.67	21.8755
1236.56	13.4009
1239.45	13.4348
1242.34	9.04858
1245.24	12.8072
1248.13	15.5011
1251.02	18.3621
1253.91	20.1654
1256.81	19.7108
1259.7	4.64331
1262.59	4.77673
1265.49	9.00342
1268.38	11.8766
1271.27	18.2262
1274.16	5.99036
1277.06	5.46106
1279.95	19.6064
1282.84	17.3694
1285.73	3.03955
1288.63	13.9166
1291.52	1.80835
1294.41	20.8564
1297.31	9.46826
1300.2	8.71777
