Measurement: Raman, 780 nm, unoriented, Raman Data Processed
Mineral: Gillardite
Rruff sample: R110068
Ideal chemistry: Cu^2+^_3_Ni^2+^Cl_2_(OH)_6_
Locality: 132 North deposit, Widgiemooltha, Western Australia, Australia
Source: Renato & Adriana Pagano
Description: Aggregates of dark green flat rhombohedra
Raman shift (cm-1)	intensity
116.148	0
119.523	0.273987
122.897	4.41638
126.272	22.6513
129.647	20.8137
133.022	16.4016
136.397	10.0131
139.772	15.4364
143.146	20.9226
146.521	15.4299
149.896	22.1643
153.271	17.1012
156.646	7.39525
160.02	0.238144
163.395	0.034012
166.77	0.035889
170.145	0.759338
173.52	0.068787
176.894	1.99187
180.269	4.75298
183.644	6.90254
187.019	9.33154
190.394	12.382
193.769	13.5706
197.143	14.2046
200.518	16.0879
203.893	18.0265
207.268	19.9232
210.643	19.2096
214.018	20.4605
217.392	20.5123
220.767	19.7588
224.142	18.3511
227.517	17.9239
230.892	17.236
234.266	16.7483
237.641	15.912
241.016	17.4559
244.391	17.5864
247.766	17.067
251.14	15.3509
254.515	12.6677
257.89	11.2232
261.265	11.2631
264.64	12.0925
268.014	9.36493
271.389	7.38281
274.764	6.11569
278.139	5.87231
281.514	6.23111
284.889	5.05582
288.263	3.32517
291.638	1.80547
295.013	0.67099
298.388	0.544289
301.763	1.05024
305.137	0.076614
308.512	0.033302
311.887	0.011635
315.262	0.667824
318.637	0.268066
322.012	0.111504
325.386	0.35257
328.761	0.453377
332.136	0.495857
335.511	1.50332
338.886	2.34752
342.26	2.47139
345.635	3.76954
349.01	6.62937
352.385	10.7989
355.76	14.9024
359.135	21.516
362.509	32.1151
365.884	45.4781
369.259	56.3452
372.634	48.0293
376.009	26.5648
379.383	12.1172
382.758	4.97527
386.133	2.91763
389.508	1.51881
392.883	1.84044
396.257	2.69877
399.632	4.2369
403.007	8.10002
406.382	11.0073
409.757	10.0459
413.132	7.25289
416.506	3.71194
419.881	2.62565
423.256	0.792934
426.631	1.00166
430.006	0.413269
433.38	0.00481
436.755	0.146626
440.13	0.053017
443.505	0.351166
446.88	0.184227
450.255	0.163506
453.629	1.0457
457.004	0.611603
460.379	1.61644
463.754	2.75718
467.129	2.72296
470.503	3.04587
473.878	3.99623
477.253	3.5333
480.628	3.87212
484.003	4.69632
487.377	5.29589
490.752	7.74075
494.127	10.2286
497.502	14.3593
500.877	18.275
504.252	20.74
507.626	16.8263
511.001	12.1061
514.376	8.25613
517.751	5.89483
521.126	4.18891
524.5	2.853
527.875	1.37085
531.25	0.789471
534.625	1.19894
538	0.272682
541.375	0.694569
544.749	0.93924
548.124	0.03878
551.499	1.25447
554.874	2.1012
558.249	2.53206
561.623	2.12296
564.998	0.664417
568.373	0.784214
571.748	0.51112
575.123	0.06926
578.497	0.683369
581.872	0.996624
585.247	0.986012
588.622	1.24613
591.997	1.49467
595.371	0.042961
598.746	1.06289
602.121	1.32147
605.496	0.149411
608.871	1.53045
612.246	1.41771
615.62	1.19567
618.995	1.19667
622.37	0.646523
625.745	0.772107
629.12	0.066616
632.494	0.017151
635.869	0.833454
639.244	0.40583
642.619	1.35304
645.994	1.1453
649.369	1.06804
652.743	0.659847
656.118	0.928761
659.493	0.8284
662.868	0.886791
666.243	1.12799
669.617	1.52242
672.992	0.832638
676.367	0.964905
679.742	1.17886
683.117	0.182087
686.491	0.122292
689.866	0.179375
693.241	0.00449
696.616	0.267414
699.991	0.006687
703.366	0.253704
706.74	1.03341
710.115	0.854641
713.49	1.56007
716.865	2.35133
720.24	1.94417
723.614	4.57338
726.989	5.23558
730.364	6.11321
733.739	6.94996
737.114	6.06122
740.489	5.2933
743.863	3.34168
747.238	2.98767
750.613	1.70793
753.988	0.940411
757.363	0.583672
760.737	0.60527
764.112	0.355202
767.487	0.191812
770.862	0.519676
774.237	0.235367
777.611	0.50573
780.986	0.735382
784.361	0.942257
787.736	0.386395
791.111	0.565796
794.486	1.26473
797.86	1.50417
801.235	0.909077
804.61	1.24474
807.985	1.42921
811.36	1.27124
814.734	2.0137
818.109	2.93953
821.484	2.35502
824.859	2.61431
828.234	3.19022
831.609	3.25446
834.983	3.24974
838.358	3.54899
841.733	4.15047
845.108	4.04439
848.483	4.59587
851.857	4.75753
855.232	4.14184
858.607	4.18243
861.982	4.67779
865.357	3.77663
868.731	3.84842
872.106	3.56821
875.481	2.51421
878.856	2.60235
882.231	2.83799
885.606	1.98265
888.98	1.63278
892.355	1.06811
895.73	0.492687
899.105	0.801842
902.48	0.03751
905.854	1.0011
909.229	1.04862
912.604	0.908302
915.979	0.962032
919.354	1.91101
922.729	2.69398
926.103	4.87507
929.478	8.3059
932.853	13.0297
936.228	20.2698
939.603	28.1846
942.977	36.2572
946.352	37.5906
949.727	28.6809
953.102	18.3011
956.477	11.1128
959.851	6.38693
963.226	5.15572
966.601	3.03203
969.976	2.56001
973.351	1.2229
976.726	0.364124
980.1	0.06229
983.475	0.278675
986.85	0.03294
990.225	0.39436
993.6	0.830574
996.974	0.01572
1000.35	0.431156
1003.72	1.0327
1007.1	0.236229
1010.47	0.511173
1013.85	1.14096
1017.22	0.827396
1020.6	0.839027
1023.97	0.811268
1027.35	1.61946
1030.72	2.17489
1034.1	1.91735
1037.47	2.34417
1040.85	1.84371
1044.22	1.92887
1047.6	2.49958
1050.97	2.45298
1054.35	1.32431
1057.72	1.90746
1061.1	1.54016
1064.47	1.82284
1067.85	1.11434
1071.22	1.72409
1074.6	1.07688
1077.97	1.46371
1081.35	0.685738
1084.72	0.924191
1088.09	1.09403
1091.47	0.962891
1094.84	0.667139
1098.22	0.377417
1101.59	0.345587
1104.97	0.22987
1108.34	0.323624
1111.72	0.463436
1115.09	0.503862
1118.47	0.099487
1121.84	0.493336
1125.22	0.133465
1128.59	0.559687
1131.97	0.446278
1135.34	-0.0914082
1138.72	0.472223
1142.09	0.475034
1145.47	0.289039
1148.84	0.285446
1152.22	0.017132
1155.59	0.519148
1158.97	0.463116
1162.34	0.092031
1165.71	0.758471
1169.09	0.351839
1172.46	0.737194
1175.84	0.357931
1179.21	0.431969
1182.59	0.317402
1185.96	0.167889
1189.34	0.164907
1192.71	0.495117
1196.09	0.816729
1199.46	1.527
1202.84	0.770033
1206.21	1.06643
1209.59	1.04984
1212.96	1.34767
1216.34	1.27232
1219.71	0.536406
1223.09	1.78576
1226.46	1.31219
1229.84	1.81102
1233.21	1.32652
1236.59	1.59426
1239.96	1.25033
1243.34	2.30125
1246.71	1.78392
1250.09	2.41273
1253.46	2.31006
1256.84	2.57501
1260.21	2.20244
1263.59	2.16798
1266.96	2.76791
1270.33	3.11931
1273.71	3.16811
1277.08	3.45529
1280.46	2.43316
