Measurement: Raman, 785 nm, unoriented, Raman Data Processed
Mineral: Gillulyite
Rruff sample: R070433
Ideal chemistry: Tl_2_As_8_S_13_
Locality: Mercur Gold mine, Mercur District (Camp Floyd District), Oquirrh Mountains, Tooele County, Utah, USA
Source: Michael Scott
Description: Aggregate of vitreous dark red platy crystals associated with colorless barite and calcite
Raman shift (cm-1)	intensity
109.941	0
112.833	24.9207
115.726	3.3459
118.619	20.5407
121.511	93.428
124.404	277.977
127.297	544.63
130.189	923.008
133.082	1369.79
135.975	1766.61
138.868	1948.74
141.76	1972.83
144.653	2367.58
147.546	2984.2
150.438	3566.24
153.331	3891.72
156.224	3545.09
159.116	2644.66
162.009	1983.97
164.902	1750.33
167.794	1730.52
170.687	1888.78
173.58	2148.62
176.473	2515.66
179.365	2741.31
182.258	2762.06
185.151	2901.22
188.043	3051.29
190.936	2770.51
193.829	2068.24
196.721	1360.5
199.614	999.251
202.507	820.924
205.4	708.589
208.292	638.871
211.185	528.846
214.078	384.851
216.97	260.041
219.863	186.944
222.756	108.708
225.649	82.7111
228.541	69.7742
231.434	37.9698
234.327	16.1543
237.219	37.4269
240.112	36.9268
243.005	51.5046
245.897	100.549
248.79	161.205
251.683	225.281
254.576	446.276
257.468	706.612
260.361	1121.47
263.254	1595.31
266.146	2170.78
269.039	2750.92
271.932	3585.64
274.824	4473.16
277.717	5543.76
280.61	6545.33
283.502	7245.59
286.395	7466.48
289.288	7108.42
292.181	6402.41
295.073	5716.52
297.966	5241.07
300.859	5139.14
303.751	5095.08
306.644	4614.8
309.537	4103.28
312.43	3716.67
315.322	3516.89
318.215	3389.4
321.108	3192.87
324	3163.82
326.893	3091.93
329.786	3369.78
332.678	4015.97
335.571	4678.98
338.464	4484.23
341.356	3653.86
344.249	3507.26
347.142	4074.45
350.035	5424.49
352.927	6992.26
355.82	8363.08
358.713	8965.74
361.605	8723.7
364.498	8084.96
367.391	6341.86
370.284	3421.9
373.176	2646.67
376.069	4023.64
378.962	5910.97
381.854	7256.1
384.747	9792.78
387.64	14211.6
390.532	17835.3
393.425	14903.1
396.318	9072.2
399.211	4394.86
402.103	2062.36
404.996	920.607
407.889	740.817
410.781	588.364
413.674	449.84
416.567	328.754
419.459	210.686
422.352	141.902
425.245	103.207
428.137	74.2361
431.03	43.8494
433.923	48.177
436.816	53.3
439.708	48.7692
442.601	44.0285
445.494	49.9104
448.386	45.1877
451.279	41.9206
454.172	46.4543
457.065	51.3097
459.957	39.6453
462.85	44.2276
465.743	42.9834
468.635	48.6801
471.528	40.7498
474.421	40.6626
477.313	38.9017
480.206	45.8779
483.099	43.5653
485.991	44.4442
488.884	46.1561
491.777	42.2433
494.67	46.6862
497.562	41.4049
500.455	41.0524
503.348	46.4934
506.24	34.9263
509.133	34.583
512.026	40.3154
514.918	37.3372
517.811	44.9617
520.704	33.587
523.597	35.358
526.489	41.6496
529.382	42.315
532.275	38.7572
535.167	37.2073
538.06	38.7424
540.953	39.1937
543.846	36.4546
546.738	39.0005
549.631	32.4205
552.524	34.5996
555.416	35.2123
558.309	31.4639
561.202	37.8135
564.094	45.0322
566.987	35.9342
569.88	30.9362
572.773	14.4959
575.665	16.3104
578.558	19.2727
581.451	6.91606
584.343	1.02206
587.236	3.36359
590.129	0.740021
593.021	13.3874
595.914	9.20175
598.807	13.8831
601.699	6.3602
604.592	35.4357
607.485	1.90305
610.378	4.48172
613.27	2.35288
616.163	2.91275
619.056	16.3501
621.948	17.1837
624.841	3.38608
627.734	12.3389
630.626	16.3484
633.519	16.9967
636.412	11.6091
639.305	17.7472
642.197	16.6062
645.09	36.3659
647.983	39.1795
650.875	42.0862
653.768	44.3738
656.661	28.9651
659.553	37.7875
662.446	17.3416
665.339	15.6672
668.232	15.6492
671.124	7.30322
674.017	11.8499
676.91	3.6344
679.802	18.9071
682.695	5.32785
685.588	18.6236
688.481	7.88828
691.373	16.4008
694.266	21.5614
697.159	22.9454
700.051	29.3528
702.944	33.8163
705.837	36.027
708.729	29.7822
711.622	14.5938
714.515	28.9628
717.408	45.1998
720.3	56.3187
723.193	59.3225
726.086	62.1892
728.978	66.4828
731.871	69.6922
734.764	62.911
737.656	55.6163
740.549	51.1359
743.442	33.1035
746.335	26.2244
749.227	16.0722
752.12	15.3783
755.013	7.61557
757.905	1.52907
760.798	0.931259
763.691	3.74127
766.583	2.68668
769.476	4.70148
772.369	4.93725
775.261	10.2747
778.154	6.52981
781.047	18.7688
783.94	14.7906
786.832	1.7474
789.725	1.90325
792.618	5.9967
795.51	3.68343
798.403	0.257729
801.296	9.28512
804.188	14.684
807.081	5.53509
809.974	16.1841
812.867	6.89693
815.759	9.32925
818.652	18.0921
821.545	18.3601
824.437	27.5305
827.33	10.4159
830.223	12.654
833.115	18.1523
836.008	9.57464
838.901	16.2054
841.794	12.6931
844.686	12.2332
847.579	1.37785
850.472	25.0585
853.364	19.0829
856.257	15.8085
859.15	21.6414
862.043	12.2097
864.935	14.2457
867.828	5.01689
870.721	12.6777
873.613	9.66519
876.506	3.9519
879.399	1.57561
882.291	17.7593
885.184	10.9159
888.077	13.3691
890.97	7.22327
893.862	6.98043
896.755	9.75201
899.648	13.0398
902.54	9.61652
905.433	8.02837
908.326	0.519913
911.218	5.78271
914.111	6.98867
917.004	9.51299
919.896	14.4623
922.789	12.6171
925.682	0.436539
928.575	12.6486
931.467	8.83912
934.36	12.6113
937.253	8.20959
940.145	12.7219
943.038	12.1868
945.931	11.7106
948.823	20.104
951.716	13.2814
954.609	0.35379
957.502	8.24823
960.394	20.3591
963.287	5.81049
966.18	9.97818
969.072	8.54485
971.965	17.7253
974.858	4.29172
977.75	21.1488
980.643	1.76154
983.536	17.5483
986.429	12.0971
989.321	11.8422
992.214	7.64513
995.107	5.14125
997.999	12.1911
1000.89	15.0224
1003.78	17.8011
1006.68	2.60344
1009.57	18.721
1012.46	6.92339
1015.36	15.1314
1018.25	6.72303
1021.14	5.22813
1024.03	1.89903
1026.93	7.33881
1029.82	2.15766
1032.71	10.9047
1035.6	2.06588
1038.5	12.1695
1041.39	9.98998
1044.28	4.81569
1047.17	13.7172
1050.07	6.36665
1052.96	14.4123
1055.85	1.21747
1058.75	4.51296
1061.64	17.698
1064.53	8.67728
1067.42	4.47012
1070.32	11.3128
1073.21	13.844
1076.1	3.70122
1078.99	11.3237
1081.89	4.30898
1084.78	15.971
1087.67	15.4205
1090.57	8.2657
1093.46	1.27673
1096.35	10.0986
1099.24	0.70388
1102.14	13.593
1105.03	7.18542
1107.92	1.43976
1110.82	9.36409
1113.71	14.4619
1116.6	20.772
1119.49	12.1587
1122.38	15.0408
1125.28	16.2212
1128.17	13.9719
1131.06	10.2985
1133.96	5.22247
1136.85	4.88662
1139.74	0.356552
1142.63	8.15123
1145.53	13.8956
1148.42	5.66875
1151.31	10.5212
1154.2	2.62758
1157.1	22.6092
1159.99	11.1904
1162.88	19.4095
1165.78	10.0343
1168.67	10.0378
1171.56	22.5418
1174.45	17.1294
1177.35	7.60782
1180.24	11.2094
1183.13	17.9277
1186.03	10.4681
1188.92	5.71735
1191.81	12.9377
1194.7	24.6361
1197.6	22.2224
1200.49	19.7479
1203.38	6.492
1206.27	10.176
1209.17	0.448505
1212.06	7.91622
1214.95	1.66214
1217.85	3.61938
1220.74	14.5228
1223.63	10.6021
1226.52	9.25709
1229.41	6.07384
1232.31	0.219032
