Measurement: Raman, 532 nm, unoriented, Raman Data Processed
Mineral: Gillulyite
Rruff sample: R070433
Ideal chemistry: Tl_2_As_8_S_13_
Locality: Mercur Gold mine, Mercur District (Camp Floyd District), Oquirrh Mountains, Tooele County, Utah, USA
Source: Michael Scott
Description: Aggregate of vitreous dark red platy crystals associated with colorless barite and calcite
Raman shift (cm-1)	intensity
142.209	0
145.102	31.893
147.994	100.468
150.887	129.176
153.78	204.89
156.672	178.796
159.565	62.1856
162.458	6.92682
165.351	2.1731
168.243	11.1136
171.136	56.0904
174.029	102.042
176.921	109.735
179.814	127.802
182.707	109.202
185.6	123.383
188.492	98.9401
191.385	70.2505
194.278	35.8239
197.17	0.997192
200.063	2.98926
202.956	1.36035
205.848	55.998
208.741	80.1718
211.634	61.0611
214.526	15.2425
217.419	0.1427
220.312	20.264
223.205	7.16309
226.097	19.0212
228.99	10.2903
231.883	15.257
234.775	8.92779
237.668	19.4261
240.561	19.6801
243.453	43.5094
246.346	85.1924
249.239	98.2226
252.132	106.747
255.024	178.777
257.917	197.04
260.81	298.217
263.702	367.834
266.595	448.876
269.488	500.599
272.38	638.334
275.273	774.692
278.166	891.482
281.059	1065.82
283.951	1107.31
286.844	1141.09
289.737	1094.41
292.629	1032.52
295.522	940.197
298.415	917.58
301.308	907.189
304.2	802.059
307.093	653.507
309.986	465.964
312.878	363.964
315.771	279.063
318.664	237.061
321.556	177.843
324.449	173.03
327.342	202.161
330.235	189.248
333.127	170.642
336.02	249.463
338.913	226.962
341.805	210.76
344.698	279.939
347.591	294.625
350.483	328.769
353.376	387.817
356.269	366.999
359.162	344.043
362.054	331.877
364.947	256.825
367.84	150.525
370.732	115.382
373.625	7.39795
376.518	79.0821
379.411	119.645
382.303	202.943
385.196	348.964
388.089	461.642
390.981	469.873
393.874	309.218
396.767	163.825
399.659	78.3544
402.552	61.7172
405.445	40.4118
408.337	19.1048
411.23	9.48065
414.123	26.0859
417.016	2.03204
419.908	19.3364
422.801	4.20776
425.694	10.3426
428.586	15.4074
431.479	11.3648
434.372	7.00867
437.264	13.256
440.157	18.5518
443.05	33.9456
445.943	42.3997
448.835	55.345
451.728	58.29
454.621	72.4399
457.513	39.7183
460.406	67.7633
463.299	59.7667
466.192	71.7273
469.084	63.3397
471.977	75.4163
474.87	50.5373
477.762	67.5113
480.655	52.4311
483.548	49.3748
486.44	28.4511
489.333	49.3171
492.226	38.3229
495.118	53.8868
498.011	37.2963
500.904	24.9504
503.797	26.3
506.689	42.376
509.582	8.06201
512.475	21.9415
515.367	25.5409
518.26	25.0346
521.153	32.5822
524.045	19.6686
526.938	28.4473
529.831	38.5109
532.724	10.2459
535.616	6.69415
538.509	2.73071
541.402	6.35107
544.294	40.783
547.187	37.9081
550.08	32.382
552.972	21.8826
555.865	29.434
558.758	5.26434
561.651	38.9028
564.543	24.061
567.436	17.675
570.329	8.07996
573.221	21.6281
576.114	12.2005
579.007	20.6104
581.899	32.9836
584.792	9.48297
587.685	9.9726
590.578	11.2395
593.47	10.6627
596.363	5.53864
599.256	3.25006
602.149	22.3445
605.041	14.376
607.934	19.7455
610.827	1.98987
613.719	3.04913
616.612	8.37354
619.505	25.6953
622.397	26.7682
625.29	30.3425
628.183	21.6971
631.076	9.44342
633.968	40.4592
636.861	16.7033
639.754	17.6573
642.646	1.23535
645.539	41.3458
648.432	34.2785
651.324	40.1344
654.217	7.29303
657.11	34.8589
660.003	48.9868
662.895	20.9161
665.788	34.045
668.681	27.8374
671.573	20.3491
674.466	29.6423
677.359	40.7448
680.251	26.9033
683.144	24.5699
686.037	38.3972
688.929	45.9706
691.822	37.063
694.715	31.4308
697.608	23.6079
700.5	19.3306
703.393	30.0348
706.286	34.8281
709.178	16.3947
712.071	11.9161
714.964	32.3832
717.856	27.2738
720.749	8.638
723.642	16.2317
726.535	19.8309
729.427	19.5453
732.32	9.15649
735.213	7.78821
738.105	20.6079
740.998	11.9274
743.891	26.226
746.784	15.1875
749.676	3.02722
752.569	0.992798
755.462	10.3477
758.354	27.6652
761.247	5.69446
764.14	12.6753
767.033	12.005
769.925	14.3992
772.818	33.4954
775.711	5.9599
778.603	18.8537
781.496	11.2434
784.389	30.7426
787.281	14.0304
790.174	29.2235
793.067	20.5057
795.96	60.3811
798.852	22.0416
801.745	35.1972
804.638	13.629
807.53	4.19867
810.423	22.136
813.316	23.3198
816.208	44.2042
819.101	28.2859
821.994	17.3925
824.886	7.57916
827.779	4.04132
830.672	12.2859
833.565	9.55115
836.457	35.2282
839.35	13.0384
842.243	36.5541
845.135	32.936
848.028	11.1301
850.921	29.4221
853.813	27.3376
856.706	18.3312
859.599	40.1115
862.492	22.6811
865.384	13.6249
868.277	32.5787
871.17	3.59888
874.062	17.7318
876.955	20.6905
879.848	36.4736
882.74	35.9547
885.633	13.6089
888.526	36.3473
891.419	29.9571
894.311	0.28064
897.204	27.8978
900.097	29.4965
902.989	23.4014
905.882	42.4508
908.775	27.3449
911.668	24.1542
914.56	4.67181
917.453	14.2889
920.346	7.77942
923.238	8.64996
926.131	27.8251
929.024	28.9661
931.916	1.16461
934.809	23.1385
937.702	24.9259
940.595	52.3481
943.487	28.501
946.38	6.22699
949.273	19.4211
952.165	31.1957
955.058	1.13867
957.951	40.3054
960.843	8.78778
963.736	33.9592
966.629	16.4453
969.521	10.6702
972.414	14.7506
975.307	46.9824
978.2	16.8482
981.092	3.12042
983.985	38.6968
986.878	14.7861
989.77	20.0463
992.663	17.7283
995.556	12.9987
998.448	20.105
1001.34	39.3031
1004.23	36.3656
1007.13	12.4081
1010.02	42.9407
1012.91	12.7775
1015.8	27.3669
1018.7	4.20831
1021.59	3.5517
1024.48	4.05463
1027.38	21.4611
1030.27	17.4246
1033.16	9.11316
1036.05	26.7486
1038.95	15.5579
1041.84	22.43
1044.73	31.9618
1047.62	34.6841
1050.52	34.8121
1053.41	19.3603
1056.3	21.473
1059.19	28.0784
1062.09	24.9087
1064.98	11.0086
1067.87	27.1927
1070.77	11.139
1073.66	16.2857
1076.55	2.74487
1079.44	8.28918
1082.34	28.6149
1085.23	7.24268
1088.12	24.3859
1091.02	30.2877
1093.91	8.32117
1096.8	7.48914
1099.69	17.5314
1102.59	3.63275
1105.48	20.7026
1108.37	3.75293
1111.26	0.922607
1114.16	36.1746
1117.05	12.3058
1119.94	16.9034
1122.84	3.42554
1125.73	23.3796
1128.62	33.5538
1131.51	18.2457
1134.41	40.4554
1137.3	2.32867
1140.19	26.4388
1143.08	39.5827
1145.98	46.8939
1148.87	21.28
1151.76	25.3133
1154.65	31.045
1157.55	4.24646
1160.44	4.26856
1163.33	15.1833
1166.22	25.1783
1169.12	26.0235
1172.01	25.4827
1174.9	4.47321
1177.8	17.0122
1180.69	35.4092
1183.58	3.77765
1186.47	41.1099
1189.37	25.7157
1192.26	8.14825
1195.15	28.1273
1198.05	18.0239
1200.94	33.9674
1203.83	23.7843
1206.72	2.20624
1209.62	6.7431
1212.51	22.8841
1215.4	17.1101
1218.29	31.4708
1221.19	23.8012
1224.08	12.4706
1226.97	38.6639
1229.87	22.8254
1232.76	49.8884
1235.65	44.647
1238.54	17.6262
1241.44	21.6553
1244.33	55.1494
1247.22	29.5094
1250.11	10.4541
1253.01	2.36029
1255.9	21.7188
1258.79	8.31329
1261.68	19.7016
1264.58	41.5766
1267.47	23.93
1270.36	8.20386
1273.26	23.9537
1276.15	1.58716
1279.04	17.2068
1281.93	21.4708
1284.83	6.11523
1287.72	19.0177
1290.61	16.0935
