Measurement: Raman, 532 nm, unoriented, Raman Data Processed
Mineral: Giniite
Rruff sample: R060765
Ideal chemistry: Fe^2+^Fe^3+^_4_(PO_4_)_4_(OH)_2_2H_2_O
Locality: Sandamab, Namibia
Source: Michael Scott
Description: Black fragment, associated with triphylite, hureaulite, yellow-greenish tavorite (R140539), and black heterosite.
Measured chemistry: (Fe^2+^_0.91_Mn_0.11_Mg_0.02_)_Σ=1.04_Fe^3+^_4.00_(PO_4_)_4_(OH)_2_·2H_2_O
Raman shift (cm-1)	intensity
125.38	0
128.272	7.8382
131.165	61.1925
134.058	139.311
136.951	229.181
139.843	260.238
142.736	305.852
145.629	196.726
148.521	6.03488
151.414	51.241
154.307	219.077
157.199	322.12
160.092	563.154
162.985	751.437
165.878	708.235
168.77	388.423
171.663	209.198
174.556	210.593
177.448	183.506
180.341	214.335
183.234	90.2584
186.126	48.2103
189.019	19.5251
191.912	18.0657
194.805	12.5838
197.697	8.32819
200.59	12.4007
203.483	30.2016
206.375	120.168
209.268	97.5691
212.161	151.637
215.053	147.105
217.946	257.989
220.839	354.221
223.731	430.819
226.624	331.822
229.517	179.759
232.41	125.565
235.302	57.7892
238.195	98.2116
241.088	123.761
243.98	163.69
246.873	139.76
249.766	187.585
252.658	180.216
255.551	126.425
258.444	106.323
261.336	122.468
264.229	116.165
267.122	129.878
270.015	83.2298
272.907	61.9891
275.8	22.0544
278.693	28.7959
281.585	15.234
284.478	29.8139
287.371	37.1924
290.263	144.495
293.156	219.617
296.049	225.92
298.942	208.54
301.834	207.226
304.727	290.756
307.62	255.393
310.512	322.624
313.405	300.944
316.298	339.709
319.19	279.82
322.083	348.67
324.976	503.618
327.869	645.8
330.761	766.687
333.654	796.107
336.547	710.957
339.439	565.394
342.332	420.545
345.225	342.553
348.117	284.403
351.01	193.929
353.903	172.324
356.796	150.439
359.688	146.061
362.581	149.061
365.474	185.923
368.366	245.408
371.259	146.719
374.152	101.984
377.044	35.0135
379.937	4.10713
382.83	12.8491
385.723	44.1562
388.615	108.903
391.508	137.25
394.401	136.11
397.293	206.576
400.186	274.75
403.079	326.829
405.971	395.536
408.864	219.474
411.757	51.0981
414.65	24.4009
417.542	30.1238
420.435	28.2671
423.328	34.775
426.22	36.4836
429.113	22.8371
432.006	57.181
434.898	141.526
437.791	207.096
440.684	261.751
443.577	240.496
446.469	246.079
449.362	270.597
452.255	231.962
455.147	195.041
458.04	202.449
460.933	254.208
463.826	271.661
466.718	257.509
469.611	286.641
472.504	285.965
475.396	223.962
478.289	142.037
481.182	185.846
484.074	193.368
486.967	168.726
489.86	181.693
492.752	149.14
495.645	130.497
498.538	71.6192
501.431	44.8461
504.323	2.0165
507.216	36.9017
510.109	5.07673
513.001	21.5218
515.894	17.2344
518.787	20.1535
521.679	18.6152
524.572	5.32033
527.465	5.76524
530.357	11.2961
533.25	26.9882
536.143	21.5556
539.036	2.75995
541.928	36.1698
544.821	3.00159
547.714	0.511663
550.606	10.3619
553.499	11.4073
556.392	27.8474
559.284	30.5221
562.177	16.9516
565.07	82.9281
567.963	134.505
570.855	202.831
573.748	223.183
576.641	217.615
579.533	213.701
582.426	257.138
585.319	262.916
588.211	177.896
591.104	211.204
593.997	223.002
596.89	176.805
599.782	127.765
602.675	61.4657
605.568	78.6227
608.46	137.16
611.353	180.151
614.246	218.96
617.138	142.29
620.031	128.034
622.924	93.4905
625.817	71.7627
628.709	92.0098
631.602	101.436
634.495	62.3237
637.387	5.34082
640.28	2.33731
643.173	11.2323
646.065	12.6786
648.958	3.16728
651.851	1.37761
654.744	24.2558
657.636	21.6407
660.529	14.4442
663.422	0.512535
666.314	10.3571
669.207	71.4123
672.1	59.8518
674.992	73.0246
677.885	48.8838
680.778	42.269
683.671	39.6699
686.563	39.3084
689.456	46.3721
692.349	32.0684
695.241	73.2878
698.134	110.251
701.027	41.6505
703.919	77.3105
706.812	135.565
709.705	56.4257
712.598	68.8569
715.49	84.1258
718.383	87.3859
721.276	22.176
724.168	93.345
727.061	6.33421
729.954	7.34376
732.846	66.3157
735.739	15.61
738.632	67.3545
741.524	79.15
744.417	2.19346
747.31	33.7282
750.203	138.999
753.095	1.57342
755.988	60.0743
758.881	59.8861
761.773	117.441
764.666	40.5266
767.559	45.7659
770.451	4.1139
773.344	5.48509
776.237	45.2223
779.13	49.5719
782.022	9.99727
784.915	88.856
787.808	15.1121
790.7	77.251
793.593	92.8669
796.486	55.3621
799.378	43.9246
802.271	53.2052
805.164	24.6727
808.057	2.43549
810.949	43.4123
813.842	6.10338
816.735	71.3024
819.627	38.9103
822.52	5.49379
825.413	17.0346
828.305	66.725
831.198	75.6587
834.091	37.9526
836.984	35.6085
839.876	47.4934
842.769	70.4823
845.662	15.8899
848.554	2.00642
851.447	10.3177
854.34	10.3293
857.232	5.52387
860.125	52.2527
863.018	5.63134
865.911	19.805
868.803	22.6553
871.696	18.8496
874.589	23.1312
877.481	46.919
880.374	75.5274
883.267	54.8297
886.159	67.9567
889.052	26.1256
891.945	8.67665
894.838	4.61328
897.73	4.74049
900.623	53.318
903.516	5.34551
906.408	8.00342
909.301	25.3426
912.194	84.4978
915.086	47.6534
917.979	40.6524
920.872	82.6488
923.765	48.2293
926.657	56.4616
929.55	18.4089
932.443	114.029
935.335	128.698
938.228	231.4
941.121	302.961
944.013	533.933
946.906	882.323
949.799	1256.33
952.692	1391.5
955.584	1214.48
958.477	866.485
961.37	489.331
964.262	323.745
967.155	178.265
970.048	150.746
972.94	42.8988
975.833	99.6308
978.726	23.8159
981.619	24.2256
984.511	73.7572
987.404	31.574
990.297	28.4126
993.189	6.97882
996.082	26.8598
998.975	76.9958
1001.87	18.5258
1004.76	3.21082
1007.65	14.0193
1010.55	26.6501
1013.44	78.0108
1016.33	169.891
1019.22	209.163
1022.12	245.35
1025.01	271.546
1027.9	289.249
1030.79	398.509
1033.69	482.094
1036.58	644.263
1039.47	911.428
1042.37	1073.61
1045.26	1404.04
1048.15	1772.25
1051.04	2163.45
1053.94	2082.04
1056.83	1621.02
1059.72	1127.24
1062.61	768.122
1065.51	439.153
1068.4	336.861
1071.29	250.757
1074.18	233.182
1077.08	69.0902
1079.97	117.707
1082.86	82.5448
1085.76	80.8578
1088.65	88.3936
1091.54	43.0057
1094.43	2.5407
1097.33	29.2531
1100.22	5.7948
1103.11	17.098
1106.01	19.7867
1108.9	28.5781
1111.79	56.341
1114.68	103.663
1117.58	74.3794
1120.47	129.286
1123.36	125.798
1126.25	193.839
1129.15	240.782
1132.04	150.267
1134.93	146.299
1137.82	108.317
1140.72	97.9338
1143.61	53.1557
1146.5	10.629
1149.39	11.9168
1152.29	30.7414
1155.18	124.731
1158.07	40.6775
1160.97	86.6502
1163.86	26.487
1166.75	71.94
1169.64	1.62707
1172.54	6.85212
1175.43	30.0499
1178.32	7.5709
1181.21	49.0405
1184.11	31.0315
1187	47.84
1189.89	30.1133
1192.79	13.434
1195.68	43.7118
1198.57	49.7294
1201.46	60.1418
1204.36	59.1067
1207.25	51.1471
1210.14	13.81
1213.03	3.1485
1215.93	25.794
1218.82	3.07405
1221.71	2.54075
1224.61	21.3613
1227.5	33.5834
1230.39	50.0234
1233.28	53.1383
1236.18	49.4613
1239.07	20.9678
1241.96	24.2064
1244.85	34.8231
1247.75	4.11223
1250.64	19.2972
1253.53	17.155
