Measurement: Raman, 785 nm, unoriented, Raman Data Processed
Mineral: Giniite
Rruff sample: R060765
Ideal chemistry: Fe^2+^Fe^3+^_4_(PO_4_)_4_(OH)_2_2H_2_O
Locality: Sandamab, Namibia
Source: Michael Scott
Description: Black fragment, associated with triphylite, hureaulite, yellow-greenish tavorite (R140539), and black heterosite.
Measured chemistry: (Fe^2+^_0.91_Mn_0.11_Mg_0.02_)_Σ=1.04_Fe^3+^_4.00_(PO_4_)_4_(OH)_2_·2H_2_O
Raman shift (cm-1)	intensity
115.26	0
118.635	0.264999
122.01	51.2469
125.385	129.81
128.76	194.774
132.134	262.033
135.509	163.207
138.884	99.5442
142.259	134.08
145.633	173.624
149.008	146.345
152.383	111.934
155.758	139.526
159.133	223.049
162.508	309.548
165.882	362.04
169.257	335.133
172.632	321.292
176.007	382.6
179.382	394.845
182.757	181.166
186.131	76.1454
189.506	40.1559
192.881	48.3047
196.256	90.6253
199.631	112.643
203.005	169.446
206.38	185.192
209.755	213.84
213.13	241.295
216.505	338.496
219.88	439.764
223.254	475.667
226.629	251.248
230.004	74.7481
233.379	3.29877
236.754	36.4003
240.128	17.1099
243.503	63.5931
246.878	105.761
250.253	84.5971
253.628	79.2504
257.003	87.114
260.377	147.354
263.752	181.553
267.127	217.282
270.502	226.95
273.877	230.876
277.251	172.687
280.626	115.653
284.001	11.7033
287.376	38.1751
290.751	31.0449
294.125	2.87695
297.5	29.458
300.875	80.1719
304.25	139.63
307.625	234.933
311	258.397
314.374	250.843
317.749	233.22
321.124	246.201
324.499	319.29
327.874	469.887
331.248	608.646
334.623	574.977
337.998	480.244
341.373	323.222
344.748	248.652
348.122	164.292
351.497	77.6904
354.872	89.6817
358.247	99.6449
361.622	158.83
364.997	216.974
368.371	199.834
371.746	156.328
375.121	108.263
378.496	51.3332
381.871	41.2702
385.246	33.0648
388.62	51.9938
391.995	99.5911
395.37	129.748
398.745	162.808
402.12	254.968
405.494	266.083
408.869	177.102
412.244	92.5314
415.619	24.8704
418.994	9.03687
422.368	3.2793
425.743	3.59228
429.118	6.77826
432.493	0.669373
435.868	10.1937
439.243	12.2711
442.617	34.9689
445.992	21.7319
449.367	43.2009
452.742	28.5307
456.117	28.6059
459.491	39.9341
462.866	80.5694
466.241	114.46
469.616	181.396
472.991	189.044
476.366	223.62
479.74	269.272
483.115	327.355
486.49	329.653
489.865	314.651
493.24	258
496.614	190.481
499.989	130.549
503.364	63.6089
506.739	71.4688
510.114	39.3014
513.489	0.768738
516.863	26.3868
520.238	1.82275
523.613	5.5564
526.988	8.64368
530.363	1.67975
533.737	1.9494
537.112	2.31436
540.487	4.38235
543.862	13.0517
547.237	23.0534
550.612	3.74884
553.986	21.134
557.361	27.1907
560.736	45.1526
564.111	57.4078
567.486	58.9233
570.86	118.122
574.235	166.501
577.61	150.689
580.985	136.263
584.36	116.267
587.734	110.573
591.109	104.248
594.484	96.95
597.859	104.063
601.234	139.916
604.609	196.216
607.983	248.521
611.358	268.626
614.733	237.071
618.108	196.108
621.483	153.446
624.857	124.89
628.232	96.2733
631.607	59.7851
634.982	52.3932
638.357	17.352
641.732	1.60553
645.106	2.43124
648.481	8.07474
651.856	9.8454
655.231	7.62631
658.606	0.08786
661.981	5.17349
665.355	22.0415
668.73	11.1987
672.105	3.78268
675.48	5.99219
678.855	7.70203
682.229	17.1446
685.604	1.88507
688.979	42.8005
692.354	66.4875
695.729	41.6972
699.104	53.1749
702.478	45.0967
705.853	47.0616
709.228	53.9415
712.603	49.2705
715.977	49.0071
719.352	47.2744
722.727	63.3655
726.102	59.6332
729.477	41.2449
732.852	52.4921
736.226	40.6678
739.601	40.1737
742.976	49.803
746.351	4.79227
749.726	24.584
753.101	43.7103
756.475	13.5547
759.85	23.192
763.225	0.765106
766.6	0.602051
769.975	7.06558
773.349	14.1076
776.724	22.9857
780.099	14.3943
783.474	15.1667
786.849	28.3912
790.224	10.6871
793.598	10.8484
796.973	13.2046
800.348	18.7616
803.723	1.00955
807.098	23.2994
810.472	23.0979
813.847	6.27417
817.222	28.2412
820.597	34.3058
823.972	31.1505
827.346	35.1929
830.721	19.482
834.096	28.3145
837.471	1.64908
840.846	16.5447
844.221	9.54889
847.595	19.4865
850.97	31.3007
854.345	26.243
857.72	14.4136
861.095	25.1096
864.469	17.0722
867.844	23.5448
871.219	25.4667
874.594	20.4275
877.969	7.12396
881.344	14.0306
884.718	24.4219
888.093	28.7065
891.468	51.6819
894.843	22.5661
898.218	16.33
901.592	36.7935
904.967	14.9195
908.342	25.5608
911.717	18.8955
915.092	9.58698
918.466	12.1586
921.841	15.7698
925.216	29.2644
928.591	3.27109
931.966	5.04822
935.341	44.4643
938.715	34.6506
942.09	85.2224
945.465	77.4843
948.84	113.446
952.215	89.2133
955.589	94.8362
958.964	64.2146
962.339	41.3157
965.714	59.6612
969.089	78.2117
972.464	44.5409
975.838	37.1296
979.213	32.711
982.588	38.0445
985.963	2.67188
989.338	28.0673
992.713	19.6585
996.087	8.52203
999.462	23.1504
1002.84	25.1536
1006.21	14.6509
1009.59	60.6809
1012.96	106.42
1016.34	178.552
1019.71	290.437
1023.09	232.811
1026.46	209.132
1029.84	159.966
1033.21	138.619
1036.59	104.288
1039.96	103.874
1043.34	108.489
1046.71	86.9151
1050.08	115.366
1053.46	99.774
1056.83	104.656
1060.21	114.081
1063.58	139.351
1066.96	166.383
1070.33	175.147
1073.71	114.215
1077.08	78.4549
1080.46	37.5566
1083.83	31.0681
1087.21	7.19406
1090.58	20.3973
1093.96	15.6299
1097.33	18.833
1100.71	18.8234
1104.08	1.40781
1107.46	2.35248
1110.83	8.00586
1114.21	12.2273
1117.58	4.88589
1120.95	44.6927
1124.33	58.4547
1127.7	69.939
1131.08	70.5014
1134.45	61.3047
1137.83	84.1432
1141.2	47.9755
1144.58	55.8075
1147.95	5.65543
1151.33	12.3338
1154.7	9.7735
1158.08	1.79443
1161.45	0.811798
1164.83	10.8809
1168.2	18.5674
1171.58	26.3273
1174.95	15.4945
1178.33	18.3296
1181.7	21.7237
1185.08	1.67477
1188.45	2.10574
1191.83	30.8663
1195.2	5.7861
1198.58	16.6711
1201.95	18.8025
1205.33	8.99252
1208.7	4.55902
1212.08	21.1969
1215.45	9.95093
1218.83	55.6021
1222.2	25.3042
1225.58	22.9935
1228.95	32.4391
1232.32	22.896
1235.7	16.9493
1239.07	2.48413
1242.45	5.05063
1245.82	35.4928
1249.2	29.302
1252.57	61.7022
1255.95	22.0492
1259.32	29.7199
1262.7	42.3675
1266.07	12.291
1269.45	41.0268
1272.82	0
