Measurement: Raman, 532 nm, unoriented, Raman Data Processed
Mineral: Ginorite
Rruff sample: R070305
Ideal chemistry: Ca_2_B_14_O_20_(OH)_6_5H_2_O
Locality: Mott Mine, Twenty Mule Team Canyon, Death Valley, Inyo County, California, USA
Source: James Shigley
Description: White massive granular
Raman shift (cm-1)	intensity
191.606	0
194.499	139.34
197.391	109.699
200.284	184.365
203.177	80.1445
206.07	61.9453
208.962	19.3203
211.855	76.7109
214.748	26.3281
217.64	114.219
220.533	110.148
223.426	126.644
226.318	146.217
229.211	206.74
232.104	56.3438
234.996	36.8359
237.889	27.0977
240.782	103.481
243.675	103.725
246.567	320.902
249.46	321.213
252.353	449.107
255.245	464.166
258.138	302.096
261.031	164.871
263.923	100.522
266.816	103.766
269.709	158.225
272.602	141.922
275.494	102.031
278.387	93.957
281.28	81.7559
284.173	75.7988
287.065	89.4805
289.958	95.7598
292.851	18.6953
295.743	84.1758
298.636	10.3594
301.529	19.5156
304.421	54.043
307.314	46.8125
310.207	162.234
313.099	152.398
315.992	115.641
318.885	185.121
321.778	380.703
324.67	397.316
327.563	397.777
330.456	463.328
333.348	209.867
336.241	177.234
339.134	70.1836
342.026	25.8242
344.919	41.1953
347.812	195.828
350.705	124.852
353.597	380.688
356.49	529.242
359.383	734.938
362.275	1167.68
365.168	1460.73
368.061	1904.18
370.954	1963.95
373.846	2094.69
376.739	1780.02
379.632	1164.89
382.524	800.336
385.417	440.352
388.31	250.004
391.202	361.531
394.095	395.496
396.988	220.133
399.88	65.2422
402.773	183.375
405.666	170.758
408.559	52.6367
411.451	155.137
414.344	186.207
417.237	152.012
420.129	336.523
423.022	133.082
425.915	145.769
428.808	29.3242
431.7	11.5625
434.593	86.1602
437.486	263.055
440.378	425.184
443.271	874.805
446.164	1056.46
449.056	1281.13
451.949	1001.27
454.842	694.078
457.735	316.914
460.627	283.773
463.52	350.172
466.413	316.875
469.305	320.66
472.198	407.816
475.091	140.945
477.983	331.644
480.876	297.316
483.769	485.594
486.661	747.012
489.554	940.723
492.447	1044.76
495.34	629.098
498.232	364.168
501.125	119.59
504.018	79.7578
506.911	126.023
509.803	47.4141
512.696	37.5039
515.589	84.6836
518.481	13.0312
521.374	66.4766
524.267	258.457
527.159	315.613
530.052	393.809
532.945	403.184
535.837	548.852
538.73	487.07
541.623	430.242
544.516	196.07
547.408	136.152
550.301	337.984
553.194	259.809
556.086	64.6797
558.979	48.4219
561.872	6.93359
564.764	149.07
567.657	138.383
570.55	296.301
573.443	221.418
576.335	70.7539
579.228	32.3359
582.121	8.32422
585.013	71.3867
587.906	47.8516
590.799	2.50391
593.692	207.43
596.584	239.004
599.477	429.746
602.37	662.352
605.262	779.516
608.155	866.641
611.048	823.129
613.94	463.695
616.833	424.609
619.726	492.715
622.619	740.941
625.511	931.758
628.404	1288.71
631.297	1569.96
634.189	1844.37
637.082	1837.3
639.975	1799.01
642.867	1921.77
645.76	1921.39
648.653	2063.73
651.545	1836.73
654.438	1682.14
657.331	1126.88
660.224	1182.24
663.116	1453.44
666.009	959.371
668.902	813.082
671.794	832.051
674.687	553.539
677.58	578.559
680.472	308.824
683.365	148.484
686.258	19.6562
689.151	17.625
692.043	147.137
694.936	38.2891
697.829	205.836
700.721	79.4961
703.614	62.8633
706.507	331.578
709.399	187.406
712.292	158.023
715.185	244.797
718.078	343.012
720.97	314.797
723.863	515.918
726.756	717.34
729.648	1150.8
732.541	1597.16
735.434	1911.91
738.327	2393.47
741.219	2612.26
744.112	1703.84
747.005	789.426
749.897	388.336
752.79	117.223
755.683	30.7734
758.576	169.742
761.468	34.9805
764.361	66.5039
767.254	9.375
770.146	254.348
773.039	610.094
775.932	747.859
778.824	1190.98
781.717	1080.92
784.61	930.394
787.503	540.363
790.395	381.383
793.288	238.156
796.181	131.746
799.073	279.352
801.966	130.457
804.859	17.3711
807.751	125.281
810.644	220.43
813.537	323.75
816.429	272.359
819.322	498.785
822.215	733.133
825.108	894.426
828	1222.51
830.893	1449.61
833.786	1499.34
836.678	912.93
839.571	603.121
842.464	231.043
845.356	173.488
848.249	67.707
851.142	53.9336
854.035	236.93
856.927	148.672
859.82	173.231
862.713	21.1914
865.605	294.356
868.498	271.797
871.391	274.019
874.284	340.332
877.176	402.926
880.069	463.707
882.962	247.031
885.854	222.981
888.747	314.898
891.64	190.906
894.533	132.777
897.425	323.574
900.318	249.894
903.211	210.215
906.103	180.238
908.996	79.4883
911.889	104.453
914.781	285.723
917.674	6.50391
920.567	31.9531
923.46	93.25
926.352	48.7773
929.245	144.273
932.138	26.25
935.03	24.418
937.923	141.133
940.816	288.926
943.708	127.715
946.601	329.34
949.494	162.098
952.386	40.5547
955.279	213.168
958.172	192.019
961.065	42.8672
963.957	66.7188
966.85	130.606
969.743	61.8281
972.635	131.652
975.528	217.113
978.421	269.582
981.313	199.363
984.206	178.223
987.099	331.406
989.992	572.656
992.884	429.531
995.777	572.949
998.67	812.461
1001.56	1127.52
1004.46	1472.06
1007.35	1723.71
1010.24	1637.07
1013.13	1516.19
1016.03	1357.74
1018.92	1056.93
1021.81	911.625
1024.7	554.641
1027.6	415.371
1030.49	337.613
1033.38	341.25
1036.28	357.559
1039.17	297.711
1042.06	343.523
1044.95	413.644
1047.85	380.949
1050.74	222.602
1053.63	282.527
1056.52	255.215
1059.42	283.769
1062.31	226.793
1065.2	54.2109
1068.09	268.344
1070.99	23.8242
1073.88	5.77344
1076.77	189.551
1079.66	110.125
1082.56	35.8398
1085.45	43.2305
1088.34	136.762
1091.24	211.566
1094.13	178.805
1097.02	9.97656
1099.91	93.2305
1102.81	9.5625
1105.7	157.445
1108.59	178.16
1111.48	111.039
1114.38	100.769
1117.27	284.941
1120.16	92.8555
1123.06	162.301
1125.95	210.215
1128.84	190.906
1131.73	159.062
1134.63	165.891
1137.52	170.484
1140.41	167.949
1143.31	337.75
1146.2	321.039
1149.09	504.852
1151.98	464.609
1154.88	313.918
1157.77	456.031
1160.66	427.887
1163.55	289.879
1166.45	220.25
1169.34	352.055
1172.23	234.211
1175.12	228.641
1178.02	200.824
1180.91	360.481
1183.8	283
1186.69	336.543
1189.59	172.457
1192.48	84.5156
1195.37	267.492
1198.27	134.574
1201.16	139.375
1204.05	128.363
1206.94	177.391
1209.84	64.2422
1212.73	130.992
1215.62	108.043
1218.52	192.633
1221.41	20.6562
1224.3	56.5977
1227.19	111.484
1230.09	94.6523
1232.98	49.3477
1235.87	66.5312
1238.76	273.492
1241.66	358.316
1244.55	117.035
1247.44	333.383
1250.34	107.551
1253.23	119.441
1256.12	324.508
1259.01	255.019
1261.91	400.269
1264.8	263.531
1267.69	248.09
1270.58	439.019
1273.48	325.481
1276.37	272.234
1279.26	199.57
1282.15	241.391
1285.05	277.508
1287.94	255.09
1290.83	266.664
1293.72	355.945
1296.62	83.4375
1299.51	315.133
