Measurement: Raman, 785 nm, unoriented, Raman Data Processed
Mineral: Ginorite
Rruff sample: R070305
Ideal chemistry: Ca_2_B_14_O_20_(OH)_6_5H_2_O
Locality: Mott Mine, Twenty Mule Team Canyon, Death Valley, Inyo County, California, USA
Source: James Shigley
Description: White massive granular
Raman shift (cm-1)	intensity
187.069	0
189.962	0.862305
192.855	81.5137
195.748	176.425
198.64	152.612
201.533	215.314
204.426	232.892
207.318	113.49
210.211	35.2422
213.104	112.983
215.996	90.1494
218.889	92.625
221.782	142.356
224.674	99.5498
227.567	147.668
230.46	79.9775
233.353	79.6982
236.245	29.9834
239.138	91.8779
242.031	92.0371
244.923	100.772
247.816	147.073
250.709	146.749
253.601	148.585
256.494	191.723
259.387	185.16
262.28	132.586
265.172	19.1865
268.065	69.8359
270.958	50.8115
273.85	94.1807
276.743	76.8184
279.636	4.74316
282.529	90.5791
285.421	34.6123
288.314	37.5391
291.207	30.4404
294.099	11.8047
296.992	2.59277
299.885	16.9932
302.777	22.2178
305.67	27.7979
308.563	15.0166
311.455	60.6162
314.348	24.8418
317.241	80.3994
320.134	78.5654
323.026	148.331
325.919	167.125
328.812	156.16
331.704	185.322
334.597	106.362
337.49	69.8037
340.382	71.7637
343.275	21.502
346.168	1.35742
349.061	70.8193
351.953	99.4522
354.846	125.868
357.739	125.297
360.631	222.694
363.524	307.371
366.417	489.782
369.31	655.802
372.202	747.69
375.095	782.718
377.988	634.053
380.88	400.569
383.773	247.795
386.666	67.7158
389.558	99.0391
392.451	132.506
395.344	112.826
398.236	60.5889
401.129	51.4805
404.022	38.3213
406.915	74.4326
409.807	46.3369
412.7	79.8428
415.593	93.7734
418.485	58.3281
421.378	58.1699
424.271	59.5352
427.163	30.2578
430.056	22.5791
432.949	29.5254
435.842	87.8008
438.734	101.652
441.627	182.742
444.52	279.13
447.412	414.519
450.305	431.033
453.198	328.998
456.091	213.705
458.983	124.265
461.876	131.793
464.769	170.77
467.661	216.742
470.554	190.053
473.447	127.66
476.339	144.878
479.232	145.24
482.125	162.131
485.017	202.046
487.91	312.269
490.803	328.344
493.696	322.755
496.588	156.085
499.481	132.05
502.374	88.5635
505.266	3.48535
508.159	30.2588
511.052	7.85254
513.944	13.8604
516.837	13.9629
519.73	35.5703
522.623	34.1846
525.515	30.2568
528.408	92.1699
531.301	122.568
534.193	161.365
537.086	200
539.979	151.001
542.871	81.1484
545.764	75.6064
548.657	47.5508
551.55	24.2119
554.442	15.7734
557.335	40.9551
560.228	71.9312
563.12	56.7349
566.013	66.25
568.906	78.6733
571.798	16.8623
574.691	46.3301
577.584	30.2026
580.477	2.95801
583.369	7.854
586.262	10.1675
589.155	4.68701
592.047	7.62549
594.94	20.8145
597.833	17.2988
600.726	42.1714
603.618	153.939
606.511	189.607
609.404	169.093
612.296	112.96
615.189	88.8135
618.082	5.37744
620.974	122.601
623.867	157.048
626.76	218.426
629.653	297.8
632.545	440.683
635.438	434.866
638.331	406.219
641.223	422.513
644.116	464.984
647.009	463.937
649.901	431.763
652.794	425.48
655.687	405.174
658.58	248.641
661.472	239.49
664.365	210.295
667.258	205.244
670.15	149.791
673.043	171.34
675.936	71.7651
678.828	107.285
681.721	63.5889
684.614	116.395
687.506	57.1328
690.399	2.01221
693.292	2.41406
696.185	25.668
699.077	110.005
701.97	2.79492
704.863	100.477
707.755	19.9487
710.648	100.937
713.541	117.055
716.433	94.2905
719.326	62.812
722.219	122.607
725.112	147.837
728.004	259.784
730.897	324.46
733.79	430.725
736.682	565.128
739.575	720.069
742.468	685.104
745.361	449.859
748.253	207.822
751.146	104.077
754.039	53.5093
756.931	8.95947
759.824	35.5767
762.717	57.874
765.609	35.5918
768.502	34.0537
771.395	70.1753
774.288	72.7075
777.18	201.048
780.073	251.878
782.966	334.221
785.858	264.586
788.751	185.56
791.644	31.5029
794.536	120.585
797.429	3.33301
800.322	33.7754
803.215	43.3672
806.107	23.7681
809	37.727
811.893	56.2827
814.785	75.5029
817.678	150.533
820.571	130.089
823.463	154.816
826.356	221.519
829.249	305.394
832.141	333.085
835.034	303.657
837.927	284.952
840.82	63.0806
843.712	35.0327
846.605	106.013
849.498	26.8325
852.39	15.6738
855.283	0.956543
858.176	44.73
861.068	65.8042
863.961	29.7646
866.854	105.483
869.747	89.8188
872.639	82.9883
875.532	147.517
878.425	69.5093
881.317	76.7481
884.21	64.5713
887.103	128.79
889.995	79.2959
892.888	72.1943
895.781	29.562
898.674	43.2378
901.566	79.2866
904.459	26.481
907.352	41.7622
910.244	32.7812
913.137	32.0049
916.03	22.5049
918.923	16.3896
921.815	25.1738
924.708	17.335
927.601	32.7749
930.493	27.4204
933.386	13.8286
936.279	25.041
939.171	55.4751
942.064	44.0234
944.957	97.6372
947.85	88.8369
950.742	106.595
953.635	37.8691
956.528	67.6074
959.42	18.2417
962.313	50.1465
965.206	21.6025
968.098	59.8013
970.991	39.9526
973.884	8.8418
976.777	91.061
979.669	23.4785
982.562	115.374
985.455	86.6631
988.347	97.8555
991.24	118.081
994.133	89.7378
997.025	146.424
999.918	184.416
1002.81	315.513
1005.7	417.31
1008.6	426.896
1011.49	461.733
1014.38	418.065
1017.27	244.191
1020.17	214.408
1023.06	192.973
1025.95	65.3477
1028.85	115.186
1031.74	89.062
1034.63	69.8193
1037.52	109.153
1040.42	81.2969
1043.31	166.251
1046.2	62.1807
1049.09	81.0503
1051.99	80.3945
1054.88	70.1318
1057.77	39.0781
1060.66	56.7769
1063.56	19.9297
1066.45	6.24902
1069.34	4.03711
1072.24	24.9819
1075.13	44.1548
1078.02	78.0503
1080.91	15.5928
1083.81	64.1646
1086.7	45.8696
1089.59	33.3105
1092.48	79.147
1095.38	31.7998
1098.27	74.5142
1101.16	87.4326
1104.06	34.9346
1106.95	27.835
1109.84	102.94
1112.73	47.3672
1115.63	72.9907
1118.52	51.167
1121.41	65.6196
1124.3	52.4243
1127.2	64.6894
1130.09	74.2573
1132.98	84.3154
1135.88	4.60205
1138.77	4.30273
1141.66	31.9526
1144.55	25.4258
1147.45	64.1416
1150.34	68.3945
1153.23	65.854
1156.12	41.3115
1159.02	3.44141
1161.91	80.9228
1164.8	15.7573
1167.69	4.95654
1170.59	5.36035
1173.48	12.3648
1176.37	12.6152
1179.27	89.0532
1182.16	69.7407
1185.05	96.2217
1187.94	101.708
1190.84	81.4233
1193.73	91.9228
1196.62	35.6587
1199.51	129.394
1202.41	85.2197
1205.3	88.0625
1208.19	111.171
1211.09	95.4644
1213.98	10.8672
1216.87	42.2539
1219.76	19.8906
1222.66	4.88135
1225.55	5.32275
1228.44	45.5185
