Measurement: Raman, 785 nm, unoriented, Raman Data Processed
Mineral: Glauconite
Rruff sample: R070295
Ideal chemistry: (K,Na)(Fe^3+^,Al,Mg)_2_(Si,Al)_4_O_10_(OH)_2_
Locality: Hope Green Point, Coringa island, Queensland, Australia
Source: Michael Scott
Description: Loose aggregate of dark green grains associated with quartz
Raman shift (cm-1)	intensity
173.088	0
175.981	37.708
178.873	79.2607
181.766	134.955
184.659	155.325
187.552	256.387
190.444	241.833
193.337	272.644
196.23	355.685
199.122	450.604
202.015	498.041
204.908	399.333
207.8	365.631
210.693	289.341
213.586	252.623
216.478	260.919
219.371	346.572
222.264	404.956
225.157	440.844
228.049	463.106
230.942	587.227
233.835	676.429
236.727	837.91
239.62	1025.67
242.513	1151.42
245.405	1232.62
248.298	1232.05
251.191	1259.53
254.084	1366.17
256.976	1348.07
259.869	1303.63
262.762	1238.65
265.654	1209.34
268.547	1138.51
271.44	1043.59
274.332	979.663
277.225	891.643
280.118	939.252
283.011	797.043
285.903	838.536
288.796	790.675
291.689	563.64
294.581	449.345
297.474	412.691
300.367	351.556
303.26	325.144
306.152	154.795
309.045	101.259
311.938	126.839
314.83	27.6201
317.723	20.3115
320.616	73.8008
323.508	64.1777
326.401	0.457031
329.294	28.7354
332.187	31.7959
335.079	67.7666
337.972	30.2441
340.865	88.7764
343.757	103.015
346.65	112.978
349.543	225.983
352.435	238.203
355.328	208.766
358.221	157.775
361.113	162.753
364.006	107.302
366.899	210.582
369.792	203.348
372.684	310.432
375.577	245.697
378.47	364.651
381.362	168.938
384.255	163.621
387.148	147.196
390.041	149.912
392.933	172.65
395.826	191.414
398.719	89.9033
401.611	66.7275
404.504	168.35
407.397	6.58301
410.289	47.8008
413.182	46.252
416.075	10.1748
418.967	42.8486
421.86	27.1133
424.753	28.6758
427.646	61.5342
430.538	7.91113
433.431	79.2666
436.324	101.743
439.216	19.4219
442.109	87.9248
445.002	172.01
447.894	126.616
450.787	35.7832
453.68	164.567
456.573	118.492
459.465	147.642
462.358	279.249
465.251	262.299
468.143	205.261
471.036	126.677
473.929	160.388
476.822	106.128
479.714	56.8105
482.607	13.8994
485.5	75.5986
488.392	70.0166
491.285	49.1367
494.178	175.413
497.07	19.6953
499.963	78.5762
502.856	56.5098
505.748	86.835
508.641	100.923
511.534	185.776
514.427	147.696
517.319	184.128
520.212	203.923
523.105	152.263
525.997	176.767
528.89	172.962
531.783	152.976
534.676	258.798
537.568	323.854
540.461	262.169
543.354	325.393
546.246	331.184
549.139	265.157
552.032	250.05
554.924	286.38
557.817	229.455
560.71	206.066
563.602	189.316
566.495	139.641
569.388	73.8779
572.281	80.9951
575.173	26.6465
578.066	11.4375
580.959	20.0566
583.851	41.7383
586.744	6.29004
589.637	35.2344
592.529	33.877
595.422	18.1797
598.315	39.0625
601.208	32.5996
604.1	8.81152
606.993	37.9912
609.886	54.8203
612.778	39.5488
615.671	2.28125
618.564	38.6504
621.457	61.5586
624.349	83.1133
627.242	115.61
630.135	91.3643
633.027	88.8477
635.92	167.488
638.813	99.8272
641.705	176.742
644.598	104.774
647.491	153.757
650.384	116.346
653.276	164.708
656.169	130.456
659.062	143.867
661.954	133.398
664.847	187.627
667.74	261.906
670.632	129.547
673.525	231.37
676.418	266.933
679.311	242.829
682.203	301.264
685.096	335.491
687.989	250.805
690.881	217.31
693.774	218.382
696.667	312.376
699.559	201.659
702.452	210.001
705.345	154.606
708.237	151.395
711.13	83.8164
714.023	36.0723
716.916	62.9971
719.808	74.6582
722.701	94.0244
725.594	9.81152
728.486	50.9619
731.379	30.0479
734.272	60.1602
737.164	67.7256
740.057	63.3672
742.95	38.5781
745.843	12.9404
748.735	57.252
751.628	87.6738
754.521	43.835
757.413	19.5527
760.306	35.2217
763.199	28.5649
766.091	101.025
768.984	81.8472
771.877	57.9653
774.77	43.064
777.662	79.0127
780.555	37.5278
783.448	7.81055
786.34	38.3374
789.233	22.1777
792.126	132.388
795.019	58.6812
797.911	47.1348
800.804	20.6138
803.697	25.606
806.589	71.2188
809.482	66.8745
812.375	40.625
815.267	45.1006
818.16	23.0469
821.053	89.3638
823.946	71.3477
826.838	33.0503
829.731	17.5386
832.624	4.75049
835.516	107.736
838.409	71.7993
841.302	97.6431
844.194	76.5049
847.087	105.644
849.98	98.9995
852.872	14.5337
855.765	34.8623
858.658	23.271
861.551	70.8154
864.443	40.1221
867.336	74.1782
870.229	73.7017
873.121	9.9165
876.014	1.24707
878.907	74.2686
881.799	61.1865
884.692	32.7988
887.585	5.72314
890.478	4.12939
893.37	41.2666
896.263	100.749
899.156	32.8403
902.048	79.8242
904.941	58.1714
907.834	29.4092
910.726	47.8911
913.619	52.3789
916.512	72.4712
919.405	66.8643
922.297	78.6865
925.19	13.3501
928.083	56.7549
930.975	75.9688
933.868	83.1465
936.761	97.0644
939.654	53.2886
942.546	42.2559
945.439	17.5469
948.332	84.2305
951.224	110.914
954.117	76.9228
957.01	58.5127
959.902	97.0923
962.795	43.4541
965.688	106.648
968.581	133.386
971.473	106.986
974.366	83.2109
977.259	46.4888
980.151	61.4116
983.044	95.687
985.937	133.873
988.829	55.4702
991.722	56.4839
994.615	20.5649
997.508	94.8638
1000.4	148.796
1003.29	33.9717
1006.19	52.0444
1009.08	93.6753
1011.97	2.39844
1014.86	7.95508
1017.76	114.934
1020.65	26.0898
1023.54	80.5439
1026.43	51.0308
1029.33	42.3291
1032.22	74.3569
1035.11	61.752
1038.01	0.959473
1040.9	45.7822
1043.79	34.7949
1046.68	45.3823
1049.58	43.8301
1052.47	160.506
1055.36	197.587
1058.25	265.185
1061.15	382.791
1064.04	416.296
1066.93	328.508
1069.83	285.12
1072.72	148.629
1075.61	139.537
1078.5	59.1182
1081.4	23.7168
1084.29	24.2314
1087.18	12.4961
1090.07	7.88965
1092.97	40.792
1095.86	27.1182
1098.75	134.065
1101.64	208.961
1104.54	224.782
1107.43	259.555
1110.32	343.747
1113.21	316.819
1116.11	360.427
1119	327.867
1121.89	366.264
1124.79	287.256
1127.68	236.715
1130.57	201.309
1133.46	182.902
1136.36	130.841
1139.25	52.1572
1142.14	95.8584
1145.04	49.2607
1147.93	20.8662
1150.82	18.4014
1153.71	0.113281
