Measurement: Raman, 785 nm, unoriented, Raman Data Processed
Mineral: Glaucocerinite
Rruff sample: R060831
Ideal chemistry: Zn^2+^_1-x_Al_x_(S^6+^O_4_)_x/2_(OH)_2_nH_2_O  (x<0.5, n>3x/2)
Locality: Laurion, Greece
Source: Michael Scott
Description: Light blue botryoidal crusts
Raman shift (cm-1)	intensity
185.649	0
188.542	14.1738
191.435	78.2134
194.327	15.5806
197.22	91.8435
200.113	102.734
203.005	81.082
205.898	92.9836
208.791	78.075
211.684	29.7214
214.576	19.9477
217.469	69.9785
220.362	23.042
223.254	65.0591
226.147	82.1826
229.04	75.8674
231.932	108.305
234.825	93.4556
237.718	61.637
240.611	102.674
243.503	76.5613
246.396	70.8748
249.289	79.1033
252.181	114.736
255.074	73.0767
257.967	60.1316
260.859	115.751
263.752	132.654
266.645	44.4014
269.538	74.6538
272.43	94.51
275.323	124.047
278.216	76.8325
281.108	82.771
284.001	76.6477
286.894	61.249
289.786	11.3406
292.679	39.0791
295.572	1.65259
298.464	26.8386
301.357	61.3977
304.25	60.8108
307.143	89.1108
310.035	115.835
312.928	45.9043
315.821	69.6545
318.713	52.6636
321.606	8.32739
324.499	72.0945
327.392	98.2595
330.284	79.7566
333.177	77.2625
336.07	63.1606
338.962	50.0727
341.855	56.0898
344.748	0.655518
347.64	36.9617
350.533	88.1741
353.426	61.2786
356.318	86.3118
359.211	44.0371
362.104	36.8413
364.997	56.6301
367.889	41.8313
370.782	78.5957
373.675	41.6782
376.567	62.3286
379.46	72.4246
382.353	37.2549
385.245	10.8611
388.138	38.5979
391.031	5.3064
393.924	35.3772
396.816	36.1965
399.709	87.1003
402.602	41.4522
405.494	1.78272
408.387	45.5969
411.28	7.41894
414.173	34.2507
417.065	63.7305
419.958	81.2266
422.851	110.44
425.743	131.951
428.636	157.087
431.529	130.219
434.421	241.508
437.314	246.272
440.207	303.95
443.099	318.147
445.992	377.293
448.885	368.652
451.778	353.807
454.67	413.958
457.563	380.318
460.456	361.199
463.348	371.176
466.241	380.119
469.134	360.948
472.026	362.154
474.919	329.143
477.812	296.013
480.705	265.656
483.597	283.924
486.49	240.576
489.383	282.92
492.275	264.902
495.168	224.949
498.061	200.188
500.954	185.401
503.846	128.995
506.739	79.0105
509.632	16.1411
512.524	2.94092
515.417	80.4001
518.31	7.98633
521.202	5.37622
524.095	17.4541
526.988	2.09937
529.88	2.16284
532.773	13.779
535.666	0.505615
538.559	133.779
541.451	134.055
544.344	158.249
547.237	175.78
550.129	135.352
553.022	168.103
555.915	134.416
558.808	161.894
561.7	136.306
564.593	133.39
567.486	82.8645
570.378	52.1069
573.271	114.54
576.164	50.3718
579.056	111.963
581.949	101.929
584.842	71.9871
587.735	85.7795
590.627	88.4504
593.52	118.729
596.413	120.488
599.305	113.857
602.198	80.3069
605.091	103.866
607.983	139.989
610.876	137.786
613.769	110.381
616.662	157.587
619.554	148.371
622.447	174.664
625.34	99.8721
628.232	121.551
631.125	69.1165
634.018	104.978
636.91	83.1431
639.803	54.0022
642.696	18.0288
645.588	38.9751
648.481	2.05469
651.374	5.01636
654.267	1.10449
657.159	27.563
660.052	13.355
662.945	41.5886
665.837	35.4209
668.73	26.0789
671.623	31.437
674.515	46.5207
677.408	39.8213
680.301	16.2742
683.194	4.06543
686.086	89.7639
688.979	43.2903
691.872	22.2109
694.764	121.519
697.657	103.856
700.55	83.4273
703.442	88.5803
706.335	102.498
709.228	87.8555
712.121	124.45
715.013	69.8479
717.906	77.1562
720.799	60.7744
723.691	82.03
726.584	104.597
729.477	58.854
732.37	73.7168
735.262	63.1704
738.155	106.284
741.048	140.429
743.94	97.9563
746.833	31.1477
749.726	101.51
752.618	76.7602
755.511	76.9783
758.404	61.7571
761.297	75.8106
764.189	45.9434
767.082	55.5149
769.975	67.532
772.867	59.5789
775.76	125.888
778.653	79.2669
781.545	125.32
784.438	109.772
787.331	83.7302
790.223	54.7227
793.116	51.6418
796.009	63.5173
798.902	32.5073
801.794	2.11133
804.687	57.0967
807.58	6.19482
810.472	90.9934
813.365	98.2729
816.258	82.7366
819.15	69.2456
822.043	66.5085
824.936	59.4377
827.829	60.1294
830.721	82.3938
833.614	41.8198
836.507	37.9929
839.399	30.1929
842.292	102.456
845.185	35.5593
848.077	13.9382
850.97	65.1448
853.863	36.1963
856.756	16.406
859.648	4.02954
862.541	51.1809
865.434	14.2112
868.326	53.9143
871.219	5.00537
874.112	5.80566
877.005	19.0964
879.897	19.4158
882.79	1.3833
885.683	17.0962
888.575	20.8657
891.468	22.7776
894.361	18.0845
897.253	4.89868
900.146	3.90723
903.039	0.135986
905.932	10.9768
908.824	6.82593
911.717	38.7593
914.61	36.3643
917.502	6.3269
920.395	46.7507
923.288	8.88086
926.18	46.1389
929.073	77.3318
931.966	101.839
934.859	136.006
937.751	147.468
940.644	113.069
943.537	149.087
946.429	143.174
949.322	246.879
952.215	221.861
955.107	269.099
958	315.959
960.893	414.777
963.785	485.264
966.678	600.067
969.571	646.67
972.464	833.805
975.356	1039.57
978.249	1168.78
981.142	1278.49
984.034	1164.15
986.927	946.429
989.82	694.645
992.712	366.097
995.605	258.899
998.498	166.223
1001.39	161.139
1004.28	97.779
1007.18	75.199
1010.07	28.3147
1012.96	84.0789
1015.85	95.3572
1018.75	149.179
1021.64	159.964
1024.53	199.597
1027.42	271.19
1030.32	400.224
1033.21	385.215
1036.1	424.894
1039	354.833
1041.89	309.213
1044.78	263.715
1047.67	163.32
1050.57	150.652
1053.46	96.3596
1056.35	93.1072
1059.24	90.7832
1062.14	28.9983
1065.03	19.0525
1067.92	20.166
1070.82	34.6199
1073.71	9.42065
1076.6	15.8909
1079.49	10.011
1082.39	19.9578
1085.28	5.82935
1088.17	16.8296
1091.06	4.87305
1093.96	35.5872
1096.85	19.2078
1099.74	46.0376
1102.63	0.584961
1105.53	78.0169
1108.42	0.209473
1111.31	61.9175
1114.21	44.9839
1117.1	63.5354
1119.99	80.9255
1122.88	74.875
1125.78	104.566
1128.67	83.2356
1131.56	81.6536
1134.45	91.7329
1137.35	121.656
1140.24	75.0876
1143.13	73.053
1146.03	111.758
1148.92	113.267
1151.81	105.448
1154.7	127.23
1157.6	74.8135
1160.49	89.5181
1163.38	64.4167
1166.27	100.881
1169.17	58.8376
1172.06	67.4331
1174.95	73.8572
1177.85	30.7505
1180.74	43.4011
1183.63	90.9275
1186.52	75.7048
1189.42	68.4334
1192.31	70.811
1195.2	51.4536
1198.09	64.6204
1200.99	72.8106
1203.88	3.58228
1206.77	0.732178
1209.66	54.718
1212.56	15.3027
1215.45	54.9856
1218.34	56.3872
1221.24	44.8342
1224.13	56.1499
1227.02	51.5137
1229.91	57.7043
1232.81	42.2715
1235.7	11.6082
1238.59	36.887
1241.48	3.76782
1244.38	56.3428
1247.27	51.1196
1250.16	32.0967
1253.06	18.6411
1255.95	17.7559
