Measurement: Raman, 532 nm, unoriented, Raman Data Processed
Mineral: Glauconite
Rruff sample: R070295
Ideal chemistry: (K,Na)(Fe^3+^,Al,Mg)_2_(Si,Al)_4_O_10_(OH)_2_
Locality: Hope Green Point, Coringa island, Queensland, Australia
Source: Michael Scott
Description: Loose aggregate of dark green grains associated with quartz
Raman shift (cm-1)	intensity
173.286	0
176.178	36.1816
179.071	92.8242
181.964	148.477
184.856	64.0762
187.749	196.201
190.642	210.498
193.535	335.643
196.427	449.957
199.32	361.172
202.213	489.932
205.105	325.727
207.998	383.961
210.891	400.191
213.783	227.068
216.676	198.953
219.569	160.326
222.462	56.4082
225.354	1.44922
228.247	7.27148
231.14	41.1855
234.032	66.9414
236.925	185.678
239.818	297.668
242.71	528.42
245.603	580.203
248.496	935.219
251.388	1185.56
254.281	1321.82
257.174	1423.48
260.067	1447.62
262.959	1332.83
265.852	1315.88
268.745	1210.91
271.637	1106.31
274.53	892.762
277.423	790.09
280.315	751.055
283.208	559.898
286.101	432.887
288.994	287.75
291.886	325.019
294.779	242.894
297.672	206.414
300.564	209.295
303.457	172.949
306.35	133.986
309.243	250.647
312.135	119.734
315.028	204.699
317.921	115.666
320.813	75.9492
323.706	96.9961
326.599	8.86133
329.491	20.3652
332.384	0.466797
335.277	20.6465
338.17	43.9316
341.062	111.84
343.955	120.59
346.848	128.918
349.74	273.981
352.633	331.762
355.526	214.992
358.418	209.957
361.311	183.543
364.204	119.088
367.097	214.598
369.989	109.984
372.882	104.436
375.775	119.182
378.667	163.299
381.56	218.877
384.453	197.68
387.346	171.451
390.238	146.238
393.131	19.6758
396.024	51.0703
398.916	120.353
401.809	71.0625
404.702	144.297
407.594	9.49219
410.487	60.6094
413.38	288.744
416.272	206.285
419.165	215.967
422.058	233.393
424.951	311.742
427.843	389.281
430.736	378.565
433.629	496.006
436.521	543.816
439.414	559.193
442.307	569.893
445.2	638.869
448.092	451.592
450.985	504.654
453.878	456.842
456.77	411.102
459.663	234.734
462.556	258.572
465.448	122.391
468.341	113.49
471.234	83.8574
474.127	58.5918
477.019	30.9941
479.912	78.4453
482.805	130.074
485.697	118.231
488.59	137.781
491.483	127.699
494.375	120.164
497.268	103.203
500.161	151.867
503.053	236.82
505.946	258.789
508.839	101.121
511.732	216.336
514.624	219.957
517.517	154.348
520.41	120.219
523.302	225.715
526.195	171.641
529.088	78.1953
531.981	240.438
534.873	117.484
537.766	284.406
540.659	396.356
543.551	363.856
546.444	233.414
549.337	361.469
552.229	490.805
555.122	501.93
558.015	419.984
560.908	493.082
563.8	749.426
566.693	748.688
569.586	682.309
572.478	801.375
575.371	1139.63
578.264	1230.31
581.156	1366.25
584.049	1305.22
586.942	1308.34
589.835	1229.53
592.727	1017.83
595.62	836.562
598.513	524.297
601.405	568.129
604.298	239.215
607.191	97.6875
610.083	53.8516
612.976	5.82812
615.869	24.9648
618.762	45.2891
621.654	1.92969
624.547	74.2344
627.44	75.0039
630.332	63.4609
633.225	24.3281
636.118	143.113
639.01	41.5977
641.903	184.941
644.796	179.137
647.689	120.574
650.581	177.137
653.474	310.34
656.367	210.051
659.259	185.652
662.152	315.996
665.045	191.887
667.938	312.824
670.83	336.168
673.723	335.281
676.616	413.461
679.508	540.246
682.401	714.785
685.294	999.387
688.186	1011.86
691.079	1205.76
693.972	1222.92
696.865	1080.09
699.757	858.523
702.65	696.894
705.543	546.094
708.435	431.93
711.328	247.574
714.221	163.801
717.113	205.969
720.006	193.516
722.899	92.8008
725.792	58.3945
728.684	39.4844
731.577	80.5039
734.47	23.6289
737.362	221.328
740.255	101.074
743.148	61.3164
746.04	95.6719
748.933	53.9375
751.826	152.523
754.719	253.41
757.611	218.797
760.504	37.4375
763.397	211.227
766.289	233.891
769.182	177.387
772.075	237.973
774.967	172.856
777.86	192.188
780.753	170.223
783.646	174.469
786.538	233.238
789.431	233.512
792.324	204.254
795.216	246.176
798.109	272.203
801.002	156.086
803.894	146.391
806.787	117.695
809.68	122.258
812.573	139.086
815.465	103.121
818.358	41.3789
821.251	162.805
824.143	163.617
827.036	80.0664
829.929	121.582
832.822	136.676
835.714	46.3633
838.607	132.824
841.5	4.63672
844.392	127.648
847.285	47.9531
850.178	208.594
853.07	133.664
855.963	16.707
858.856	112.035
861.749	203.445
864.641	92.0469
867.534	142.625
870.427	58.7656
873.319	123.812
876.212	67.8203
879.105	139.625
881.997	95.5664
884.89	85.7031
887.783	158.586
890.676	121.59
893.568	66.4375
896.461	268.59
899.354	93.9062
902.246	173.684
905.139	197.629
908.032	365.809
910.924	197.488
913.817	214.473
916.71	390.57
919.602	144.082
922.495	353.856
925.388	273.125
928.281	153.727
931.173	320.766
934.066	203.078
936.959	386.215
939.851	232.801
942.744	391.367
945.637	233.027
948.529	400.172
951.422	291.004
954.315	362.961
957.208	386.234
960.1	308.676
962.993	288.262
965.886	254.023
968.778	228.777
971.671	99.875
974.564	124.496
977.457	129.844
980.349	43.6211
983.242	212.078
986.135	208.269
989.027	212.086
991.92	170.32
994.813	302.402
997.705	74.4492
1000.6	14.9492
1003.49	241.113
1006.38	128.242
1009.28	53.0156
1012.17	75.668
1015.06	73.1641
1017.95	11.4102
1020.85	79.2266
1023.74	38.1406
1026.63	16.25
1029.53	17.2695
1032.42	56.1797
1035.31	127.473
1038.2	136.043
1041.1	116.914
1043.99	43.4062
1046.88	88.793
1049.77	53.0273
1052.67	79.9492
1055.56	83.4141
1058.45	143.949
1061.35	169.434
1064.24	204.75
1067.13	235.738
1070.02	305.566
1072.92	52.2422
1075.81	316.457
1078.7	286.816
1081.59	136.285
1084.49	203.734
1087.38	120.242
1090.27	291.141
1093.16	342.762
1096.06	284.859
1098.95	261.496
1101.84	172.281
1104.73	128.996
1107.63	187.203
1110.52	264.336
1113.41	481.762
1116.31	321.242
1119.2	276.914
1122.09	108.519
1124.98	255.215
1127.88	47.6953
1130.77	185.519
1133.66	169.664
1136.56	157.348
1139.45	119.391
1142.34	190.969
1145.23	86.7305
1148.13	79.0938
1151.02	165.328
1153.91	98.9102
1156.8	113.848
1159.7	224.992
1162.59	16.6914
1165.48	151.305
1168.38	147.992
1171.27	151.769
1174.16	132.019
1177.05	152.203
1179.95	8.49609
1182.84	110.93
1185.73	105.695
1188.62	104.539
1191.52	143.738
1194.41	320.258
1197.3	46.5547
1200.19	172.981
1203.09	157.34
1205.98	33.4531
1208.87	102.523
1211.77	131.258
1214.66	43.6484
1217.55	40.9766
1220.44	182.438
1223.34	184.883
1226.23	206.516
1229.12	62.5469
1232.01	114.125
1234.91	41.1836
1237.8	108.356
1240.69	103.438
1243.59	255.59
1246.48	23.6523
1249.37	159.633
1252.26	129.121
1255.16	0.25
1258.05	284.805
1260.94	198.566
1263.83	276.426
1266.73	191.578
1269.62	175.262
1272.51	170.887
1275.4	296.887
1278.3	375.754
1281.19	236.152
1284.08	329.879
1286.98	138.34
1289.87	239.152
1292.76	288.856
1295.65	197.559
1298.55	221.051
1301.44	371.676
1304.33	19.4023
