Measurement: Raman, 532 nm, unoriented, Raman Data Processed
Mineral: Glaucophane
Rruff sample: R070515
Ideal chemistry: [box]Na_2_(Mg_3_Al_2_)Si_8_O_22_(OH)_2_
Locality: La Beaume, near Turin, Piedmont, Italy
Source: James Shigley
Description: Black, prismatic crystals in a calcite matrix
Measured chemistry: ([box]_0.96_Na_0.04_)_Σ=1_(Na_1.93_Ca_0.07_)_Σ=2_((Mg_1.63_Fe^2+^_1.41_)_Σ=3.04_(Al_1.00_Fe^3+^_0.96_)_Σ=1.96_)(Si_7.93_Al_0.07_)_Σ=8_O_22_((OH)_1.90_F_0.10_)_Σ=2_; OH estimated by difference and charge balance
Raman shift (cm-1)	intensity
154.494	0
157.387	13.8819
160.28	13.6399
163.173	27.0447
166.065	51.3872
168.958	88.5872
171.851	164.799
174.743	209.894
177.636	165.645
180.529	80.7304
183.421	51.0147
186.314	26.1476
189.207	44.4616
192.1	50.0448
194.992	51.109
197.885	76.5264
200.778	93.081
203.67	145.65
206.563	155.369
209.456	135.558
212.348	119.246
215.241	67.6311
218.134	32.4941
221.026	8.68881
223.919	10.123
226.812	24.0961
229.705	16.1305
232.597	14.8104
235.49	15.6905
238.383	4.73703
241.275	11.9577
244.168	17.8783
247.061	13.3998
249.954	20.0746
252.846	27.2853
255.739	12.2784
258.632	3.93964
261.524	4.79077
264.417	12.2653
267.31	5.19937
270.202	5.39362
273.095	25.0333
275.988	14.0774
278.881	22.2234
281.773	21.9975
284.666	23.6105
287.559	25.773
290.451	35.204
293.344	36.1617
296.237	50.0309
299.13	50.5268
302.022	43.8871
304.915	33.0944
307.808	26.077
310.7	18.0163
313.593	7.25803
316.486	14.7364
319.378	38.1278
322.271	22.2225
325.164	47.9164
328.057	19.9233
330.949	54.9939
333.842	35.4078
336.735	40.9027
339.627	35.1572
342.52	35.987
345.413	26.0753
348.305	23.8861
351.198	12.7392
354.091	30.3931
356.983	3.03061
359.876	30.1485
362.769	23.122
365.662	30.6187
368.554	45.6636
371.447	53.7743
374.34	93.791
377.232	121.132
380.125	158.785
383.018	171.341
385.911	175.078
388.803	136.881
391.696	112.37
394.589	81.5216
397.481	73.1442
400.374	70.682
403.267	73.4265
406.159	67.4225
409.052	48.2099
411.945	28.8879
414.837	50.0834
417.73	8.10407
420.623	7.87457
423.516	22.2459
426.408	7.84992
429.301	20.293
432.194	1.09021
435.086	18.8607
437.979	3.80594
440.872	28.4497
443.764	16.2122
446.657	11.3854
449.55	13.1085
452.443	7.40698
455.335	27.7514
458.228	6.74381
461.121	1.59256
464.014	20.4116
466.906	22.0516
469.799	10.641
472.692	14.2877
475.584	8.50699
478.477	39.3902
481.37	40.49
484.262	52.6159
487.155	43.7364
490.048	43.7633
492.94	20.7926
495.833	27.5276
498.726	4.57159
501.619	7.95615
504.511	14.1066
507.404	20.7822
510.297	35.4964
513.189	33.8871
516.082	60.3274
518.975	54.5177
521.867	71.7432
524.76	56.4357
527.653	61.7662
530.546	74.6479
533.438	73.1094
536.331	76.0623
539.224	84.6355
542.116	96.6514
545.009	85.3732
547.902	100.488
550.794	102.221
553.687	97.4793
556.58	98.5934
559.473	82.0305
562.365	67.549
565.258	56.7102
568.151	81.0701
571.043	44.5696
573.936	75.0987
576.829	52.0107
579.721	62.0331
582.614	63.4425
585.507	43.9974
588.4	33.8103
591.292	45.7679
594.185	46.7392
597.078	65.2122
599.97	46.7828
602.863	43.0668
605.756	47.686
608.649	21.9797
611.541	29.4486
614.434	3.80276
617.327	0.053833
620.219	13.5929
623.112	6.50424
626.005	1.42905
628.897	2.12363
631.79	0.832306
634.683	1.09183
637.576	9.48364
640.468	5.33926
643.361	12.1643
646.254	30.8696
649.146	46.4376
652.039	53.7553
654.932	71.3562
657.824	111.263
660.717	156.711
663.61	206.066
666.503	239.854
669.395	230.385
672.288	252.647
675.181	194.659
678.073	197.607
680.966	153.615
683.859	120.971
686.751	89.4335
689.644	51.5804
692.537	58.6032
695.43	34.9736
698.322	15.6411
701.215	19.5527
704.108	23.917
707	0.63916
709.893	27.4789
712.786	5.64459
715.678	7.94446
718.571	8.41412
721.464	3.7341
724.357	0.824158
727.249	9.13275
730.142	8.96689
733.035	17.6049
735.927	16.9442
738.82	21.4342
741.713	21.0514
744.606	38.5768
747.498	17.7284
750.391	31.1308
753.284	7.51318
756.176	12.446
759.069	24.6054
761.962	34.9656
764.854	67.0214
767.747	70.5808
770.64	81.8147
773.533	84.7634
776.425	72.6524
779.318	45.8336
782.211	43.7692
785.103	26.4406
787.996	37.2199
790.889	29.1744
793.781	7.16885
796.674	15.3461
799.567	33.9453
802.46	5.63892
805.352	16.851
808.245	3.36417
811.138	9.90637
814.03	2.62308
816.923	4.68567
819.816	2.69342
822.708	6.54157
825.601	17.4999
828.494	0.879517
831.386	29.2737
834.279	19.512
837.172	14.7317
840.065	19.2039
842.957	3.49219
845.85	35.7283
848.743	13.3226
851.635	14.7951
854.528	25.4492
857.421	25.3115
860.313	0.883759
863.206	39.0862
866.099	38.7252
868.992	40.3939
871.884	47.4635
874.777	48.2982
877.67	57.055
880.562	20.1959
883.455	33.4055
886.348	43.817
889.24	52.4933
892.133	71.4047
895.026	28.5584
897.919	22.3053
900.811	33.1216
903.704	14.2309
906.597	39.1765
909.489	31.2892
912.382	22.4203
915.275	6.62176
918.168	12.5993
921.06	10.5149
923.953	20.7128
926.846	1.40692
929.738	8.70929
932.631	9.17639
935.524	19.5009
938.416	14.3531
941.309	1.04083
944.202	8.72315
947.095	8.07367
949.987	2.53088
952.88	3.0437
955.773	22.5134
958.665	17.0617
961.558	28.9078
964.451	31.5194
967.343	32.9641
970.236	72.2006
973.129	62.5547
976.021	93.0769
978.914	92.7202
981.807	100.942
984.7	97.4161
987.592	100.904
990.485	73.6158
993.378	58.4736
996.27	53.5346
999.163	42.7133
1002.06	31.0087
1004.95	28.7996
1007.84	38.8459
1010.73	14.12
1013.63	33.9935
1016.52	26.9216
1019.41	10.5811
1022.3	2.70325
1025.2	1.82806
1028.09	29.1367
1030.98	25.601
1033.88	32.1666
1036.77	27.4354
1039.66	34.2278
1042.55	52.304
1045.45	37.4465
1048.34	49.0771
1051.23	33.5579
1054.12	16.8326
1057.02	33.7357
1059.91	17.0126
1062.8	5.40057
1065.69	20.3854
1068.59	9.25354
1071.48	3.90845
1074.37	5.01495
1077.27	0.290527
1080.16	3.76385
1083.05	8.29852
1085.94	11.8578
1088.84	1.17157
1091.73	15.8778
1094.62	20.7065
1097.52	27.962
1100.41	23.3288
1103.3	36.5046
1106.19	28.4839
1109.09	17.4645
1111.98	15.9988
1114.87	9.82245
1117.76	13.894
1120.66	16.2518
1123.55	12.2053
1126.44	18.7429
1129.34	23.8341
1132.23	24.8412
1135.12	5.46881
1138.01	7.55206
1140.91	25.5117
1143.8	8.31763
1146.69	0.326111
1149.58	25.312
1152.48	10.9125
1155.37	15.973
1158.26	0.899963
1161.15	8.09485
1164.05	14.256
1166.94	3.48279
1169.83	7.15076
1172.72	12.6155
1175.62	2.02942
1178.51	2.21021
1181.4	8.82086
1184.3	23.6205
1187.19	13.718
1190.08	8.15912
1192.97	1.26227
1195.87	30.9846
1198.76	4.80225
1201.65	9.20386
1204.55	22.7695
1207.44	27.1956
1210.33	2.97168
1213.22	14.5936
1216.12	28.6608
1219.01	33.2732
1221.9	19.4636
1224.79	35.3781
1227.69	28.282
1230.58	26.7079
1233.47	10.739
1236.37	16.9656
1239.26	22.8345
1242.15	3.35101
1245.04	20.7112
1247.94	14.7687
1250.83	5.79651
1253.72	29.1825
1256.61	36.5841
1259.51	24.152
1262.4	22.0707
1265.29	23.2347
1268.18	1.68567
1271.08	30.0062
1273.97	2.41583
1276.86	21.1743
1279.76	26.8102
1282.65	7.24744
1285.54	4.66455
