Measurement: Raman, 785 nm, unoriented, Raman Data Processed
Mineral: Glucine
Rruff sample: R070050
Ideal chemistry: CaBe_4_(PO_4_)_2_(OH)_4_0.5H_2_O
Locality: Boevskoye deposit, Middle Urals, Russia
Source: Michael Scott
Description: Dirty white fine granular aggregates forming spheroidal crusts
Raman shift (cm-1)	intensity
214.841	0
217.733	70.084
220.626	20.4473
223.519	126.812
226.411	232.562
229.304	95.2344
232.197	316.062
235.09	231.928
237.982	238.772
240.875	374.816
243.768	323.973
246.66	348.777
249.553	354.141
252.446	237.635
255.339	358.457
258.231	433.369
261.124	525.592
264.017	480.197
266.909	662.01
269.802	618.887
272.695	536.01
275.587	504.916
278.48	399.26
281.373	460.098
284.265	548.367
287.158	437.807
290.051	430.838
292.944	361.887
295.836	318.445
298.729	240.57
301.622	324.662
304.514	553.141
307.407	497.168
310.3	455.824
313.192	337.248
316.085	339.611
318.978	236.981
321.871	130.75
324.763	196.596
327.656	221.523
330.549	46.4375
333.441	118.805
336.334	115.076
339.227	25.3848
342.12	69.2461
345.012	43.0371
347.905	13.6934
350.798	94.9414
353.69	103.557
356.583	162.211
359.476	300.769
362.368	404.613
365.261	499.666
368.154	633.385
371.046	850.568
373.939	975.652
376.832	1029.04
379.725	779.291
382.617	614.617
385.51	443.734
388.403	422.152
391.295	300.68
394.188	422.625
397.081	456.389
399.974	438.072
402.866	430.994
405.759	332.18
408.652	363.147
411.544	510.826
414.437	557.676
417.33	456.4
420.222	439.129
423.115	359.801
426.008	162.557
428.901	144.766
431.793	225.891
434.686	205.918
437.579	120.885
440.471	120.742
443.364	69.3594
446.257	24.082
449.149	92.8516
452.042	14.9023
454.935	40.5879
457.827	18.4512
460.72	32.7246
463.613	63.5391
466.506	109.188
469.398	78.3353
472.291	76.1969
475.184	67.7152
478.076	70.3085
480.969	101.141
483.862	168.156
486.755	250.139
489.647	434.336
492.54	567.451
495.433	555.119
498.325	427.025
501.218	546.666
504.111	488.617
507.003	428.08
509.896	418.723
512.789	282.922
515.682	221.133
518.574	214.328
521.467	197.384
524.36	166.458
527.252	127.919
530.145	102.671
533.038	124.494
535.93	75.8352
538.823	20.0673
541.716	165.764
544.609	40.9277
547.501	15.627
550.394	151.084
553.287	180.041
556.179	15.0117
559.072	89
561.965	122.535
564.857	270.213
567.75	31.2832
570.643	223.615
573.535	215.117
576.428	309.93
579.321	243.82
582.214	290.541
585.106	312.744
587.999	479.131
590.892	460.91
593.784	399.887
596.677	517.098
599.57	511.908
602.462	623.006
605.355	638.896
608.248	702.32
611.141	784.494
614.033	716.639
616.926	643.115
619.819	706.363
622.711	748.25
625.604	558.74
628.497	378.385
631.389	204.955
634.282	291.498
637.175	125.559
640.068	139.031
642.96	32.4434
645.853	33.2422
648.746	81.3242
651.638	10.7148
654.531	21.7617
657.424	29.707
660.317	34.9395
663.209	40.0898
666.102	38.1113
668.995	161.156
671.887	24.2324
674.78	149.732
677.673	216.81
680.565	61.0996
683.458	164.182
686.351	269.457
689.244	132.281
692.136	97.9277
695.029	201.67
697.922	220.301
700.814	206.662
703.707	185.885
706.6	196.633
709.492	234.572
712.385	264.857
715.278	213.463
718.17	231.408
721.063	230.09
723.956	211.596
726.849	266.731
729.741	127.699
732.634	81.9844
735.527	165.299
738.419	103.752
741.312	77.9981
744.205	188.1
747.097	151.242
749.99	215.652
752.883	146.43
755.776	138.926
758.668	77.5488
761.561	23.0039
764.454	26.3906
767.346	24.5664
770.239	67.8496
773.132	54.3086
776.024	87.3262
778.917	90.7031
781.81	32.5332
784.703	13.2461
787.595	12.9805
790.488	95.6074
793.381	70.3106
796.273	75.1738
799.166	149.881
802.059	52.0137
804.952	15.4219
807.844	29.4844
810.737	87.7363
813.63	149.562
816.522	67.0898
819.415	106.957
822.308	41.6113
825.2	18.1699
828.093	197.711
830.986	106.781
833.879	43.0234
836.771	90.2988
839.664	82.6816
842.557	99.1465
845.449	133.338
848.342	149.381
851.235	122.631
854.127	23.5547
857.02	127.596
859.913	126.041
862.806	189.566
865.698	151.057
868.591	116.842
871.484	61.8398
874.376	124.656
877.269	146.615
880.162	89.2148
883.054	117.232
885.947	152.857
888.84	143.352
891.732	153.592
894.625	99.0898
897.518	25.7969
900.411	73.0449
903.303	39.1504
906.196	111.58
909.089	36.2598
911.981	1.57422
914.874	1.24414
917.767	102.477
920.659	64.001
923.552	50.9746
926.445	32.7539
929.338	26.1221
932.23	25.4199
935.123	16.4834
938.016	17.5811
940.908	28.6426
943.801	12.1602
946.694	118.782
949.587	125.8
952.479	182.035
955.372	313.914
958.265	359.297
961.157	438.6
964.05	599.107
966.943	838.718
969.835	1145.93
972.728	1476.72
975.621	2017.9
978.514	2721.08
981.406	3007.58
984.299	2945.88
987.192	2539.4
990.084	2098.55
992.977	1680.6
995.87	1471.92
998.762	1117.63
1001.65	1006.12
1004.55	869.333
1007.44	584.311
1010.33	450.38
1013.23	446.776
1016.12	322.598
1019.01	320.441
1021.9	247.994
1024.8	53.9326
1027.69	72.7402
1030.58	99.6748
1033.47	106.209
1036.37	11.6494
1039.26	27.2666
1042.15	9.69922
1045.05	49.4717
1047.94	47.4775
1050.83	14.2158
1053.72	79.6914
1056.62	84.6523
1059.51	45.6416
1062.4	133.016
1065.29	135.21
1068.19	68.8262
1071.08	112.297
1073.97	67.5439
1076.87	103.086
1079.76	143.259
1082.65	131.245
1085.54	71.1807
1088.44	42.6162
1091.33	55.3603
1094.22	35.3857
1097.11	69.6719
1100.01	98.6582
1102.9	4.99023
1105.79	11.3945
1108.68	63.1113
1111.58	12.1621
1114.47	15.7305
1117.36	2.63086
1120.26	36.7344
1123.15	11.1602
1126.04	75.2734
1128.93	22.9863
1131.83	63.54
1134.72	133.768
1137.61	106.28
1140.51	183.1
1143.4	131.015
1146.29	89.6123
1149.18	131.385
1152.08	142.821
1154.97	101.871
1157.86	183.308
1160.75	93.9189
1163.65	211.973
1166.54	241.512
1169.43	189.421
1172.32	83.75
1175.22	38.0185
1178.11	100.258
1181	14.5947
1183.89	45.5537
1186.79	53.1348
1189.68	58.6621
1192.57	50.0254
1195.47	86.709
1198.36	93.5439
1201.25	22.6221
1204.14	54.1357
1207.04	107.345
1209.93	117.962
1212.82	47.1836
1215.71	99.0117
1218.61	102.238
1221.5	123.499
1224.39	174.838
1227.29	88.1533
1230.18	93.7246
1233.07	190.111
1235.96	132.642
1238.86	0.935547
