Measurement: Raman, 532 nm, unoriented, Raman Data Processed
Mineral: Glucine
Rruff sample: R070050
Ideal chemistry: CaBe_4_(PO_4_)_2_(OH)_4_0.5H_2_O
Locality: Boevskoye deposit, Middle Urals, Russia
Source: Michael Scott
Description: Dirty white fine granular aggregates forming spheroidal crusts
Raman shift (cm-1)	intensity
171.877	0
174.77	21.8115
177.663	43.1484
180.555	105.158
183.448	13.4795
186.341	122.671
189.234	198.953
192.126	125.816
195.019	171.992
197.912	192.113
200.804	213.44
203.697	211.435
206.59	219.394
209.482	202.133
212.375	197.481
215.268	158.727
218.161	233.086
221.053	310.959
223.946	299.992
226.839	270.848
229.731	230.307
232.624	261.102
235.517	181.012
238.41	195.644
241.302	271.008
244.195	254.205
247.088	245.877
249.98	240.029
252.873	159.082
255.766	98.5898
258.658	171.135
261.551	167.82
264.444	160.695
267.337	177.869
270.229	238.228
273.122	149.18
276.015	200.113
278.907	176.832
281.8	163.496
284.693	211.295
287.585	67.5234
290.478	38.2168
293.371	13.7402
296.263	49.1094
299.156	173.272
302.049	127.373
304.942	66.2793
307.834	80.0879
310.727	96.1426
313.62	146.291
316.512	55.6074
319.405	10.4512
322.298	7.48047
325.19	7.21094
328.083	24.1426
330.976	97.0488
333.868	66.4453
336.761	38.7148
339.654	85.1523
342.547	59.8125
345.439	20.5078
348.332	40.1836
351.225	127.967
354.117	8.59766
357.01	56.4902
359.903	14.5684
362.796	114.471
365.688	148.408
368.581	302.523
371.474	365.346
374.366	251.016
377.259	255.603
380.152	221.629
383.044	230.275
385.937	208.678
388.83	148.106
391.722	133.147
394.615	217.494
397.508	75.9688
400.401	103.844
403.293	43.4062
406.186	143.791
409.079	85.457
411.971	266.037
414.864	238.379
417.757	44.5332
420.649	114.852
423.542	133.965
426.435	56.5527
429.327	65.375
432.22	67.9648
435.113	140.125
438.006	128.682
440.898	131.606
443.791	105.732
446.684	100.781
449.576	118.082
452.469	43.2578
455.362	66.916
458.255	106.109
461.147	9.95117
464.04	6.75586
466.933	20.7812
469.825	77.7227
472.718	69.2344
475.611	81.1231
478.503	227.988
481.396	108.059
484.289	143.486
487.182	229.969
490.074	377.562
492.967	345.244
495.86	272.035
498.752	207.103
501.645	234.404
504.538	371.195
507.43	276.935
510.323	205.703
513.216	227.344
516.109	135.264
519.001	182.018
521.894	97.8691
524.787	107.533
527.679	109.713
530.572	170.057
533.465	26.9082
536.357	91.8438
539.25	122.981
542.143	81.1856
545.035	20.7539
547.928	44.5176
550.821	6.32227
553.713	116.375
556.606	77.1719
559.499	49.6445
562.392	7.12891
565.284	87.9414
568.177	34.7344
571.07	7.65234
573.962	15.4844
576.855	50.8828
579.748	106.898
582.64	223.848
585.533	84.0117
588.426	140.727
591.319	168.715
594.211	188.766
597.104	230.043
599.997	180.199
602.889	134.469
605.782	211.258
608.675	289.305
611.567	225.758
614.46	263.973
617.353	306.984
620.245	280.137
623.138	216.398
626.031	314.535
628.924	162.668
631.816	116.293
634.709	183.891
637.602	231.949
640.494	87.0938
643.387	183.504
646.28	193.93
649.173	115.391
652.065	179.293
654.958	140.832
657.851	167.461
660.743	231.148
663.636	272.188
666.529	215.223
669.421	102.762
672.314	16.25
675.207	217.527
678.1	148.156
680.992	42.8203
683.885	31.6719
686.778	109.664
689.67	38.6602
692.563	0.738281
695.456	155.227
698.348	103.793
701.241	87.7891
704.134	70.8086
707.027	200.926
709.919	33.3789
712.812	160.668
715.705	37.6914
718.597	180.965
721.49	170.008
724.383	156.055
727.275	37.8047
730.168	0.0625
733.061	82.332
735.953	115.219
738.846	140.391
741.739	42.8984
744.631	212.773
747.524	236.621
750.417	73.6719
753.31	209.219
756.202	84.1289
759.095	28.3945
761.988	32.5781
764.88	122.035
767.773	121.488
770.666	107.82
773.558	64.2773
776.451	74.8984
779.344	60.1875
782.237	2.73828
785.129	37.8398
788.022	36.6016
790.915	197.031
793.807	137.297
796.7	136.492
799.593	136.746
802.486	121.996
805.378	241.25
808.271	9.03906
811.164	86.7266
814.056	49.8359
816.949	157.469
819.842	109.289
822.734	166.047
825.627	26.3242
828.52	104.023
831.413	44.9688
834.305	16.2969
837.198	111.574
840.091	40.0508
842.983	41.9883
845.876	192.535
848.769	73.2344
851.661	29.1523
854.554	78.4297
857.447	188.305
860.34	229.481
863.232	117.801
866.125	168.359
869.018	229.606
871.91	168.824
874.803	109.043
877.696	144.57
880.588	179.266
883.481	7.97266
886.374	95.9648
889.266	103.609
892.159	114.059
895.052	332.902
897.944	137.066
900.837	21.0977
903.73	156.949
906.623	165.566
909.515	55.168
912.408	133.031
915.301	180.672
918.193	123.289
921.086	239.352
923.979	81.8633
926.871	122.414
929.764	36.7734
932.657	111.336
935.55	95.2617
938.442	207.781
941.335	60.6953
944.228	213.184
947.12	57.7422
950.013	191.406
952.906	337.769
955.798	368.793
958.691	355.918
961.584	449.629
964.477	434.293
967.369	540.027
970.262	796.207
973.155	941.852
976.047	1275.59
978.94	1505.29
981.833	1593.91
984.726	1365.51
987.618	1335.34
990.511	1032.88
993.404	816.598
996.296	763.5
999.189	822.484
1002.08	407.519
1004.97	448.707
1007.87	328.863
1010.76	401.508
1013.65	152.543
1016.54	288.363
1019.44	345.387
1022.33	49.4219
1025.22	186.891
1028.12	177.422
1031.01	213.219
1033.9	133.562
1036.79	61.0898
1039.69	230.57
1042.58	147.809
1045.47	145.316
1048.37	85
1051.26	24.6289
1054.15	102.375
1057.04	8.59375
1059.94	262.484
1062.83	260.566
1065.72	41.3242
1068.61	154.242
1071.51	145.297
1074.4	174.266
1077.29	58.6875
1080.18	168.684
1083.08	136.465
1085.97	80.3242
1088.86	33.7695
1091.76	111.527
1094.65	255.344
1097.54	79.457
1100.43	101.758
1103.33	75.4023
1106.22	39.3477
1109.11	172.766
1112	90.0977
1114.9	22.25
1117.79	115.996
1120.68	34.7656
1123.58	136.019
1126.47	69.5156
1129.36	243.68
1132.25	156.566
1135.15	239.148
1138.04	90.8867
1140.93	36.9375
1143.82	203.566
1146.72	35.6562
1149.61	20.1836
1152.5	254.445
1155.39	212.379
1158.29	147.617
1161.18	251.336
1164.07	73.4258
1166.96	171.492
1169.86	185.438
1172.75	213.043
1175.64	63.6055
1178.54	268.211
1181.43	3.73047
1184.32	231.312
1187.21	236.359
1190.11	94.9844
1193	265.5
1195.89	161.305
1198.79	58.8984
1201.68	112.086
1204.57	123.508
1207.46	12.0391
1210.36	268.672
1213.25	245.875
1216.14	41.5391
1219.03	170.656
1221.93	288.922
1224.82	291.367
1227.71	273.664
1230.61	305.531
1233.5	70.0469
1236.39	191.531
1239.28	189.68
1242.18	103.922
1245.07	347.5
1247.96	250.062
1250.85	215.203
1253.75	341.539
1256.64	106.289
1259.53	153.75
1262.42	231.055
1265.32	209.227
1268.21	185.969
1271.1	378.445
1273.99	240.961
1276.89	136.648
1279.78	308.898
1282.67	376.016
1285.57	119.023
1288.46	306.695
1291.35	120.734
1294.24	124
1297.14	223.734
1300.03	174.273
1302.92	242.695
1305.82	120.141
1308.71	0
