Measurement: Raman, 532 nm, unoriented, Raman Data Processed
Mineral: Godovikovite
Rruff sample: R070108
Ideal chemistry: (N^3-^H_4_)Al(S^6+^O_4_)_2_
Locality: Kladno, Bohmen, Czech Republic
Source: Michael Scott
Description: Compact porous aggregate of white fibrous crystals
Raman shift (cm-1)	intensity
161.753	0
164.645	13.0449
167.538	113.79
170.431	228.714
173.323	180.821
176.216	244.67
179.109	206.208
182.002	343.935
184.894	419.106
187.787	407.115
190.68	416.836
193.572	434.704
196.465	537.443
199.358	455.911
202.25	442.482
205.143	524.898
208.036	587.891
210.929	766.695
213.821	690.082
216.714	834.042
219.607	993.06
222.499	1119.88
225.392	968.299
228.285	817.221
231.177	650.275
234.07	528.612
236.963	520.452
239.856	442.617
242.748	364.7
245.641	288.846
248.534	255.553
251.426	225.771
254.319	145.889
257.212	68.1367
260.104	58.5781
262.997	18.8555
265.89	28.0742
268.783	20.1602
271.675	20.4277
274.568	23.2773
277.461	16.1504
280.353	53.0352
283.246	125.215
286.139	84.5059
289.031	96.0898
291.924	167.238
294.817	201.894
297.709	207.152
300.602	204.461
303.495	203.963
306.387	164.666
309.28	81.8867
312.173	95.8477
315.066	85.3652
317.958	80.7441
320.851	100.453
323.744	182.684
326.636	246.412
329.529	225.736
332.422	134.731
335.315	246.725
338.207	200.477
341.1	91.9707
343.993	262.533
346.885	168.201
349.778	219.562
352.671	248.955
355.563	126.58
358.456	109.728
361.349	170.637
364.241	45.8633
367.134	170.283
370.027	6.41602
372.92	81.7559
375.812	11.7754
378.705	86.0996
381.598	74.4551
384.49	46.5254
387.383	34.2363
390.276	19.1348
393.168	30.377
396.061	67.8008
398.954	95.1894
401.846	204.424
404.739	151.764
407.632	301.68
410.525	332.192
413.417	423.436
416.31	642.119
419.203	673.846
422.095	766.262
424.988	1045.52
427.881	1369.74
430.774	1719.9
433.666	1733.72
436.559	1900.54
439.452	2003.07
442.344	2027.84
445.237	2130.24
448.13	1908.21
451.022	2012.61
453.915	2003.41
456.808	1844.33
459.7	1683.95
462.593	1589.36
465.486	1494.78
468.378	1469.41
471.271	1249.85
474.164	1208.16
477.057	1123.13
479.949	1008.73
482.842	856.012
485.735	787.053
488.627	698.812
491.52	703.414
494.413	633.896
497.305	519.859
500.198	433.695
503.091	357.693
505.984	380.227
508.876	231.748
511.769	245.682
514.662	200.018
517.554	187.664
520.447	123.869
523.34	155.971
526.232	37.6191
529.125	31.9727
532.018	43.2227
534.911	7.65039
537.803	14.7695
540.696	99.9512
543.589	4.17773
546.481	45.6113
549.374	63.998
552.267	47.6289
555.159	41.2188
558.052	67.4824
560.945	203.652
563.837	150.94
566.73	253.252
569.623	273.522
572.516	319.705
575.408	299.812
578.301	300.779
581.194	522.088
584.086	548.787
586.979	604.879
589.872	674.992
592.764	832.787
595.657	942.305
598.55	1114.95
601.443	1244.19
604.335	1306.31
607.228	1404.43
610.121	1637.14
613.013	1604.74
615.906	1694.97
618.799	1630.88
621.692	1780.47
624.584	1721.07
627.477	1483.72
630.37	1310.35
633.262	1263.96
636.155	1051.51
639.048	872.033
641.94	851.023
644.833	831.084
647.726	684.977
650.618	680.799
653.511	734.904
656.404	660.854
659.297	590.959
662.189	613.033
665.082	362.547
667.975	384.647
670.867	345.639
673.76	289.5
676.653	320.553
679.545	145.543
682.438	251.914
685.331	198.049
688.223	115.682
691.116	123.478
694.009	184.199
696.902	90.8574
699.794	34.6113
702.687	3.54297
705.58	28.3613
708.472	28.3477
711.365	38.2383
714.258	16.6738
717.15	132.994
720.043	50.1133
722.936	122.342
725.829	18.834
728.721	41.2793
731.614	158.582
734.507	120.762
737.399	37.6152
740.292	100.627
743.185	131.412
746.077	45.5391
748.97	85.7793
751.863	100.592
754.755	165.293
757.648	61.623
760.541	22.2031
763.434	196.027
766.326	147.877
769.219	115.797
772.112	158.484
775.004	32.8633
777.897	140.717
780.79	43.7344
783.683	23.291
786.575	179.353
789.468	116.168
792.361	8.66406
795.253	74.4453
798.146	4.9082
801.039	112.043
803.931	149.084
806.824	43.5137
809.717	203.049
812.609	156.096
815.502	154.805
818.395	153.766
821.288	151.482
824.18	74.1992
827.073	157.008
829.966	132.992
832.858	200.621
835.751	197.469
838.644	227.203
841.536	134.236
844.429	163.574
847.322	259.897
850.215	224.432
853.107	195.557
856	354.092
858.893	293.852
861.785	225.541
864.678	268.121
867.571	305.703
870.463	227.523
873.356	281.691
876.249	243.174
879.141	282.191
882.034	267.42
884.927	107.527
887.82	258.602
890.712	179.367
893.605	256.609
896.498	332.623
899.39	233.215
902.283	203.379
905.176	156.631
908.068	116.158
910.961	120.58
913.854	195.1
916.746	211.728
919.639	59.1016
922.532	93.4394
925.425	42.8867
928.317	49.6953
931.21	71.4805
934.103	42.0312
936.995	97.4961
939.888	52.9727
942.781	62.5195
945.673	108.566
948.566	19.8477
951.459	161.711
954.352	110.832
957.244	81.0703
960.137	94.375
963.03	194.273
965.922	478.359
968.815	628.492
971.708	1063.26
974.601	1454.48
977.493	2244.23
980.386	3298.5
983.279	4815.24
986.171	6227.15
989.064	7170.35
991.957	6403.67
994.849	4539.16
997.742	3447.11
1000.63	2859.03
1003.53	2816.77
1006.42	3057.64
1009.31	3036.39
1012.21	3061.59
1015.1	2981.87
1017.99	3088.8
1020.88	3109.79
1023.78	3107.59
1026.67	3227.82
1029.56	3142.88
1032.45	3044.86
1035.35	2990.17
1038.24	2773.04
1041.13	2635.8
1044.03	2415.87
1046.92	2050.45
1049.81	1993.6
1052.7	1423.35
1055.6	1109.08
1058.49	738.273
1061.38	682.379
1064.27	395.621
1067.17	231.773
1070.06	122.43
1072.95	128.656
1075.85	55.707
1078.74	98.0234
1081.63	61.0586
1084.52	52.0781
1087.42	70.5273
1090.31	52.7852
1093.2	136.047
1096.09	239.348
1098.99	377.617
1101.88	435.094
1104.77	586.758
1107.66	579.492
1110.56	431.18
1113.45	429.625
1116.34	351.484
1119.23	272.469
1122.13	358.457
1125.02	354.445
1127.91	512.023
1130.81	495.059
1133.7	478.723
1136.59	391.277
1139.48	352.176
1142.38	317.387
1145.27	280.965
1148.16	88.7578
1151.06	120.707
1153.95	127.848
1156.84	118.84
1159.73	100.477
1162.63	181.406
1165.52	95.5586
1168.41	70.1133
1171.3	196.824
1174.2	60.4297
1177.09	80.2461
1179.98	157.519
1182.88	2.375
1185.77	0.535156
1188.66	57.6797
1191.55	259.793
1194.44	104.481
1197.34	217.836
1200.23	67.8086
1203.12	156.754
1206.02	272.406
1208.91	122.832
1211.8	164.668
1214.69	155.418
1217.59	117.453
1220.48	81.6719
1223.37	162.344
1226.27	53.0742
1229.16	127.188
1232.05	155.043
1234.94	262.066
1237.84	201.641
1240.73	139.785
1243.62	227.68
1246.51	141.566
1249.41	11.6328
1252.3	122.812
1255.19	228.684
1258.09	4.98828
1260.98	134.457
1263.87	120.918
1266.76	144.773
1269.66	187.043
1272.55	53.9922
1275.44	136.246
1278.33	271.594
1281.23	156.644
1284.12	185.836
1287.01	283.785
1289.9	169
1292.8	176.66
1295.69	143.312
1298.58	233.246
1301.47	28.4297
1304.37	277.488
1307.26	139.137
1310.15	172.027
