Measurement: Raman, 780 nm, unoriented, Raman Data Processed
Mineral: Goldfieldite
Rruff sample: R110023
Ideal chemistry: (Cu^1+^_4_[box]_2_)Cu^1+^_6_Te^4+^_4_S^2-^_13_
Locality: Mohawk mine, Goldfield, Esmeralda County, Nevada, USA
Source: William Pinch
Description: Dark grey metallic massive to granular associated with pinkish grey famatinite R110021
Raman shift (cm-1)	intensity
212.615	0
215.507	0.021758
218.4	4.21651
221.293	4.44824
224.186	6.02688
227.078	5.17378
229.971	8.51716
232.864	3.19196
235.756	2.22876
238.649	4.20087
241.542	0.073967
244.435	0.436771
247.327	2.91341
250.22	1.45871
253.113	1.69112
256.005	4.88422
258.898	7.4741
261.791	3.14284
264.683	4.61342
267.576	6.32187
270.469	3.73158
273.361	4.89458
276.254	4.65996
279.147	7.46619
282.04	8.04576
284.932	7.84799
287.825	12.8869
290.718	17.9761
293.61	20.097
296.503	26.0918
299.396	27.5698
302.288	29.6624
305.181	30.0186
308.074	29.3509
310.967	20.6805
313.859	17.9136
316.752	9.90985
319.645	10.4329
322.537	6.98518
325.43	5.73903
328.323	5.35762
331.216	6.65086
334.108	4.00553
337.001	3.89377
339.894	2.58977
342.786	6.33534
345.679	6.01478
348.572	6.63294
351.464	10.5732
354.357	6.49256
357.25	12.1166
360.142	16.3501
363.035	16.7493
365.928	11.9403
368.821	13.0436
371.713	15.4159
374.606	16.369
377.499	18.8355
380.391	18.5535
383.284	12.7962
386.177	16.1838
389.07	7.4508
391.962	7.78711
394.855	1.792
397.748	2.82249
400.64	2.06299
403.533	1.63591
406.426	1.21588
409.318	0.524582
412.211	0.667514
415.104	3.3049
417.997	1.36472
420.889	3.50073
423.782	3.72479
426.675	0.332063
429.567	1.35835
432.46	3.38264
435.353	2.63466
438.245	4.63746
441.138	5.53697
444.031	5.59934
446.924	2.43946
449.816	2.50554
452.709	1.16881
455.602	1.64613
458.494	3.69153
461.387	2.16457
464.28	1.19353
467.173	5.1814
470.065	0.210629
472.958	2.24832
475.851	0.649067
478.743	3.93746
481.636	0.822749
484.529	0.824755
487.421	1.5947
490.314	3.17916
493.207	4.33521
496.099	1.23669
498.992	3.51101
501.885	0.151265
504.778	2.60793
507.67	3.98078
510.563	1.88873
513.456	4.29968
516.348	3.33005
519.241	3.21626
522.134	2.95104
525.026	4.29306
527.919	2.88063
530.812	0.863219
533.705	1.18114
536.597	5.38043
539.49	1.03729
542.383	1.09357
545.275	1.63914
548.168	2.45152
551.061	3.24271
553.953	2.8986
556.846	1.69722
559.739	4.48947
562.631	2.19099
565.524	4.74063
568.417	4.2751
571.31	3.11216
574.202	1.42817
577.095	1.48242
579.988	0.850049
582.88	2.68106
585.773	0.39175
588.666	2.76971
591.558	1.3212
594.451	1.46857
597.344	1.8995
600.237	3.00765
603.129	5.54787
606.022	0.008097
608.915	1.58665
611.807	3.74966
614.7	2.15769
617.593	2.0147
620.486	1.80106
623.378	2.35284
626.271	0.885397
629.164	1.64385
632.056	3.20119
634.949	0.629526
637.842	2.39933
640.734	2.4248
643.627	2.48752
646.52	0.644759
649.413	0.41373
652.305	2.12925
655.198	2.19642
658.091	2.70315
660.983	3.25051
663.876	6.33688
666.769	5.93946
669.662	2.36114
672.554	3.52242
675.447	3.32464
678.34	2.21702
681.232	0.830854
684.125	3.86598
687.018	3.94301
689.91	2.24853
692.803	1.80805
695.696	5.26178
698.588	3.22364
701.481	0.116791
704.374	6.12217
707.267	1.58128
710.159	2.25279
713.052	4.37636
715.945	3.44438
718.837	1.14123
721.73	3.69434
724.623	0.844432
727.515	5.99134
730.408	4.52765
733.301	1.79486
736.194	1.57694
739.086	4.12598
741.979	2.43283
744.872	4.90062
747.764	5.25277
750.657	1.21246
753.55	2.86607
756.442	0.865136
759.335	5.40375
762.228	4.09495
765.121	3.32344
768.013	4.5333
770.906	6.32771
773.799	1.05625
776.691	1.46742
779.584	6.03019
782.477	2.88861
785.37	1.75672
788.262	2.89412
791.155	3.67433
794.048	1.09372
796.94	0.322949
799.833	4.55031
802.726	0.900127
805.618	4.00502
808.511	3.94181
811.404	2.40171
814.297	4.13684
817.189	2.25088
820.082	1.89685
822.975	5.84697
825.867	3.31491
828.76	1.50747
831.653	2.14373
834.545	1.18297
837.438	0.711822
840.331	0.4104
843.223	1.36462
846.116	5.83906
849.009	4.80053
851.902	4.48292
854.794	3.48777
857.687	5.74869
860.58	2.87705
863.472	3.62039
866.365	1.97419
869.258	3.66793
872.15	4.6775
875.043	2.53996
877.936	0.403647
880.829	2.85559
883.721	4.94963
886.614	2.67639
889.507	3.03066
892.399	0.004188
895.292	2.14393
898.185	2.98064
901.077	3.12171
903.97	0.501625
906.863	2.885
909.756	1.18864
912.648	3.57432
915.541	1.41062
918.434	6.35244
921.326	5.03724
924.219	3.98029
927.112	4.82261
930.005	1.56191
932.897	4.18805
935.79	1.81919
938.683	4.32828
941.575	2.53913
944.468	0.508424
947.361	7.50084
950.253	4.23633
953.146	0.113285
956.039	4.39134
958.932	0.321035
961.824	0.842431
964.717	0.506213
967.61	0.344027
970.502	5.37389
973.395	2.59066
976.288	0.080369
979.18	4.15995
982.073	2.52995
984.966	5.28942
987.859	1.58857
990.751	1.1386
993.644	1.16671
996.537	3.54397
999.429	3.28751
1002.32	2.89803
1005.22	1.20574
1008.11	4.19718
1011	3.2946
1013.89	2.14766
1016.79	2.66485
1019.68	2.31856
1022.57	0.30954
1025.46	1.33368
1028.36	2.29721
1031.25	4.7245
1034.14	2.14926
1037.03	3.14715
1039.93	3.42679
1042.82	1.10547
1045.71	3.80838
1048.61	6.53746
1051.5	4.99997
1054.39	5.33233
1057.28	4.56597
1060.18	4.78996
1063.07	3.06863
1065.96	6.75051
1068.85	0.325384
1071.75	2.93569
1074.64	3.37879
1077.53	1.78391
1080.42	7.96298
1083.32	2.38152
1086.21	4.14702
1089.1	2.68052
1092	5.40068
1094.89	3.66756
1097.78	2.90771
1100.67	2.78126
1103.57	3.42051
1106.46	1.97043
1109.35	5.7323
1112.24	1.65529
1115.14	5.1473
1118.03	3.59678
1120.92	3.57968
1123.82	4.24911
1126.71	2.54143
1129.6	4.93056
1132.49	2.89012
1135.39	4.3587
1138.28	2.93282
1141.17	0.337056
1144.06	6.11993
1146.96	1.62245
1149.85	4.35914
1152.74	4.32016
1155.63	3.18376
1158.53	2.71834
1161.42	1.53349
1164.31	2.22142
1167.21	2.55471
1170.1	2.5274
1172.99	4.60796
1175.88	3.07395
1178.78	2.44242
1181.67	2.13826
1184.56	4.40022
1187.45	3.0727
1190.35	4.08402
1193.24	2.88519
1196.13	4.30164
1199.03	4.35147
1201.92	2.4876
1204.81	3.22962
1207.7	0.807455
1210.6	5.08909
1213.49	1.17636
1216.38	4.43638
1219.28	2.19238
1222.17	3.34776
1225.06	1.2318
1227.95	1.3135
1230.85	2.74125
1233.74	2.54072
1236.63	5.08215
1239.52	5.83572
1242.42	2.11768
1245.31	3.20972
1248.2	7.27881
1251.09	2.22842
1253.99	1.88721
1256.88	0.577078
1259.77	2.0566
1262.66	3.68812
1265.56	0.980459
1268.45	5.0167
1271.34	0.124
1274.24	2.82706
1277.13	3.40645
1280.02	3.41559
1282.91	0.065108
1285.81	0
