Measurement: Raman, 532 nm, unoriented, Raman Data Processed
Mineral: Goldmanite
Rruff sample: R090043
Ideal chemistry: Ca_3_V^3+^_2_(SiO_4_)_3_
Locality: Synthetic
Source: Kevin Righter
Description: Synthesized under pressure P = 8 kbars, at temperature T = 1200 C for 12 hours.
Measured chemistry: Ca_3.00_V_2.00_(SiO_4_)_3.00_
Raman shift (cm-1)	intensity
144.743	0
148.118	2.46655
151.493	16.309
154.867	18.2711
158.242	17.1558
161.617	20.5679
164.992	15.0042
168.367	5.07978
171.742	3.5247
175.116	3.65361
178.491	4.97816
181.866	4.17013
185.241	4.52118
188.616	0.800507
191.99	2.80898
195.365	0.93856
198.74	0.510086
202.115	2.61327
205.49	0.331039
208.864	0.810097
212.239	0.025063
215.614	2.47593
218.989	0.209549
222.364	0.593582
225.739	1.36439
229.113	1.39941
232.488	0.224915
235.863	0.561836
239.238	0.779839
242.613	2.80956
245.988	4.29854
249.362	4.35735
252.737	6.30342
256.112	6.15933
259.487	4.81058
262.862	5.41642
266.236	3.86482
269.611	3.96701
272.986	4.19191
276.361	5.00998
279.736	5.62201
283.111	11.1003
286.485	11.141
289.86	10.3721
293.235	10.9083
296.61	9.73218
299.985	13.0511
303.36	12.8075
306.734	10.874
310.109	16.8825
313.484	15.6779
316.859	18.2229
320.234	19.6127
323.608	23.3769
326.983	25.9332
330.358	32.7986
333.733	37.0505
337.108	40.8113
340.483	43.3072
343.857	40.3035
347.232	34.5977
350.607	30.4721
353.982	28.5419
357.357	27.722
360.731	25.8492
364.106	22.5497
367.481	20.1631
370.856	16.0386
374.231	9.77946
377.606	10.4021
380.98	7.66263
384.355	1.31905
387.73	1.294
391.105	0.007462
394.48	0.594559
397.854	1.01036
401.229	0.396667
404.604	0.800934
407.979	0.480614
411.354	0.819183
414.729	3.90298
418.103	1.95486
421.478	0.052345
424.853	4.93724
428.228	4.63124
431.603	6.06557
434.978	6.31602
438.352	6.85164
441.727	8.13767
445.102	10.579
448.477	8.72852
451.852	6.05337
455.226	5.74955
458.601	6.4036
461.976	4.51724
465.351	5.21816
468.726	4.92379
472.101	4.13878
475.475	4.34544
478.85	4.81562
482.225	3.63859
485.6	0.092102
488.975	1.12036
492.349	1.54961
495.724	1.15949
499.099	4.23721
502.474	3.19342
505.849	3.71261
509.224	5.26328
512.598	5.02818
515.973	1.33943
519.348	1.46198
522.723	2.60027
526.098	0.050438
529.472	0.163834
532.847	1.71348
536.222	2.8157
539.597	4.71152
542.972	3.52982
546.347	0.714348
549.721	2.82809
553.096	2.33385
556.471	2.34105
559.846	0.656548
563.221	1.44176
566.596	1.01814
569.97	1.58423
573.345	2.29884
576.72	1.67822
580.095	0.760864
583.47	2.39764
586.845	0.900826
590.219	3.03354
593.594	1.5054
596.969	3.28877
600.344	1.19338
603.719	0.991219
607.093	2.78843
610.468	1.73641
613.843	1.41821
617.218	3.58301
620.593	2.16013
623.967	0.454811
627.342	3.2738
630.717	0.427109
634.092	1.73998
637.467	1.90965
640.842	2.26889
644.216	1.34173
647.591	2.72521
650.966	1.77267
654.341	1.02331
657.716	3.14584
661.091	3.04362
664.465	1.18578
667.84	3.43453
671.215	1.78264
674.59	1.75806
677.965	1.4498
681.34	1.48264
684.714	0.553078
688.089	0.441872
691.464	0.412476
694.839	0.451912
698.214	0.880745
701.588	2.37752
704.963	3.20495
708.338	3.93407
711.713	3.90334
715.088	5.67856
718.462	6.72258
721.837	9.9314
725.212	12.1992
728.587	17.5998
731.962	19.8338
735.337	23.3853
738.711	27.4872
742.086	35.1284
745.461	36.4959
748.836	41.8502
752.211	39.382
755.586	39.6431
758.96	36.8416
762.335	34.566
765.71	28.2176
769.085	21.8669
772.46	18.485
775.835	14.4617
779.209	9.05695
782.584	7.48125
785.959	6.00575
789.334	3.6158
792.709	4.66101
796.083	3.03896
799.458	1.89294
802.833	3.53764
806.208	0.144287
809.583	2.09081
812.957	0.943245
816.332	0.204208
819.707	0.917252
823.082	0.233376
826.457	1.6723
829.832	2.81023
833.206	4.82599
836.581	4.02458
839.956	4.98383
843.331	4.91417
846.706	5.79145
850.081	6.86671
853.455	10.0789
856.83	9.37902
860.205	9.42607
863.58	9.86779
866.955	10.1732
870.33	9.27989
873.704	6.87998
877.079	4.37089
880.454	2.12258
883.829	1.92641
887.204	0.436043
890.578	0.952202
893.953	0.039955
897.328	0.075844
900.703	1.49643
904.078	1.02834
907.452	0.940598
910.827	0.199951
914.202	0.57415
917.577	0.592628
920.952	1.55722
924.327	0.367241
927.701	2.31963
931.076	1.65378
934.451	3.54436
937.826	3.27001
941.201	3.06148
944.576	5.95341
947.95	6.0099
951.325	3.13258
954.7	3.77141
958.075	4.63856
961.45	4.62497
964.824	4.82955
968.199	3.79339
971.574	3.04079
974.949	5.68008
978.324	3.57008
981.698	1.84933
985.073	1.87176
988.448	2.1799
991.823	3.20352
995.198	1.49992
998.573	2.29627
1001.95	1.44247
1005.32	0.467316
1008.7	0.433296
1012.07	1.06862
1015.45	1.18478
1018.82	1.06734
1022.2	3.38792
1025.57	0.382034
1028.95	2.64937
1032.32	1.5258
1035.7	0.741585
1039.07	0.880913
1042.44	1.80289
1045.82	2.3464
1049.19	1.37502
1052.57	1.52262
1055.94	1.87441
1059.32	1.8137
1062.69	3.7179
1066.07	2.14452
1069.44	1.89953
1072.82	2.51231
1076.19	0.411728
1079.57	1.88959
1082.94	2.71436
1086.32	1.07591
1089.69	2.43745
1093.07	2.48792
1096.44	1.34346
1099.82	4.2759
1103.19	0.862923
1106.57	2.02809
1109.94	2.73212
1113.32	1.44025
1116.69	1.83859
1120.07	4.13955
1123.44	1.77932
1126.82	1.78877
1130.19	3.61613
1133.57	1.89516
1136.94	2.36619
1140.32	0.167229
1143.69	1.92426
1147.07	1.99743
1150.44	0.692825
1153.81	1.4374
1157.19	2.99464
1160.56	1.92796
1163.94	0.823662
1167.31	0.836609
1170.69	1.90581
1174.06	1.45568
1177.44	3.08207
1180.81	0.37793
1184.19	4.04059
1187.56	1.85146
1190.94	1.82464
1194.31	1.80114
1197.69	3.10174
1201.06	1.09612
1204.44	3.33723
1207.81	1.41088
1211.19	1.4325
1214.56	0.409988
1217.94	0.558235
1221.31	1.17163
1224.69	0.066597
1228.06	1.11394
1231.43	0.754646
1234.81	0.829018
1238.18	0.442207
1241.56	1.76223
1244.93	2.82163
1248.31	1.4131
1251.68	1.8158
1255.06	0.34346
1258.43	1.32046
1261.81	1.53254
1265.18	1.69646
1268.56	1.64952
1271.93	1.42477
1275.31	1.69044
1278.68	2.85072
1282.06	1.41627
1285.43	0.991592
1288.81	0.128365
1292.18	1.36289
1295.56	1.93694
1298.93	0.225502
