Measurement: Raman, 532 nm, unoriented, Raman Data Processed
Mineral: Goldmanite
Rruff sample: R090044
Ideal chemistry: Ca_3_V^3+^_2_(SiO_4_)_3_
Locality: Synthetic
Source: Kevin Righter,
Description: Synthesized under pressure P = 10 kbars, at temperature T = 1300 C for 8 hours.
Measured chemistry: Ca_3.00_V_2.00_(SiO_4_)_3.00_
Raman shift (cm-1)	intensity
137.511	0
140.886	2.01819
144.261	19.2901
147.636	62.7026
151.011	110.665
154.385	122.284
157.76	114.522
161.135	118.134
164.51	109.424
167.885	84.3599
171.259	47.4882
174.634	22.6767
178.009	16.6737
181.384	12.1711
184.759	6.42325
188.133	2.26147
191.508	5.24887
194.883	0.355347
198.258	2.39725
201.633	3.39175
205.008	2.22501
208.382	0.988831
211.757	1.1994
215.132	4.68295
218.507	7.21112
221.882	7.84171
225.256	18.2832
228.631	12.7571
232.006	6.95065
235.381	5.28619
238.756	9.86771
242.131	10.7566
245.505	16.2054
248.88	26.0012
252.255	25.7201
255.63	33.0519
259.005	15.4636
262.38	3.45901
265.754	0.164398
269.129	4.73395
272.504	4.1012
275.879	7.15567
279.254	13.8529
282.628	19.2547
286.003	23.8434
289.378	24.9735
292.753	33.2737
296.128	40.5425
299.503	46.139
302.877	54.1183
306.252	65.8405
309.627	72.0525
313.002	81.149
316.377	94.1461
319.752	103.127
323.126	106.707
326.501	120.975
329.876	138.9
333.251	157.592
336.626	174.589
340	181.636
343.375	180.621
346.75	170.66
350.125	168.167
353.5	167.243
356.875	150.156
360.249	125.418
363.624	99.4124
366.999	90.2292
370.374	75.1561
373.749	62.8526
377.123	43.4515
380.498	26.9583
383.873	14.3825
387.248	3.62524
390.623	1.21921
393.998	3.46094
397.372	0.158936
400.747	1.76135
404.122	1.97607
407.497	0.247955
410.872	1.92514
414.247	4.04553
417.621	3.87369
420.996	5.88335
424.371	9.33182
427.746	7.98166
431.121	7.29379
434.495	10.9026
437.87	8.6575
441.245	9.99014
444.62	8.98239
447.995	5.97546
451.37	9.65205
454.744	9.08135
458.119	0.538483
461.494	0.585205
464.869	0.939926
468.244	3.10768
471.618	4.36046
474.993	7.08246
478.368	8.12497
481.743	12.4512
485.118	6.75439
488.493	10.0316
491.867	14.1837
495.242	19.9489
498.617	23.5837
501.992	26.1667
505.367	28.1621
508.741	21.6447
512.116	19.4459
515.491	12.6662
518.866	9.37004
522.241	7.20842
525.616	7.50391
528.99	10.5579
532.365	10.6573
535.74	10.6999
539.115	9.6554
542.49	11.3586
545.865	15.3726
549.239	10.8623
552.614	6.49252
555.989	3.03964
559.364	3.09978
562.739	0.493271
566.114	1.28795
569.488	0.124466
572.863	0.740433
576.238	2.1958
579.613	1.15772
582.987	1.93686
586.362	2.78394
589.737	5.28511
593.112	5.87308
596.487	2.63051
599.862	6.12964
603.236	9.81935
606.611	4.31331
609.986	7.42375
613.361	7.71136
616.736	6.89362
620.111	6.69537
623.485	12.2248
626.86	8.48123
630.235	8.2394
633.61	9.88615
636.985	5.78993
640.36	11.1211
643.734	8.20799
647.109	5.89426
650.484	2.82086
653.859	4.08691
657.234	1.64543
660.609	3.97611
663.983	1.65926
667.358	3.07587
670.733	0.565735
674.108	1.71954
677.482	1.73534
680.857	1.36401
684.232	0.996368
687.607	3.38594
690.982	2.10232
694.357	0.417023
697.731	2.94389
701.106	1.49588
704.481	3.92015
707.856	3.67165
711.231	4.37918
714.606	11.4627
717.98	14.5297
721.355	15.2126
724.73	22.1589
728.105	26.5902
731.48	33.8149
734.855	40.7105
738.229	46.4596
741.604	48.669
744.979	53.3842
748.354	49.4596
751.729	46.696
755.103	39.1826
758.478	33.5629
761.853	29.4347
765.228	25.0266
768.603	20.9209
771.977	16.0682
775.352	11.8379
778.727	13.7639
782.102	10.5386
785.477	14.9276
788.852	10.0871
792.226	15.9669
795.601	12.8524
798.976	12.2954
802.351	16.798
805.726	19.4302
809.101	17.508
812.475	17.0696
815.85	15.222
819.225	16.6614
822.6	18.5172
825.975	15.9125
829.35	18.3562
832.724	19.8732
836.099	22.5389
839.474	28.2164
842.849	32.7971
846.224	34.9998
849.598	37.8596
852.973	45.1912
856.348	46.0942
859.723	49.0947
863.098	43.002
866.472	41.3874
869.847	32.2073
873.222	26.3419
876.597	18.0942
879.972	12.1395
883.347	5.49161
886.721	3.00023
890.096	2.26758
893.471	3.03217
896.846	1.12985
900.221	0.924332
903.596	3.88597
906.97	1.04337
910.345	1.85985
913.72	1.58639
917.095	1.06953
920.47	2.79544
923.845	2.31111
927.219	6.1262
930.594	5.06435
933.969	9.16148
937.344	9.45818
940.719	10.5004
944.093	10.5308
947.468	12.3696
950.843	11.9683
954.218	10.9736
957.593	12.5908
960.967	13.2348
964.342	11.6364
967.717	9.46637
971.092	9.95721
974.467	10.2567
977.842	11.6538
981.216	8.71382
984.591	2.57924
987.966	5.70738
991.341	4.20592
994.716	3.22119
998.091	1.27194
1001.47	1.19228
1004.84	0.519302
1008.22	4.42732
1011.59	2.20384
1014.97	2.16516
1018.34	2.03465
1021.71	2.52669
1025.09	3.46448
1028.46	0.455307
1031.84	0.561615
1035.21	3.79059
1038.59	3.29144
1041.96	4.38129
1045.34	1.62073
1048.71	4.04425
1052.09	3.21484
1055.46	2.67726
1058.84	0.192337
1062.21	0.584854
1065.59	2.43871
1068.96	1.8642
1072.34	3.36926
1075.71	2.37582
1079.09	1.17708
1082.46	5.87465
1085.84	1.27922
1089.21	5.68045
1092.59	1.96951
1095.96	5.38551
1099.34	5.53716
1102.71	3.88689
1106.09	0.568771
1109.46	8.06871
1112.83	0.220871
1116.21	2.47957
1119.58	2.09389
1122.96	0.145203
1126.33	0.773514
1129.71	2.88718
1133.08	3.00977
1136.46	2.97046
1139.83	0.11647
1143.21	1.33984
1146.58	5.01295
1149.96	2.26695
1153.33	1.36261
1156.71	2.92383
1160.08	4.81157
1163.46	3.44565
1166.83	2.90582
1170.21	4.3903
1173.58	2.05705
1176.96	5.97658
1180.33	1.34381
1183.71	4.7041
1187.08	6.24735
1190.45	7.19846
1193.83	6.63675
1197.2	2.83955
1200.58	4.44818
1203.95	7.07764
1207.33	2.81679
1210.7	5.78537
1214.08	4.12401
1217.45	1.93864
1220.83	6.76949
1224.2	1.65558
1227.58	5.7327
1230.95	0.857666
1234.33	6.63187
1237.7	3.01848
1241.08	3.07805
1244.45	4.54727
1247.83	5.6124
1251.2	5.74858
1254.58	6.00941
1257.95	1.54611
1261.33	3.47368
1264.7	4.59041
1268.08	7.16596
1271.45	5.83044
1274.83	4.06747
1278.2	5.53993
1281.58	4.49393
1284.95	2.00088
1288.33	4.0542
1291.7	3.30633
1295.08	2.76714
1298.45	0.85788
1301.82	0
