Measurement: Raman, 532 nm, unoriented, Raman Data Processed
Mineral: Goldmanite
Rruff sample: R061138
Ideal chemistry: Ca_3_V^3+^_2_(SiO_4_)_3_
Locality: Tetitice, Klatovy, Czechoslovakia
Source: Michael Scott
Description: Dark green grains embedded in matrix
Measured chemistry: (Ca_2.78_Mn_0.13_Fe^2+^_0.04_[box]_0.03_Mg_0.02_)_Σ=3_(V^3+^_1.62_Al_0.21_Cr_0.07_Ti_0.06_Fe^3+^_0.04_)_Σ=2_(Si_1.00_O_4_)_3_
Raman shift (cm-1)	intensity
154.52	0
157.895	303.259
161.27	684.952
164.644	909.071
168.019	971.427
171.394	665.67
174.769	205.483
178.144	17.3474
181.518	34.2666
184.893	15.1531
188.268	32.3967
191.643	36.1301
195.018	91.5588
198.393	20.2109
201.767	64.2998
205.142	93.4773
208.517	59.8066
211.892	85.9463
215.267	131.071
218.642	131.049
222.016	341.329
225.391	210.662
228.766	257.362
232.141	297.263
235.516	205.208
238.89	65.438
242.265	41.6333
245.64	17.8892
249.015	38.4336
252.39	128.275
255.764	152.748
259.139	210.921
262.514	153.686
265.889	33.1475
269.264	19.5806
272.639	46.8813
276.013	81.7095
279.388	82.6367
282.763	155.093
286.138	185.898
289.513	267.724
292.887	307.449
296.262	305.918
299.637	403.748
303.012	498.46
306.387	570.593
309.762	648.362
313.136	795.784
316.511	904.914
319.886	1060.11
323.261	1172.87
326.636	1228.19
330.01	1211.23
333.385	1292.18
336.76	1497.61
340.135	1608.07
343.51	1736.75
346.885	1693.98
350.259	1552.82
353.634	1383.01
357.009	1284.23
360.384	1445.51
363.759	1781.57
367.134	2041.97
370.508	1951.86
373.883	1434.02
377.258	1066.81
380.633	899.756
384.008	671.631
387.382	412.085
390.757	176.356
394.132	30.0064
397.507	29.2248
400.882	67.925
404.257	35.436
407.631	30.2495
411.006	21.1235
414.381	15.1448
417.756	97.8125
421.131	106.563
424.505	165.9
427.88	185.884
431.255	254.152
434.63	277.087
438.005	286.998
441.38	333.302
444.754	300.78
448.129	335.576
451.504	347.959
454.879	441.469
458.253	432.306
461.628	404.245
465.003	359.473
468.378	323.861
471.753	403.782
475.128	372.278
478.502	460.517
481.877	517.402
485.252	552.291
488.627	545.802
492.002	488.361
495.377	392.355
498.751	264.752
502.126	187.513
505.501	290.668
508.876	406.637
512.251	609.26
515.625	777.802
519	725.427
522.375	451.197
525.75	363.107
529.125	318.165
532.5	291.478
535.874	328.141
539.249	343.746
542.624	357.651
545.999	392.041
549.374	394.627
552.748	346.729
556.123	285.085
559.498	169.277
562.873	76.7253
566.248	45.8027
569.622	10.6941
572.997	12.9944
576.372	38.218
579.747	10.3479
583.122	2.7605
586.497	31.1055
589.871	5.05591
593.246	7.51147
596.621	18.2449
599.996	113.303
603.371	85.0833
606.745	75.4656
610.12	148.622
613.495	123.233
616.87	146.896
620.245	164.29
623.62	152.876
626.994	177.626
630.369	133.192
633.744	196.963
637.119	170.546
640.494	163.147
643.869	141.539
647.243	109.038
650.618	153.705
653.993	117.71
657.368	123.46
660.743	101.874
664.117	144.488
667.492	120.556
670.867	77.0537
674.242	71.106
677.617	64.8843
680.991	34.5317
684.366	72.6538
687.741	22.0776
691.116	13.2017
694.491	2.31787
697.866	40.5283
701.24	8.53223
704.615	24.9116
707.99	17.8535
711.365	23.2466
714.74	8.73438
718.115	25.8564
721.489	35.1499
724.864	15.7988
728.239	0.42627
731.614	23.646
734.989	4.44824
738.363	37.2241
741.738	16.4224
745.113	0.108887
748.488	3.27393
751.863	2.02197
755.237	74.8608
758.612	32.8565
761.987	13.6733
765.362	78.9961
768.737	34.8682
772.112	40.5684
775.486	46.9849
778.861	85.9702
782.236	100.505
785.611	215.986
788.986	285.764
792.361	385.801
795.735	430.653
799.11	562.962
802.485	647.893
805.86	741.718
809.235	823.191
812.609	807.019
815.984	844.425
819.359	791.856
822.734	856.233
826.109	815.145
829.484	837.027
832.858	827.253
836.233	811.842
839.608	781.025
842.983	788.563
846.357	808.487
849.732	761.808
853.107	784.641
856.482	846.157
859.857	849.529
863.232	1014.82
866.606	1156.59
869.981	1319.23
873.356	1407.67
876.731	1316.97
880.106	1148.19
883.481	855.723
886.855	661.818
890.23	498.898
893.605	311.103
896.98	242.984
900.355	176.312
903.729	88.4937
907.104	61.9673
910.479	1.80859
913.854	19.416
917.229	48.3018
920.604	3.62012
923.978	21.0601
927.353	22.3223
930.728	86.4165
934.103	58.6631
937.478	45.0303
940.852	51.7251
944.227	68.8862
947.602	58.1035
950.977	79.9604
954.352	115.521
957.727	118.53
961.101	153.66
964.476	193.391
967.851	255.098
971.226	309.149
974.601	333.622
977.976	265.887
981.35	274.803
984.725	283.798
988.1	293.192
991.475	300.532
994.85	299.029
998.224	227.668
1001.6	183.605
1004.97	149.499
1008.35	93.6812
1011.72	90.1973
1015.1	68.4951
1018.47	91.5962
1021.85	9.14087
1025.22	43.825
1028.6	26.6079
1031.97	25.1995
1035.35	38.3926
1038.72	10.5645
1042.1	7.5918
1045.47	4.3606
1048.85	13.0928
1052.22	36.4321
1055.6	13.8332
1058.97	21.6665
1062.35	4.69043
1065.72	18.9265
1069.1	14.2961
1072.47	11.7878
1075.85	72.083
1079.22	1.34888
1082.6	10.8005
1085.97	56.8376
1089.34	21.0664
1092.72	20.3599
1096.09	75.4526
1099.47	31.7783
1102.84	58.7837
1106.22	30.773
1109.59	44.9956
1112.97	29.2559
1116.34	10.7979
1119.72	4.88769
1123.09	25.6831
1126.47	35.5703
1129.84	30.3657
1133.22	36.8579
1136.59	14.2725
1139.97	16.2378
1143.34	3.61914
1146.72	42.2695
1150.09	1.49609
1153.47	21.9824
1156.84	28.2812
1160.22	36.456
1163.59	62.042
1166.96	8.1792
1170.34	26.0713
1173.71	37.8071
1177.09	10.1475
1180.46	42.4688
1183.84	8.12451
1187.21	23.9688
1190.59	35.1773
1193.96	43.0088
1197.34	24.6352
1200.71	14.9722
1204.09	37.4517
1207.46	49.148
1210.84	11.8438
1214.21	38.3711
1217.59	9.08545
1220.96	84.8486
1224.34	38.2524
1227.71	7.45215
1231.09	23.4268
1234.46	28.4595
1237.84	24.1733
1241.21	6.78662
1244.59	34.5063
1247.96	34.3989
1251.34	34.374
1254.71	28.9477
1258.09	70.3272
1261.46	37.8184
1264.84	32.7134
1268.21	56.7236
1271.59	5.14014
1274.96	58.5498
1278.33	30.2065
1281.71	40.0093
1285.08	10.0605
1288.46	53.3057
1291.83	41.8892
1295.21	56.7402
1298.58	62.2749
1301.96	35.4253
1305.33	38.8193
1308.71	26.644
1312.08	1.02637
1315.46	10.0664
