Measurement: Raman, 785 nm, unoriented, Raman Data Processed
Mineral: Goldmanite
Rruff sample: R061138
Ideal chemistry: Ca_3_V^3+^_2_(SiO_4_)_3_
Locality: Tetitice, Klatovy, Czechoslovakia
Source: Michael Scott
Description: Dark green grains embedded in matrix
Measured chemistry: (Ca_2.78_Mn_0.13_Fe^2+^_0.04_[box]_0.03_Mg_0.02_)_Σ=3_(V^3+^_1.62_Al_0.21_Cr_0.07_Ti_0.06_Fe^3+^_0.04_)_Σ=2_(Si_1.00_O_4_)_3_
Raman shift (cm-1)	intensity
106.847	0
109.739	10.3588
112.632	32.8156
115.525	76.2576
118.417	72.1697
121.31	11.8727
124.203	34.6281
127.095	162.795
129.988	364.484
132.881	415.141
135.774	224.268
138.666	211.074
141.559	365.998
144.452	593.453
147.344	807.417
150.237	850.47
153.13	843.948
156.022	850.874
158.915	868.462
161.808	944.043
164.701	909.38
167.593	837.605
170.486	565.868
173.379	337.673
176.271	157.429
179.164	60.5436
182.057	60.8093
184.949	74.6154
187.842	6.92481
190.735	50.7154
193.627	75.9407
196.52	82.4894
199.413	79.8776
202.306	48.3519
205.198	61.7937
208.091	55.2396
210.984	43.7228
213.876	40.204
216.769	86.1306
219.662	72.3494
222.554	77.6068
225.447	110.508
228.34	138.542
231.232	113.469
234.125	104.608
237.018	85.6906
239.911	73.3907
242.803	35.6457
245.696	48.5504
248.589	64.6168
251.481	80.66
254.374	130.556
257.267	159.95
260.159	154.103
263.052	134.757
265.945	53.7894
268.838	25.1375
271.73	37.5715
274.623	24.0061
277.516	1.46838
280.408	3.87012
283.301	46.8788
286.194	52.4605
289.087	101.255
291.979	104.829
294.872	117.748
297.765	158.031
300.657	189.304
303.55	200.551
306.443	300.168
309.335	328.51
312.228	327.029
315.121	377.806
318.014	410.331
320.906	431.182
323.799	467.491
326.692	460.065
329.584	393.572
332.477	389.044
335.37	390.04
338.262	413.957
341.155	440.243
344.048	500.589
346.94	473.131
349.833	509.889
352.726	532.89
355.619	579.401
358.511	691.147
361.404	803.101
364.297	1027.52
367.189	1236.53
370.082	1213.78
372.975	965.561
375.868	636.367
378.76	420.161
381.653	334.879
384.546	255.504
387.438	151.613
390.331	105.933
393.224	43.8175
396.116	1.7074
399.009	25.3798
401.902	22.6357
404.795	27.0406
407.687	4.29633
410.58	0.278442
413.473	12.4543
416.365	27.6277
419.258	53.1238
422.151	49.3623
425.043	62.0815
427.936	68.0867
430.829	58.3444
433.721	78.6027
436.614	96.4445
439.507	74.7982
442.4	95.4416
445.292	97.5394
448.185	98.5454
451.078	147.752
453.97	130.763
456.863	171.653
459.756	159.112
462.649	142.117
465.541	123.929
468.434	148.33
471.327	123.776
474.219	118.298
477.112	140.972
480.005	135.905
482.897	170.311
485.79	156.908
488.683	152.646
491.575	177.224
494.468	144.119
497.361	126.292
500.254	102.471
503.146	125.116
506.039	161.216
508.932	216.151
511.824	313.354
514.717	404.969
517.61	468.95
520.503	393.418
523.395	287.089
526.288	212.664
529.181	170.968
532.073	148.909
534.966	155.951
537.859	168.911
540.751	177.919
543.644	169.203
546.537	172.688
549.429	184.878
552.322	203.011
555.215	145.517
558.107	118.498
561	80.9548
563.893	39.4516
566.786	9.18994
569.678	6.62311
572.571	20.6989
575.464	21.8463
578.356	5.12524
581.249	18.5305
584.142	5.19556
587.034	2.91119
589.927	17.5164
592.82	8.6012
595.713	13.358
598.605	30.9744
601.498	32.8068
604.391	50.3336
607.283	48.2839
610.176	53.8967
613.069	44.9105
615.962	51.354
618.854	36.0933
621.747	44.4438
624.64	45.7653
627.532	55.5793
630.425	57.9287
633.318	48.1772
636.21	76.5444
639.103	56.3747
641.996	65.0802
644.889	73.8705
647.781	43.9678
650.674	55.558
653.567	60.4377
656.459	32.4109
659.352	44.296
662.245	37.5471
665.138	55.5297
668.03	58.0004
670.923	29.0806
673.816	22.8051
676.708	24.6672
679.601	20.0423
682.494	12.9369
685.386	0.571838
688.279	14.1823
691.172	1.32227
694.064	3.83856
696.957	23.6033
699.85	0.598755
702.743	3.3667
705.635	0.651855
708.528	3.53577
711.421	17.0587
714.313	30.9205
717.206	7.33289
720.099	27.3536
722.991	40.3978
725.884	50.3383
728.777	54.0352
731.67	52.2723
734.562	49.1456
737.455	38.0887
740.348	44.2024
743.24	30.1763
746.133	35.265
749.026	13.7855
751.918	6.19428
754.811	27.7646
757.704	0.934082
760.596	17.281
763.489	25.6259
766.382	7.5415
769.275	0.814941
772.167	0.896729
775.06	43.7445
777.953	5.93848
780.845	39.7849
783.738	29.1799
786.631	37.6178
789.524	47.4292
792.416	111.607
795.309	104.981
798.202	154.833
801.094	153.255
803.987	195.863
806.88	220.594
809.772	242.587
812.665	246.782
815.558	254.837
818.451	260.065
821.343	241.046
824.236	222.083
827.129	243.412
830.021	279.981
832.914	229.856
835.807	240.454
838.699	221.612
841.592	228.553
844.485	198.737
847.378	186.824
850.27	203.742
853.163	192.251
856.056	202.01
858.948	238.669
861.841	284.355
864.734	331.73
867.626	411.571
870.519	505.749
873.412	599.622
876.304	646.047
879.197	598.162
882.09	431.874
884.983	274.247
887.875	170.749
890.768	104.193
893.661	76.7062
896.553	43.967
899.446	19.6198
902.339	8.90491
905.231	0.023315
908.124	6.64221
911.017	13.3441
913.91	13.8292
916.802	2.33862
919.695	12.3886
922.588	5.29352
925.48	7.49805
928.373	9.17841
931.266	2.88837
934.159	16.4774
937.051	18.7129
939.944	27.0984
942.837	30.9104
945.729	35.288
948.622	8.75714
951.515	44.0644
954.407	27.5297
957.3	38.781
960.193	65.3889
963.085	47.9412
965.978	77.7053
968.871	65.3984
971.764	62.9772
974.656	75.1484
977.549	88.8742
980.442	85.3498
983.334	71.7981
986.227	64.7553
989.12	73.9865
992.013	62.615
994.905	65.1372
997.798	62.7985
1000.69	60.682
1003.58	63.4702
1006.48	39.3036
1009.37	26.5423
1012.26	27.5593
1015.15	37.3055
1018.05	45.1559
1020.94	6.54324
1023.83	15.0955
1026.72	27.776
1029.62	0.934875
1032.51	0.284882
1035.4	29.672
1038.3	1.44122
1041.19	11.0895
1044.08	3.19519
1046.97	8.94486
1049.87	10.334
1052.76	3.31781
1055.65	30.3786
1058.55	12.3401
1061.44	23.0631
1064.33	14.8794
1067.22	1.14722
1070.12	1.81506
1073.01	15.674
1075.9	20.4316
1078.79	0.873871
1081.69	34.7361
1084.58	44.2915
1087.47	24.1448
1090.36	16.6114
1093.26	6.68976
1096.15	27.9848
1099.04	29.6326
1101.93	37.342
1104.83	35.3336
1107.72	15.2097
1110.61	0.875519
1113.51	21.025
1116.4	17.8908
1119.29	28.8665
1122.18	18.2913
1125.08	27.3094
1127.97	23.0682
1130.86	20.4973
1133.76	14.3694
1136.65	28.5816
1139.54	0.077118
1142.43	14.4141
1145.33	23.478
1148.22	34.0833
1151.11	6.4729
1154	1.71704
1156.9	6.54568
1159.79	16.2124
1162.68	14.4564
1165.57	20.6458
1168.47	12.9882
1171.36	10.5956
1174.25	17.3733
1177.14	17.7798
1180.04	8.25205
1182.93	15.8133
1185.82	1.7457
1188.72	20.2048
1191.61	31.4644
1194.5	8.68103
1197.39	22.9155
1200.29	24.6009
1203.18	25.7987
1206.07	29.7084
1208.96	7.62372
1211.86	14.8762
1214.75	20.2744
1217.64	3.86719
1220.54	16.3337
1223.43	14.1129
1226.32	16.1352
1229.21	14.7727
1232.11	10.7638
1235	3.70358
1237.89	18.9444
1240.79	3.69412
1243.68	0.727051
