Measurement: Raman, 532 nm, unoriented, Raman Data Processed
Mineral: Goldichite
Rruff sample: R120120
Ideal chemistry: KFe^3+^(S^6+^O_4_)_2_4H_2_O
Locality: Dexter #7 mine, San Rafael Swell, Emery County, Utah, USA
Source: Marcus Origlieri
Description: Aggregates of pale yellowish green bladed crystals on pink coquimbite
Raman shift (cm-1)	intensity
186.749	0
189.642	9.59195
192.535	33.8352
195.427	50.5415
198.32	55.3687
201.213	49.9561
204.105	43.6362
206.998	36.3111
209.891	36.8565
212.784	31.2756
215.676	25.6066
218.569	17.3368
221.462	8.11338
224.354	1.86897
227.247	1.84853
230.14	2.73933
233.032	1.8344
235.925	0.152191
238.818	3.60867
241.71	6.64227
244.603	10.0323
247.496	11.2425
250.389	11.7405
253.281	12.1312
256.174	18.914
259.067	28.1466
261.959	37.8897
264.852	42.8165
267.745	43.8052
270.637	53.7785
273.53	72.5027
276.423	102.388
279.316	141.536
282.208	189.604
285.101	250.837
287.994	321.628
290.886	383.374
293.779	409.388
296.672	373.283
299.565	309.207
302.457	260.244
305.35	231.497
308.243	220.862
311.135	219.702
314.028	226.896
316.921	227.175
319.813	203.864
322.706	160.407
325.599	112.664
328.491	76.0491
331.384	50.9136
334.277	34.2965
337.17	23.8239
340.062	16.9261
342.955	11.9215
345.848	7.18781
348.74	4.93564
351.633	2.67796
354.526	1.94619
357.418	0.369812
360.311	0.433685
363.204	0.415024
366.097	0.823845
368.989	1.49105
371.882	1.70918
374.775	1.26989
377.667	0.977089
380.56	0.142616
383.453	1.30157
386.346	2.04561
389.238	4.23256
392.131	5.58121
395.024	7.62756
397.916	9.79829
400.809	13.1269
403.702	17.2228
406.594	24.3041
409.487	32.6819
412.38	41.0034
415.272	50.0796
418.165	60.918
421.058	66.684
423.951	66.294
426.843	57.4668
429.736	43.1835
432.629	29.977
435.521	21.5211
438.414	14.9921
441.307	13.1904
444.2	12.584
447.092	15.2738
449.985	19.2736
452.878	26.3801
455.77	37.4001
458.663	50.4353
461.556	64.0827
464.448	78.8877
467.341	100.75
470.234	128.437
473.127	146.594
476.019	133.066
478.912	93.1726
481.805	59.8177
484.697	40.2436
487.59	29.2991
490.483	24.8021
493.375	18.7202
496.268	13.1757
499.161	9.07109
502.053	6.7009
504.946	4.22804
507.839	2.61771
510.732	0.900932
513.624	0.643967
516.517	0.773972
519.41	0.401138
522.302	0.754158
525.195	0.089996
528.088	0.214745
530.981	0.918152
533.873	0.128357
536.766	0.288918
539.659	0.457489
542.551	0.139252
545.444	0.044136
548.337	0.234131
551.229	0.409256
554.122	0.481972
557.015	1.52621
559.908	1.74747
562.8	1.90125
565.693	3.24178
568.586	3.74465
571.478	6.27386
574.371	8.27842
577.264	12.4047
580.156	18.9766
583.049	24.4022
585.942	34.5107
588.835	43.3848
591.727	46.8241
594.62	44.3411
597.513	50.6245
600.405	69.3216
603.298	92.2412
606.191	113.489
609.083	107.283
611.976	68.9866
614.869	39.4853
617.761	22.1189
620.654	16.0513
623.547	19.8649
626.44	32.7738
629.332	52.4478
632.225	79.9294
635.118	115.353
638.01	148.336
640.903	142.67
643.796	74.1462
646.688	31.6056
649.581	15.126
652.474	8.22498
655.367	4.36277
658.259	2.37571
661.152	1.71007
664.045	0.031548
666.937	1.45275
669.83	0.605591
672.723	0.991585
675.615	1.96931
678.508	2.83257
681.401	1.87448
684.294	0.07988
687.186	0.220406
690.079	0.265938
692.972	0.223686
695.864	0.224701
698.757	0.254936
701.65	0.28595
704.543	0.203308
707.435	0.086296
710.328	0.075417
713.221	0.071861
716.113	0.03186
719.006	0.457031
721.899	0.674271
724.791	0.667671
727.684	0.92395
730.577	1.31034
733.47	1.34669
736.362	2.44896
739.255	1.98311
742.148	3.20729
745.04	2.51422
747.933	4.24641
750.826	5.2821
753.718	3.65375
756.611	3.17605
759.504	3.29929
762.396	2.66131
765.289	1.4816
768.182	3.02864
771.075	1.34741
773.967	2.68672
776.86	1.56095
779.753	2.20797
782.645	2.98396
785.538	2.06924
788.431	1.66412
791.323	2.12084
794.216	2.36851
797.109	2.62131
800.002	1.62212
802.894	1.4799
805.787	2.49473
808.68	1.91017
811.572	1.39314
814.465	0.841339
817.358	1.37932
820.25	1.02119
823.143	1.13766
826.036	1.46041
828.929	1.39843
831.821	1.45187
834.714	1.7553
837.607	1.87697
840.5	1.62536
843.392	2.08758
846.285	1.40128
849.178	2.39092
852.07	1.52391
854.963	0.118088
857.856	1.36889
860.748	1.45297
863.641	1.08495
866.534	0.438156
869.427	0.235992
872.319	0.067627
875.212	1.34291
878.105	0.574287
880.997	1.16838
883.89	0.198097
886.783	1.19013
889.675	0.406235
892.568	0.167572
895.461	0.365257
898.354	0.835251
901.246	0.965858
904.139	1.79053
907.032	2.92551
909.924	4.47366
912.817	5.42841
915.71	7.40176
918.602	9.12422
921.495	12.5574
924.388	16.605
927.28	21.779
930.173	29.1836
933.066	39.5063
935.959	57.5414
938.851	83.1961
941.744	120.248
944.637	175.669
947.529	254.207
950.422	348.62
953.315	441.543
956.207	498.478
959.1	471.436
961.993	371.244
964.886	256.312
967.778	167.134
970.671	108.84
973.564	72.3593
976.456	47.541
979.349	30.1908
982.242	19.6728
985.135	13.4262
988.027	8.55542
990.92	5.88906
993.813	6.35881
996.705	7.91216
999.598	13.1149
1002.49	19.8061
1005.38	34.1071
1008.28	56.3667
1011.17	91.1712
1014.06	140.442
1016.95	211.059
1019.85	258.933
1022.74	239.795
1025.63	242.815
1028.53	256.597
1031.42	128.491
1034.31	48.1364
1037.2	21.5687
1040.1	10.5227
1042.99	3.95988
1045.88	0.815521
1048.77	0.779388
1051.67	1.99433
1054.56	2.10839
1057.45	1.60993
1060.35	0.35128
1063.24	1.95278
1066.13	6.69331
1069.02	15.3367
1071.92	26.8868
1074.81	42.5834
1077.7	55.6785
1080.59	40.889
1083.49	18.3036
1086.38	8.61419
1089.27	4.94677
1092.16	2.72804
1095.06	2.93105
1097.95	1.97803
1100.84	1.37544
1103.73	2.40035
1106.63	2.25286
1109.52	1.48094
1112.41	0.911377
1115.31	2.15185
1118.2	1.97062
1121.09	3.64777
1123.98	5.92961
1126.88	9.20877
1129.77	15.2069
1132.66	24.4423
1135.56	34.7786
1138.45	48.1661
1141.34	60.17
1144.23	69.4799
1147.13	67.6126
1150.02	55.7624
1152.91	39.2272
1155.8	27.5622
1158.7	18.4393
1161.59	13.5066
1164.48	9.3124
1167.38	6.20131
1170.27	4.09988
1173.16	2.89358
1176.05	1.34721
1178.94	0.501411
1181.84	0.326431
1184.73	0.052483
1187.62	1.88457
1190.52	0.744781
1193.41	0.089233
1196.3	0.706818
1199.19	0.956352
1202.09	2.48015
1204.98	3.09487
1207.87	3.2719
1210.77	4.53962
1213.66	6.31284
1216.55	7.29092
1219.44	10.626
1222.34	11.8661
1225.23	12.9478
1228.12	12.324
1231.01	10.3525
1233.91	5.769
1236.8	4.79298
1239.69	5.67833
1242.59	7.86463
1245.48	13.7537
1248.37	21.5307
1251.26	37.1529
1254.16	64.7072
1257.05	113.972
1259.94	197.017
1262.83	317.577
1265.73	468.867
1268.62	524.753
1271.51	366.61
1274.4	196.753
1277.3	106.436
1280.19	59.5324
1283.08	35.832
1285.97	22.2417
1288.87	12.2361
1291.76	5.7503
1294.65	1.01926
1297.55	0.410027
1300.44	0.029579
