Measurement: Raman, 780 nm, unoriented, Raman Data Processed
Mineral: Gordaite
Rruff sample: R100059
Ideal chemistry: NaZn^2+^_4_(S^6+^O_4_)(OH)_6_Cl6H_2_O
Locality: San Francisco mine, Sierra Gorda, Chile
Source: William W Pinch
Description: Groups of pale bluish-green thin tabular crystals on quartz, associated with dark blue herbertsmithite.
Raman shift (cm-1)	intensity
92.4974	0
95.8722	15.5898
99.2471	11.8949
102.622	3.72009
105.997	8.88648
109.371	4.50024
112.746	3.83881
116.121	7.27931
119.496	7.52878
122.871	14.8096
126.246	19.9025
129.62	21.2803
132.995	8.95984
136.37	5.69536
139.745	3.84494
143.12	2.65883
146.494	3.72359
149.869	0.577118
153.244	4.56697
156.619	9.75305
159.994	9.97493
163.369	9.12062
166.743	5.53041
170.118	0.359482
173.493	1.09955
176.868	0.649796
180.243	1.22577
183.618	3.8407
186.992	3.36978
190.367	6.57896
193.742	7.33632
197.117	10.1915
200.492	11.2166
203.866	13.8941
207.241	16.2612
210.616	13.8845
213.991	10.9582
217.366	8.43228
220.74	11.4523
224.115	11.242
227.49	11.4293
230.865	11.1602
234.24	11.6807
237.615	12.6476
240.989	8.09505
244.364	4.3983
247.739	1.90587
251.114	3.53844
254.489	0.993942
257.863	0.476349
261.238	2.20651
264.613	4.99344
267.988	5.39189
271.363	7.6521
274.738	12.591
278.112	13.0897
281.487	14.0905
284.862	14.0928
288.237	10.5011
291.612	9.14537
294.986	2.52159
298.361	2.67751
301.736	2.77419
305.111	1.34779
308.486	1.32481
311.861	0.160629
315.235	1.34769
318.61	0.207413
321.985	1.23052
325.36	0.588226
328.735	1.33379
332.109	0.174805
335.484	0.303253
338.859	1.39867
342.234	1.20402
345.609	0.718658
348.984	1.54962
352.358	3.25617
355.733	5.36964
359.108	5.90678
362.483	8.66371
365.858	9.35011
369.233	12.413
372.607	16.5853
375.982	18.2166
379.357	21.5715
382.732	25.4504
386.106	26.3569
389.481	27.0816
392.856	23.1061
396.231	15.9686
399.606	12.7871
402.981	7.16896
406.355	5.00507
409.73	3.14717
413.105	4.18368
416.48	2.05185
419.855	3.72063
423.229	3.85014
426.604	5.07924
429.979	8.49904
433.354	7.20145
436.729	9.50591
440.104	11.475
443.478	11.6892
446.853	12.7333
450.228	13.2773
453.603	12.4807
456.978	9.6114
460.353	8.76627
463.727	8.36714
467.102	7.4402
470.477	5.84346
473.852	5.08293
477.227	5.01712
480.601	2.16881
483.976	4.38711
487.351	1.77959
490.726	2.42311
494.101	1.68185
497.476	0.62941
500.85	1.03682
504.225	1.32107
507.6	1.32001
510.975	0.89624
514.35	0.732483
517.724	0.548691
521.099	0.871307
524.474	1.52415
527.849	0.716415
531.224	1.82034
534.598	2.14232
537.973	1.30431
541.348	1.82809
544.723	3.45857
548.098	1.98953
551.472	2.58601
554.847	2.82397
558.222	2.25266
561.597	1.47185
564.972	3.01791
568.347	1.43472
571.721	2.13303
575.096	2.20213
578.471	3.45689
581.846	4.21371
585.221	5.30913
588.596	8.09667
591.97	9.86726
595.345	11.5989
598.72	16.56
602.095	13.6002
605.47	14.4446
608.845	12.2133
612.219	10.999
615.594	8.74743
618.969	6.26655
622.344	5.0503
625.719	6.69074
629.093	5.82015
632.468	5.14287
635.843	5.38272
639.218	4.20625
642.593	3.75475
645.967	3.252
649.342	0.362938
652.717	0.042091
656.092	0.314384
659.467	0.008453
662.842	0.419357
666.216	2.18533
669.591	1.55537
672.966	3.40662
676.341	0.781952
679.716	1.83699
683.091	0.10141
686.465	2.01832
689.84	1.11693
693.215	0.474152
696.59	0.555984
699.965	1.1458
703.339	1.07655
706.714	1.91943
710.089	0.320801
713.464	0.566895
716.839	0.064781
720.213	1.19166
723.588	0.688881
726.963	2.01776
730.338	0.36013
733.713	0.452179
737.087	1.43909
740.462	0.433502
743.837	0.406639
747.212	0.768303
750.587	0.634468
753.962	1.24561
757.336	1.40267
760.711	2.22863
764.086	0.245949
767.461	2.95076
770.836	0.425148
774.211	1.22583
777.585	1.92584
780.96	1.95904
784.335	1.01005
787.71	1.68663
791.085	1.80923
794.459	1.77152
797.834	2.21929
801.209	3.11814
804.584	1.98203
807.959	0.980171
811.333	3.58182
814.708	1.41203
818.083	3.03265
821.458	1.80979
824.833	3.07673
828.208	4.63521
831.582	3.41733
834.957	1.90826
838.332	2.55308
841.707	5.40119
845.082	2.39841
848.457	3.5181
851.831	4.65582
855.206	4.40474
858.581	4.16316
861.956	5.6642
865.331	3.54204
868.705	4.08434
872.08	4.56112
875.455	4.00267
878.83	1.86428
882.205	3.14819
885.58	4.53389
888.954	3.31709
892.329	1.84476
895.704	0.577362
899.079	3.00201
902.454	0.499031
905.828	0.769989
909.203	0.692299
912.578	1.21446
915.953	0.360855
919.328	1.08279
922.702	1.52678
926.077	0.580551
929.452	0.035812
932.827	1.59009
936.202	1.63245
939.577	3.65546
942.951	7.18353
946.326	13.633
949.701	20.8141
953.076	29.8387
956.451	40.8849
959.825	54.219
963.2	56.8366
966.575	59.8411
969.95	68.0885
973.325	35.2364
976.699	14.1728
980.074	8.83232
983.449	6.89818
986.824	7.19986
990.199	5.48547
993.574	5.21381
996.948	3.76662
1000.32	2.82648
1003.7	2.81245
1007.07	2.11093
1010.45	1.94646
1013.82	2.04839
1017.2	0.848457
1020.57	1.82546
1023.95	0.72287
1027.32	0.887199
1030.7	0.949478
1034.07	1.40147
1037.45	0.304108
1040.82	1.00626
1044.2	1.00816
1047.57	1.30195
1050.94	2.60502
1054.32	2.86344
1057.69	3.79909
1061.07	1.70245
1064.44	0.991379
1067.82	3.06784
1071.19	4.65583
1074.57	3.3209
1077.94	2.33738
1081.32	1.73262
1084.69	2.90386
1088.07	1.99165
1091.44	1.06038
1094.82	0.615189
1098.19	1.06738
1101.57	0.71946
1104.94	0.798492
1108.32	1.81948
1111.69	2.04955
1115.07	3.86244
1118.44	2.19787
1121.82	1.17495
1125.19	3.10011
1128.57	3.82445
1131.94	4.00842
1135.32	3.5711
1138.69	2.37183
1142.07	4.49432
1145.44	3.20781
1148.82	4.03982
1152.19	3.73101
1155.57	3.0474
1158.94	2.7842
1162.31	2.63415
1165.69	1.6645
1169.06	1.63422
1172.44	0.795837
1175.81	1.04567
1179.19	2.60947
1182.56	0.987892
1185.94	1.38431
1189.31	0.239731
1192.69	1.67882
1196.06	1.02757
1199.44	0.708954
1202.81	2.20917
1206.19	0.512909
1209.56	1.87746
1212.94	1.21434
1216.31	0.962799
1219.69	1.35702
1223.06	1.79599
1226.44	1.22616
1229.81	3.86569
1233.19	1.47619
1236.56	2.72948
1239.93	1.80804
1243.31	2.88974
1246.68	2.65559
1250.06	1.62981
1253.43	0.092117
1256.81	0.499146
1260.18	2.56214
1263.56	4.52279
1266.93	3.27466
1270.31	1.94636
1273.68	1.57732
1277.06	1.30527
1280.43	1.60548
1283.81	2.96487
