Measurement: Raman, 785 nm, unoriented, Raman Data Processed
Mineral: Gormanite
Rruff sample: R050093
Ideal chemistry: Fe^2+^_3_Al_4_(PO_4_)_4_(OH)_6_2H_2_O
Locality: Rapid Creek, Yukon Territory, Canada
Source: Rock Currier
Description: Radial aggregates of blue bladed crystals
Measured chemistry: (Fe^2+^_1.85_Mg_1.09_Mn_0.06_)_Σ=3_(Al_3.76_Fe^3+^_0.24_)_Σ=4_(P_1.00_O_4_)_4_((OH_5.65_F_0.35_)_Σ=6_·2H_2_O ; (light phase) : (Fe^2+^_1.53_Mg_1.42_Mn_0.05_)_Σ=3_(Al_3.89_Fe^3+^_0.11_)_Σ=4_(P_1.00_O_4_)_4_((OH_5.60_F_0.40_)_Σ=6_·2H_2_O (dark phase
Raman shift (cm-1)	intensity
176.955	0
179.847	45.9522
182.74	71.5991
185.633	139.933
188.525	189.393
191.418	226.388
194.311	291.151
197.204	303.077
200.096	368.742
202.989	308.61
205.882	330.726
208.774	343.911
211.667	259.363
214.56	204.15
217.452	273.1
220.345	246.574
223.238	255.266
226.131	216.247
229.023	179.54
231.916	227.692
234.809	156.409
237.701	128.197
240.594	123.092
243.487	57.3955
246.38	42.2983
249.272	26.3852
252.165	4.32227
255.058	6.4126
257.95	19.1533
260.843	31.6279
263.736	54.8403
266.628	81.1157
269.521	99.813
272.414	103.547
275.307	178.33
278.199	169.973
281.092	257.873
283.985	241.782
286.877	295.073
289.77	263.288
292.663	319.556
295.555	255.007
298.448	357.371
301.341	426.886
304.233	430.767
307.126	386.7
310.019	471.928
312.912	451.426
315.804	417.19
318.697	358.517
321.59	348.278
324.482	306.878
327.375	347.896
330.268	329.177
333.161	319.302
336.053	238.607
338.946	240.845
341.839	254.121
344.731	153.452
347.624	200.646
350.517	233.748
353.409	213.02
356.302	221.813
359.195	173.419
362.087	179.905
364.98	190.597
367.873	150.245
370.766	97.4273
373.658	113.584
376.551	10.9448
379.444	106.205
382.336	33.1997
385.229	16.6152
388.122	9.98828
391.014	22.3452
393.907	16.6186
396.8	24.1572
399.693	4.03174
402.585	28.6079
405.478	32.5889
408.371	0.483887
411.263	20.1514
414.156	6.46143
417.049	12.6924
419.942	1.81152
422.834	6.04248
425.727	44.8218
428.62	21.3189
431.512	25.3882
434.405	34.7549
437.298	58.1987
440.19	85.0151
443.083	111.643
445.976	105.637
448.868	161.261
451.761	196.754
454.654	303.593
457.547	382.882
460.439	422.675
463.332	517.742
466.225	578.938
469.117	626.173
472.01	681.216
474.903	688.117
477.796	697.961
480.688	667.254
483.581	664.064
486.474	670.854
489.366	718.957
492.259	658.842
495.152	651.657
498.044	657.972
500.937	607.241
503.83	554.886
506.723	512.145
509.615	453.192
512.508	447.94
515.401	405.775
518.293	347.796
521.186	225.332
524.079	171.752
526.971	149.369
529.864	154.263
532.757	91.833
535.649	109.051
538.542	40.377
541.435	21.2231
544.328	69.8008
547.22	11.6616
550.113	0.65625
553.006	33.6509
555.898	9.62988
558.791	7.40967
561.684	57.6494
564.577	31.0342
567.469	16.1616
570.362	10.6782
573.255	40.1934
576.147	60.1445
579.04	9.33691
581.933	35.4644
584.825	33.761
587.718	21.6411
590.611	48.2458
593.504	14.4773
596.396	64.1685
599.289	47.5474
602.182	93.5386
605.074	171.993
607.967	129.823
610.86	137.156
613.752	117.706
616.645	92.6052
619.538	95.3127
622.431	119.596
625.323	109.385
628.216	125.383
631.109	196.951
634.001	181.126
636.894	149.397
639.787	190.602
642.679	148.01
645.572	136.124
648.465	102.197
651.357	108.303
654.25	107.422
657.143	61.8906
660.036	49.2073
662.928	90.0676
665.821	37.0647
668.714	31.0962
671.606	8.57471
674.499	11.2561
677.392	56.3772
680.284	36.5964
683.177	32.6018
686.07	16.8677
688.963	57.6165
691.855	0.482422
694.748	20.3545
697.641	33.1841
700.533	38.281
703.426	42.8435
706.319	44.0747
709.212	78.4443
712.104	46.6531
714.997	75.3691
717.89	76.1143
720.782	68.0708
723.675	49.0803
726.568	100.018
729.46	79.1865
732.353	88.7517
735.246	61.9417
738.139	71.7205
741.031	34.0662
743.924	50.1367
746.817	56.1333
749.709	77.5915
752.602	73.7029
755.495	51.8447
758.387	24.5461
761.28	64.8743
764.173	53.6653
767.066	33.1899
769.958	20.3606
772.851	26.9431
775.744	48.1853
778.636	57.7913
781.529	18.5701
784.422	17.7671
787.314	6.40479
790.207	29.3408
793.1	31.2063
795.992	25.7861
798.885	22.1956
801.778	32.4893
804.671	52.5242
807.563	15.5879
810.456	38.7302
813.349	76.1384
816.241	3.14648
819.134	29.6426
822.027	14.9785
824.919	24.5828
827.812	25.6433
830.705	28.0776
833.598	25.7222
836.49	37.3335
839.383	18.167
842.276	19.9822
845.168	13.5102
848.061	26.8311
850.954	21.8013
853.846	23.6211
856.739	21.0796
859.632	21.0239
862.525	12.8821
865.417	30.4927
868.31	29.8296
871.203	46.3101
874.095	35.5564
876.988	17.8523
879.881	42.2849
882.774	46.8801
885.666	27.0989
888.559	4.79468
891.452	29.5959
894.344	35.3946
897.237	43.4069
900.13	52.3233
903.022	49.277
905.915	79.6323
908.808	2.54199
911.701	7.75244
914.593	36.7876
917.486	34.8376
920.379	51.4168
923.271	34.7302
926.164	47.5915
929.057	18.8533
931.949	23.4597
934.842	32.8069
937.735	13.7725
940.628	1.98242
943.52	6.64209
946.413	17.9821
949.306	38.8605
952.198	45.5207
955.091	46.7683
957.984	70.7419
960.876	71.6252
963.769	42.4548
966.662	33.0789
969.554	6.93726
972.447	37.4856
975.34	14.9868
978.233	84.0979
981.125	99.4761
984.018	40.165
986.911	73.863
989.803	110.736
992.696	132.24
995.589	200.976
998.481	284.444
1001.37	317.158
1004.27	354.48
1007.16	421.651
1010.05	469.172
1012.95	475.729
1015.84	416.137
1018.73	405.575
1021.62	416.152
1024.52	429.224
1027.41	405.292
1030.3	479.161
1033.19	493.567
1036.09	503.769
1038.98	513.404
1041.87	500.931
1044.77	434.305
1047.66	349.371
1050.55	366.958
1053.44	285.783
1056.34	248.262
1059.23	243.231
1062.12	245.034
1065.01	193.32
1067.91	226.441
1070.8	129.649
1073.69	141.101
1076.58	149.001
1079.48	100.353
1082.37	96.3699
1085.26	63.7844
1088.15	64.1167
1091.05	62.8862
1093.94	1.12183
1096.83	28.7246
1099.73	85.8577
1102.62	16.5337
1105.51	6.97949
1108.4	48.8523
1111.3	49.7871
1114.19	17.0022
1117.08	16.4941
1119.97	16.7393
1122.87	19.3381
1125.76	24.7065
1128.65	23.5519
1131.55	8.02527
1134.44	29.5527
1137.33	4.9209
1140.22	33.6755
1143.12	18.301
1146.01	11.8933
1148.9	5.43018
1151.8	4.13061
1154.69	5.15369
1157.58	19.6326
1160.47	41.2614
1163.37	3.96667
1166.26	4.91882
1169.15	47.8156
1172.04	38.5934
1174.94	51.4772
1177.83	53.3794
1180.72	17.9711
1183.61	35.9849
1186.51	53.9329
1189.4	79.9766
1192.29	52.2827
1195.18	45.825
1198.08	82.3849
1200.97	49.4665
1203.86	50.866
1206.76	29.776
1209.65	63.036
1212.54	38.4581
1215.43	44.603
1218.33	13.9846
1221.22	63.0248
1224.11	1.61963
1227.01	22.6783
1229.9	9.49817
1232.79	16.6311
1235.68	29.5413
1238.58	39.647
1241.47	50.5178
