Measurement: Raman, 780 nm, unoriented, Raman Data Processed
Mineral: Gormanite
Rruff sample: R080075
Ideal chemistry: Fe^2+^_3_Al_4_(PO_4_)_4_(OH)_6_2H_2_O
Locality: Linopolis, Minas Gerais, Brazil
Source: Michael Scott
Description: Parallel aggregates of dark green acicular crystals associated with dark-brown prismatic childrenite (R140428), light-brown needle greifensteinite (R060588), and white fine-grained leucophosphite
Raman shift (cm-1)	intensity
104.576	0
107.951	2.89175
111.326	0.941406
114.701	0.635284
118.076	2.56009
121.45	1.33905
124.825	4.59119
128.2	6.81491
131.575	4.98318
134.95	6.18253
138.325	9.27148
141.699	9.47211
145.074	9.49683
148.449	10.2448
151.824	9.35928
155.199	10.6159
158.573	8.18347
161.948	5.74115
165.323	5.75101
168.698	5.51785
172.073	2.31155
175.447	1.12289
178.822	0.335938
182.197	0.464966
185.572	0.992126
188.947	0.90976
192.322	4.05231
195.696	3.01889
199.071	5.04886
202.446	6.25879
205.821	7.54935
209.196	11.1905
212.571	14.6707
215.945	10.5231
219.32	8.76034
222.695	3.43454
226.07	3.10379
229.445	2.41379
232.819	0.448212
236.194	1.47989
239.569	1.39926
242.944	0.679291
246.319	0.49057
249.694	2.81265
253.068	5.13724
256.443	8.25455
259.818	10.7821
263.193	12.7936
266.567	14.3235
269.942	18.1774
273.317	23.0878
276.692	22.1685
280.067	25.9445
283.442	22.2142
286.816	21.1844
290.191	17.9226
293.566	14.3847
296.941	11.7904
300.316	10.9498
303.69	8.55081
307.065	5.46295
310.44	5.91565
313.815	6.25165
317.19	8.10648
320.565	7.24164
323.939	8.66269
327.314	5.76019
330.689	6.66699
334.064	7.66312
337.439	7.72907
340.813	9.46771
344.188	11.3231
347.563	11.6048
350.938	12.8555
354.313	11.8876
357.688	12.9829
361.062	12.2635
364.437	11.4369
367.812	9.23996
371.187	9.63901
374.562	8.65466
377.937	7.00702
381.311	6.65631
384.686	6.30524
388.061	5.77988
391.436	4.32233
394.81	5.73639
398.185	4.07727
401.56	2.90396
404.935	1.5434
408.31	0.572235
411.685	1.09403
415.059	1.41891
418.434	1.10468
421.809	1.319
425.184	1.08182
428.559	0.581696
431.933	1.14481
435.308	1.13086
438.683	0.864777
442.058	2.03763
445.433	1.53952
448.808	2.97305
452.182	5.67294
455.557	9.40103
458.932	12.1546
462.307	9.97662
465.682	11.0242
469.057	11.4546
472.431	16.0691
475.806	10.968
479.181	10.3566
482.556	11.3275
485.931	10.3886
489.305	11.306
492.68	9.53528
496.055	8.62845
499.43	8.16995
502.805	6.88635
506.18	6.19025
509.554	5.37003
512.929	7.30414
516.304	6.60162
519.679	4.4429
523.054	2.61099
526.428	2.00265
529.803	1.29282
533.178	2.315
536.553	1.71899
539.928	2.33374
543.303	0.380157
546.677	2.48453
550.052	1.0481
553.427	0.756287
556.802	0.670837
560.177	1.1232
563.551	0.172516
566.926	1.01868
570.301	2.56992
573.676	3.84638
577.051	1.25168
580.426	1.52081
583.8	1.2337
587.175	2.4368
590.55	4.59274
593.925	4.76361
597.299	6.73401
600.674	8.70831
604.049	9.68365
607.424	11.7997
610.799	7.04083
614.174	4.30521
617.548	5.29871
620.923	3.08279
624.298	3.83908
627.673	2.59311
631.048	3.1358
634.423	2.85672
637.797	1.45151
641.172	1.01849
644.547	1.81598
647.922	3.38522
651.297	0.824066
654.671	1.93579
658.046	1.01379
661.421	0.48288
664.796	0.388885
668.171	0.737762
671.545	1.84653
674.92	0.145416
678.295	1.8046
681.67	2.85046
685.045	0.822998
688.42	1.24567
691.794	1.05966
695.169	0.728424
698.544	1.64243
701.919	0.930176
705.294	0.505463
708.668	2.05212
712.043	2.12186
715.418	1.83801
718.793	2.63644
722.168	0.301117
725.543	1.63788
728.917	1.74234
732.292	0.261322
735.667	2.74899
739.042	2.10315
742.417	0.529663
745.791	1.66986
749.166	1.15463
752.541	1.98041
755.916	1.55093
759.291	1.38962
762.665	0.305695
766.04	0.25473
769.415	2.33469
772.79	1.52527
776.165	1.6026
779.54	2.87763
782.914	0.907349
786.289	1.00409
789.664	0.328979
793.039	0.04538
796.414	0.183807
799.788	3.01642
803.163	0.975647
806.538	1.31418
809.913	2.67886
813.288	3.02272
816.663	3.21848
820.037	1.73721
823.412	2.44942
826.787	2.63165
830.162	1.11029
833.537	3.93539
836.912	3.98692
840.286	3.39952
843.661	4.26453
847.036	2.41097
850.411	2.78833
853.786	3.94507
857.16	0.960678
860.535	4.30337
863.91	4.54096
867.285	4.77055
870.66	4.12201
874.034	4.30867
877.409	2.60095
880.784	2.7516
884.159	1.38077
887.534	2.32494
890.909	1.88911
894.283	0.892227
897.658	1.49123
901.033	0.082382
904.408	2.22723
907.783	1.80202
911.158	0.431702
914.532	0.081314
917.907	1.25729
921.282	0.920898
924.657	1.32594
928.032	1.08603
931.406	1.67253
934.781	1.26424
938.156	0.478363
941.531	0.380066
944.906	0.051758
948.28	1.0266
951.655	0.415436
955.03	1.97398
958.405	2.49272
961.78	3.01424
965.154	2.26042
968.529	1.65318
971.904	0.995071
975.279	2.86697
978.654	1.86084
982.029	1.15367
985.403	2.01483
988.778	4.2178
992.153	5.57291
995.528	7.43887
998.903	9.41493
1002.28	12.0502
1005.65	12.827
1009.03	15.6512
1012.4	16.0922
1015.78	18.7851
1019.15	15.8955
1022.53	16.9554
1025.9	17.3007
1029.28	16.0186
1032.65	14.7584
1036.03	13.1408
1039.4	12.2304
1042.78	10.4795
1046.15	8.89654
1049.53	7.33176
1052.9	6.41318
1056.28	5.68344
1059.65	5.1507
1063.02	4.01953
1066.4	2.34668
1069.77	0.784729
1073.15	1.61066
1076.52	1.30908
1079.9	0.858978
1083.27	0.78653
1086.65	0.910614
1090.02	1.76285
1093.4	0.210999
1096.77	1.68916
1100.15	0.57901
1103.52	0.350891
1106.9	0.320053
1110.27	0.682842
1113.65	0.658478
1117.02	0.146851
1120.4	1.02501
1123.77	1.86493
1127.15	0.284637
1130.52	1.66353
1133.89	2.11682
1137.27	0.447067
1140.64	1.08247
1144.02	1.16919
1147.39	1.70749
1150.77	0.03186
1154.14	2.49158
1157.52	3.25046
1160.89	2.05499
1164.27	1.65433
1167.64	2.80432
1171.02	0.963623
1174.39	3.42032
1177.77	2.32257
1181.14	2.09204
1184.52	1.05939
1187.89	3.0007
1191.27	4.56354
1194.64	3.93213
1198.02	1.32248
1201.39	2.54056
1204.77	1.02551
1208.14	2.48233
1211.52	0.074585
1214.89	0.923859
1218.27	1.38314
1221.64	1.438
1225.02	1.18983
1228.39	1.48636
1231.77	1.27927
1235.14	1.01054
1238.52	1.05437
1241.89	1.62308
1245.26	0.687653
1248.64	0.270264
1252.01	2.96722
1255.39	1.54492
1258.76	1.08575
1262.14	0.424683
1265.51	2.24408
1268.89	0.460144
1272.26	0.497467
1275.64	0.410034
1279.01	2.95645
1282.39	1.47189
1285.76	0.00882
