Measurement: Raman, 532 nm, unoriented, Raman Data Processed
Mineral: Gormanite
Rruff sample: R080075
Ideal chemistry: Fe^2+^_3_Al_4_(PO_4_)_4_(OH)_6_2H_2_O
Locality: Linopolis, Minas Gerais, Brazil
Source: Michael Scott
Description: Parallel aggregates of dark green acicular crystals associated with dark-brown prismatic childrenite (R140428), light-brown needle greifensteinite (R060588), and white fine-grained leucophosphite
Raman shift (cm-1)	intensity
133.333	0
136.708	3.40655
140.083	8.83264
143.458	4.48251
146.833	5.15821
150.208	3.3664
153.582	4.25288
156.957	3.70702
160.332	0.632294
163.707	2.32381
167.082	1.27051
170.456	2.01034
173.831	1.30396
177.206	0.007088
180.581	0.005493
183.956	0.479546
187.331	1.24071
190.705	0.935341
194.08	1.57222
197.455	1.38345
200.83	2.4955
204.205	1.98818
207.579	1.75669
210.954	2.66306
214.329	2.62381
217.704	1.6944
221.079	1.55899
224.453	1.63158
227.828	1.46337
231.203	1.4023
234.578	1.31415
237.953	0.04705
241.328	1.07256
244.702	0.267296
248.077	0.087639
251.452	0.783577
254.827	0.051247
258.202	0.167198
261.577	0.702118
264.951	0.6633
268.326	1.00614
271.701	1.85287
275.076	3.30932
278.451	5.79968
281.825	7.21935
285.2	8.19569
288.575	9.72122
291.95	9.47922
295.325	9.20298
298.7	8.32461
302.074	6.39465
305.449	5.15781
308.824	3.4975
312.199	4.00449
315.574	3.48188
318.948	2.36242
322.323	2.70519
325.698	2.33875
329.073	2.15964
332.448	2.94235
335.822	1.64018
339.197	2.27717
342.572	4.56679
345.947	3.45853
349.322	4.58762
352.697	5.42466
356.071	6.87949
359.446	7.93614
362.821	10.0772
366.196	9.51377
369.571	7.72652
372.945	6.33379
376.32	5.35429
379.695	5.76337
383.07	5.686
386.445	7.38509
389.82	7.89559
393.194	8.01175
396.569	7.92125
399.944	6.92827
403.319	6.00166
406.694	5.8828
410.068	5.28248
413.443	4.40595
416.818	3.4436
420.193	3.16431
423.568	0.784866
426.942	0.401611
430.317	0.553852
433.692	0.32991
437.067	0.942806
440.442	0.223595
443.817	0.869785
447.191	1.8604
450.566	3.77127
453.941	5.13953
457.316	7.59407
460.691	8.68876
464.065	11.3907
467.44	14.0036
470.815	15.0768
474.19	16.0713
477.565	15.3179
480.94	13.2751
484.314	12.1604
487.689	10.1564
491.064	8.54571
494.439	8.16721
497.814	6.87733
501.188	5.87681
504.563	4.98175
507.938	5.04976
511.313	3.71714
514.688	2.96095
518.063	2.43158
521.437	1.78192
524.812	0.554882
528.187	0.1068
531.562	0.01535
534.937	0.55418
538.312	0.254776
541.686	0.282242
545.061	0.566605
548.436	1.18022
551.811	1.32463
555.186	2.00723
558.56	1.1354
561.935	1.15881
565.31	1.07304
568.685	0.944401
572.06	1.83198
575.434	2.09505
578.809	1.80553
582.184	2.06651
585.559	1.81986
588.934	2.93229
592.308	3.92654
595.683	6.12251
599.058	7.24463
602.433	9.0777
605.808	10.7672
609.183	10.7898
612.557	7.84622
615.932	4.64266
619.307	2.28282
622.682	1.12659
626.057	0.496037
629.432	0.970894
632.806	1.6302
636.181	1.46326
639.556	2.62188
642.931	1.77619
646.306	2.66209
649.68	1.93707
653.055	2.78482
656.43	2.17707
659.805	1.9969
663.18	2.88415
666.554	2.2636
669.929	2.09169
673.304	2.59866
676.679	1.53455
680.054	1.8633
683.428	1.48003
686.803	1.04188
690.178	0.897133
693.553	0.272041
696.928	0.775352
700.303	0.927116
703.677	0.089691
707.052	0.669933
710.427	0.476566
713.802	0.754818
717.177	0.048843
720.552	0.181904
723.926	0.041916
727.301	0.859371
730.676	0.616219
734.051	0.224445
737.426	0.393772
740.8	0.85099
744.175	0.954876
747.55	1.14008
750.925	0.528431
754.3	0.534805
757.674	1.39546
761.049	1.39646
764.424	0.318287
767.799	1.04007
771.174	0.129276
774.549	0.229664
777.923	0.688335
781.298	1.14998
784.673	0.884319
788.048	0.667805
791.423	1.76371
794.798	0.880035
798.172	1.07004
801.547	1.13943
804.922	1.17125
808.297	1.48743
811.672	1.72582
815.046	1.65502
818.421	2.19278
821.796	1.74322
825.171	1.66209
828.546	1.31459
831.92	1.59188
835.295	1.72316
838.67	1.52025
842.045	1.79456
845.42	1.45618
848.795	1.30429
852.169	1.50901
855.544	0.674671
858.919	1.12178
862.294	1.19089
865.669	1.41712
869.043	1.09033
872.418	1.80368
875.793	1.06297
879.168	0.834652
882.543	0.894691
885.918	0.697205
889.292	0.094131
892.667	0.500145
896.042	0.648716
899.417	0.136486
902.792	0.1628
906.166	0.439102
909.541	0.248775
912.916	0.119362
916.291	0.668858
919.666	0.36903
923.04	0.667744
926.415	0.169369
929.79	0.877773
933.165	0.294201
936.54	0.219624
939.915	0.464008
943.289	0.428322
946.664	1.26266
950.039	1.56182
953.414	1.53954
956.789	2.11344
960.163	3.31781
963.538	3.64135
966.913	4.15806
970.288	4.84759
973.663	4.31984
977.038	4.35889
980.412	4.97019
983.787	5.44571
987.162	5.12355
990.537	5.73762
993.912	6.80933
997.287	9.38583
1000.66	13.2384
1004.04	16.1663
1007.41	20.836
1010.79	22.9781
1014.16	23.25
1017.53	22.1613
1020.91	19.6759
1024.29	18.7023
1027.66	19.3682
1031.04	20.325
1034.41	19.9777
1037.78	20.5799
1041.16	18.8119
1044.53	15.8449
1047.91	13.7236
1051.28	10.5928
1054.66	8.97372
1058.03	7.22708
1061.41	6.20108
1064.78	6.06795
1068.16	4.9912
1071.53	3.80385
1074.91	2.4038
1078.28	2.29608
1081.66	1.10675
1085.03	1.11963
1088.41	1.02675
1091.78	0.697353
1095.16	0.020294
1098.53	0.250202
1101.91	0.203312
1105.28	0.170387
1108.65	0.058029
1112.03	0.247372
1115.4	0.12896
1118.78	0.231731
1122.15	0.685223
1125.53	0.505405
1128.9	0.743526
1132.28	1.44945
1135.65	1.51648
1139.03	2.25624
1142.4	1.77413
1145.78	1.47773
1149.15	1.9181
1152.53	1.99216
1155.9	2.00917
1159.28	2.11898
1162.65	2.7299
1166.03	2.56413
1169.4	2.37402
1172.78	2.28602
1176.15	1.07116
1179.53	0.350014
1182.9	0.925808
1186.28	0.511223
1189.65	0.51516
1193.03	0.197826
1196.4	0.367153
1199.78	0.258335
1203.15	0.449036
1206.53	0.218853
1209.9	0.337807
1213.28	0.654533
1216.65	0.345364
1220.02	0.41663
1223.4	0.299679
1226.77	0.51099
1230.15	0.480583
1233.52	1.06882
1236.9	0.178162
1240.27	0.311089
1243.65	0.933212
1247.02	0.939537
1250.4	0.663486
1253.77	0.894012
1257.15	0.365864
1260.52	0.736782
1263.9	0.308208
1267.27	0.740093
1270.65	0.804287
1274.02	1.93863
1277.4	0.697655
1280.77	0.436802
1284.15	0.606281
1287.52	0.296093
1290.9	1.21914
1294.27	0.855911
1297.64	0.693802
1301.02	0.968128
1304.39	0.229446
