Measurement: Raman, 532 nm, unoriented, Raman Data Processed
Mineral: Gormanite
Rruff sample: R050093
Ideal chemistry: Fe^2+^_3_Al_4_(PO_4_)_4_(OH)_6_2H_2_O
Locality: Rapid Creek, Yukon Territory, Canada
Source: Rock Currier
Description: Radial aggregates of blue bladed crystals
Measured chemistry: (Fe^2+^_1.85_Mg_1.09_Mn_0.06_)_Σ=3_(Al_3.76_Fe^3+^_0.24_)_Σ=4_(P_1.00_O_4_)_4_((OH_5.65_F_0.35_)_Σ=6_·2H_2_O ; (light phase) : (Fe^2+^_1.53_Mg_1.42_Mn_0.05_)_Σ=3_(Al_3.89_Fe^3+^_0.11_)_Σ=4_(P_1.00_O_4_)_4_((OH_5.60_F_0.40_)_Σ=6_·2H_2_O (dark phase
Raman shift (cm-1)	intensity
154.262	0
157.637	16.842
161.012	64.9227
164.386	96.5404
167.761	95.6034
171.136	153.934
174.511	109.247
177.886	89.9335
181.26	45.3217
184.635	17.3616
188.01	29.0812
191.385	15.3619
194.76	26.9224
198.135	40.3441
201.509	19.4727
204.884	24.6996
208.259	29.605
211.634	55.0376
215.009	16.3875
218.383	10.3143
221.758	17.489
225.133	34.3335
228.508	29.5698
231.883	49.8727
235.257	2.40295
238.632	38.0088
242.007	14.2284
245.382	16.5621
248.757	18.3258
252.132	19.2789
255.506	10.9077
258.881	31.5418
262.256	4.68823
265.631	12.0812
269.006	7.11328
272.38	54.2315
275.755	121.98
279.13	203.933
282.505	264.54
285.88	305.861
289.255	326.779
292.629	288.722
296.004	263.596
299.379	278.551
302.754	270.3
306.129	233.388
309.503	224.453
312.878	227.283
316.253	227.127
319.628	222.641
323.003	207.887
326.378	200.124
329.752	182.033
333.127	218.817
336.502	232.17
339.877	306.139
343.252	301.04
346.627	308.67
350.001	303.796
353.376	336.147
356.751	374.808
360.126	437.815
363.501	397.137
366.875	335.456
370.25	244.255
373.625	149.911
377	123.648
380.375	64.7835
383.75	70.2375
387.124	44.389
390.499	24.1749
393.874	73.1909
397.249	35.7082
400.624	48.8373
403.998	52.9565
407.373	46.7597
410.748	84.8948
414.123	62.1546
417.498	47.0969
420.873	37.598
424.247	8.92798
427.622	39.9334
430.997	9.64307
434.372	13.3498
437.747	19.7646
441.121	25.8591
444.496	67.9018
447.871	123.645
451.246	188.309
454.621	311.779
457.995	489.123
461.37	583.797
464.745	749.059
468.12	896.154
471.495	1003.57
474.87	957.162
478.244	838.824
481.619	690.061
484.994	549.783
488.369	503.549
491.744	410.847
495.118	355.755
498.493	343.439
501.868	314.128
505.243	302.752
508.618	267.661
511.993	243.818
515.367	201.663
518.742	160.782
522.117	133.876
525.492	107.614
528.867	59.0045
532.241	27.0165
535.616	5.83362
538.991	5.72241
542.366	3.93042
545.741	24.4433
549.116	19.7796
552.49	24.0142
555.865	6.66736
559.24	9.48132
562.615	39.8826
565.99	20.501
569.365	9.12195
572.739	14.1248
576.114	31.1306
579.489	16.7824
582.864	10.46
586.239	119.391
589.613	134.271
592.988	244.988
596.363	277.422
599.738	405.991
603.113	459.661
606.487	548.011
609.862	498.579
613.237	361.795
616.612	235.951
619.987	143.579
623.362	97.5786
626.736	83.1462
630.111	137.643
633.486	157.553
636.861	168.025
640.236	244.987
643.611	211.028
646.985	170.104
650.36	129.584
653.735	88.4695
657.11	75.2982
660.485	74.0909
663.859	65.6839
667.234	50.5741
670.609	29.2506
673.984	26.0517
677.359	12.5522
680.734	1.74384
684.108	3.12647
687.483	15.5572
690.858	8.97333
694.233	26.6071
697.608	4.14587
700.982	9.64148
704.357	17.3685
707.732	42.3182
711.107	41.7983
714.482	33.0125
717.856	77.2057
721.231	49.7708
724.606	88.5335
727.981	120.146
731.356	103.888
734.731	119.291
738.105	115.27
741.48	144.992
744.855	155.704
748.23	111.977
751.605	97.6287
754.98	95.7355
758.354	91.8564
761.729	58.2957
765.104	64.1292
768.479	69.7689
771.854	54.5182
775.228	28.5317
778.603	49.7654
781.978	37.2073
785.353	75.3934
788.728	77.1879
792.102	45.2317
795.477	29.6803
798.852	23.7705
802.227	34.7226
805.602	41.0124
808.977	41.6739
812.351	66.356
815.726	7.52417
819.101	17.6105
822.476	10.3336
825.851	19.2082
829.226	20.0254
832.6	16.0247
835.975	12.3873
839.35	50.1134
842.725	16.1844
846.1	21.1221
849.474	27.9203
852.849	23.0326
856.224	40.1146
859.599	45.2282
862.974	23.1867
866.348	51.3979
869.723	33.1739
873.098	55.1644
876.473	53.259
879.848	40.251
883.223	23.0067
886.597	30.5692
889.972	32.7921
893.347	16.8364
896.722	0.72821
900.097	15.5455
903.471	3.22189
906.846	2.10336
910.221	27.084
913.596	5.40344
916.971	9.34943
920.346	12.7054
923.72	0.529785
927.095	10.9315
930.47	19.9993
933.845	12.5175
937.22	18.665
940.595	12.9578
943.969	20.6979
947.344	36.15
950.719	87.7267
954.094	112.299
957.469	171.299
960.843	196.008
964.218	201.871
967.593	231.96
970.968	245.831
974.343	241.874
977.717	308.375
981.092	308.759
984.467	334.706
987.842	327.928
991.217	392.486
994.592	456.098
997.966	601.813
1001.34	843.963
1004.72	1091.53
1008.09	1284.8
1011.47	1395.53
1014.84	1238.65
1018.22	1139.37
1021.59	1029.04
1024.96	1027.72
1028.34	1038.23
1031.71	1119.3
1035.09	1156.75
1038.46	1083.21
1041.84	969.695
1045.21	812.413
1048.59	586.806
1051.96	484.367
1055.34	368.515
1058.71	338.143
1062.09	287.485
1065.46	263.421
1068.84	177.046
1072.21	97.7089
1075.59	88.1348
1078.96	53.7737
1082.34	47.3651
1085.71	10.305
1089.09	24.1633
1092.46	2.7995
1095.84	1.00952
1099.21	21.9647
1102.59	4.92621
1105.96	7.76172
1109.34	1.81372
1112.71	8.73456
1116.09	9.34009
1119.46	30.5343
1122.84	26.994
1126.21	20.085
1129.58	67.2861
1132.96	58.2733
1136.33	62.8821
1139.71	109.034
1143.08	94.4988
1146.46	75.4052
1149.83	56.9346
1153.21	75.2485
1156.58	53.2439
1159.96	109.361
1163.33	98.3692
1166.71	129.639
1170.08	107.946
1173.46	83.4843
1176.83	51.8586
1180.21	41.4243
1183.58	25.9272
1186.96	10.2574
1190.33	53.4632
1193.71	23.6458
1197.08	2.27521
1200.45	36.3626
1203.83	19.4601
1207.2	23.5559
1210.58	20.2082
1213.95	16.0087
1217.33	19.3802
1220.7	33.9813
1224.08	5.72205
1227.45	60.17
1230.83	8.80249
1234.2	30.9807
1237.58	12.3289
1240.95	41.0811
1244.33	38.2748
1247.7	38.8676
1251.08	36.1343
1254.45	0.434387
1257.83	43.3155
1261.2	11.2095
1264.58	25.7599
1267.95	4.09436
1271.33	53.0475
1274.7	27.336
1278.08	19.1387
1281.45	25.2865
1284.83	41.9236
1288.2	27.5006
1291.58	21.9711
1294.95	44.9315
1298.33	12.2456
1301.7	38.1531
1305.08	21.7774
1308.45	39.8433
1311.82	21.9533
1315.2	1.32837
