Measurement: Raman, 514 nm, unoriented, Raman Data Processed
Mineral: Gormanite
Rruff sample: R050093
Ideal chemistry: Fe^2+^_3_Al_4_(PO_4_)_4_(OH)_6_2H_2_O
Locality: Rapid Creek, Yukon Territory, Canada
Source: Rock Currier
Description: Radial aggregates of blue bladed crystals
Measured chemistry: (Fe^2+^_1.85_Mg_1.09_Mn_0.06_)_Σ=3_(Al_3.76_Fe^3+^_0.24_)_Σ=4_(P_1.00_O_4_)_4_((OH_5.65_F_0.35_)_Σ=6_·2H_2_O ; (light phase) : (Fe^2+^_1.53_Mg_1.42_Mn_0.05_)_Σ=3_(Al_3.89_Fe^3+^_0.11_)_Σ=4_(P_1.00_O_4_)_4_((OH_5.60_F_0.40_)_Σ=6_·2H_2_O (dark phase
Raman shift (cm-1)	intensity
91.981	0
96.161	286.731
100.34	275.648
104.516	1365.48
108.691	1907.91
112.864	2502.18
117.034	3017.19
121.203	2584.42
125.369	1537.86
129.534	2132.92
133.696	2353.7
137.857	3598.64
142.016	3549.73
146.172	3616.13
150.327	3218.33
154.48	2745.76
158.63	2257.97
162.779	2298.64
166.926	2027.52
171.07	1782.24
175.213	1449.56
179.354	1125.08
183.493	972.616
187.63	792.622
191.765	953.683
195.898	1172.43
200.029	1074.46
204.158	1155.44
208.285	1126.15
212.41	583.259
216.533	448.267
220.654	141.933
224.773	28.288
228.891	137.617
233.006	218.729
237.119	384.967
241.231	232.252
245.34	112.592
249.448	193.02
253.553	34.483
257.657	5.622
261.758	97.225
265.858	1150.27
269.956	1178.94
274.052	1812.5
278.146	2763.95
282.237	3517.06
286.327	3737.55
290.416	3593.34
294.502	3081.17
298.586	2880.51
302.668	2436.3
306.749	2180.81
310.827	2453.15
314.903	2319.78
318.978	2368.53
323.051	2499.33
327.121	2425.49
331.19	2916.57
335.257	3204.98
339.322	3354.33
343.385	3638.28
347.446	3902.36
351.505	4566.58
355.563	5458.9
359.618	5794.33
363.672	5244.93
367.723	4096.52
371.773	2902.41
375.821	2199.44
379.866	1818.79
383.91	1569.01
387.952	1390.49
391.992	1340.77
396.031	1328.58
400.067	1190.5
404.101	1052.28
408.134	1032.65
412.165	998.767
416.193	783.045
420.22	412.188
424.245	111.782
428.268	78.872
432.289	132.211
436.309	105.029
440.326	350.612
444.342	828.972
448.355	1115.11
452.367	1930.03
456.377	2714.74
460.385	4077.25
464.391	6076.57
468.395	8215.73
472.398	6462.72
476.398	6299.56
480.397	4873.26
484.394	4072.81
488.389	3566.25
492.382	3258.61
496.373	3104.96
500.362	2716.38
504.349	2579.96
508.335	2323.29
512.319	1995.12
516.3	1833.46
520.28	1542.18
524.259	1318.84
528.235	1180.12
532.209	986.676
536.182	1157.74
540.152	1029.45
544.121	1107.99
548.088	1076.68
552.053	1145.45
556.017	1068.46
559.978	1031.98
563.938	1159.54
567.895	1247.39
571.851	1410.12
575.805	1411.33
579.758	1425.68
583.708	1522.89
587.657	2165.88
591.603	2914.99
595.548	3847.97
599.491	5020.95
603.432	6308.6
607.372	6044.92
611.309	4395.91
615.245	2797.56
619.179	1776.86
623.111	1216.8
627.041	1158.39
630.97	1141.61
634.896	1100.47
638.821	1152.94
642.744	1087.04
646.665	887.192
650.584	685.738
654.502	491
658.418	453.098
662.331	264.511
666.244	264.894
670.154	161.445
674.062	87.66
677.969	16.184
681.874	80.686
685.777	125.66
689.678	122.569
693.577	98.254
697.475	70.419
701.371	45.735
705.265	44.505
709.157	295.151
713.047	152.785
716.936	245.028
720.823	347.467
724.708	419.775
728.591	574.702
732.472	601.026
736.352	637.509
740.23	672.579
744.106	778.042
747.98	748.929
751.853	692.229
755.723	705.918
759.592	758.997
763.459	706.469
767.325	674.336
771.188	623.602
775.05	712.269
778.91	602.341
782.768	586.822
786.625	579.716
790.479	491.134
794.332	505.646
798.183	431.916
802.033	375.497
805.88	418.499
809.726	275.924
813.57	319.694
817.413	294.942
821.253	170.67
825.092	175.881
828.929	206.744
832.764	165.504
836.598	164.44
840.429	96.451
844.259	74.484
848.088	58.312
851.914	35.647
855.739	35.153
859.562	11.222
863.383	94.629
867.203	86.408
871.02	64.72
874.836	68.166
878.65	59.143
882.463	28.993
886.274	3.869
890.083	26.758
893.89	21.908
897.695	121.142
901.499	207.206
905.301	204.112
909.102	206.872
912.9	319.498
916.697	426.001
920.492	551.393
924.285	744.686
928.077	767.891
931.867	961.02
935.655	1197.09
939.442	1433.1
943.226	1720.07
947.009	2129.02
950.791	2521.88
954.57	2972.17
958.348	3443.57
962.124	4104.21
965.899	4655.93
969.671	5278.81
973.442	5685.99
977.211	5931.23
980.979	6121.74
984.745	6311.45
988.509	6581.85
992.271	7326.78
996.032	8911.55
999.791	11160.6
1003.55	13885.8
1007.3	16280.5
1011.06	17440.8
1014.81	17116.7
1018.56	16447
1022.31	16057
1026.06	16013
1029.8	15997.6
1033.55	15927.9
1037.29	14881
1041.03	13284.6
1044.77	11080.1
1048.5	9113.06
1052.24	7583.16
1055.97	6905.52
1059.7	5655.12
1063.43	4929.97
1067.16	4244.07
1070.89	3606.42
1074.61	3187.03
1078.34	2792.89
1082.06	2383
1085.78	2154.37
1089.5	1987.12
1093.21	1748
1096.93	1694.21
1100.64	1549.54
1104.35	1436.64
1108.06	1341.97
1111.77	1356.51
1115.48	1329.12
1119.18	1318.48
1122.89	1221.71
1126.59	1258.79
1130.29	1251.2
1133.99	1207.48
1137.68	1228.37
1141.38	1061.27
1145.07	990.879
1148.76	941.843
1152.45	1018.72
1156.14	978.701
1159.83	1185.63
1163.51	1143.1
1167.19	1002.32
1170.88	735.478
1174.56	718.838
1178.23	541.646
1181.91	463.407
1185.59	391.153
1189.26	291.666
1192.93	288.091
1196.6	188.372
1200.27	171.529
1203.94	164.425
1207.6	156.182
1211.27	129.841
1214.93	132.479
1218.59	82.367
1222.25	5.092
1225.9	9.679
1229.56	75.317
1233.21	35.026
1236.86	5.56
1240.51	85.127
1244.16	30.306
1247.81	6.799
1251.45	45.569
1255.1	34.513
1258.74	32.792
1262.38	25.413
1266.02	46.576
1269.66	61.819
1273.29	13.628
1276.93	25.334
1280.56	24.296
1284.19	3.917
1287.82	52.132
1291.45	18.523
1295.07	48.443
1298.7	10.749
1302.32	39.774
1305.94	29.707
1309.56	8.623
1313.18	2.563
1316.8	40.189
1320.41	48.512
1324.02	113.694
1327.63	29.541
1331.24	60.971
1334.85	64.478
1338.46	62.645
1342.06	95.669
1345.67	92.384
1349.27	100.856
1352.87	140.973
1356.47	172.062
1360.07	108.078
1363.66	164.627
1367.25	171.865
1370.85	132.871
1374.44	140.929
1378.03	171.824
1381.61	182.049
1385.2	226.665
1388.78	160.994
1392.37	184.355
1395.95	127.153
1399.53	120.426
1403.1	107.965
1406.68	135.3
1410.26	108.617
1413.83	75.018
1417.4	70.643
1420.97	30.79
1424.54	58.096
1428.1	79.106
1431.67	109.382
1435.23	78.474
1438.8	79.877
1442.36	48.933
1445.91	102.531
1449.47	80.305
1453.03	159.043
1456.58	78.775
1460.13	71.662
1463.68	64.595
1467.23	64.855
1470.78	52.862
1474.33	35.628
1477.87	37.935
1481.42	2.245
1484.96	41.287
1488.5	81.704
1492.04	87.108
1495.57	100.365
1499.11	3.907
1502.64	36.067
1506.17	81.467
1509.71	71.794
1513.23	11.225
1516.76	18.086
