Measurement: Raman, 532 nm, unoriented, Raman Data Processed
Mineral: Gotzenite
Rruff sample: R070449
Ideal chemistry: Ca_4_NaCa_2_Ti^4+^(Si_2_O_7_)_2_(OF)F_2_
Locality: Mont Saint-Hilaire, Rouville County, Quebec, Canada
Source: Michael Scott
Description: Sprays of yellowish bladed crystals with green or colorless vesuvianite, white thick prismatic pectolite and brown phlogopite mica.
Raman shift (cm-1)	intensity
98.4613	0
101.836	1.20712
105.211	0.128723
108.586	13.3473
111.961	23.2445
115.335	40.7863
118.71	42.7173
122.085	43.2405
125.46	42.329
128.835	40.3096
132.209	38.4296
135.584	31.9882
138.959	28.9418
142.334	27.2362
145.709	24.3711
149.084	21.2914
152.458	19.3731
155.833	17.836
159.208	13.7139
162.583	13.0061
165.958	11.227
169.333	7.15808
172.707	3.56488
176.082	3.85284
179.457	0.285156
182.832	0.185242
186.207	0.290771
189.581	1.10126
192.956	0.108337
196.331	1.16144
199.706	3.34167
203.081	6.11603
206.455	4.71857
209.83	10.0339
213.205	12.6254
216.58	16.3928
219.955	15.1854
223.329	10.5366
226.704	9.81342
230.079	6.68793
233.454	4.91571
236.829	2.29968
240.204	4.98254
243.578	2.59924
246.953	3.44543
250.328	2.65179
253.703	1.19366
257.078	2.54211
260.452	1.20721
263.827	2.74847
267.202	2.86713
270.577	1.6673
273.952	6.42395
277.327	4.48041
280.701	4.82129
284.076	1.60474
287.451	3.69086
290.826	0.728088
294.201	0.077271
297.575	0.268372
300.95	1.18726
304.325	1.3269
307.7	0.816833
311.075	6.06531
314.45	6.2077
317.824	6.32922
321.199	8.34863
324.574	9.58014
327.949	10.9005
331.324	10.6542
334.699	14.7549
338.073	18.2274
341.448	17.2866
344.823	20.7054
348.198	21.3756
351.573	23.6203
354.947	26.5803
358.322	30.585
361.697	35.6922
365.072	40.8614
368.447	45.8636
371.822	50.5483
375.196	51.5978
378.571	51.8401
381.946	47.1606
385.321	38.9471
388.696	32.2438
392.07	24.3917
395.445	16.0743
398.82	14.3239
402.195	14.4231
405.57	10.2963
408.945	7.65796
412.319	8.47876
415.694	9.88324
419.069	15.157
422.444	11.3159
425.818	3.57104
429.193	1.94861
432.568	0.406433
435.943	0.653992
439.318	0.452698
442.693	0.858276
446.067	1.09442
449.442	3.18549
452.817	0.955261
456.192	2.73291
459.567	6.73016
462.942	4.50128
466.316	5.73175
469.691	6.39465
473.066	2.78388
476.441	1.4209
479.816	0.521362
483.19	2.79327
486.565	5.271
489.94	6.19916
493.315	5.62262
496.69	3.40015
500.065	6.21143
503.439	3.56958
506.814	3.24487
510.189	4.0744
513.564	5.09003
516.939	6.41321
520.313	6.87024
523.688	7.57782
527.063	9.97064
530.438	10.7584
533.813	13.6075
537.188	13.5547
540.562	15.0838
543.937	16.4591
547.312	17.91
550.687	18.3667
554.062	14.558
557.436	8.69684
560.811	6.34509
564.186	7.33704
567.561	2.92041
570.936	6.50897
574.311	7.12927
577.685	13.5592
581.06	21.6857
584.435	24.0348
587.81	29.483
591.185	34.7851
594.559	32.0656
597.934	22.9645
601.309	19.594
604.684	10.0501
608.059	8.39783
611.433	4.67859
614.808	3.75067
618.183	1.68274
621.558	0.317139
624.933	1.50958
628.308	0.389343
631.682	2.99615
635.057	3.64819
638.432	10.1847
641.807	15.4207
645.182	18.204
648.557	26.222
651.931	35.3439
655.306	45.9384
658.681	54.4054
662.056	60.0446
665.431	60.52
668.805	54.8242
672.18	36.8743
675.555	22.4562
678.93	15.5314
682.305	8.90143
685.679	5.6261
689.054	2.39136
692.429	0.918335
695.804	1.27545
699.179	1.26849
702.553	1.40607
705.928	0.802063
709.303	0.645813
712.678	2.15906
716.053	1.98663
719.428	0.243652
722.802	1.27197
726.177	1.04596
729.552	1.30969
732.927	1.23865
736.302	2.02643
739.677	7.70068
743.051	6.20526
746.426	9.60211
749.801	13.0475
753.176	14.2204
756.551	17.1479
759.925	22.1923
763.3	25.73
766.675	25.6371
770.05	29.1415
773.425	30.7163
776.799	30.3395
780.174	33.397
783.549	31.5017
786.924	32.1105
790.299	31.0825
793.674	31.0016
797.048	32.9844
800.423	38.6693
803.798	43.8403
807.173	59.0522
810.548	71.2929
813.923	87.5539
817.297	106.768
820.672	128.561
824.047	141.084
827.422	149.827
830.797	152.507
834.171	142.966
837.546	126.886
840.921	108.725
844.296	86.0897
847.671	63.015
851.045	39.686
854.42	26.5803
857.795	16.8318
861.17	12.3735
864.545	4.25952
867.92	2.56616
871.294	0.664063
874.669	0.977539
878.044	1.61047
881.419	1.78772
884.794	2.14832
888.168	6.53479
891.543	14.9331
894.918	23.0762
898.293	30.3369
901.668	41.9507
905.043	51.9645
908.417	58.5319
911.792	62.86
915.167	54.5753
918.542	51.7242
921.917	40.691
925.291	30.8881
928.666	28.2976
932.041	17.1529
935.416	16.2799
938.791	13.1548
942.165	13.1593
945.54	16.56
948.915	14.9016
952.29	15.1387
955.665	7.81433
959.04	3.24622
962.414	1.26715
965.789	1.15894
969.164	2.57159
972.539	2.40491
975.914	0.375061
979.288	0.634949
982.663	2.10315
986.038	6.00726
989.413	6.44043
992.788	2.82397
996.163	7.64325
999.537	7.57922
1002.91	8.67413
1006.29	11.7717
1009.66	13.0813
1013.04	15.8489
1016.41	16.531
1019.79	17.1744
1023.16	17.7035
1026.54	17.9549
1029.91	16.9421
1033.29	20.5202
1036.66	24.796
1040.04	25.3605
1043.41	23.3929
1046.79	22.2391
1050.16	23.9103
1053.53	22.0286
1056.91	23.9432
1060.28	20.8254
1063.66	25.9486
1067.03	23.4535
1070.41	25.4836
1073.78	24.7769
1077.16	25.1493
1080.53	22.9635
1083.91	22.9641
1087.28	20.0062
1090.66	19.8963
1094.03	18.6755
1097.41	15.8193
1100.78	14.3002
1104.16	10.462
1107.53	12.1204
1110.91	12.5193
1114.28	9.07159
1117.66	8.55951
1121.03	6.89154
1124.41	4.83081
1127.78	1.82465
1131.15	1.67847
1134.53	2.32574
1137.9	1.75269
1141.28	5.3529
1144.65	4.30493
1148.03	0.854309
1151.4	0.052856
1154.78	2.05518
1158.15	2.45196
1161.53	0.477234
1164.9	0.501221
1168.28	3.88477
1171.65	4.48096
1175.03	1.3009
1178.4	3.67511
1181.78	2.98731
1185.15	5.87653
1188.53	7.60394
1191.9	7.6225
1195.28	5.79981
1198.65	4.1792
1202.03	1.91577
1205.4	4.95154
1208.78	3.59277
1212.15	3.45667
1215.53	2.57519
1218.9	1.69141
1222.28	5.30029
1225.65	2.26416
1229.03	0.546143
1232.4	2.23621
1235.78	0.619751
1239.15	2.4126
1242.52	2.29907
1245.9	6.39062
1249.27	3.98926
1252.65	6.34094
1256.02	3.04822
1259.4	7.172
1262.77	1.67163
1266.15	4.50647
1269.52	4.3606
1272.9	3.78186
1276.27	5.14233
1279.65	0.009888
1283.02	2.02966
1286.4	2.84167
1289.77	3.34058
1293.15	5.87891
1296.52	2.14258
1299.9	0.822632
