Measurement: Raman, 780 nm, unoriented, Raman Data Processed
Mineral: Graeserite
Rruff sample: R110054
Ideal chemistry: Fe^3+^_4_Ti^4+^_3_As^3+^O_13_(OH)
Locality: Binntal, Wallis, Switzerland
Source: Bob Jenkins
Description: Black prismatic crystals, associated with brown rutile, yellow muscovite, green clinochlore and colorless orthoclase
Raman shift (cm-1)	intensity
197.669	0
200.562	1.74866
203.455	2.40427
206.347	3.36237
209.24	3.47433
212.133	3.04926
215.025	3.56567
217.918	2.57578
220.811	2.05731
223.703	0.988281
226.596	0.80069
229.489	1.15679
232.382	0.780083
235.274	2.02509
238.167	1.47154
241.06	1.33233
243.952	0.646469
246.845	2.52936
249.738	1.79352
252.631	2.22242
255.523	4.41846
258.416	3.99749
261.309	4.98214
264.201	5.39928
267.094	6.20676
269.987	8.09465
272.879	9.47254
275.772	9.26209
278.665	8.76913
281.558	9.15515
284.45	8.34691
287.343	7.37866
290.236	7.03417
293.128	6.0682
296.021	5.73093
298.914	5.44758
301.806	4.94046
304.699	3.89625
307.592	2.48649
310.485	2.40326
313.377	1.51672
316.27	2.0068
319.163	1.68919
322.055	1.18426
324.948	1.7299
327.841	0.735504
330.733	0.757195
333.626	1.26865
336.519	0.735092
339.411	0.338013
342.304	1.40343
345.197	1.15745
348.09	0.172791
350.982	0.748489
353.875	0.953438
356.768	1.4409
359.66	1.00137
362.553	0.733772
365.446	1.47396
368.339	1.51756
371.231	1.16556
374.124	0.660622
377.017	0.645889
379.909	0.321571
382.802	1.32669
385.695	1.12997
388.587	1.79362
391.48	1.44397
394.373	1.31587
397.265	1.61764
400.158	2.01392
403.051	2.13451
405.944	2.25796
408.836	2.96992
411.729	2.26675
414.622	3.1935
417.514	3.12589
420.407	3.45519
423.3	3.37904
426.192	4.01934
429.085	3.37717
431.978	2.77452
434.871	4.42489
437.763	3.35968
440.656	2.47913
443.549	3.26866
446.441	2.91526
449.334	2.85878
452.227	2.51329
455.12	2.47124
458.012	1.65494
460.905	1.21299
463.798	0.925262
466.69	1.08099
469.583	0.532211
472.476	1.11807
475.368	0.087082
478.261	1.33676
481.154	1.11733
484.046	1.52911
486.939	1.22691
489.832	0.480286
492.725	0.977161
495.617	0.354637
498.51	0.340275
501.403	0.572201
504.295	1.37384
507.188	1.70548
510.081	0.520447
512.973	0.989479
515.866	0.850536
518.759	0.415607
521.652	0.495296
524.544	0.028992
527.437	1.13799
530.33	0.968002
533.222	0.162033
536.115	0.991394
539.008	0.690201
541.9	0.370735
544.793	0.618675
547.686	0.986092
550.579	0.270233
553.471	0.894314
556.364	1.18014
559.257	1.52469
562.149	1.80384
565.042	1.48712
567.935	0.728077
570.827	1.74499
573.72	3.14712
576.613	2.24908
579.506	3.31476
582.398	3.59405
585.291	2.30635
588.184	1.75018
591.076	3.93848
593.969	3.93718
596.862	3.26078
599.755	2.76986
602.647	3.71688
605.54	2.92636
608.433	3.16944
611.325	3.51221
614.218	1.88433
617.111	0.425072
620.003	2.47704
622.896	2.81016
625.789	1.54339
628.682	2.00787
631.574	2.09473
634.467	0.715275
637.36	1.78025
640.252	0.604229
643.145	1.20501
646.038	2.02106
648.93	1.13196
651.823	0.69775
654.716	1.47064
657.609	0.786957
660.501	1.53052
663.394	0.172474
666.287	0.839363
669.179	0.500851
672.072	1.05273
674.965	0.498096
677.857	1.34211
680.75	1.26748
683.643	0.569065
686.535	0.258221
689.428	0.394958
692.321	0.397415
695.214	0.938168
698.106	0.191849
700.999	0.295456
703.892	0.034889
706.784	0.27232
709.677	0.737125
712.57	0.003216
715.462	0.608837
718.355	0.756413
721.248	0.516708
724.141	0.710598
727.033	0.528168
729.926	1.79929
732.819	0.406578
735.711	0.566303
738.604	0.21236
741.497	0.734577
744.389	0.59782
747.282	0.705425
750.175	1.22013
753.068	0.431572
755.96	0.295952
758.853	1.8157
761.746	1.1314
764.638	0.889462
767.531	0.06715
770.424	0.785103
773.317	2.0753
776.209	1.28988
779.102	1.80105
781.995	2.28342
784.887	2.77862
787.78	1.78659
790.673	4.15556
793.565	2.18574
796.458	4.4753
799.351	4.17381
802.244	4.48922
805.136	4.74955
808.029	5.33447
810.922	4.52102
813.814	5.32096
816.707	5.45724
819.6	5.91931
822.492	4.93957
825.385	4.61308
828.278	5.36559
831.17	5.10234
834.063	5.15627
836.956	4.27304
839.849	4.37704
842.741	2.8127
845.634	2.90126
848.527	3.36273
851.419	2.1524
854.312	2.59996
857.205	3.3559
860.097	0.897854
862.99	0.286396
865.883	1.09103
868.776	1.06679
871.668	1.80519
874.561	1.11405
877.454	1.09525
880.346	1.19289
883.239	0.729237
886.132	0.663479
889.024	0.145576
891.917	0.022507
894.81	0.178879
897.703	0.373936
900.595	0.027752
903.488	0.130451
906.381	0.444241
909.273	0.20126
912.166	1.2916
915.059	0.007862
917.952	0.770111
920.844	0.994862
923.737	0.290596
926.63	1.15049
929.522	1.58403
932.415	1.07709
935.308	0.868149
938.2	0.806862
941.093	0.895782
943.986	0.719994
946.879	1.60928
949.771	1.19688
952.664	1.11435
955.557	1.73629
958.449	0.692657
961.342	1.65192
964.235	1.87004
967.127	1.99438
970.02	0.335346
972.913	0.959064
975.806	0.535137
978.698	0.846653
981.591	0.236034
984.484	0.205345
987.376	0.93177
990.269	0.857597
993.162	0.427116
996.054	0.735054
998.947	1.20452
1001.84	0.905712
1004.73	0.984016
1007.62	0.896755
1010.52	0.316456
1013.41	0.405445
1016.3	0.497509
1019.2	1.87545
1022.09	1.06446
1024.98	1.66743
1027.87	0.64887
1030.77	0.803057
1033.66	0.130384
1036.55	0.015024
1039.44	1.3956
1042.34	1.5208
1045.23	0.041779
1048.12	0.063269
1051.02	1.47751
1053.91	1.77433
1056.8	0.180056
1059.69	0.144897
1062.59	1.38742
1065.48	1.10455
1068.37	1.64996
1071.27	0.629478
1074.16	1.33541
1077.05	1.13508
1079.94	1.32181
1082.84	2.12801
1085.73	0.917679
1088.62	0.684376
1091.51	0.67774
1094.41	0.584536
1097.3	0.510078
1100.19	1.32463
1103.08	0.077297
1105.98	1.0671
1108.87	0.132545
1111.76	0.713428
1114.65	0.0056
1117.55	1.37908
1120.44	1.25513
1123.33	0.336651
1126.23	0.347778
1129.12	0.453962
1132.01	0.842222
1134.9	0.950947
1137.8	0.751768
1140.69	1.15453
1143.58	1.11806
1146.47	0.440184
1149.37	1.16943
1152.26	1.38529
1155.15	0.494566
1158.05	0.781452
1160.94	1.70939
1163.83	0.214052
1166.72	1.69369
1169.62	1.12796
1172.51	0.982708
1175.4	0.497
1178.3	1.40291
1181.19	1.47352
1184.08	1.14993
1186.97	1.77004
1189.87	0.550768
1192.76	1.01841
1195.65	1.12519
1198.54	1.10018
1201.44	2.40788
1204.33	2.04555
1207.22	0.218401
1210.11	1.31095
1213.01	0.25359
1215.9	0.472754
1218.79	1.82479
1221.68	0.372345
1224.58	0.558153
1227.47	0.998917
1230.36	1.85255
1233.26	0.165382
1236.15	1.4399
1239.04	1.91812
1241.93	1.74678
1244.83	1.27143
1247.72	1.36006
1250.61	1.29302
1253.51	0.793003
1256.4	0.731333
1259.29	0.309008
1262.18	2.31764
1265.08	1.02849
1267.97	0.240925
1270.86	1.6649
1273.75	1.69533
1276.65	1.28233
1279.54	0.53734
1282.43	1.53652
1285.32	0
