Measurement: Raman, 532 nm, unoriented, Raman Data Processed
Mineral: Graeserite
Rruff sample: R110054
Ideal chemistry: Fe^3+^_4_Ti^4+^_3_As^3+^O_13_(OH)
Locality: Binntal, Wallis, Switzerland
Source: Bob Jenkins
Description: Black prismatic crystals, associated with brown rutile, yellow muscovite, green clinochlore and colorless orthoclase
Raman shift (cm-1)	intensity
208.129	0
211.021	1.04879
213.914	1.25124
216.807	1.26778
219.699	4.45864
222.592	1.71802
225.485	0.652718
228.377	1.82458
231.27	2.52553
234.163	2.91726
237.056	2.33884
239.948	0.412628
242.841	0.353401
245.734	1.93223
248.626	1.85645
251.519	1.08288
254.412	3.25838
257.305	2.82624
260.197	1.61732
263.09	2.67882
265.983	2.63741
268.875	2.74338
271.768	4.20174
274.661	5.81201
277.553	5.12212
280.446	5.05222
283.339	5.48633
286.232	4.43977
289.124	3.48312
292.017	3.55941
294.91	4.04325
297.802	3.58565
300.695	4.92368
303.588	4.18736
306.481	2.43169
309.373	1.33256
312.266	1.27089
315.159	1.22617
318.051	2.90604
320.944	1.26274
323.837	3.71197
326.729	1.13461
329.622	0.697235
332.515	1.44569
335.408	0.250252
338.3	1.50719
341.193	1.39253
344.086	4.35578
346.978	0.661499
349.871	2.19561
352.764	2.85394
355.656	4.60322
358.549	2.72604
361.442	1.22708
364.334	1.74352
367.227	3.35831
370.12	0.046898
373.012	0.152828
375.905	0.647484
378.798	0.199223
381.691	1.12218
384.583	1.14637
387.476	2.45717
390.369	0.463959
393.261	0.302925
396.154	2.36097
399.047	1.65838
401.94	3.32089
404.832	2.46562
407.725	1.9686
410.618	3.21712
413.51	4.4844
416.403	2.8278
419.296	3.247
422.188	3.17582
425.081	4.59894
427.974	5.0605
430.866	4.5635
433.759	4.80154
436.652	5.61994
439.545	4.01045
442.437	5.09962
445.33	6.05341
448.223	5.95052
451.115	6.79303
454.008	2.96372
456.901	4.42139
459.793	5.49932
462.686	4.1012
465.579	2.34694
468.472	4.3536
471.364	2.88327
474.257	0.742096
477.15	1.46785
480.042	1.52099
482.935	2.71132
485.828	1.12513
488.721	1.22933
491.613	3.11997
494.506	0.584805
497.399	0.452312
500.291	1.45044
503.184	1.44411
506.077	1.47338
508.969	1.04032
511.862	0.422482
514.755	1.19663
517.648	1.30593
520.54	1.2588
523.433	1.30959
526.326	0.776688
529.218	0.770241
532.111	2.22753
535.004	2.49796
537.896	1.73771
540.789	3.09506
543.682	1.60469
546.575	4.18957
549.467	2.67162
552.36	2.714
555.253	5.47129
558.145	5.19561
561.038	4.69927
563.931	6.09701
566.823	4.10265
569.716	3.86559
572.609	4.62808
575.502	6.00929
578.394	5.39641
581.287	5.11053
584.18	8.72669
587.072	4.95848
589.965	3.15557
592.858	6.7752
595.75	6.92329
598.643	8.54542
601.536	5.40878
604.428	7.31897
607.321	5.31123
610.214	5.62828
613.107	4.4165
615.999	3.18567
618.892	1.77441
621.785	3.55117
624.677	3.03923
627.57	1.14888
630.463	1.65757
633.356	1.59506
636.248	0.353588
639.141	1.09252
642.034	0.316566
644.926	0.954823
647.819	1.67657
650.712	0.107075
653.604	0.067898
656.497	1.00969
659.39	0.962677
662.283	1.58376
665.175	0.564903
668.068	0.154629
670.961	1.21434
673.853	0.625839
676.746	1.26873
679.639	1.37094
682.531	0.733353
685.424	0.840538
688.317	1.13423
691.21	0.36116
694.102	0.392677
696.995	1.08237
699.888	0.477592
702.78	1.02675
705.673	1.1951
708.566	2.59367
711.458	1.91341
714.351	0.839844
717.244	3.32782
720.136	2.38703
723.029	3.08185
725.922	5.10168
728.815	3.95135
731.707	4.40049
734.6	5.9483
737.493	4.29686
740.385	5.35602
743.278	4.07004
746.171	3.75403
749.063	1.82956
751.956	1.79754
754.849	3.33477
757.742	2.52012
760.634	2.2433
763.527	1.49209
766.42	1.30878
769.312	0.49733
772.205	0.166965
775.098	0.374866
777.99	2.35552
780.883	1.63401
783.776	2.0143
786.669	3.67261
789.561	2.3028
792.454	3.71932
795.347	6.2327
798.239	2.74991
801.132	6.79265
804.025	7.31223
806.918	6.72267
809.81	7.9593
812.703	8.77127
815.596	8.04137
818.488	8.7405
821.381	9.44291
824.274	9.07035
827.166	7.59284
830.059	7.97912
832.952	7.92066
835.845	6.94596
838.737	6.61744
841.63	4.65431
844.523	4.99777
847.415	3.28719
850.308	4.01279
853.201	3.57675
856.093	2.0493
858.986	2.19563
861.879	2.58639
864.771	0.547523
867.664	2.7309
870.557	0.968246
873.45	1.03778
876.342	2.45647
879.235	0.579403
882.128	1.18157
885.02	0.458344
887.913	0.006203
890.806	1.02648
893.698	0.025925
896.591	0.36824
899.484	1.1238
902.377	0.850536
905.269	0.189945
908.162	1.21883
911.055	1.41083
913.947	0.114246
916.84	1.00248
919.733	1.21126
922.625	0.356983
925.518	1.1133
928.411	1.69719
931.304	0.925591
934.196	1.72015
937.089	2.31976
939.982	1.77309
942.875	2.6173
945.767	1.89208
948.66	2.07475
951.553	1.31091
954.445	2.37027
957.338	1.70596
960.231	2.10799
963.123	2.12403
966.016	2.75884
968.909	2.59068
971.802	3.08957
974.694	1.57051
977.587	1.11677
980.48	0.400036
983.372	2.14273
986.265	1.22292
989.158	0.563591
992.05	1.681
994.943	1.12169
997.836	0.391434
1000.73	1.16629
1003.62	1.9336
1006.51	1.38973
1009.41	0.253277
1012.3	0.489006
1015.19	1.16964
1018.09	0.882069
1020.98	0.361507
1023.87	3.09713
1026.76	1.19684
1029.66	2.80661
1032.55	2.0684
1035.44	4.00209
1038.33	1.82024
1041.23	1.03758
1044.12	0.929482
1047.01	0.994999
1049.9	1.68941
1052.8	2.39582
1055.69	1.59607
1058.58	1.42296
1061.47	2.49661
1064.37	2.80321
1067.26	0.592297
1070.15	0.712353
1073.05	1.76017
1075.94	1.54343
1078.83	2.29531
1081.72	0.713604
1084.62	1.61272
1087.51	1.72951
1090.4	1.60526
1093.3	0.365654
1096.19	2.07182
1099.08	0.882771
1101.97	1.72299
1104.87	0.544498
1107.76	1.8354
1110.65	1.48127
1113.54	1.02739
1116.44	0.711285
1119.33	1.3611
1122.22	0.251755
1125.12	1.65723
1128.01	0.246056
1130.9	0.719673
1133.79	1.18185
1136.68	1.6184
1139.58	0.42289
1142.47	0.059887
1145.36	2.00189
1148.26	0.826828
1151.15	0.726955
1154.04	2.39812
1156.93	2.10003
1159.83	1.06141
1162.72	1.25001
1165.61	1.73119
1168.51	0.374279
1171.4	0.050188
1174.29	2.41043
1177.18	0.546606
1180.08	1.67956
1182.97	2.90078
1185.86	1.7196
1188.75	1.45964
1191.65	1.2245
1194.54	1.76296
1197.43	1.40659
1200.33	2.24637
1203.22	2.34766
1206.11	3.18529
1209	2.19441
1211.9	2.43535
1214.79	1.94689
1217.68	3.04505
1220.57	3.65672
1223.47	2.86505
1226.36	3.80078
1229.25	1.12679
1232.14	1.48464
1235.04	3.87414
1237.93	1.98015
1240.82	2.23641
1243.71	2.98667
1246.61	2.9057
1249.5	0.475157
1252.39	2.14434
1255.29	3.45862
1258.18	3.07371
1261.07	2.13274
1263.96	3.69764
1266.86	3.14272
1269.75	2.14134
1272.64	1.94958
1275.54	1.6118
1278.43	1.37357
1281.32	1.84792
1284.21	0.827579
1287.11	2.35957
1290	2.85425
1292.89	3.70772
1295.78	0.021343
1298.68	1.72803
1301.57	0.009972
