Measurement: Raman, 780 nm, unoriented, Raman Data Processed
Mineral: Graemite
Rruff sample: R100207
Ideal chemistry: Cu^2+^Te^4+^O_3_H_2_O
Locality: Cole shaft, Bisbee, Cochise County, Arizona, USA
Source: Rob Lavinsky/Evan Jones
Description: Green platy, bladed crystals intimately associated with blue teineite, R100206, on cuprite
Raman shift (cm-1)	intensity
203.421	0
206.313	0.033096
209.206	0.136166
212.099	3.64607
214.992	1.13634
217.884	2.55771
220.777	3.55602
223.67	2.54348
226.562	2.54026
229.455	3.37842
232.348	4.27995
235.24	2.08953
238.133	3.69212
241.026	3.50677
243.918	3.26869
246.811	6.27204
249.704	2.21444
252.597	3.75809
255.489	2.75381
258.382	1.86614
261.275	1.01348
264.167	3.19474
267.06	3.02914
269.953	3.22354
272.846	1.37354
275.738	2.17073
278.631	1.95135
281.524	2.41096
284.416	2.44523
287.309	1.89734
290.202	3.48144
293.094	2.59278
295.987	3.70303
298.88	1.94648
301.772	7.18656
304.665	7.11647
307.558	8.53168
310.45	3.50711
313.343	7.26991
316.236	5.88717
319.129	7.16994
322.021	5.59753
324.914	9.65831
327.807	3.62861
330.699	3.59297
333.592	7.35181
336.485	5.28673
339.377	2.74462
342.27	1.93428
345.163	1.37014
348.056	3.68504
350.948	1.5034
353.841	1.63309
356.734	0.159809
359.626	0.568983
362.519	0.46496
365.412	1.22436
368.305	0.597582
371.197	0.575766
374.09	2.76711
376.983	0.181492
379.875	0.57707
382.768	1.81605
385.661	3.82444
388.553	1.35257
391.446	4.43201
394.339	4.76764
397.231	8.67918
400.124	7.60738
403.017	8.28772
405.909	9.80208
408.802	8.2226
411.695	8.96817
414.588	8.78131
417.48	6.18617
420.373	9.5981
423.266	8.85473
426.158	8.74997
429.051	10.7935
431.944	8.78889
434.837	7.66604
437.729	9.54144
440.622	6.04813
443.515	8.83788
446.407	9.54973
449.3	7.43721
452.193	3.83424
455.085	4.12291
457.978	2.61038
460.871	5.18986
463.764	3.65148
466.656	2.85833
469.549	0.444551
472.442	4.37656
475.334	1.56225
478.227	3.15236
481.12	3.96167
484.012	1.98104
486.905	3.18684
489.798	0.990726
492.69	0.765415
495.583	2.86362
498.476	3.30168
501.369	2.77263
504.261	2.52721
507.154	1.48
510.047	2.52155
512.939	4.38173
515.832	1.36575
518.725	2.46869
521.617	0.759369
524.51	0.958612
527.403	2.95335
530.296	0.484358
533.188	3.15031
536.081	0.484402
538.974	0.064627
541.866	1.91149
544.759	1.20643
547.652	3.21485
550.544	2.45871
553.437	0.645378
556.33	0.764631
559.222	1.34858
562.115	0.153795
565.008	0.077482
567.901	1.68604
570.793	1.50916
573.686	3.30403
576.579	1.43238
579.471	1.26126
582.364	4.01173
585.257	1.38929
588.149	0.657476
591.042	3.24516
593.935	1.15984
596.828	4.36237
599.72	0.425377
602.613	2.4406
605.506	6.76514
608.398	4.49704
611.291	3.05155
614.184	2.08535
617.077	4.93982
619.969	4.68131
622.862	9.05572
625.755	8.79229
628.647	7.60886
631.54	11.3737
634.433	11.4943
637.325	13.9671
640.218	12.6545
643.111	11.0662
646.004	10.4129
648.896	9.6774
651.789	7.67866
654.682	3.16874
657.574	1.91899
660.467	1.50288
663.36	1.57278
666.252	0.734913
669.145	0.381195
672.038	0.889608
674.931	2.75147
677.823	0.054201
680.716	3.33882
683.609	4.14062
686.501	5.71601
689.394	4.53687
692.287	4.35331
695.179	5.45293
698.072	9.28711
700.965	5.92192
703.857	10.6319
706.75	12.498
709.643	16.3865
712.535	20.609
715.428	28.7733
718.321	33.2991
721.214	39.4275
724.106	35.6552
726.999	34.5932
729.892	30.0964
732.784	25.3529
735.677	17.7934
738.57	15.4431
741.462	8.29015
744.355	5.28392
747.248	7.17745
750.141	5.41878
753.033	3.2589
755.926	3.76117
758.819	1.44697
761.711	0.097527
764.604	5.5666
767.497	8.54356
770.389	8.19988
773.282	13.3855
776.175	13.5746
779.068	11.4371
781.96	12.3026
784.853	7.86
787.746	6.6825
790.638	6.68824
793.531	1.64498
796.424	2.95287
799.317	3.33597
802.209	0.977461
805.102	1.2523
807.995	0.042891
810.887	0.684948
813.78	0.817245
816.673	1.07217
819.565	0.845196
822.458	0.415365
825.351	2.78254
828.244	2.95676
831.136	0.524891
834.029	4.64218
836.922	2.04347
839.814	2.92539
842.707	2.81416
845.6	5.16889
848.492	2.0662
851.385	4.21255
854.278	2.71725
857.17	2.50905
860.063	2.57762
862.956	2.6503
865.849	3.58369
868.741	3.35752
871.634	3.6956
874.527	0.878117
877.419	3.89676
880.312	2.96841
883.205	3.33054
886.097	2.5044
888.99	1.93065
891.883	3.88525
894.775	4.60552
897.668	1.42735
900.561	1.00351
903.454	0.112232
906.346	4.73145
909.239	2.35534
912.132	1.31307
915.024	3.4407
917.917	3.12928
920.81	1.65992
923.702	0.79104
926.595	2.93707
929.488	2.93822
932.381	1.06548
935.273	3.25057
938.166	4.36205
941.059	4.05218
943.951	3.05516
946.844	1.20502
949.737	1.28323
952.63	1.45206
955.522	1.75001
958.415	0.281017
961.308	6.91171
964.2	0.636024
967.093	3.34481
969.986	1.32378
972.878	2.19854
975.771	3.28927
978.664	0.422869
981.557	3.66246
984.449	2.93603
987.342	4.11228
990.235	2.62607
993.127	2.15341
996.02	2.47657
998.913	1.98586
1001.8	1.6359
1004.7	1.38166
1007.59	2.89693
1010.48	3.24702
1013.38	2.47874
1016.27	0.48349
1019.16	3.97358
1022.05	4.38282
1024.95	3.40892
1027.84	0.093296
1030.73	4.12307
1033.62	0.297735
1036.52	1.62341
1039.41	0.111885
1042.3	3.29194
1045.2	0.846285
1048.09	2.98872
1050.98	2.17964
1053.87	3.2993
1056.77	0.176584
1059.66	2.44589
1062.55	0.498283
1065.44	4.26036
1068.34	4.80084
1071.23	2.53766
1074.12	1.81673
1077.02	1.09423
1079.91	5.12944
1082.8	3.0516
1085.69	3.67394
1088.59	0.324139
1091.48	3.28083
1094.37	3.6264
1097.26	1.44392
1100.16	2.43251
1103.05	3.31138
1105.94	3.19743
1108.84	3.64528
1111.73	1.81545
1114.62	0.066242
1117.51	0.870356
1120.41	2.96561
1123.3	1.18153
1126.19	0.408405
1129.08	4.77077
1131.98	0.261959
1134.87	3.96284
1137.76	3.79617
1140.65	0.309948
1143.55	3.11889
1146.44	0.679317
1149.33	2.46835
1152.23	1.62564
1155.12	2.06086
1158.01	0.419792
1160.9	1.0913
1163.8	3.16814
1166.69	2.17025
1169.58	4.14501
1172.47	2.67094
1175.37	2.55347
1178.26	3.34445
1181.15	2.83499
1184.05	3.04279
1186.94	3.86479
1189.83	5.24047
1192.72	2.99674
1195.62	2.29848
1198.51	2.81277
1201.4	2.09472
1204.29	1.0816
1207.19	3.60305
1210.08	2.56913
1212.97	2.46553
1215.87	2.83687
1218.76	1.32778
1221.65	2.86646
1224.54	0.694895
1227.44	1.87425
1230.33	0.928865
1233.22	1.74574
1236.11	0.647398
1239.01	2.95462
1241.9	3.40617
1244.79	1.22422
1247.68	0.622171
1250.58	3.67054
1253.47	2.15795
1256.36	2.50982
1259.26	2.46166
1262.15	4.12296
1265.04	3.66599
1267.93	1.2529
1270.83	1.38698
1273.72	0.611595
1276.61	3.84951
1279.5	4.2102
1282.4	0.21958
