Measurement: Raman, 532 nm, unoriented, Raman Data Processed
Mineral: Grandviewite
Rruff sample: R070667
Ideal chemistry: Cu^2+^_3_Al_9_(S^6+^O_4_)_2_(OH)_29_
Locality: Grand View mine, Coconino County, Arizona, USA
Source: George Stevens, Malcom Alter
Description: Light blue sprays of fibrous crystals associated with blue cyanotrichite.
Raman shift (cm-1)	intensity
154.966	0
157.859	39.1099
160.752	3.26758
163.645	123.514
166.537	2.28101
169.43	47.2443
172.323	94.168
175.215	43.9281
178.108	105.357
181.001	128.85
183.893	0.44812
186.786	200.657
189.679	157.915
192.572	177.019
195.464	232.794
198.357	186.485
201.25	188.949
204.142	251.172
207.035	240.561
209.928	147.213
212.821	74.4594
215.713	157.767
218.606	113.184
221.499	71.4376
224.391	45.7647
227.284	51.8029
230.177	96.5597
233.069	98.8414
235.962	37.2383
238.855	109.16
241.748	76.8591
244.64	147.059
247.533	214.59
250.426	356.871
253.318	353.782
256.211	449.534
259.104	523.782
261.996	516.215
264.889	498.242
267.782	546.88
270.675	548.057
273.567	440.328
276.46	355.7
279.353	281.072
282.245	236.452
285.138	135.415
288.031	36.6516
290.923	4.74493
293.816	59.5272
296.709	29.1397
299.601	21.4053
302.494	46.1744
305.387	22.304
308.28	1.9953
311.172	42.5172
314.065	62.4284
316.958	47.2758
319.85	121.228
322.743	97.8842
325.636	188.951
328.529	114.911
331.421	138.499
334.314	111.069
337.207	177.754
340.099	208.256
342.992	142.47
345.885	152.003
348.777	140.159
351.67	159.704
354.563	152.007
357.455	93.9611
360.348	109.644
363.241	149.26
366.134	5.78259
369.026	44.8183
371.919	56.2458
374.812	37.4412
377.704	47.0597
380.597	102.323
383.49	34.0436
386.382	30.2108
389.275	31.0487
392.168	46.9514
395.06	39.1935
397.953	7.74158
400.846	48.011
403.739	66.9791
406.631	120.132
409.524	116.037
412.417	208.09
415.309	156.695
418.202	150.768
421.095	14.4905
423.988	164.56
426.88	122.844
429.773	153.572
432.666	138.758
435.558	174.6
438.451	93.4862
441.344	146.133
444.236	111.309
447.129	87.4481
450.022	65.3383
452.915	145.429
455.807	119.345
458.7	26.1559
461.593	129.486
464.485	170.109
467.378	264.421
470.271	288.021
473.163	285.836
476.056	391.267
478.949	468.477
481.841	475.867
484.734	510.614
487.627	682.61
490.52	722.804
493.412	782.417
496.305	768.054
499.198	882.061
502.09	801.236
504.983	945.251
507.876	994.68
510.769	1027.28
513.661	1164.92
516.554	1329.88
519.447	1491.83
522.339	1507.48
525.232	1574.04
528.125	1614.05
531.017	1525.43
533.91	1456.2
536.803	1188.14
539.696	867.43
542.588	691.62
545.481	498.705
548.374	411.623
551.266	175.892
554.159	122.657
557.052	71.7094
559.944	49.2325
562.837	33.7395
565.73	33.9385
568.622	124.051
571.515	16.7167
574.408	23.3023
577.301	76.3705
580.193	120.56
583.086	266.114
585.979	268.108
588.871	206.756
591.764	319.073
594.657	220.001
597.549	316.952
600.442	352.666
603.335	385.187
606.228	301.33
609.12	309.822
612.013	285.856
614.906	268.274
617.798	194.938
620.691	246.961
623.584	104.787
626.476	51.7968
629.369	49.4689
632.262	24.9509
635.155	24.0915
638.047	46.4059
640.94	32.6171
643.833	10.3143
646.725	10.8077
649.618	58.0609
652.511	66.5817
655.404	61.4278
658.296	165.014
661.189	64.9144
664.082	70.0331
666.974	78.5271
669.867	106.204
672.76	114.244
675.652	28.7997
678.545	58.2133
681.438	129.489
684.33	78.858
687.223	65.3106
690.116	67.9202
693.009	76.8764
695.901	23.0848
698.794	111.771
701.687	17.8138
704.579	42.721
707.472	27.1551
710.365	90.3026
713.257	89.5477
716.15	55.3818
719.043	56.3077
721.936	15.4744
724.828	82.9722
727.721	58.4177
730.614	51.3017
733.506	96.555
736.399	73.2109
739.292	74.88
742.184	15.1597
745.077	101.305
747.97	37.9395
750.862	26.4473
753.755	16.7083
756.648	30.8124
759.541	49.9554
762.433	93.5839
765.326	39.962
768.219	34.8701
771.111	1.94971
774.004	11.9355
776.897	50.4254
779.79	106.639
782.682	93.8973
785.575	116.976
788.468	13.4877
791.36	30.3164
794.253	68.5204
797.146	46.1002
800.038	55.7597
802.931	32.6
805.824	36.2179
808.717	67.6707
811.609	46.3217
814.502	11.1516
817.395	5.2027
820.287	68.1232
823.18	29.4321
826.073	118.515
828.965	98.7619
831.858	26.0051
834.751	78.8536
837.644	59.1791
840.536	14.6545
843.429	21.7254
846.322	88.9741
849.214	19.3583
852.107	37.6927
855	57.3791
857.892	60.7994
860.785	3.60644
863.678	52.5157
866.571	63.6894
869.463	24.6256
872.356	71.5472
875.249	26.3594
878.141	45.9966
881.034	27.4399
883.927	42.3488
886.819	59.8554
889.712	46.0914
892.605	84.4831
895.497	36.4416
898.39	33.573
901.283	18.2522
904.176	61.6
907.068	44.4977
909.961	19.2718
912.854	31.0106
915.746	32.0869
918.639	12.8896
921.532	58.6347
924.424	27.3127
927.317	37.8382
930.21	13.6785
933.103	54.652
935.995	43.5663
938.888	99.1412
941.781	97.7459
944.673	188.086
947.566	268.367
950.459	448.45
953.351	663.721
956.244	1009.47
959.137	1489.77
962.03	1879
964.922	2305.66
967.815	2669.43
970.708	2597.43
973.6	2137.71
976.493	1576.9
979.386	1118.28
982.279	775.92
985.171	520.473
988.064	395.739
990.957	228.323
993.849	169.623
996.742	197.564
999.635	88.0617
1002.53	107.527
1005.42	57.5855
1008.31	57.8209
1011.21	72.4871
1014.1	35.6398
1016.99	29.032
1019.88	76.096
1022.78	34.1698
1025.67	7.92596
1028.56	39.6149
1031.45	0.749207
1034.35	59.8848
1037.24	70.8333
1040.13	15.7798
1043.03	17.0165
1045.92	27.7316
1048.81	19.0223
1051.7	36.5894
1054.6	101.729
1057.49	80.3908
1060.38	26.3253
1063.27	22.1463
1066.17	52.605
1069.06	13.195
1071.95	12.4939
1074.85	134.757
1077.74	83.577
1080.63	101.576
1083.52	92.9682
1086.42	19.6379
1089.31	91.5773
1092.2	20.5687
1095.09	52.3839
1097.99	70.5564
1100.88	52.5992
1103.77	96.8271
1106.66	84.3366
1109.56	76.9751
1112.45	53.019
1115.34	41.0103
1118.23	10.0463
1121.13	67.2572
1124.02	10.2356
1126.91	2.76337
1129.81	4.36871
1132.7	42.53
1135.59	36.8399
1138.48	15.9186
1141.38	94.1328
1144.27	38.209
1147.16	31.954
1150.06	18.9254
1152.95	64.7413
1155.84	48.3954
1158.73	83.7689
1161.63	110.329
1164.52	127.744
1167.41	195.323
1170.3	167.279
1173.2	128.383
1176.09	196.236
1178.98	83.2281
1181.88	64.9472
1184.77	103.522
1187.66	101.38
1190.55	88.8134
1193.45	87.4551
1196.34	137.904
1199.23	111.478
1202.12	30.4852
1205.02	56.8145
1207.91	24.7938
1210.8	36.1489
1213.69	59.0178
1216.59	14.1186
1219.48	8.89252
1222.37	58.1183
1225.27	15.8276
1228.16	32.8807
1231.05	18.34
1233.94	57.6055
1236.84	61.8384
1239.73	49.3546
1242.62	69.4601
1245.51	20.0255
1248.41	33.4639
1251.3	22.5955
1254.19	74.1472
1257.09	57.4228
1259.98	36.2142
1262.87	63.4621
1265.76	31.2726
1268.66	24.9308
1271.55	86.8038
1274.44	61.6182
1277.33	39.6744
1280.23	56.4509
1283.12	58.1065
1286.01	78.4432
1288.9	3.23108
1291.8	83.6707
1294.69	63.8666
1297.58	78.1667
1300.47	7.57782
