Measurement: Raman, 780 nm, unoriented, Raman Data Processed
Mineral: Graphite
Rruff sample: R090047
Ideal chemistry: C
Locality: Merelani, Tanzania
Source: Wendell Wilson
Description: Silver gray platelets associated with diopside, R090046
Raman shift (cm-1)	intensity
149.879	0
154.218	1.3212
158.558	0.08448
162.897	1.07235
167.236	0.454023
171.575	2.01571
175.914	1.70187
180.253	1.96281
184.592	1.25439
188.931	2.27485
193.27	0.085604
197.609	1.2761
201.948	0.733217
206.287	0.624102
210.626	1.611
214.965	1.27307
219.304	1.74323
223.643	2.40135
227.982	2.3446
232.321	3.01524
236.66	2.29926
240.999	3.73097
245.339	4.24431
249.678	1.96938
254.017	2.19679
258.356	1.99688
262.695	0.600166
267.034	1.15993
271.373	1.22913
275.712	0.269718
280.051	0.526501
284.39	1.08018
288.729	1.25275
293.068	0.558647
297.407	1.28218
301.746	0.82544
306.085	0.65335
310.424	1.61599
314.763	1.06652
319.102	0.671806
323.441	1.17384
327.78	1.04754
332.119	0.425726
336.459	1.38183
340.798	0.587603
345.137	0.005688
349.476	0.38985
353.815	0.523705
358.154	1.06446
362.493	1.05861
366.832	1.27192
371.171	0.81472
375.51	0.908278
379.849	0.674328
384.188	0.371189
388.527	0.652555
392.866	0.606031
397.205	0.110891
401.544	1.37159
405.883	0.850583
410.222	1.30374
414.561	1.26976
418.9	0.123993
423.24	0.60224
427.579	0.880415
431.918	0.559443
436.257	0.658692
440.596	0.873986
444.935	1.12089
449.274	0.648186
453.613	0.361594
457.952	0.225413
462.291	0.360593
466.63	1.37266
470.969	0.255624
475.308	0.272467
479.647	0.011285
483.986	0.836628
488.325	0.349331
492.664	0.935238
497.003	0.455051
501.342	0.909404
505.681	0.511118
510.021	0.129063
514.36	0.915848
518.698	0.489937
523.038	0.85781
527.377	0.43049
531.716	0.076074
536.055	0.235757
540.394	1.29714
544.733	0.955895
549.072	2.84093
553.411	2.10021
557.75	1.16735
562.089	0.941747
566.428	0.649303
570.767	0.600503
575.106	0.86095
579.445	0.526044
583.784	0.218957
588.123	0.86215
592.462	0.855065
596.802	0.494028
601.14	1.17024
605.48	0.88784
609.819	0.19873
614.158	0.678659
618.497	0.589149
622.836	0.781114
627.175	0.693802
631.514	0.967068
635.853	0.53216
640.192	1.16427
644.531	0.6527
648.87	0.948604
653.209	0.780039
657.548	0.775433
661.887	1.53183
666.226	1.00409
670.565	0.870236
674.904	1.20302
679.243	0.415198
683.582	0.605383
687.922	0.558591
692.261	0.35544
696.6	1.04896
700.939	0.803712
705.278	0.016249
709.617	0.511505
713.956	0.206017
718.295	0.655642
722.634	0.397756
726.973	0.248229
731.312	0.088486
735.651	0.153518
739.99	0.635766
744.329	1.01096
748.668	0.234555
753.007	0.59713
757.346	0.316133
761.685	0.572474
766.024	0.554359
770.363	0.383518
774.702	0.714628
779.042	0.224076
783.381	0.629636
787.72	0.33163
792.059	0.661876
796.398	0.747712
800.737	0.803968
805.076	1.00728
809.415	0.839062
813.754	0.809316
818.093	0.878973
822.432	1.28908
826.771	0.599336
831.11	0.881196
835.449	1.8011
839.788	1.59106
844.127	2.25028
848.466	1.93711
852.805	1.62653
857.144	1.53664
861.484	2.0152
865.822	1.73998
870.162	1.39064
874.501	1.29374
878.84	1.34676
883.179	0.631105
887.518	1.04527
891.857	0.215938
896.196	0.41666
900.535	0.505136
904.874	0.650631
909.213	0.137004
913.552	0.590405
917.891	0.153408
922.23	0.027817
926.569	0.537936
930.908	0.237273
935.247	0.049741
939.586	0.047729
943.925	0.241554
948.264	0.137254
952.604	0.638563
956.942	0.482511
961.282	0.655807
965.621	0.592539
969.96	0.272136
974.299	0.394609
978.638	0.402472
982.977	0.546078
987.316	0.68862
991.655	0.359606
995.994	0.517382
1000.33	0.633152
1004.67	0.643232
1009.01	0.244345
1013.35	0.593451
1017.69	0.182505
1022.03	0.957437
1026.37	0.01473
1030.71	1.07019
1035.05	0.379714
1039.38	0.425282
1043.72	1.07676
1048.06	0.738822
1052.4	0.643491
1056.74	1.07428
1061.08	0.50098
1065.42	0.037321
1069.76	0.19546
1074.1	0.476767
1078.44	0.279925
1082.78	0.163079
1087.11	0.843241
1091.45	0.684011
1095.79	0.316772
1100.13	1.22143
1104.47	0.574077
1108.81	0.761709
1113.15	0.436938
1117.49	0.046731
1121.83	0.080734
1126.16	0.039571
1130.51	0.059978
1134.84	0.020748
1139.18	0.282484
1143.52	0.512004
1147.86	0.512263
1152.2	0.554916
1156.54	0.423638
1160.88	0.73182
1165.22	0.258602
1169.56	0.868736
1173.89	1.02927
1178.23	0.789241
1182.57	0.307103
1186.91	0.462801
1191.25	1.32596
1195.59	0.451671
1199.93	1.3685
1204.27	0.94485
1208.61	0.947687
1212.95	0.832472
1217.29	0.947527
1221.62	0.874613
1225.96	1.19162
1230.3	0.521748
1234.64	1.00613
1238.98	0.416179
1243.32	0.595699
1247.66	1.56382
1252	1.07832
1256.34	0.033724
1260.68	0.772764
1265.02	0.952799
1269.35	0.122256
1273.69	0.998168
1278.03	0.93805
1282.37	0.978173
1286.71	1.29297
1291.05	0.84719
1295.39	0.211654
1299.73	0.191402
1304.07	0.624694
1308.41	0.558879
1312.74	0.583213
1317.08	0.477818
1321.42	0.466675
1325.76	0.649645
1330.1	1.4747
1334.44	0.678643
1338.78	0.112169
1343.12	1.173
1347.46	0.901034
1351.8	0.937803
1356.13	0.870673
1360.47	0.576289
1364.81	0.328248
1369.15	0.502436
1373.49	0.573109
1377.83	0.335733
1382.17	0.337479
1386.51	0.705508
1390.85	0.834495
1395.19	0.008532
1399.53	0.652136
1403.87	0.879387
1408.2	0.311343
1412.54	0.466874
1416.88	0.802431
1421.22	1.00851
1425.56	0.779171
1429.9	1.01174
1434.24	0.739849
1438.58	0.459599
1442.92	1.0758
1447.26	1.23563
1451.59	0.467696
1455.93	1.93771
1460.27	0.125145
1464.61	0.709519
1468.95	0.692247
1473.29	0.547577
1477.63	0.405768
1481.97	0.620095
1486.31	0.857292
1490.65	0.730113
1494.98	1.24014
1499.32	0.046837
1503.66	0.177192
1508	0.606206
1512.34	0.021073
1516.68	1.13474
1521.02	0.494513
1525.36	0.514277
1529.7	0.640334
1534.04	0.381646
1538.38	0.809627
1542.71	0.144755
1547.05	0.068889
1551.39	0.50424
1555.73	1.91532
1560.07	1.43951
1564.41	3.1129
1568.75	5.20901
1573.09	9.59409
1577.43	12.6404
1581.77	11.8039
1586.11	7.25576
1590.44	3.37467
1594.78	2.02646
1599.12	1.38553
1603.46	0.722062
1607.8	1.07839
1612.14	1.2494
1616.48	0.379261
1620.82	1.11651
1625.16	0.978401
1629.49	0.915106
1633.83	1.10147
1638.17	1.05041
1642.51	0.493916
1646.85	0.009145
1651.19	0.971656
1655.53	1.39111
1659.87	0.334213
1664.21	0.508039
1668.55	0.499804
1672.89	0.801889
1677.22	1.39171
1681.56	1.11186
1685.9	0.108199
1690.24	1.28257
1694.58	0.919818
1698.92	1.26484
1703.26	0.813398
1707.6	0.99964
1711.94	0.22682
1716.28	1.39855
1720.62	1.33237
1724.95	0.826701
1729.29	1.25263
1733.63	0.374036
1737.97	1.02572
1742.31	0.160337
1746.65	1.16131
1750.99	0.766265
1755.33	0.547421
1759.67	1.07684
1764.01	0.506155
1768.35	0.197694
1772.68	0.37119
1777.02	1.07327
1781.36	0.954091
1785.7	0.544115
1790.04	0.891513
1794.38	0.705852
1798.72	0.63436
