Measurement: Raman, 780 nm, unoriented, Raman Data Processed
Mineral: Graphite
Rruff sample: R050503
Ideal chemistry: C
Locality: Sterling mine, Ogdensburg, New Jersey, USA
Source: Marcus Origlieri
Description: Black hexagonal platy crystals
Raman shift (cm-1)	intensity
149.879	0
154.218	1.72468
158.558	1.17224
162.897	1.12254
167.236	1.25727
171.575	3.54575
175.914	0.697975
180.253	0.655067
184.592	1.68442
188.931	2.43993
193.27	1.83952
197.609	0.365495
201.948	1.27561
206.287	0.320783
210.626	0.632789
214.965	1.25933
219.304	0.883063
223.643	2.05751
227.982	1.29901
232.321	1.26333
236.66	0.37319
240.999	2.16458
245.339	1.80027
249.678	2.85108
254.017	2.31799
258.356	0.889527
262.695	1.60476
267.034	0.62566
271.373	1.19667
275.712	1.42075
280.051	1.4121
284.39	1.24614
288.729	0.044311
293.068	1.21938
297.407	0.734637
301.746	0.411736
306.085	1.37634
310.424	0.77748
314.763	0.745323
319.102	0.416718
323.441	0.159659
327.78	2.58555
332.119	1.7478
336.459	0.529624
340.798	1.77841
345.137	1.39983
349.476	1.3166
353.815	0.934051
358.154	0.109805
362.493	0.404857
366.832	1.47792
371.171	1.61631
375.51	0.567848
379.849	0.12137
384.188	1.27992
388.527	0.729021
392.866	1.63472
397.205	0.011316
401.544	2.14554
405.883	0.635794
410.222	0.925182
414.561	0.94023
418.9	0.665043
423.24	1.86778
427.579	1.78552
431.918	1.48072
436.257	1.51497
440.596	1.11735
444.935	1.35067
449.274	1.16612
453.613	1.31664
457.952	0.501041
462.291	1.12085
466.63	0.753193
470.969	1.40867
475.308	1.32549
479.647	0.383359
483.986	1.15991
488.325	1.3108
492.664	0.162689
497.003	0.511643
501.342	1.87972
505.681	1.09641
510.021	1.23552
514.36	2.42583
518.698	1.49405
523.038	0.446824
527.377	0.232271
531.716	1.82132
536.055	1.74011
540.394	0.313302
544.733	0.413569
549.072	1.14542
553.411	2.99286
557.75	2.54296
562.089	2.55199
566.428	1.05171
570.767	1.07454
575.106	1.84841
579.445	2.00177
583.784	1.73728
588.123	0.643474
592.462	1.57525
596.802	0.973172
601.14	0.989776
605.48	0.797514
609.819	2.31613
614.158	1.13897
618.497	2.0444
622.836	0.681728
627.175	0.189635
631.514	0.83743
635.853	1.10593
640.192	0.340355
644.531	1.6299
648.87	0.045761
653.209	0.111702
657.548	1.03814
661.887	0.063807
666.226	1.09553
670.565	0.904644
674.904	0.824679
679.243	1.06645
683.582	0.583692
687.922	1.59829
692.261	1.88319
696.6	0.961912
700.939	1.87014
705.278	1.55912
709.617	0.795109
713.956	0.301539
718.295	0.57033
722.634	1.36413
726.973	0.200887
731.312	0.75694
735.651	1.72467
739.99	0.647683
744.329	0.239249
748.668	0.828599
753.007	1.21152
757.346	0.729931
761.685	1.60106
766.024	1.20853
770.363	1.01509
774.702	0.588898
779.042	0.678889
783.381	1.18184
787.72	1.09509
792.059	0.373442
796.398	0.584799
800.737	1.79133
805.076	0.516528
809.415	1.40902
813.754	2.58371
818.093	0.993014
822.432	1.47568
826.771	1.87256
831.11	1.45445
835.449	1.78464
839.788	1.88879
844.127	1.26128
848.466	1.83218
852.805	1.66924
857.144	0.851511
861.484	2.90453
865.822	1.795
870.162	1.21653
874.501	1.23923
878.84	1.70064
883.179	0.985339
887.518	0.599794
891.857	1.3728
896.196	0.739741
900.535	0.096565
904.874	0.92745
909.213	0.144414
913.552	1.27155
917.891	0.18741
922.23	0.627161
926.569	1.46972
930.908	1.11079
935.247	0.873197
939.586	0.097939
943.925	0.699278
948.264	1.33578
952.604	0.570661
956.942	0.795562
961.282	1.71464
965.621	1.32029
969.96	0.391054
974.299	1.40829
978.638	0.591276
982.977	0.768525
987.316	0.58778
991.655	0.750087
995.994	1.0704
1000.33	0.721599
1004.67	1.49048
1009.01	0.842395
1013.35	0.052335
1017.69	0.6296
1022.03	1.05058
1026.37	1.06071
1030.71	0.847716
1035.05	0.338521
1039.38	1.54941
1043.72	1.81516
1048.06	1.28646
1052.4	1.7598
1056.74	0.878971
1061.08	1.39348
1065.42	0.46931
1069.76	1.96718
1074.1	1.3568
1078.44	0.841386
1082.78	0.844872
1087.11	1.10787
1091.45	0.459732
1095.79	0.619058
1100.13	1.44573
1104.47	2.16671
1108.81	0.936158
1113.15	0.143873
1117.49	1.51887
1121.83	2.29311
1126.16	1.50221
1130.51	0.948292
1134.84	0.063076
1139.18	1.91258
1143.52	0.759711
1147.86	0.307996
1152.2	0.539479
1156.54	0.846446
1160.88	0.760984
1165.22	1.34252
1169.56	0.779573
1173.89	0.921899
1178.23	1.64572
1182.57	0.840579
1186.91	0.407403
1191.25	2.17672
1195.59	1.25266
1199.93	0.839828
1204.27	1.3319
1208.61	0.153646
1212.95	0.220179
1217.29	0.099073
1221.62	1.70172
1225.96	0.361246
1230.3	1.3162
1234.64	0.047157
1238.98	1.78447
1243.32	0.238586
1247.66	2.21816
1252	0.739633
1256.34	1.18271
1260.68	1.52586
1265.02	0.279562
1269.35	1.36349
1273.69	1.02699
1278.03	2.19179
1282.37	2.31405
1286.71	0.02206
1291.05	0.09897
1295.39	0.475518
1299.73	1.08893
1304.07	2.75709
1308.41	2.73181
1312.74	0.266414
1317.08	1.79588
1321.42	0.919542
1325.76	2.96427
1330.1	1.64922
1334.44	2.27335
1338.78	0.162279
1343.12	2.52386
1347.46	1.40097
1351.8	0.602267
1356.13	1.40662
1360.47	1.71315
1364.81	1.20444
1369.15	1.12213
1373.49	0.272885
1377.83	1.72187
1382.17	0.232646
1386.51	2.30169
1390.85	1.48519
1395.19	1.76359
1399.53	0.589664
1403.87	1.63987
1408.2	1.28789
1412.54	2.03868
1416.88	0.567442
1421.22	1.57889
1425.56	1.09708
1429.9	0.121864
1434.24	1.14154
1438.58	0.606112
1442.92	0.428744
1447.26	2.08173
1451.59	0.632928
1455.93	0.843062
1460.27	1.49964
1464.61	1.10605
1468.95	2.21359
1473.29	0.734792
1477.63	0.466131
1481.97	1.27183
1486.31	2.23011
1490.65	2.70068
1494.98	1.337
1499.32	1.6471
1503.66	1.40974
1508	0.897701
1512.34	1.90881
1516.68	0.319269
1521.02	1.21187
1525.36	0.929838
1529.7	0.859985
1534.04	1.86288
1538.38	0.314982
1542.71	1.57441
1547.05	0.098463
1551.39	1.96555
1555.73	1.95001
1560.07	1.47248
1564.41	2.11377
1568.75	3.00929
1573.09	5.63141
1577.43	9.86247
1581.77	9.81053
1586.11	8.06321
1590.44	4.24683
1594.78	3.07682
1599.12	1.26676
1603.46	1.96048
1607.8	1.37187
1612.14	1.49252
1616.48	0.187441
1620.82	3.06879
1625.16	1.48508
1629.49	0.546967
1633.83	0.99764
1638.17	0.733245
1642.51	0.334437
1646.85	0.936642
1651.19	1.38172
1655.53	0.451537
1659.87	2.10744
1664.21	1.72854
1668.55	1.0031
1672.89	1.11916
1677.22	0.163345
1681.56	0.70843
1685.9	1.52866
1690.24	0.266558
1694.58	1.69893
1698.92	0.520464
1703.26	0.85197
1707.6	1.7295
1711.94	1.09897
1716.28	1.86692
1720.62	1.70325
1724.95	0.991362
1729.29	2.78014
1733.63	2.34618
1737.97	0.280338
1742.31	2.15263
1746.65	0.07981
1750.99	1.94709
1755.33	1.60783
1759.67	1.24955
1764.01	0.597279
1768.35	0.70013
1772.68	1.73177
1777.02	2.05122
1781.36	1.07377
1785.7	1.84208
1790.04	1.05441
1794.38	0.294023
1798.72	0.31776
