Measurement: Raman, 532 nm, unoriented, Raman Data Processed
Mineral: Gratonite
Rruff sample: R050365
Ideal chemistry: Pb^2+^_9_As^3+^_4_S^2-^_15_
Locality: Cerro de Pasco, Peru
Source: University of Arizona Mineral Museum
Description: Dark lead gray aggregate, including single crystals
Measured chemistry: Pb_9.00_As_4.00_S_15.00_
Raman shift (cm-1)	intensity
155.029	0
157.921	0.155418
160.814	0.372238
163.707	1.53367
166.6	1.12484
169.492	2.48196
172.385	2.96281
175.278	1.89513
178.17	3.1472
181.063	3.14522
183.956	3.1309
186.848	4.19253
189.741	2.80561
192.634	2.87436
195.526	3.01102
198.419	3.12553
201.312	1.81158
204.205	1.88298
207.097	0.886078
209.99	0.617882
212.883	0.004318
215.775	0.12758
218.668	0.0508538
221.561	0.108616
224.453	0.52416
227.346	0.126995
230.239	0.555202
233.132	0.684242
236.024	2.40043
238.917	1.91312
241.81	2.59556
244.702	1.50662
247.595	2.43604
250.488	3.03093
253.381	2.72297
256.273	2.8987
259.166	1.78757
262.059	1.59138
264.951	1.70546
267.844	0.767361
270.737	0.463326
273.629	1.14461
276.522	0.852245
279.415	1.5317
282.308	1.32898
285.2	0.963696
288.093	1.36043
290.986	2.69837
293.878	3.82416
296.771	4.96523
299.664	6.79227
302.556	8.29784
305.449	9.03056
308.342	10.0646
311.235	9.00383
314.127	7.73801
317.02	5.59692
319.913	5.14188
322.805	4.79763
325.698	4.84288
328.591	2.88405
331.483	2.32632
334.376	1.88449
337.269	2.95785
340.161	4.53137
343.054	5.32447
345.947	7.73569
348.84	9.93919
351.732	12.3056
354.625	11.9068
357.518	10.2711
360.41	8.99206
363.303	6.57207
366.196	6.17316
369.089	4.50357
371.981	2.89496
374.874	1.4084
377.767	0.498531
380.659	0.081484
383.552	0.077044
386.445	0.642502
389.337	0.093145
392.23	0.607706
395.123	0.178772
398.015	0.015804
400.908	0.036757
403.801	0.013388
406.694	0.164843
409.586	0.062082
412.479	0.141443
415.372	0.334648
418.264	0.379532
421.157	0.607742
424.05	0.155848
426.942	0.324928
429.835	0.672049
432.728	0.586702
435.621	0.51388
438.513	0.899723
441.406	1.14813
444.299	0.784784
447.191	0.924879
450.084	1.0777
452.977	0.43766
455.87	0.515924
458.762	1.0957
461.655	0.675024
464.548	1.04084
467.44	0.81629
470.333	0.819944
473.226	0.714578
476.118	0.818217
479.011	0.713614
481.904	0.765051
484.796	0.604404
487.689	0.47664
490.582	0.467
493.475	0.682446
496.367	0.892251
499.26	0.929042
502.153	0.77486
505.045	0.596396
507.938	0.612038
510.831	0.17131
513.723	0.259741
516.616	0.231481
519.509	0.682035
522.402	0.40313
525.294	0.62868
528.187	0.458354
531.08	0.139606
533.972	0.049719
536.865	0.013395
539.758	0.265141
542.65	0.185518
545.543	0.571526
548.436	0.005122
551.329	0.22823
554.221	0.181109
557.114	0.430445
560.007	0.216861
562.899	0.112578
565.792	0.129196
568.685	0.266663
571.577	0.728314
574.47	0.115783
577.363	0.486624
580.256	0.252759
583.148	0.351006
586.041	0.629041
588.934	0.548879
591.826	0.770674
594.719	0.74917
597.612	0.164452
600.505	0.266417
603.397	0.527321
606.29	0.620869
609.183	0.764662
612.075	0.602202
614.968	0.479866
617.861	0.316263
620.753	0.603158
623.646	0.293727
626.539	0.144552
629.432	0.322367
632.324	0.076834
635.217	0.595598
638.11	0.330567
641.002	0.356746
643.895	0.192829
646.788	0.064089
649.68	0.317328
652.573	0.034369
655.466	0.470401
658.359	0.192214
661.251	0.509359
664.144	0.334736
667.037	0.821032
669.929	0.569133
672.822	0.52401
675.715	0.304847
678.607	0.64399
681.5	0.589189
684.393	0.070927
687.285	0.517859
690.178	0.165134
693.071	0.038334
695.964	0.671358
698.856	0.420834
701.749	0.486991
704.642	0.276027
707.534	0.415917
710.427	0.207679
713.32	0.351222
716.212	0.245859
719.105	0.383988
721.998	0.593256
724.891	0.307712
727.783	0.311117
730.676	0.527754
733.569	0.296862
736.461	0.265025
739.354	0.062955
742.247	0.225687
745.139	0.423145
748.032	0.405363
750.925	0.546507
753.818	0.497897
756.71	0.64818
759.603	0.096112
762.496	0.540544
765.388	0.386936
768.281	0.517177
771.174	0.687943
774.067	0.057981
776.959	0.261703
779.852	0.322358
782.745	0.283947
785.637	0.075727
788.53	0.561992
791.423	0.618662
794.315	0.277396
797.208	0.60831
800.101	0.053743
802.994	0.379345
805.886	0.530764
808.779	0.212665
811.672	0.482506
814.564	0.442023
817.457	0.671047
820.35	0.474688
823.242	0.503562
826.135	0.932278
829.028	0.804609
831.92	0.645084
834.813	0.394469
837.706	1.114
840.599	0.464142
843.491	0.82981
846.384	0.90812
849.277	0.883789
852.169	0.599275
855.062	0.910504
857.955	1.0323
860.847	0.872595
863.74	1.05695
866.633	1.00822
869.526	0.525823
872.418	0.763041
875.311	0.466936
878.204	0.666863
881.096	1.02998
883.989	0.314025
886.882	0.71825
889.774	0.333933
892.667	0.231409
895.56	0.312323
898.453	0.401356
901.345	0.32721
904.238	0.208941
907.131	0.467221
910.023	0.067461
912.916	0.838822
915.809	0.524266
918.702	0.010829
921.594	0.031114
924.487	0.202426
927.38	0.11997
930.272	0.529617
933.165	0.429536
936.058	0.158522
938.95	0.271335
941.843	0.559429
944.736	0.464053
947.629	0.090194
950.521	0.502931
953.414	0.529861
956.307	0.498847
959.199	0.073853
962.092	0.332179
964.985	0.327769
967.877	0.237477
970.77	0.182703
973.663	0.222611
976.556	0.566422
979.448	1.3e-05
982.341	0.597452
985.234	0.397661
988.126	0.219879
991.019	0.4634
993.912	0.17446
996.804	0.314473
999.697	0.376901
1002.59	0.508292
1005.48	0.242238
1008.38	0.00019
1011.27	0.10217
1014.16	0.217907
1017.05	0.222418
1019.95	0.658967
1022.84	0.696002
1025.73	0.355825
1028.62	0.516385
1031.52	0.625505
1034.41	0.495099
1037.3	0.501143
1040.19	0.414083
1043.09	0.808932
1045.98	0.355923
1048.87	0.29789
1051.77	0.601892
1054.66	1.02028
1057.55	0.616354
1060.44	0.198904
1063.34	0.462808
1066.23	0.311282
1069.12	0.361758
1072.02	0.59362
1074.91	0.506847
1077.8	0.301193
1080.69	0.332341
1083.59	0.318213
1086.48	0.426147
1089.37	0.55611
1092.26	0.218998
1095.16	0.279375
1098.05	0.344126
1100.94	0.657021
1103.83	0.41569
1106.73	0.035227
1109.62	0.028931
1112.51	0.717123
1115.4	0.318398
1118.3	0.153397
1121.19	0.462736
1124.08	0.226061
1126.98	0.377125
1129.87	0.398446
1132.76	0.510628
1135.65	0.129573
1138.55	0.10202
1141.44	0.452024
1144.33	0.428313
1147.22	0.643273
1150.12	0.400886
1153.01	0.266665
1155.9	0.311348
1158.8	0.438298
1161.69	0.184826
1164.58	0.096106
1167.47	0.248388
1170.37	0.40438
1173.26	0.339768
1176.15	0.273345
1179.05	0.304861
1181.94	0.302659
1184.83	0.170903
1187.72	0.408629
1190.62	0.437193
1193.51	0.481941
1196.4	0.294712
1199.29	0.044645
1202.19	0.488345
1205.08	0.260286
1207.97	0.456452
1210.86	0.494189
1213.76	0.06792
1216.65	0.495546
1219.54	0.328573
1222.43	0.493635
1225.33	0.535998
1228.22	0.362361
1231.11	0.215994
1234.01	0.360326
1236.9	0.326994
1239.79	0.29189
1242.68	0.491152
1245.58	0.239398
1248.47	0.412721
1251.36	0.280764
1254.26	0.553163
1257.15	0.002394
1260.04	0.201476
1262.93	0.350784
1265.83	0.431756
1268.72	0.379914
1271.61	0.509959
1274.5	0.456371
1277.4	0.542456
1280.29	0.084203
1283.18	0.22054
1286.07	0.112669
1288.97	0.231534
1291.86	0.369815
1294.75	0.299044
1297.64	0.115326
1300.54	0.060883
1303.43	0.086263
