Measurement: Raman, 780 nm, unoriented, Raman Data Processed
Mineral: Greenockite
Rruff sample: R060110
Ideal chemistry: Cd^2+^S^2-^
Locality: San Juan mine, Dragoon Mountains, Cochise County, Arizona, USA
Source: University of Arizona Mineral Museum
Description: Yellow earthy coating
Raman shift (cm-1)	intensity
131.137	0
134.03	1.17615
136.923	3.2063
139.815	2.78534
142.708	9.16864
145.601	12.4639
148.493	11.3971
151.386	10.8866
154.279	4.99573
157.171	5.70728
160.064	3.10962
162.957	0.366516
165.85	2.1622
168.742	1.20874
171.635	1.55267
174.528	0.218262
177.42	4.41577
180.313	4.76083
183.206	4.22858
186.098	9.80475
188.991	11.8777
191.884	18.7598
194.776	23.3384
197.669	28.5303
200.562	35.2788
203.455	42.9814
206.347	52.8967
209.24	55.9812
212.133	58.395
215.025	60.4736
217.918	54.2066
220.811	45.7159
223.703	42.827
226.596	37.2075
229.489	31.7564
232.382	27.9127
235.274	28.1924
238.167	32.6806
241.06	24.5892
243.952	14.9053
246.845	8.48434
249.738	9.6004
252.631	3.25095
255.523	1.85806
258.416	0.052368
261.309	1.40021
264.201	0.950928
267.094	0.244843
269.987	0.989899
272.879	3.19098
275.772	7.69043
278.665	8.90936
281.558	15.8514
284.45	21.7117
287.343	25.8668
290.236	35.68
293.128	43.9455
296.021	55.7994
298.914	59.9517
301.806	68.8182
304.699	64.4719
307.592	59.8117
310.485	49.0469
313.377	37.6259
316.27	33.8713
319.163	26.7258
322.055	26.5509
324.948	24.1547
327.841	19.697
330.733	18.6398
333.626	18.3375
336.519	20.0876
339.411	19.1981
342.304	17.3805
345.197	20.5314
348.09	17.6996
350.982	20.9253
353.875	14.3391
356.768	13.2182
359.66	8.62149
362.553	8.67862
365.446	8.41992
368.339	8.75046
371.231	6.69223
374.124	3.35013
377.017	2.80954
379.909	0.505432
382.802	0.207336
385.695	0.630676
388.587	0.408386
391.48	1.42343
394.373	1.18744
397.265	1.38614
400.158	0.02417
403.051	1.98605
405.944	3.79825
408.836	2.10022
411.729	2.82721
414.622	5.89346
417.514	3.62408
420.407	4.01285
423.3	6.25525
426.192	6.84595
429.085	5.60611
431.978	4.63934
434.871	5.20575
437.763	5.39004
440.656	2.50879
443.549	5.25247
446.441	6.3147
449.334	5.88565
452.227	4.29163
455.12	4.76856
458.012	2.38617
460.905	3.58887
463.798	2.55121
466.69	5.21295
469.583	3.19336
472.476	4.76321
475.368	1.3634
478.261	1.30612
481.154	3.3988
484.046	2.41003
486.939	1.67999
489.832	0.469147
492.725	1.58209
495.617	0.408112
498.51	2.86353
501.403	1.43939
504.295	1.85413
507.188	1.94067
510.081	4.3429
512.973	1.79245
515.866	3.54404
518.759	2.3931
521.652	2.31326
524.544	0.03717
527.437	3.90537
530.33	4.34601
533.222	3.27853
536.115	1.70932
539.008	3.61163
541.9	1.14954
544.793	2.21283
547.686	0.537628
550.579	0.84906
553.471	2.27606
556.364	4.21799
559.257	2.31189
562.149	1.97098
565.042	2.92859
567.935	3.53326
570.827	6.39475
573.72	2.93375
576.613	4.66553
579.506	3.72913
582.398	6.51663
585.291	8.96112
588.184	9.21744
591.076	9.10239
593.969	10.767
596.862	11.6326
599.755	7.99414
602.647	12.4237
605.54	10.7481
608.433	7.47607
611.325	9.25442
614.218	5.61108
617.111	3.42511
620.003	4.44528
622.896	3.21774
625.789	2.64862
628.682	2.71674
631.574	2.44098
634.467	3.43881
637.36	0.209991
640.252	2.46457
643.145	0.742279
646.038	0.315094
648.93	3.21066
651.823	2.30402
654.716	0.326996
657.609	1.20196
660.501	0.290009
663.394	1.0556
666.287	1.3941
669.179	0.568573
672.072	2.00015
674.965	1.21994
677.857	0.95224
680.75	2.99835
683.643	4.51953
686.535	2.76114
689.428	3.9476
692.321	5.62115
695.214	5.58786
698.106	3.47302
700.999	6.10586
703.892	3.28134
706.784	3.16617
709.677	3.70453
712.57	3.29895
715.462	2.30985
718.355	4.51892
721.248	1.56726
724.141	2.13266
727.033	2.64761
729.926	1.81052
732.819	3.44281
735.711	1.67535
738.604	2.36929
741.497	0.038879
744.389	0.46701
747.282	1.69971
750.175	2.97208
753.068	0.136383
755.96	3.27393
758.853	2.47125
761.746	1.71368
764.638	1.25049
767.531	1.94458
770.424	1.32523
773.317	2.4957
776.209	3.43082
779.102	3.04456
781.995	2.52533
784.887	2.66138
787.78	1.75263
790.673	3.25397
793.565	3.10672
796.458	3.5694
799.351	3.17004
802.244	2.11038
805.136	1.01669
808.029	2.80469
810.922	1.42526
813.814	3.66971
816.707	3.91373
819.6	5.67606
822.492	3.41849
825.385	3.95355
828.278	2.1496
831.17	3.14558
834.063	4.04515
836.956	0.378876
839.849	3.86174
842.741	2.83339
845.634	4.71699
848.527	4.20711
851.419	3.23164
854.312	2.61145
857.205	3.14203
860.097	1.45482
862.99	1.0249
865.883	1.78603
868.776	2.49062
871.668	0.846909
874.561	3.57385
877.454	3.27739
880.346	0.129715
883.239	0.813156
886.132	3.45322
889.024	2.11401
891.917	2.18349
894.81	0.141815
897.703	0.228271
900.595	0.709351
903.488	0.673828
906.381	2.25337
909.273	0.727753
912.166	0.054916
915.059	3.1563
917.952	4.28253
920.844	2.31885
923.737	2.26385
926.63	1.82492
929.522	2.19977
932.415	1.12248
935.308	2.56509
938.2	3.58035
941.093	1.16733
943.986	1.2329
946.879	1.716
949.771	1.63347
952.664	0.526016
955.557	0.170044
958.449	2.04758
961.342	1.16965
964.235	2.49085
967.127	1.43654
970.02	4.24777
972.913	2.589
975.806	3.1866
978.698	0.014954
981.591	3.76688
984.484	1.85878
987.376	0.495148
990.269	1.15767
993.162	1.2056
996.054	3.96971
998.947	2.75523
1001.84	2.10567
1004.73	1.70949
1007.62	1.63654
1010.52	1.88677
1013.41	0.228058
1016.3	0.78981
1019.2	0.503937
1022.09	1.32333
1024.98	2.46959
1027.87	1.71477
1030.77	2.14172
1033.66	2.39842
1036.55	3.26759
1039.44	0.454941
1042.34	0.290085
1045.23	2.62279
1048.12	1.23784
1051.02	0.832916
1053.91	2.39319
1056.8	1.81605
1059.69	4.70425
1062.59	4.3065
1065.48	4.72871
1068.37	3.34964
1071.27	2.38641
1074.16	0.85257
1077.05	2.72922
1079.94	3.32614
1082.84	2.13115
1085.73	2.21581
1088.62	3.76912
1091.51	3.88293
1094.41	3.60469
1097.3	0.956787
1100.19	1.08586
1103.08	2.76045
1105.98	2.2538
1108.87	0.412399
1111.76	2.15974
1114.65	0.296509
1117.55	0.769974
1120.44	2.10564
1123.33	1.05727
1126.23	3.2395
1129.12	3.1015
1132.01	1.41444
1134.9	1.45073
1137.8	0.093536
1140.69	0.421234
1143.58	0.837585
1146.47	0.552444
1149.37	0.751999
1152.26	1.48779
1155.15	1.5313
1158.05	0.27124
1160.94	2.54187
1163.83	2.14304
1166.72	3.40874
1169.62	2.12666
1172.51	1.2485
1175.4	2.96031
1178.3	0.105576
1181.19	3.15337
1184.08	1.92853
1186.97	2.0558
1189.87	1.68517
1192.76	3.21423
1195.65	1.4715
1198.54	2.23439
1201.44	1.89865
1204.33	2.27269
1207.22	2.18442
1210.11	0.348709
1213.01	3.00056
1215.9	2.34216
1218.79	1.84662
1221.68	2.45503
1224.58	2.59876
1227.47	1.59042
1230.36	1.08089
1233.26	3.39273
1236.15	3.43221
1239.04	2.41524
1241.93	1.77089
1244.83	2.28201
1247.72	2.37495
1250.61	0.795441
1253.51	2.22624
1256.4	1.01805
1259.29	1.57315
1262.18	2.86446
1265.08	4.71411
1267.97	3.17271
1270.86	1.45143
1273.75	2.39151
1276.65	1.756
1279.54	2.14212
1282.43	0.776779
1285.32	0
