Measurement: Raman, 780 nm, unoriented, Raman Data Processed
Mineral: Greenockite
Rruff sample: R070017
Ideal chemistry: Cd^2+^S^2-^
Locality: Siglo XX Mine, Llallagua, Potosi Department, Bolivia
Source: Mark Mauthner
Description: Hexagonal tabular brick-red crystals
Raman shift (cm-1)	intensity
111.852	0
115.227	5.4469
118.602	9.09021
121.977	21.4011
125.352	28.4513
128.726	37.8502
132.101	44.0782
135.476	50.9257
138.851	54.2621
142.226	38.8831
145.601	27.2004
148.975	15.1124
152.35	0.310059
155.725	1.23438
159.1	3.42835
162.475	3.39685
165.85	6.22229
169.224	1.6355
172.599	3.30103
175.974	14.3109
179.349	31.3092
182.724	51.9558
186.098	73.1414
189.473	100.647
192.848	138.184
196.223	194.492
199.598	228.23
202.972	277.542
206.347	319.659
209.722	338.797
213.097	337.993
216.472	291.533
219.847	233.579
223.221	203.959
226.596	206.808
229.971	214.988
233.346	187.937
236.721	152.974
240.095	118.4
243.47	79.0786
246.845	51.3049
250.22	42.944
253.595	40.7506
256.969	25.2864
260.344	21.7853
263.719	24.1706
267.094	34.152
270.469	37.3064
273.844	31.1291
277.218	39.0295
280.593	41.3828
283.968	41.443
287.343	39.8303
290.718	49.0333
294.092	53.3682
297.467	62.8638
300.842	55.8102
304.217	49.7548
307.592	47.2323
310.967	48.6156
314.341	50.2981
317.716	43.5057
321.091	41.7429
324.466	50.7884
327.841	62.468
331.216	77.3453
334.59	92.348
337.965	115.138
341.34	104.12
344.715	80.9131
348.09	48.8008
351.464	26.5851
354.839	11.1768
358.214	11.219
361.589	8.55017
364.964	3.98657
368.339	4.05835
371.713	3.84766
375.088	8.70789
378.463	10.941
381.838	7.0155
385.213	3.65527
388.587	1.25159
391.962	1.92737
395.337	6.55542
398.712	8.45325
402.087	13.0509
405.462	20.9165
408.836	14.8691
412.211	18.1183
415.586	25.5989
418.961	21.8806
422.336	32.0262
425.71	35.5649
429.085	30.0005
432.46	30.8414
435.835	29.4786
439.21	23.4117
442.584	22.5515
445.959	18.8063
449.334	21.4956
452.709	17.619
456.084	16.8827
459.459	17.2451
462.833	17.0004
466.208	12.0051
469.583	13.221
472.958	13.9648
476.333	9.2439
479.707	9.77039
483.082	10.6975
486.457	6.52747
489.832	4.68359
493.207	1.03711
496.582	3.85706
499.956	2.21118
503.331	3.08081
506.706	2.66504
510.081	4.17395
513.456	2.66272
516.83	5.43555
520.205	1.44556
523.58	0.854492
526.955	1.39233
530.33	2.30884
533.705	1.5625
537.079	1.39136
540.454	5.25122
543.829	3.16223
547.204	3.89002
550.579	8.65418
553.953	10.777
557.328	12.346
560.703	18.2128
564.078	11.2871
567.453	15.5701
570.827	21.9886
574.202	15.7886
577.577	18.9034
580.952	24.8987
584.327	28.2368
587.702	32.6683
591.076	32.2277
594.451	36.361
597.826	37.1274
601.201	30.3982
604.576	21.4143
607.951	15.9579
611.325	11.8937
614.7	8.34949
618.075	8.92871
621.45	7.13757
624.825	4.79517
628.199	4.78772
631.574	3.89954
634.949	5.99023
638.324	4.67798
641.699	4.07849
645.073	3.58777
648.448	1.04981
651.823	6.57141
655.198	0.461792
658.573	0.440186
661.948	0.674438
665.322	0.918701
668.697	1.55798
672.072	1.62305
675.447	3.44287
678.822	5.84729
682.197	3.15552
685.571	1.48523
688.946	3.18897
692.321	5.94031
695.696	0.434326
699.071	5.95312
702.445	3.91248
705.82	6.96802
709.195	8.20813
712.57	4.20618
715.945	6.08582
719.319	7.01208
722.694	2.52978
726.069	5.73035
729.444	6.89441
732.819	12.4933
736.193	1.8739
739.568	6.22729
742.943	5.9635
746.318	2.96777
749.693	3.39356
753.068	2.61536
756.442	1.07629
759.817	0.231567
763.192	0.215698
766.567	3.23352
769.942	3.56958
773.317	3.37244
776.691	2.81726
780.066	0.673462
783.441	0.049194
786.816	0.860474
790.191	4.36743
793.565	9.31677
796.94	3.68958
800.315	6.66467
803.69	2.18823
807.065	7.59216
810.439	7.33106
813.814	5.23608
817.189	7.01465
820.564	10.6195
823.939	7.85266
827.314	4.54883
830.688	6.21545
834.063	3.40784
837.438	6.22888
840.813	5.23621
844.188	6.07214
847.562	3.0415
850.937	4.6593
854.312	7.05664
857.687	2.26709
861.062	4.18762
864.437	7.98498
867.811	9.39062
871.186	8.15381
874.561	7.47119
877.936	11.0002
881.311	8.63916
884.686	9.5791
888.06	4.53979
891.435	4.47436
894.81	4.17053
898.185	0.481079
901.56	4.94714
904.934	1.36096
908.309	6.48718
911.684	0.549316
915.059	1.75171
918.434	4.95837
921.808	5.10254
925.183	1.07129
928.558	0.388916
931.933	7.40088
935.308	4.37891
938.683	3.5542
942.057	2.50873
945.432	0.666748
948.807	2.63019
952.182	4.3194
955.557	5.46387
958.932	2.49609
962.306	2.42151
965.681	1.78925
969.056	2.50458
972.431	0.406494
975.806	1.64349
979.18	1.55981
982.555	9.87067
985.93	4.16626
989.305	5.77533
992.68	4.41577
996.054	4.26611
999.429	4.03522
1002.8	2.89856
1006.18	2.6571
1009.55	2.763
1012.93	4.03625
1016.3	4.76532
1019.68	3.18628
1023.05	2.76202
1026.43	0.059448
1029.8	7.90192
1033.18	4.59015
1036.55	6.50378
1039.93	4.16205
1043.3	3.00958
1046.68	0.991455
1050.05	2.05078
1053.43	3.11597
1056.8	7.87518
1060.18	7.93469
1063.55	3.28473
1066.93	6.04871
1070.3	5.05066
1073.67	4.18219
1077.05	2.12048
1080.42	1.34259
1083.8	3.04028
1087.17	4.67682
1090.55	6.93939
1093.92	10.6872
1097.3	3.25482
1100.67	3.62964
1104.05	1.77173
1107.42	3.62109
1110.8	4.85071
1114.17	0.156799
1117.55	1.59699
1120.92	1.06635
1124.3	0.271606
1127.67	3.71655
1131.05	0.019775
1134.42	3.63483
1137.8	2.29449
1141.17	5.76642
1144.55	4.44617
1147.92	7.70624
1151.3	4.45776
1154.67	5.09528
1158.05	3.89404
1161.42	2.75037
1164.8	2.81122
1168.17	5.46802
1171.55	4.87988
1174.92	7.68787
1178.3	4.97687
1181.67	7.28388
1185.04	4.47424
1188.42	4.89819
1191.79	4.8316
1195.17	4.85815
1198.54	4.24139
1201.92	6.18915
1205.29	9.33441
1208.67	2.802
1212.04	5.34412
1215.42	5.758
1218.79	4.46845
1222.17	5.55109
1225.54	9.06024
1228.92	2.96783
1232.29	2.8678
1235.67	4.23798
1239.04	0.470703
1242.42	2.15161
1245.79	1.8866
1249.17	0.172668
1252.54	4.71136
1255.91	1.88837
1259.29	1.79755
1262.66	5.25964
1266.04	4.94971
1269.41	4.8689
1272.79	1.45373
1276.16	2.42773
1279.54	0.210938
1282.91	1.4989
