Measurement: Raman, 532 nm, unoriented, Raman Data Processed
Mineral: Greenockite
Rruff sample: R070017
Ideal chemistry: Cd^2+^S^2-^
Locality: Siglo XX Mine, Llallagua, Potosi Department, Bolivia
Source: Mark Mauthner
Description: Hexagonal tabular brick-red crystals
Raman shift (cm-1)	intensity
153.167	0
156.06	1097.68
158.953	2040.26
161.845	170.482
164.738	394.997
167.631	1292.59
170.524	4727.01
173.416	8004.42
176.309	10196.6
179.202	11261.8
182.094	12620.8
184.987	15374.8
187.88	18303.3
190.773	20409.1
193.665	21594.8
196.558	22074.7
199.451	22338.4
202.343	22798.2
205.236	23316.3
208.129	23858.4
211.021	23879.9
213.914	23267.7
216.807	22179.2
219.699	20957.4
222.592	20019.2
225.485	19473.7
228.377	18818.8
231.27	17832.3
234.163	16822
237.056	15533
239.948	14290.8
242.841	13264
245.734	12477.1
248.626	11964.2
251.519	11373.2
254.412	10742.7
257.305	10090.6
260.197	9608.49
263.09	9009.13
265.983	8598.12
268.875	8380.61
271.768	8015.23
274.661	7971.39
277.553	7771.74
280.446	7788.33
283.339	7734.09
286.232	7749.81
289.124	8176.25
292.017	8900.23
294.91	9408.9
297.802	9317.12
300.695	8189.56
303.588	6862.25
306.481	5444.42
309.373	4273.75
312.266	3033.22
315.159	1953.36
318.051	1139.02
320.944	294.891
323.837	9.64844
326.729	4.26562
329.622	125.641
332.515	75.0703
335.408	405.438
338.3	567.258
341.193	403.125
344.086	101.875
346.978	504.016
349.871	669.727
352.764	541.164
355.656	209.883
358.549	248.148
361.442	313.078
364.334	153.812
367.227	9.625
370.12	272.586
373.012	412.422
375.905	367.383
378.798	362.352
381.691	394.164
384.583	639.961
387.476	796.703
390.369	927.898
393.261	1033.46
396.154	1119.55
399.047	1231.64
401.94	1328.12
404.832	1493.44
407.725	1483.11
410.618	1600.07
413.51	1652.06
416.403	1594.66
419.296	1313.68
422.188	1055.77
425.081	1106.84
427.974	1250.12
430.866	1267.19
433.759	1193.78
436.652	1102.92
439.545	1002.87
442.437	1058.06
445.33	871.898
448.223	1003.28
451.115	897.562
454.008	808.391
456.901	819.016
459.793	820.43
462.686	934.414
465.579	620.414
468.472	333.234
471.364	484.531
474.257	495.109
477.15	555.156
480.042	533.203
482.935	401.969
485.828	447.25
488.721	429.344
491.613	324.617
494.506	477.406
497.399	482.398
500.291	529.93
503.184	330.602
506.077	300.125
508.969	179.195
511.862	332.281
514.755	211.477
517.648	75.8984
520.54	76.7266
523.433	243.805
526.326	349.453
529.218	353.508
532.111	169.156
535.004	48.5859
537.896	116.273
540.789	76.9062
543.682	287.422
546.575	131.469
549.467	361.891
552.36	362.055
555.253	256.469
558.145	429.734
561.038	225.289
563.931	387.812
566.823	262.898
569.716	184.812
572.609	286.266
575.502	527.609
578.394	825.219
581.287	1252.91
584.18	1329.57
587.072	1703.7
589.965	1664.7
592.858	1707.85
595.75	1677.39
598.643	1428.02
601.536	1207.59
604.428	943.695
607.321	777.203
610.214	900.969
613.107	735.336
615.999	448.648
618.892	339.906
621.785	240.812
624.677	74.3672
627.57	145.328
630.463	56.0859
633.356	122.508
636.248	334.922
639.141	144.242
642.034	51.9531
644.926	38.3828
647.819	26.7031
650.712	45.3984
653.604	298.492
656.497	246.062
659.39	379.594
662.283	224.812
665.175	151.602
668.068	122.445
670.961	385.984
673.853	316.352
676.746	384.188
679.639	392.344
682.531	715.336
685.424	653.344
688.317	530.359
691.21	650.5
694.102	673.312
696.995	682.305
699.888	632.039
702.78	238.797
705.673	263.039
708.566	461.773
711.458	562.102
714.351	394.367
717.244	97.3672
720.136	78.1719
723.029	87.375
725.922	429.594
728.815	692.125
731.707	542.117
734.6	499.773
737.493	183.734
740.385	299.727
743.278	142.898
746.171	123.898
749.063	229.844
751.956	603.516
754.849	677.703
757.742	732.68
760.634	528.156
763.527	420.617
766.42	432.602
769.312	437.68
772.205	417.609
775.098	458.859
777.99	295.297
780.883	515.172
783.776	326.055
786.669	338.148
789.561	170.289
792.454	441.742
795.347	350.797
798.239	188.422
801.132	4.42969
804.025	16.8359
806.918	219.75
809.81	451.227
812.703	160.047
815.596	679.195
818.488	637.016
821.381	881.719
824.274	402.969
827.166	243.328
830.059	286.312
832.952	331.469
835.845	367.609
838.737	78.2812
841.63	220.453
844.523	315.984
847.415	196.203
850.308	25.1875
853.201	372.125
856.093	396.328
858.986	516.859
861.879	589.25
864.771	343.969
867.664	30.8281
870.557	283.844
873.45	512.828
876.342	580.766
879.235	165.812
882.128	187.656
885.02	523.594
887.913	740.094
890.806	689.031
893.698	492.891
896.591	305.766
899.484	292.531
902.377	289.938
905.269	565.266
908.162	628
911.055	694.266
913.947	707.484
916.84	919.625
919.733	691.219
922.625	539.203
925.518	739.531
928.411	667.766
931.304	321.844
934.196	171.609
937.089	84.5312
939.982	248.797
942.875	422.562
945.767	756.125
948.66	513.297
951.553	446.609
954.445	571.578
957.338	216.859
960.231	107.328
963.123	260.219
966.016	695.109
968.909	769.438
971.802	193.703
974.694	86.5156
977.587	459.453
980.48	519.734
983.372	386.953
986.265	155.359
989.158	396.203
992.05	649.547
994.943	614.375
997.836	231.031
1000.73	244.016
1003.62	8.20312
1006.51	328.531
1009.41	373.141
1012.3	109.531
1015.19	50.8594
1018.09	39.8438
1020.98	650.422
1023.87	603.844
1026.76	321.859
1029.66	437.5
1032.55	628.625
1035.44	1207.69
1038.33	752.469
1041.23	409.797
1044.12	463.562
1047.01	480.047
1049.9	721.344
1052.8	938.031
1055.69	835.547
1058.58	1128.06
1061.47	727.906
1064.37	954.031
1067.26	761.734
1070.15	832.406
1073.05	373.094
1075.94	240.969
1078.83	113.531
1081.72	109.188
1084.62	186.156
1087.51	282.578
1090.4	20.1719
1093.3	170.781
1096.19	284.406
1099.08	540.906
1101.97	842.969
1104.87	243.594
1107.76	237.156
1110.65	557.156
1113.54	705
1116.44	721.062
1119.33	731.609
1122.22	882.359
1125.12	588.5
1128.01	611.453
1130.9	113.047
1133.79	78.8906
1136.68	803.156
1139.58	1075.59
1142.47	759.375
1145.36	508.547
1148.26	599.797
1151.15	653.156
1154.04	752.281
1156.93	430.703
1159.83	131.359
1162.72	433
1165.61	671.828
1168.51	610.984
1171.4	381.906
1174.29	426.438
1177.18	792.5
1180.08	874.078
1182.97	1062.14
1185.86	1589.52
1188.75	1429.42
1191.65	992.5
1194.54	1001.44
1197.43	1061.45
1200.33	974.734
1203.22	731.453
1206.11	1858.98
1209	2029.05
1211.9	2107.75
1214.79	1725.88
1217.68	970.281
1220.57	689.203
1223.47	901.578
1226.36	1277.38
1229.25	774.281
1232.14	678.281
1235.04	149.016
1237.93	12.1406
1240.82	187.219
1243.71	645.734
1246.61	719.781
1249.5	337.812
1252.39	924.812
1255.29	1064.94
1258.18	1247.56
1261.07	1176.28
1263.96	1351.69
1266.86	1042.16
1269.75	1407
1272.64	639.312
1275.54	1358.56
1278.43	826
1281.32	112.844
1284.21	221.812
1287.11	465.375
1290	430.906
1292.89	141.906
1295.78	691.562
1298.68	895.469
1301.57	397.938
