Measurement: Raman, 532 nm, unoriented, Raman Data Processed
Mineral: Griphite
Rruff sample: R050618
Ideal chemistry: Ca(Mn^2+^,Na,Li)_6_Fe^2+^Al_2_(PO_4_)_6_(F,OH)_2_
Locality: Pennington County, South Dakota, USA
Source: University of Arizona Mineral Museum
Description: Dark brown massive
Measured chemistry: Ca_1.00_(Mn^2+^_3.76_Na_1.87_Ca_0.24_Li_0.13_)_Σ=6_(Fe^2+^_0.74_Mn^2+^_0.25_Mg_0.01_)_Σ=1_(Al_1.82_Fe^3+^_0.18_)_Σ=2_(P_1.00_O_4_)_6_F_2.00_ ; Li not measured but estimated by difference and charge balance.
Raman shift (cm-1)	intensity
169.466	0
172.359	22.7139
175.252	36.9551
178.144	150.509
181.037	10.3711
183.93	68.792
186.822	125.602
189.715	53.6377
192.608	154.728
195.5	122.083
198.393	186.571
201.286	110.851
204.179	182.905
207.071	171.935
209.964	147.147
212.857	132.332
215.749	147.19
218.642	183.26
221.535	188.86
224.428	171.998
227.32	159.809
230.213	95.1611
233.106	139.154
235.998	109.548
238.891	161.487
241.784	168.017
244.676	130.471
247.569	86.9717
250.462	58.1318
253.355	117.329
256.247	121.639
259.14	161.86
262.033	109.409
264.925	200.775
267.818	108.566
270.711	149.13
273.603	12.9023
276.496	63.2295
279.389	47.5938
282.281	113.242
285.174	31.249
288.067	42.4385
290.959	89.834
293.852	74.8838
296.745	78.0449
299.638	87.1748
302.53	44.9932
305.423	34.585
308.316	9.34277
311.208	81.8144
314.101	51.4023
316.994	60.9033
319.887	85.3262
322.779	124.966
325.672	105.379
328.565	35.7393
331.457	91.5684
334.35	39.8037
337.243	23.4766
340.135	89.9766
343.028	30.9922
345.921	100.134
348.813	88.1494
351.706	58.0645
354.599	115.161
357.492	169.964
360.384	11.1875
363.277	52.0879
366.17	18.3936
369.062	10.1904
371.955	115.743
374.848	13.2812
377.74	37.9082
380.633	26.1777
383.526	41.2383
386.418	32.1094
389.311	76.293
392.204	62.1309
395.097	118.023
397.989	116.579
400.882	51.0107
403.775	160.348
406.667	204.682
409.56	219.904
412.453	264.648
415.346	265.913
418.238	296.357
421.131	267.493
424.024	334.636
426.916	372.041
429.809	297.738
432.702	145.395
435.594	205.044
438.487	166.534
441.38	130.57
444.272	92.5332
447.165	161.432
450.058	116.885
452.951	53.9307
455.843	85.8818
458.736	87.1357
461.629	87.3525
464.521	53.0088
467.414	106.656
470.307	95.4033
473.2	92.6611
476.092	95.0762
478.985	175.442
481.878	193.15
484.77	170.185
487.663	243.144
490.556	267.816
493.448	227.964
496.341	191.535
499.234	125.597
502.127	229.956
505.019	139.697
507.912	114.791
510.805	143.357
513.697	16.7051
516.59	154.692
519.483	7.5
522.375	91.4971
525.268	19.5244
528.161	5.12109
531.053	54.873
533.946	63.8379
536.839	20.5498
539.731	60.8125
542.624	52.7637
545.517	63.1465
548.41	98.1064
551.302	210.784
554.195	250.294
557.088	270.154
559.98	382.18
562.873	330.527
565.766	290.106
568.659	294.813
571.551	277.501
574.444	359.488
577.337	329.628
580.229	375.458
583.122	466.156
586.015	408.21
588.907	437.81
591.8	397.75
594.693	336.957
597.585	390.402
600.478	283.907
603.371	306.722
606.264	239.459
609.156	249.276
612.049	211.369
614.942	266.158
617.834	249.248
620.727	314.597
623.62	354.01
626.513	324.162
629.405	425.478
632.298	352.931
635.191	316.956
638.083	334.206
640.976	252.583
643.869	220.171
646.761	188.926
649.654	142.413
652.547	235.357
655.439	223.94
658.332	141.237
661.225	133.709
664.117	46.4443
667.01	58.4307
669.903	81.4629
672.796	68.4102
675.688	21.2676
678.581	47.5361
681.474	75.6826
684.366	54.4395
687.259	28.9863
690.152	28.0391
693.044	64.2129
695.937	83.5606
698.83	5.94629
701.723	14.6621
704.615	32.373
707.508	36.8281
710.401	28.9561
713.293	38.5977
716.186	70.9951
719.079	47.708
721.971	41.1445
724.864	94.7666
727.757	64.8838
730.649	50.5127
733.542	117.933
736.435	57.6484
739.328	72.4814
742.22	122.45
745.113	50.1816
748.006	160.977
750.898	73.1787
753.791	34.9023
756.684	138.094
759.577	98.7754
762.469	142.959
765.362	73.4121
768.255	66.0312
771.147	129.481
774.04	86.5869
776.933	117.758
779.825	58.9668
782.718	62.5625
785.611	89.1738
788.504	107.82
791.396	65.0537
794.289	27.6992
797.182	123.905
800.074	83.5225
802.967	134.556
805.86	163.411
808.752	131.106
811.645	89.9287
814.538	81.8672
817.431	87.4482
820.323	171.807
823.216	20.71
826.109	35.3828
829.001	92.1201
831.894	2.12305
834.787	97.7285
837.679	56.3438
840.572	133.631
843.465	164.051
846.357	153.533
849.25	134.051
852.143	103.381
855.036	118.731
857.928	55.3809
860.821	20.6094
863.714	113.033
866.606	139.853
869.499	96.7773
872.392	109.244
875.284	126.014
878.177	19.5742
881.07	121.004
883.962	47.1562
886.855	102.834
889.748	11.0781
892.641	0.083984
895.533	83.1484
898.426	24.8574
901.319	12.9316
904.211	1.39844
907.104	9.85742
909.997	25.0547
912.889	36.0488
915.782	32.668
918.675	32.1836
921.568	90.6777
924.46	40.0117
927.353	81.25
930.246	75.7812
933.138	115.002
936.031	107.639
938.924	266.119
941.817	218.301
944.709	322.822
947.602	484.365
950.495	448.117
953.387	492.75
956.28	620.432
959.173	672.818
962.065	798.266
964.958	884.486
967.851	1067.62
970.744	1162.76
973.636	1313.19
976.529	1501.93
979.422	1658.94
982.314	1802.9
985.207	1831.82
988.1	1750.71
990.992	1605.59
993.885	1398.16
996.778	1398.95
999.67	1084.24
1002.56	999.838
1005.46	776.033
1008.35	657.252
1011.24	577.256
1014.13	441.072
1017.03	498.119
1019.92	260.742
1022.81	307.871
1025.7	250.393
1028.6	180.894
1031.49	165.959
1034.38	24.1113
1037.28	131.945
1040.17	158.762
1043.06	48.0391
1045.95	110.971
1048.85	58.1133
1051.74	3.48828
1054.63	15.9219
1057.52	5.21094
1060.42	68.793
1063.31	27.2129
1066.2	3.9082
1069.1	22.7344
1071.99	115.369
1074.88	4.85742
1077.77	4.87891
1080.67	47.7207
1083.56	105.377
1086.45	78.4356
1089.34	10.6582
1092.24	2.20312
1095.13	71.8731
1098.02	156.406
1100.91	40.1152
1103.81	124.191
1106.7	78.4414
1109.59	31.6699
1112.49	66.1934
1115.38	3.57227
1118.27	121.994
1121.16	51.0957
1124.06	99.2578
1126.95	99.9316
1129.84	29.3359
1132.73	66.5879
1135.63	19.793
1138.52	87.084
1141.41	131.785
1144.31	159.578
1147.2	122.789
1150.09	143.211
1152.98	48.041
1155.88	25.6348
1158.77	115.809
1161.66	177.592
1164.55	74.0156
1167.45	119.606
1170.34	167.397
1173.23	183.283
1176.12	216.703
1179.02	160.518
1181.91	184.531
1184.8	149.279
1187.7	117.035
1190.59	118.576
1193.48	186.984
1196.37	238.898
1199.27	162.117
1202.16	117.824
1205.05	0.894531
1207.94	151.885
1210.84	97.2285
1213.73	125.471
1216.62	166.721
1219.52	75.4004
1222.41	43.4863
1225.3	103.789
1228.19	38.834
1231.09	67.7773
1233.98	16.957
1236.87	64.9766
1239.76	176.82
1242.66	120.555
1245.55	136.416
1248.44	180.523
1251.34	99.4121
1254.23	217.393
1257.12	93.5664
1260.01	162.014
1262.91	29.6758
1265.8	87.0723
1268.69	125.301
1271.58	191.863
1274.48	81.9668
1277.37	265.627
1280.26	140.822
1283.15	188.07
1286.05	19.2129
1288.94	251.644
1291.83	108.844
1294.73	144.435
