Measurement: Raman, 532 nm, unoriented, Raman Data Processed
Mineral: Grossular
Rruff sample: R060446
Ideal chemistry: Ca_3_Al_2_(SiO_4_)_3_
Locality: Africa
Source: Gemological Institute of America
Description: Orange fragment. Variety hibschite.
Measured chemistry: (Ca_2.97_Mn_0.03_)_Σ=3_(Al_1.96_Fe^3+^_0.04_)_Σ=2_(Si_1.00_O_4_)_2.71_(OH)_1.16_ (x=0.29); OH estimated by charge balance
Raman shift (cm-1)	intensity
138.656	0
142.03	3.25502
145.405	9.3024
148.78	11.0191
152.155	8.42531
155.53	9.52943
158.905	6.47553
162.279	7.93005
165.654	7.40997
169.029	11.3454
172.404	10.7977
175.779	11.5042
179.153	12.9415
182.528	10.607
185.903	3.96031
189.278	2.18353
192.653	0.666367
196.028	0.407104
199.402	1.1542
202.777	0.239365
206.152	0.683792
209.527	0.31868
212.902	0.577408
216.276	2.73994
219.651	3.91505
223.026	3.41013
226.401	4.70254
229.776	5.26271
233.15	6.23859
236.525	6.47148
239.9	8.16959
243.275	10.2146
246.65	10.092
250.025	5.69025
253.399	2.73497
256.774	1.51973
260.149	2.44565
263.524	3.22401
266.899	4.16753
270.273	5.2421
273.648	7.45866
277.023	9.50302
280.398	8.12567
283.773	5.19855
287.147	1.75053
290.522	1.0515
293.897	0.150116
297.272	1.02072
300.647	1.00217
304.022	0.406311
307.396	1.51807
310.771	2.76869
314.146	3.06172
317.521	3.53857
320.896	3.46208
324.271	5.32486
327.645	8.65546
331.02	11.2834
334.395	12.1779
337.77	18.0319
341.145	22.5919
344.519	28.0149
347.894	34.1542
351.269	43.7354
354.644	52.8026
358.019	64.4648
361.394	76.7133
364.768	86.2878
368.143	92.2469
371.518	87.0741
374.893	69.2382
378.267	47.1965
381.642	33.4658
385.017	27.6522
388.392	23.2275
391.767	22.6777
395.142	22.3139
398.516	20.7611
401.891	21.3282
405.266	22.2029
408.641	19.8192
412.016	16.6779
415.39	14.2396
418.765	7.82379
422.14	5.93951
425.515	3.74124
428.89	0.681152
432.265	2.08957
435.639	1.13837
439.014	1.39654
442.389	0.413971
445.764	0.244934
449.139	1.56873
452.514	2.14539
455.888	0.6474
459.263	0.229675
462.638	0.059448
466.013	1.12415
469.388	0.636261
472.762	1.89002
476.137	2.71921
479.512	3.02283
482.887	2.54895
486.262	2.84579
489.637	1.60211
493.011	1.23972
496.386	3.10962
499.761	6.37592
503.136	6.29407
506.511	8.50424
509.885	12.2669
513.26	12.9716
516.635	13.0016
520.01	14.8574
523.385	17.864
526.76	22.7109
530.134	23.6281
533.509	26.6749
536.884	28.7159
540.259	29.724
543.634	27.1895
547.008	22.4727
550.383	14.7423
553.758	8.65039
557.133	4.31473
560.508	2.70836
563.882	1.87204
567.257	0.870577
570.632	1.1164
574.007	1.09958
577.382	2.16809
580.756	0.964142
584.131	1.33908
587.506	1.16672
590.881	1.69681
594.256	2.81726
597.631	0.979248
601.005	0.826782
604.38	1.08777
607.755	1.53714
611.13	1.8421
614.505	2.98544
617.88	5.57352
621.254	5.76056
624.629	6.96112
628.004	7.73978
631.379	7.54211
634.754	5.90408
638.128	4.80893
641.503	4.89841
644.878	2.79547
648.253	1.13769
651.628	5.17902
655.002	0.743958
658.377	1.91531
661.752	3.26172
665.127	0.87677
668.502	0.944519
671.876	1.1637
675.251	0.352051
678.626	0.639038
682.001	2.39691
685.376	3.24365
688.751	3.33325
692.125	2.47192
695.5	1.51691
698.875	2.92938
702.25	6.55652
705.625	5.04096
709	6.70776
712.374	3.9032
715.749	3.1463
719.124	4.80878
722.499	3.64709
725.874	4.16604
729.248	4.59917
732.623	6.30902
735.998	2.7146
739.373	4.28821
742.748	2.87231
746.122	2.81146
749.497	1.82135
752.872	2.26331
756.247	0.958801
759.622	2.48035
762.997	0.713562
766.371	0.744446
769.746	0.600342
773.121	1.12537
776.496	0.337158
779.871	1.10321
783.245	0.049622
786.62	0.847351
789.995	0.597412
793.37	2.61853
796.745	6.90723
800.12	8.67926
803.494	13.007
806.869	20.5056
810.244	29.7558
813.619	37.5565
816.994	44.1242
820.368	47.1552
823.743	45.8094
827.118	41.1461
830.493	31.933
833.868	27.5128
837.242	30.8438
840.617	32.1801
843.992	37.3889
847.367	40.1841
850.742	43.306
854.117	56.4697
857.491	69.7708
860.866	81.9977
864.241	103.104
867.616	131.397
870.991	155.438
874.365	164.657
877.74	153.289
881.115	120.174
884.49	82.9975
887.865	57.3675
891.24	38.7113
894.614	29.314
897.989	20.7908
901.364	19.6084
904.739	13.5048
908.114	7.38092
911.489	6.12054
914.863	5.05408
918.238	5.45843
921.613	4.27179
924.988	1.9978
928.362	0.788147
931.737	0.041992
935.112	0.134399
938.487	1.38715
941.862	0.91272
945.237	2.6532
948.611	2.14246
951.986	3.88739
955.361	1.75391
958.736	0.042358
962.111	0.306702
965.486	6.54712
968.86	5.40753
972.235	5.5993
975.61	9.34692
978.985	16.2281
982.36	17.389
985.734	17.3358
989.109	17.8466
992.484	18.7717
995.859	19.3724
999.234	17.9624
1002.61	17.0619
1005.98	16.7602
1009.36	11.5886
1012.73	7.43506
1016.11	2.14722
1019.48	5.87378
1022.86	3.19629
1026.23	1.32959
1029.61	4.06372
1032.98	2.0343
1036.36	4.02625
1039.73	4.30164
1043.11	2.85486
1046.48	3.97913
1049.86	3.9364
1053.23	1.85974
1056.61	1.40686
1059.98	3.17749
1063.36	6.0647
1066.73	3.97559
1070.11	4.69165
1073.48	3.72937
1076.85	2.04883
1080.23	2.85596
1083.6	2.31042
1086.98	6.30335
1090.35	4.44739
1093.73	4.91675
1097.1	0.453369
1100.48	1.82471
1103.85	3.1294
1107.23	7.39221
1110.6	6.64819
1113.98	3.96094
1117.35	1.14429
1120.73	1.60315
1124.1	1.80115
1127.48	5.62878
1130.85	6.45764
1134.23	3.58545
1137.6	3.83728
1140.98	1.2948
1144.35	0.488525
1147.73	0.949829
1151.1	5.92859
1154.47	6.00647
1157.85	3.56189
1161.22	3.11279
1164.6	6.76111
1167.97	4.65894
1171.35	5.95154
1174.72	3.68774
1178.1	3.41016
1181.47	5.53552
1184.85	3.53198
1188.22	4.1958
1191.6	3.94861
1194.97	3.72376
1198.35	6.50732
1201.72	3.37085
1205.1	4.87646
1208.47	0.231323
1211.85	0.557373
1215.22	8.03296
1218.6	6.59204
1221.97	7.47388
1225.35	2.36829
1228.72	3.20544
1232.1	3.51709
1235.47	2.25195
1238.85	1.8324
1242.22	2.37134
1245.6	9.6831
1248.97	9.36658
1252.35	3.29773
1255.72	1.35498
1259.09	9.02185
1262.47	4.19678
1265.84	6.02686
1269.22	7.3241
1272.59	8.20837
1275.97	2.61743
1279.34	8.26025
1282.72	6.40832
1286.09	5.21704
1289.47	2.7345
1292.84	0.158691
1296.22	4.70496
1299.59	8.38501
1302.97	0.015503
