Measurement: Raman, 532 nm, unoriented, Raman Data Processed
Mineral: Grossular
Rruff sample: R060453
Ideal chemistry: Ca_3_Al_2_(SiO_4_)_3_
Locality: unknown
Source: Gemological Institute of America
Description: Green colored fragment
Measured chemistry: (Ca_2.91_Mg_0.05_Mn_0.04_)_Σ=3_(Al_1.96_Ti_0.02_[box]_0.02_)_Σ=2_(Si_1.00_O_4_)_3_; trace amounts of Fe and Cr
Raman shift (cm-1)	intensity
173.286	0
176.178	418.07
179.071	1121.16
181.964	2294.09
184.856	460.593
187.749	63.6616
190.642	129.308
193.535	223.065
196.427	566.65
199.32	721.449
202.213	957.17
205.105	831.929
207.998	541.997
210.891	532.115
213.783	108.547
216.676	4.20947
219.569	17.8181
222.462	41.121
225.354	99.184
228.247	30.041
231.14	168.268
234.032	347.438
236.925	851.691
239.818	1088.1
242.71	1191.39
245.603	1839.64
248.496	2550.38
251.388	1708.35
254.281	1540.1
257.174	1460.03
260.067	1405.75
262.959	610.489
265.852	449.127
268.745	160.783
271.637	498.94
274.53	920.986
277.423	1730.77
280.315	1754.19
283.208	263.329
286.101	43.8223
288.994	30.8353
291.886	45.119
294.779	42.9812
297.672	22.459
300.564	15.0016
303.457	178.006
306.35	194.738
309.243	211.916
312.135	143.335
315.028	66.9867
317.921	58.6608
320.813	113.47
323.706	173.789
326.599	203.874
329.491	339.67
332.384	23.594
335.277	89.9875
338.17	32.5953
341.062	73.4597
343.955	412.33
346.848	401.747
349.74	700.059
352.633	849.218
355.526	1477.47
358.418	2023.38
361.311	3654.9
364.204	6137.56
367.097	9869.97
369.989	12446.6
372.882	12716.5
375.775	12928.2
378.667	7829.48
381.56	3474.92
384.453	1581.87
387.346	695.604
390.238	476.311
393.131	479.327
396.024	276.793
398.916	255.34
401.809	206.586
404.702	446.823
407.594	722.512
410.487	1412.42
413.38	2506.38
416.272	3649.31
419.165	2859.05
422.058	1261.79
424.951	859.901
427.843	435.397
430.736	165.232
433.629	44.5189
436.521	204.826
439.414	34.9504
442.307	49.7522
445.2	105.976
448.092	95.855
450.985	67.5686
453.878	13.3656
456.77	15.4096
459.663	108.202
462.556	26.7338
465.448	87.5602
468.341	42.9249
471.234	168.556
474.127	434.769
477.019	422.613
479.912	541.507
482.805	468.356
485.697	270.104
488.59	117.22
491.483	161.351
494.375	484.114
497.268	774.312
500.161	721.802
503.053	1046.54
505.946	1462.65
508.839	1612.68
511.732	1502.19
514.624	981.879
517.517	912.811
520.41	847.517
523.302	892.596
526.195	1074.18
529.088	1161.55
531.981	459.028
534.873	497.853
537.766	577.076
540.659	1001.12
543.551	1422.09
546.444	2672.11
549.337	3673.15
552.229	2339.1
555.122	913.911
558.015	168.691
560.908	8.15548
563.8	214.64
566.693	82.856
569.586	32.1023
572.478	222.079
575.371	22.9784
578.264	10.8327
581.156	33.5235
584.049	30.2429
586.942	177.867
589.835	289.742
592.727	157.626
595.62	65.5667
598.513	28.6006
601.405	161.379
604.298	59.0853
607.191	46.8536
610.083	21.9476
612.976	285.361
615.869	334.777
618.762	333.051
621.654	842.092
624.547	890.851
627.44	1418.55
630.332	1483.77
633.225	1334.05
636.118	1013.63
639.01	729.942
641.903	639.356
644.796	393.902
647.689	536.701
650.581	235.68
653.474	527.952
656.367	129.66
659.259	9.80471
662.152	276.123
665.045	52.0475
667.938	0.990944
670.83	66.3638
673.723	136.474
676.616	0.373413
679.508	161.531
682.401	228.176
685.294	204.878
688.186	139.187
691.079	437.261
693.972	562.126
696.865	537.125
699.757	288.201
702.65	1074.37
705.543	1280.72
708.435	894.115
711.328	909.394
714.221	800.178
717.113	653.289
720.006	351.191
722.899	424.918
725.792	289.122
728.684	416.393
731.577	167.716
734.47	16.9178
737.362	66.6782
740.255	137.597
743.148	472.24
746.04	92.075
748.933	156.664
751.826	53.2145
754.719	271.307
757.611	332.504
760.504	226.909
763.397	526.708
766.289	68.3741
769.182	312.139
772.075	371.515
774.967	104.288
777.86	33.6469
780.753	301.065
783.646	215.64
786.538	94.2021
789.431	104.798
792.324	35.6557
795.216	92.7937
798.109	272.926
801.002	46.2496
803.894	41.5687
806.787	649.806
809.68	982.814
812.573	1757.7
815.465	2559.27
818.358	3377.28
821.251	4573.22
824.143	5190.25
827.036	4813.59
829.929	3495.29
832.822	2417.06
835.714	1473.51
838.607	1512.63
841.5	1004.13
844.392	1008.86
847.285	1357.9
850.178	1203.77
853.07	1136.1
855.963	892.984
858.856	1201.37
861.749	1489.32
864.641	2233.79
867.534	3708.54
870.427	4837.2
873.319	8465.62
876.212	12410.7
879.105	16061.5
881.997	15598.9
884.89	11799.9
887.783	6999.42
890.676	4299.14
893.568	2049.12
896.461	927.097
899.354	733.671
902.246	295.213
905.139	31.5318
908.032	47.3784
910.924	23.1744
913.817	112.821
916.71	89.7373
919.602	218.956
922.495	161.66
925.388	221.364
928.281	49.1662
931.173	322.459
934.066	143.729
936.959	25.0211
939.851	187.97
942.744	233.665
945.637	265.889
948.529	332.345
951.422	150.146
954.315	247.677
957.208	539.337
960.1	208.56
962.993	38.6813
965.886	189.202
968.778	45.7201
971.671	258.39
974.564	159.489
977.457	452.094
980.349	440.066
983.242	89.6512
986.135	142.584
989.027	592.696
991.92	459.599
994.813	893.096
997.705	597.062
1000.6	1174.81
1003.49	678.099
1006.38	1524.35
1009.28	1639.99
1012.17	1073.91
1015.06	851.635
1017.95	372.697
1020.85	144.851
1023.74	528.577
1026.63	88.1709
1029.53	105.428
1032.42	533.989
1035.31	718.264
1038.2	383.124
1041.1	167.355
1043.99	460.588
1046.88	131.467
1049.77	76.3993
1052.67	64.0912
1055.56	622.699
1058.45	213.608
1061.35	576.977
1064.24	522.816
1067.13	844.342
1070.02	77.3514
1072.92	382.756
1075.81	173.909
1078.7	987.586
1081.59	340.91
1084.49	283.499
1087.38	427.108
1090.27	219.547
1093.16	404.25
1096.06	16.7368
1098.95	113.349
1101.84	425.146
1104.73	13.5989
1107.63	558.662
1110.52	165.212
1113.41	77.5627
1116.31	313.517
1119.2	251.615
1122.09	291.47
1124.98	632.745
1127.88	11.5907
1130.77	62.0027
1133.66	419.333
1136.56	857.797
1139.45	344.629
1142.34	790.679
1145.23	1327.4
1148.13	541.938
1151.02	1261.82
1153.91	244.416
1156.8	1139.75
1159.7	964.752
1162.59	616.535
1165.48	546.097
1168.38	1265.93
1171.27	254.099
1174.16	620.162
1177.05	429.388
1179.95	675.009
1182.84	799.02
1185.73	840.447
1188.62	625.446
1191.52	639.797
1194.41	1493.93
1197.3	776.425
1200.19	771.681
1203.09	506.355
1205.98	62.1052
1208.87	632.565
1211.77	368.972
1214.66	17.3524
1217.55	102.334
1220.44	201.879
1223.34	622.03
1226.23	169.31
1229.12	867.672
1232.01	40.3313
1234.91	787.13
1237.8	951.174
1240.69	212.069
1243.59	624.002
1246.48	1535.63
1249.37	938.383
1252.26	997.76
1255.16	1284.41
1258.05	792.688
1260.94	2022.95
1263.83	1330.08
1266.73	782.723
1269.62	520.065
1272.51	1816.56
1275.4	1539.03
1278.3	1434.59
1281.19	751.203
1284.08	1677.11
1286.98	264.655
1289.87	61.3504
1292.76	261.715
1295.65	463.908
1298.55	763.127
1301.44	1315.07
1304.33	42.722
1307.22	727.775
1310.12	601.107
1313.01	289.581
