Measurement: Raman, 785 nm, unoriented, Raman Data Processed
Mineral: Grunerite
Rruff sample: R040150
Ideal chemistry: [box]Fe^2+^_2_Fe^2+^_5_Si_8_O_22_(OH)_2_
Locality: Smallwood mine, Heath Lake, Newfoundland, Canada
Source: University of Arizona Mineral Museum
Description: Brown bladed crystals in parallel aggregate
Measured chemistry: (Fe_0.69_Mg_0.27_Ca_0.02_Mn_0.02_)_7_Si_8.02_O_22_((OH)_0.98_Cl_0.02_)_2_
Raman shift (cm-1)	intensity
179.356	0
182.248	322.78
185.141	535.258
188.034	394.872
190.926	141.328
193.819	90.0752
196.712	40.3467
199.604	183.795
202.497	124.914
205.39	24.6719
208.282	57.376
211.175	1.37598
214.068	50.9619
216.961	21.9531
219.853	137.215
222.746	169.815
225.639	188.9
228.531	96.167
231.424	87.5732
234.317	67.6807
237.209	137.185
240.102	156.96
242.995	104.428
245.888	127.707
248.78	49.9648
251.673	46.0352
254.566	110.452
257.458	61.1943
260.351	81.1992
263.244	101.38
266.137	16.0254
269.029	74.9912
271.922	27.8076
274.815	58.4463
277.707	25.001
280.6	88.0254
283.493	182.574
286.385	147.485
289.278	165.09
292.171	116.1
295.063	99.4863
297.956	7.87109
300.849	102.199
303.742	145.721
306.634	119.296
309.527	135.073
312.42	151.443
315.312	34.6914
318.205	69.9131
321.098	28.7158
323.99	19.8515
326.883	44.2598
329.776	20.3271
332.669	58.8076
335.561	116.189
338.454	90.6572
341.347	212.84
344.239	218.048
347.132	349.696
350.025	430.267
352.918	411.807
355.81	411.354
358.703	270.279
361.596	213.083
364.488	112.028
367.381	109.231
370.274	85.1738
373.166	122.193
376.059	76.8682
378.952	30.126
381.844	103.202
384.737	91.1621
387.63	159.226
390.523	176.885
393.415	208.382
396.308	304.133
399.201	408.927
402.093	357.562
404.986	343.798
407.879	273.34
410.772	281.874
413.664	274.587
416.557	320.432
419.45	259.994
422.342	265.077
425.235	252.689
428.128	205.94
431.02	94.4228
433.913	71.0059
436.806	36.5195
439.699	34.2578
442.591	7.66992
445.484	36.544
448.377	49.1377
451.269	17.3047
454.162	10.5039
457.055	32.041
459.947	23.6338
462.84	2.50684
465.733	89.2236
468.625	110.409
471.518	31.4238
474.411	77.4082
477.304	33.5762
480.196	28.5654
483.089	27.251
485.982	3.82812
488.874	153.567
491.767	188.318
494.66	221.335
497.553	240.754
500.445	225.19
503.338	245.55
506.231	259.525
509.123	363.212
512.016	345.324
514.909	353.576
517.802	362.098
520.694	416.977
523.587	485.348
526.48	568.954
529.372	608.301
532.265	535.482
535.158	441.541
538.05	310.447
540.943	179.486
543.836	194.15
546.729	179.499
549.621	139.736
552.514	33.5107
555.407	154.483
558.299	123.892
561.192	163.381
564.085	93.9414
566.977	122.709
569.87	19.6064
572.763	36.4287
575.655	90.4248
578.548	18.4297
581.441	83.4522
584.333	30.6934
587.226	52.3506
590.119	47.9092
593.012	11.1377
595.904	13.0098
598.797	27.2148
601.69	51.2617
604.582	103.831
607.475	63.2012
610.368	57.0967
613.26	15.4609
616.153	13.2363
619.046	58.5293
621.939	73.5371
624.831	63.669
627.724	77.0635
630.617	165.315
633.509	206.767
636.402	210.085
639.295	313.202
642.188	366.353
645.08	438.256
647.973	662.465
650.866	930.551
653.758	1304.68
656.651	1744.88
659.544	2055.86
662.436	2003.92
665.329	1579.43
668.222	1028.53
671.115	555.551
674.007	366.628
676.9	269.228
679.793	268.717
682.685	158.389
685.578	180.865
688.471	124.245
691.363	102.537
694.256	156.392
697.149	91.6689
700.042	90.0273
702.934	78.042
705.827	102.633
708.72	20.8594
711.612	22.083
714.505	4.29004
717.398	19.8057
720.29	72.4482
723.183	58.3379
726.076	12.8213
728.968	84.874
731.861	-3.39998
734.754	49.9463
737.647	88.1289
740.539	41.8115
743.432	66.0469
746.325	48.5234
749.217	62.249
752.11	78.5938
755.003	53.8486
757.895	33.917
760.788	46.0801
763.681	119.265
766.574	29.6475
769.466	70.9033
772.359	141.476
775.252	69.3799
778.144	25.6514
781.037	36.3018
783.93	23.8887
786.822	94.2705
789.715	95.5854
792.608	44.269
795.501	66.9048
798.393	33.0102
801.286	39.7749
804.179	57.3994
807.071	26.7085
809.964	36.3081
812.857	88.3306
815.75	16.3384
818.642	24.2383
821.535	67.5269
824.428	35.3657
827.32	129.058
830.213	47.1582
833.106	54.8945
835.998	28.7422
838.891	81.3032
841.784	66.3545
844.677	46.6812
847.569	53.002
850.462	99.8677
853.355	26.5542
856.247	30.3213
859.14	109.848
862.033	48.5234
864.925	41.1035
867.818	48.9204
870.711	20.1899
873.604	3.14551
876.496	28.7075
879.389	34.665
882.282	57.8784
885.174	79.4844
888.067	53.8023
890.96	23.4678
893.852	3.53027
896.745	5.89356
899.638	63.4341
902.53	45.5386
905.423	101.802
908.316	32.3237
911.209	55.334
914.101	67.6846
916.994	54.6392
919.887	34.978
922.779	41.956
925.672	50.7324
928.565	33.001
931.457	50.4751
934.35	54.5054
937.243	27.7441
940.136	26.3975
943.028	27.9121
945.921	3.97607
948.814	29.5454
951.706	8.28809
954.599	62.3477
957.492	128.975
960.385	78.2085
963.277	120.581
966.17	65.1611
969.063	122.542
971.955	78.4185
974.848	82.6719
977.741	47.8989
980.633	40.4409
983.526	94.689
986.419	62.0791
989.312	2.29541
992.204	32.2383
995.097	94.4858
997.99	86.167
1000.88	56.4551
1003.77	70.1162
1006.67	126.614
1009.56	89.5815
1012.45	179.152
1015.35	209.701
1018.24	310.428
1021.13	275.089
1024.02	289.894
1026.92	260.875
1029.81	211.83
1032.7	110.078
1035.6	125.448
1038.49	57.5898
1041.38	43.4238
1044.27	55.918
1047.17	31.7993
1050.06	55.8057
1052.95	26.5195
1055.84	30.2017
1058.74	51.7402
1061.63	39.2559
1064.52	45.9722
1067.41	8.57178
1070.31	26.9155
1073.2	5.57422
1076.09	29.7676
1078.98	9.7627
1081.88	56.3145
1084.77	22.5855
1087.66	7.23633
1090.56	57.6963
1093.45	27.5874
1096.34	20.1709
1099.23	40.5244
1102.13	48.1953
1105.02	15.4229
1107.91	38.9341
1110.81	46.9815
1113.7	70.4585
1116.59	70.8506
1119.48	11.4746
1122.38	72.5278
1125.27	37.0645
1128.16	55.1655
1131.05	95.2085
1133.95	61.7847
1136.84	46.2705
1139.73	54.6909
1142.62	47.6602
1145.52	67.1006
1148.41	50.415
1151.3	19.855
1154.19	67.4956
1157.09	71.5356
1159.98	16.4297
1162.87	23.1543
1165.77	36.354
1168.66	49.2895
1171.55	24.3877
1174.44	18.5273
1177.34	44.3452
1180.23	60.9475
1183.12	25.9887
1186.02	42.6477
1188.91	64.3557
1191.8	54.0864
1194.69	26.8779
1197.59	64.0342
1200.48	42.6831
1203.37	11.1638
1206.26	37.1323
1209.16	27.9636
1212.05	50.8425
1214.94	48.3635
1217.84	71.8152
1220.73	21.1875
1223.62	35.9338
1226.51	69.9473
1229.41	21.8452
1232.3	25.7041
1235.19	40.2117
1238.08	2.07544
1240.98	71.8186
