Measurement: Raman, 514 nm, unoriented, Raman Data Processed
Mineral: Grunerite
Rruff sample: R040150
Ideal chemistry: [box]Fe^2+^_2_Fe^2+^_5_Si_8_O_22_(OH)_2_
Locality: Smallwood mine, Heath Lake, Newfoundland, Canada
Source: University of Arizona Mineral Museum
Description: Brown bladed crystals in parallel aggregate
Measured chemistry: (Fe_0.69_Mg_0.27_Ca_0.02_Mn_0.02_)_7_Si_8.02_O_22_((OH)_0.98_Cl_0.02_)_2_
Raman shift (cm-1)	intensity
125.369	0
129.534	121.994
133.696	57.038
137.857	231.889
142.016	105.164
146.172	115.791
150.327	336.123
154.48	718.686
158.63	1006.61
162.779	1035.13
166.926	519.462
171.07	447.404
175.213	595.075
179.354	883.502
183.493	1383.09
187.63	1676.93
191.765	1371.57
195.898	1320.38
200.029	1251.84
204.158	1298.76
208.285	1628.43
212.41	815.478
216.533	521.085
220.654	424.272
224.773	307.285
228.891	239.773
233.006	226.033
237.119	312.119
241.231	533.849
245.34	513.207
249.448	424.182
253.553	279.779
257.657	252.012
261.758	44.071
265.858	23.49
269.956	35.724
274.052	253.652
278.146	221.031
282.237	440.175
286.327	386.385
290.416	463.37
294.502	570.874
298.586	554.845
302.668	564.457
306.749	566.394
310.827	571.656
314.903	266.902
318.978	548.916
323.051	837.763
327.121	217.386
331.19	284.095
335.257	383.785
339.322	967.994
343.385	1423.9
347.446	1774.74
351.505	1859.61
355.563	1502.45
359.618	1320.88
363.672	1312.96
367.723	1432.66
371.773	1294.14
375.821	1106.39
379.866	1086.38
383.91	991.113
387.952	1003.44
391.992	1262.79
396.031	1348.24
400.067	1232.01
404.101	1389.13
408.134	1096
412.165	1161.7
416.193	1012.25
420.22	574.874
424.245	272.897
428.268	303.331
432.289	54.331
436.309	235.787
440.326	272.954
444.342	207.124
448.355	249.064
452.367	30.781
456.377	9.725
460.385	88.023
464.391	135.047
468.395	482.57
472.398	285.07
476.398	62.592
480.397	155.072
484.394	225.119
488.389	45.539
492.382	86.586
496.373	232.461
500.362	183.203
504.349	386.625
508.335	714.846
512.319	339.732
516.3	504.283
520.28	738.49
524.259	963.357
528.235	897.881
532.209	1355.07
536.182	1029.96
540.152	411.6
544.121	490.973
548.088	154.053
552.053	361.104
556.017	353.531
559.978	378.703
563.938	547.16
567.895	311.623
571.851	160.096
575.805	227.727
579.758	125.912
583.708	73.656
587.657	455.986
591.603	411.475
595.548	168.037
599.491	118.029
603.432	127.273
607.372	124.439
611.309	314.416
615.245	79.609
619.179	511.809
623.111	270.033
627.041	503.74
630.97	376.777
634.896	667.637
638.821	1184.69
642.744	1449.62
646.665	1988.5
650.584	3028.52
654.502	5732.49
658.418	8981.42
662.331	11916.9
666.244	9967.92
670.154	5624.89
674.062	3248.25
677.969	2148.6
681.874	1559.23
685.777	1512.02
689.678	916.66
693.577	961.822
697.475	672.234
701.371	644.076
705.265	156.08
709.157	629.061
713.047	257.041
716.936	557.543
720.823	562.16
724.708	371.416
728.591	649.84
732.472	425.801
736.352	182.367
740.23	398.035
744.106	778.039
747.98	498.254
751.853	268.57
755.723	442.83
759.592	477.08
763.459	187.328
767.325	142.664
771.188	424.402
775.05	437.514
778.91	598.457
782.768	163.432
786.625	361.803
790.479	238.803
794.332	265.789
798.183	58.764
802.033	17.76
805.88	273.506
809.726	25.391
813.57	116.266
817.413	8.408
821.253	104.631
825.092	108.982
828.929	13.455
832.764	263.258
836.598	112.008
840.429	66.732
844.259	20.57
848.088	54.027
851.914	241.314
855.739	115.42
859.562	270.375
863.383	388.477
867.203	218.383
871.02	144.17
874.836	215.322
878.65	121.309
882.463	388.168
886.274	122.492
890.083	466.871
893.89	562.451
897.695	419.086
901.499	364.771
905.301	581.512
909.102	658.732
912.9	434.514
916.697	769.576
920.492	795.576
924.285	607.551
928.077	754.744
931.867	494.732
935.655	519.113
939.442	920.516
943.226	638.18
947.009	638.275
950.791	558.758
954.57	813.885
958.348	1051.99
962.124	1505.23
965.899	1800.12
969.671	2070.06
973.442	1662.74
977.211	1639.91
980.979	1356.29
984.745	1401.37
988.509	940.373
992.271	969.342
996.032	1171.42
999.791	1555.59
1003.55	772.15
1007.3	1066.63
1011.06	1778.75
1014.81	2041.85
1018.56	2678.6
1022.31	3255.04
1026.06	3555.19
1029.8	2770.22
1033.55	2267.75
1037.29	1883.3
1041.03	1972.62
1044.77	1444.4
1048.5	1239.74
1052.24	1162.11
1055.97	916.959
1059.7	872.148
1063.43	923
1067.16	861.172
1070.89	956.113
1074.61	588.477
1078.34	664.988
1082.06	523.918
1085.78	887.543
1089.5	780.914
1093.21	668.668
1096.93	754.43
1100.64	918.539
1104.35	867.418
1108.06	474.801
1111.77	784.188
1115.48	582.039
1119.18	493.641
1122.89	801.07
1126.59	613.949
1130.29	217.707
1133.99	246.84
1137.68	492.824
1141.38	105.598
1145.07	49.613
1148.76	118.555
1152.45	34.652
1156.14	17.863
1159.83	316.598
1163.51	428.41
1167.19	857.676
1170.88	204.492
1174.56	286.77
1178.23	298.82
1181.91	40.809
1185.59	589.043
1189.26	568.652
1192.93	220.129
1196.6	290.59
1200.27	201.719
1203.94	687.719
1207.6	287.117
1211.27	294.191
1214.93	71.391
1218.59	14.473
1222.25	169.121
1225.9	331.977
1229.56	241.34
1233.21	338.555
1236.86	309.234
1240.51	582.562
1244.16	389.105
1247.81	522.559
1251.45	397.355
1255.1	457.703
1258.74	36.789
1262.38	139.969
1266.02	507.289
1269.66	300.164
1273.29	396.953
1276.93	376.16
1280.56	409.703
1284.19	495.121
1287.82	151.434
1291.45	327.34
1295.07	286.938
1298.7	280.074
1302.32	352.691
1305.94	304.043
1309.56	343.004
1313.18	591.625
1316.8	300.895
1320.41	79.887
1324.02	275.941
1327.63	487.906
1331.24	122.363
1334.85	77.023
1338.46	154.734
1342.06	276.293
1345.67	81.758
1349.27	359.938
1352.87	328.902
1356.47	416.039
1360.07	443.965
1363.66	46.938
1367.25	220.738
1370.85	384.012
1374.44	186.539
1378.03	51.211
1381.61	201.141
1385.2	392.898
1388.78	265
1392.37	240.055
1395.95	485.41
1399.53	576.938
1403.1	425.625
1406.68	43.367
1410.26	314.449
1413.83	466.293
1417.4	217.344
1420.97	617.547
1424.54	369.207
1428.1	162.102
1431.67	85.129
1435.23	509.816
1438.8	675.48
1442.36	461.844
1445.91	504.281
1449.47	477.887
1453.03	683.973
1456.58	798.664
1460.13	366.598
1463.68	164.383
1467.23	142.793
1470.78	334.754
1474.33	378.887
1477.87	3.945
1481.42	237.836
1484.96	387.391
1488.5	165.762
1492.04	20.328
1495.57	114.234
