Measurement: Raman, 780 nm, unoriented, Raman Data Processed
Mineral: Grunerite
Rruff sample: R060062
Ideal chemistry: [box]Fe^2+^_2_Fe^2+^_5_Si_8_O_22_(OH)_2_
Locality: 2C mine, Broken Hill, New South Wales, Australia
Source: University of Arizona Mineral Museum
Description: Aggregate of greenish-brown colored parallel acicular crystals
Measured chemistry: [box](Fe^2+^_4.32_Mg_1.90_Mn_0.54_Ca_0.22_)_Σ=7_(Si_7.98_Al_0.02_)_Σ=8_O_22_(OH)_2_
Raman shift (cm-1)	intensity
135.08	0
137.972	1.40613
140.865	1.9913
143.758	5.42938
146.651	10.1687
149.543	16.6857
152.436	24.2221
155.329	33.9679
158.221	37.187
161.114	29.1391
164.007	21.081
166.899	22.3226
169.792	26.282
172.685	36.0694
175.578	45.2485
178.47	54.85
181.363	64.651
184.256	62.2382
187.148	55.5263
190.041	44.7562
192.934	34.8148
195.827	27.2996
198.719	22.493
201.612	20.1687
204.505	18.2097
207.397	15.9135
210.29	14.374
213.183	10.0874
216.075	7.85039
218.968	5.94434
221.861	3.95812
224.753	2.54327
227.646	1.98987
230.539	0.104286
233.431	0.086185
236.324	0.186962
239.217	0.553478
242.11	0.201996
245.002	0.108852
247.895	0.509201
250.788	0.644127
253.68	0.53384
256.573	0.026997
259.466	1.29034
262.358	0.05463
265.251	0.310043
268.144	0.353756
271.037	1.53193
273.929	2.35529
276.822	3.48946
279.715	3.94817
282.607	4.66028
285.5	6.75156
288.393	6.04255
291.286	6.68215
294.178	6.61466
297.071	5.90535
299.964	4.60395
302.856	5.0491
305.749	5.64383
308.642	5.42155
311.534	6.05486
314.427	4.52574
317.32	4.86214
320.212	5.08691
323.105	3.06184
325.998	3.71074
328.891	3.59317
331.783	7.00811
334.676	8.44181
337.569	11.3329
340.461	15.0297
343.354	16.9179
346.247	20.0175
349.139	20.8454
352.032	20.0151
354.925	19.7811
357.818	17.5343
360.71	17.0265
363.603	16.0994
366.496	13.51
369.388	10.294
372.281	7.24088
375.174	5.54504
378.066	4.02312
380.959	4.90452
383.852	6.17649
386.745	7.34509
389.637	9.44565
392.53	11.298
395.423	12.9577
398.315	13.3166
401.208	13.5044
404.101	12.2335
406.993	10.8567
409.886	10.2274
412.779	9.29484
415.671	7.98367
418.564	6.63667
421.457	6.36663
424.35	5.82618
427.242	3.99152
430.135	1.08563
433.028	0.536596
435.92	0.462866
438.813	0.331118
441.706	0.308395
444.599	0.690989
447.491	0.373552
450.384	0.081911
453.277	0.034723
456.169	0.949783
459.062	0.347292
461.955	0.655979
464.847	0.411592
467.74	0.433598
470.633	1.32127
473.526	1.21406
476.418	1.86347
479.311	2.68722
482.204	2.97898
485.096	3.54761
487.989	4.54523
490.882	5.40377
493.774	5.81171
496.667	5.93276
499.56	6.7634
502.452	6.51515
505.345	7.77451
508.238	8.40732
511.131	8.4579
514.023	7.74025
516.916	8.7544
519.809	9.12899
522.701	9.41995
525.594	9.60809
528.487	9.02357
531.38	8.30666
534.272	7.0099
537.165	5.44868
540.058	5.06581
542.95	3.6533
545.843	3.23711
548.736	2.97753
551.628	3.02898
554.521	2.16095
557.414	2.576
560.306	3.28249
563.199	2.32463
566.092	1.56943
568.985	1.02785
571.877	1.02123
574.77	0.301773
577.663	0.314188
580.555	0.352997
583.448	0.187031
586.341	0.119358
589.233	0.458813
592.126	0.087696
595.019	0.005543
597.912	0.330162
600.804	0.87291
603.697	0.740055
606.59	0.845766
609.482	1.86456
612.375	1.52411
615.268	3.63157
618.16	3.53212
621.053	4.63899
623.946	5.97231
626.838	8.35088
629.731	10.3603
632.624	13.3003
635.516	18.3708
638.409	23.045
641.302	31.9491
644.195	45.3353
647.087	61.294
649.98	79.2989
652.873	96.0926
655.765	113.337
658.658	123.953
661.551	121.746
664.443	98.5737
667.336	68.6584
670.229	44.6977
673.122	28.9228
676.014	20.6696
678.907	14.9571
681.8	11.166
684.692	8.55691
687.585	7.35924
690.478	6.51158
693.37	4.7184
696.263	4.24073
699.156	2.63586
702.049	1.73331
704.941	1.4438
707.834	1.24917
710.727	0.367641
713.619	0.018118
716.512	0.589951
719.405	0.172342
722.298	0.139719
725.19	0.371792
728.083	0.443203
730.976	0.614496
733.868	1.4925
736.761	1.37855
739.654	2.37218
742.546	2.39339
745.439	2.60077
748.332	2.32972
751.225	1.55691
754.117	1.95273
757.01	1.7054
759.903	1.12896
762.795	1.93695
765.688	1.04144
768.581	0.825424
771.473	0.898594
774.366	0.707264
777.259	1.64754
780.152	0.85965
783.044	0.428371
785.937	0.666166
788.83	0.173035
791.722	0.183924
794.615	0.116287
797.508	0.028946
800.4	0.540188
803.293	0.12623
806.186	0.548563
809.078	0.093855
811.971	0.329922
814.864	0.904402
817.756	0.285547
820.649	0.675871
823.542	1.26233
826.435	0.079702
829.327	0.256453
832.22	0.656349
835.113	0.358515
838.005	0.931997
840.898	1.13237
843.791	0.604881
846.683	1.41604
849.576	0.620758
852.469	1.20157
855.362	0.926001
858.254	1.36662
861.147	1.17635
864.04	1.08427
866.932	0.78701
869.825	0.189823
872.718	0.898142
875.611	0.984253
878.503	0.829334
881.396	1.26909
884.289	0.927937
887.181	1.39764
890.074	1.54373
892.967	1.03516
895.859	1.89904
898.752	1.97777
901.645	2.095
904.538	1.78383
907.43	1.65697
910.323	1.52125
913.216	1.61957
916.108	1.56789
919.001	0.456755
921.894	0.068342
924.786	0.111353
927.679	0.004156
930.572	0.157015
933.465	0.199896
936.357	0.417595
939.25	0.220047
942.143	0.536037
945.035	0.873413
947.928	1.35476
950.821	1.86105
953.713	2.8101
956.606	3.64776
959.499	4.41613
962.391	5.44548
965.284	6.46912
968.177	6.56412
971.069	6.11651
973.962	5.69332
976.855	4.46102
979.748	4.19554
982.64	3.50397
985.533	4.3187
988.426	4.37596
991.318	5.04761
994.211	5.27314
997.104	5.58341
999.996	4.32718
1002.89	5.37441
1005.78	6.27982
1008.67	8.20601
1011.57	10.8537
1014.46	14.545
1017.35	16.7992
1020.25	18.7407
1023.14	18.9959
1026.03	16.6695
1028.92	13.4524
1031.82	9.88524
1034.71	7.27367
1037.6	4.68212
1040.49	3.52506
1043.39	2.22218
1046.28	1.65313
1049.17	1.31216
1052.07	0.905436
1054.96	0.496525
1057.85	0.501234
1060.74	0.05308
1063.64	0.646629
1066.53	0.446334
1069.42	0.16993
1072.31	0.343038
1075.21	0.345417
1078.1	0.243896
1080.99	0.793651
1083.88	0.818924
1086.78	1.71598
1089.67	2.11336
1092.56	2.29375
1095.46	2.10605
1098.35	1.65262
1101.24	1.25169
1104.13	0.639393
1107.03	0.06729
1109.92	0.326348
1112.81	0.505219
1115.7	0.685204
1118.6	0.361011
1121.49	1.01377
1124.38	0.346451
1127.28	0.00177
1130.17	0.410408
1133.06	0.146909
1135.95	0.811991
1138.85	0.370955
1141.74	0.580575
1144.63	0.122203
1147.52	0.286201
1150.42	1.06322
1153.31	1.29768
1156.2	0.293503
1159.1	0.533721
1161.99	0.563392
1164.88	0.73099
1167.77	0.754975
1170.67	0.57499
1173.56	1.16709
1176.45	0.80323
1179.34	0.900197
1182.24	1.39828
1185.13	0.484412
1188.02	0.526394
1190.91	0.798996
1193.81	0.630507
1196.7	0.475389
1199.59	0.456994
1202.48	0.573626
1205.38	0.507827
1208.27	0.923986
1211.16	0.149373
1214.06	0.227245
1216.95	0.394599
1219.84	0.577802
1222.73	0.036526
1225.63	0.270844
1228.52	0.790896
1231.41	0.820696
1234.31	0.596449
1237.2	0.558274
1240.09	0.34516
1242.98	0.810373
1245.88	0.45264
1248.77	0.693891
1251.66	0.354582
1254.55	0.210044
1257.45	0.019973
1260.34	0
