Measurement: Raman, 532 nm, unoriented, Raman Data Processed
Mineral: Grunerite
Rruff sample: R060062
Ideal chemistry: [box]Fe^2+^_2_Fe^2+^_5_Si_8_O_22_(OH)_2_
Locality: 2C mine, Broken Hill, New South Wales, Australia
Source: University of Arizona Mineral Museum
Description: Aggregate of greenish-brown colored parallel acicular crystals
Measured chemistry: [box](Fe^2+^_4.32_Mg_1.90_Mn_0.54_Ca_0.22_)_Σ=7_(Si_7.98_Al_0.02_)_Σ=8_O_22_(OH)_2_
Raman shift (cm-1)	intensity
139.627	0
142.52	0.378136
145.413	1.70396
148.306	13.3298
151.198	24.9019
154.091	51.2532
156.984	80.2663
159.876	96.98
162.769	70.8019
165.662	45.8084
168.554	44.102
171.447	57.1626
174.34	75.8409
177.233	99.9749
180.125	136.805
183.018	171.001
185.911	182.449
188.803	162.646
191.696	127.949
194.589	94.126
197.482	74.0874
200.374	64.5945
203.267	56.6927
206.16	50.9158
209.052	43.4799
211.945	39.9647
214.838	35.8584
217.73	29.1676
220.623	23.4968
223.516	18.0525
226.409	12.4174
229.301	8.98119
232.194	4.85482
235.087	3.09661
237.979	1.1351
240.872	1.38933
243.765	2.41974
246.657	0.406807
249.55	0.139915
252.443	0.88707
255.335	0.078186
258.228	0.230606
261.121	1.86979
264.014	2.18246
266.906	2.87597
269.799	0.031128
272.692	0.092354
275.584	1.89941
278.477	3.14706
281.37	6.08135
284.262	7.14103
287.155	9.1129
290.048	10.4842
292.941	12.3459
295.833	10.7319
298.726	12.0864
301.619	11.9621
304.511	8.68803
307.404	10.7554
310.297	10.0223
313.19	11.4662
316.082	9.90195
318.975	10.8147
321.868	9.35186
324.76	5.22037
327.653	1.65963
330.546	1.65411
333.438	7.08066
336.331	8.08482
339.224	14.9594
342.116	20.9511
345.009	27.5152
347.902	34.5718
350.795	42.7622
353.687	39.323
356.58	37.2291
359.473	34.4477
362.365	32.436
365.258	31.9212
368.151	32.5168
371.043	23.7346
373.936	15.5206
376.829	12.0532
379.721	9.24372
382.614	8.21871
385.507	9.75922
388.4	13.1153
391.292	17.2636
394.185	24.9143
397.078	29.1995
399.97	30.5365
402.863	34.4157
405.756	32.7267
408.649	31.0195
411.541	28.7104
414.434	26.7387
417.327	25.5353
420.219	25.0272
423.112	25.4906
426.005	22.5041
428.897	16.0331
431.79	9.12647
434.683	3.02066
437.575	0.565651
440.468	1.5296
443.361	1.7519
446.254	0.886612
449.146	0.803276
452.039	1.4242
454.932	0.076073
457.824	0.31813
460.717	0.031471
463.61	0.532326
466.502	0.464691
469.395	1.68877
472.288	2.41933
475.181	1.42078
478.073	2.93268
480.966	4.46645
483.859	6.35326
486.751	9.41151
489.644	9.41966
492.537	9.74023
495.43	12.4022
498.322	12.7105
501.215	15.9967
504.108	18.0765
507	26.273
509.893	24.7797
512.786	25.4438
515.678	21.2494
518.571	23.6644
521.464	23.6228
524.356	27.4412
527.249	28.4005
530.142	29.7729
533.034	25.9522
535.927	21.4396
538.82	15.271
541.713	11.6762
544.605	9.12534
547.498	9.45347
550.391	7.55922
553.283	7.78759
556.176	7.09613
559.069	7.17383
561.962	6.88999
564.854	5.99496
567.747	4.27081
570.64	1.76196
573.532	2.34629
576.425	0.278969
579.318	0.776596
582.21	0.226486
585.103	0.24836
587.996	0.682625
590.889	0.555069
593.781	0.859245
596.674	0.169563
599.567	0.862434
602.459	0.496407
605.352	1.60775
608.245	2.4627
611.137	2.52661
614.03	6.38619
616.923	8.20843
619.816	11.8792
622.708	14.0848
625.601	19.552
628.494	27.1925
631.386	32.4453
634.279	35.1705
637.172	48.3479
640.064	62.7568
642.957	79.3163
645.85	107.383
648.742	151.733
651.635	201.865
654.528	262.641
657.421	331.644
660.313	396.503
663.206	395.78
666.099	324.823
668.991	213.45
671.884	135.081
674.777	85.9553
677.669	61.5074
680.562	46.3729
683.455	35.0234
686.348	29.0182
689.24	23.8816
692.133	20.8516
695.026	16.4201
697.918	10.9416
700.811	9.26715
703.704	6.50806
706.596	2.83096
709.489	1.8723
712.382	1.87021
715.274	0.73188
718.167	0.212006
721.06	0.812897
723.953	1.11959
726.845	0.545845
729.738	0.996162
732.631	0.71402
735.523	0.253288
738.416	1.95316
741.309	4.83398
744.202	6.02721
747.094	5.62457
749.987	5.65244
752.88	5.34966
755.772	7.25553
758.665	6.14949
761.558	6.01569
764.45	5.32416
767.343	4.19251
770.236	4.63529
773.129	3.11282
776.021	3.89513
778.914	2.31655
781.807	4.10739
784.699	2.29945
787.592	1.83746
790.485	1.12656
793.377	0.220032
796.27	0.283096
799.163	0.36393
802.056	0.357422
804.948	1.13784
807.841	1.67093
810.734	0.764702
813.626	0.427895
816.519	1.43985
819.412	0.328682
822.304	2.49702
825.197	1.5987
828.09	0.55941
830.982	1.48388
833.875	2.03889
836.768	1.6134
839.661	2.1526
842.553	1.19625
845.446	0.981407
848.339	1.00988
851.231	1.08675
854.124	0.921196
857.017	0.890968
859.909	0.034447
862.802	0.976517
865.695	0.172523
868.588	0.617393
871.48	1.24537
874.373	0.694633
877.266	0.566612
880.158	1.12075
883.051	2.76432
885.944	3.4618
888.837	3.27484
891.729	5.09479
894.622	8.07551
897.515	8.60104
900.407	9.69933
903.3	11.8258
906.193	13.1417
909.085	15.7104
911.978	13.618
914.871	12.2373
917.763	10.5609
920.656	5.61056
923.549	3.31934
926.442	3.11728
929.334	1.99561
932.227	1.30493
935.12	0.826607
938.012	0.004379
940.905	0.50103
943.798	0.256332
946.69	1.0807
949.583	2.10625
952.476	5.58677
955.369	6.41953
958.261	10.308
961.154	13.9113
964.047	19.4314
966.939	24.6326
969.832	25.4591
972.725	25.5644
975.617	21.891
978.51	19.2945
981.403	18.5669
984.295	15.1919
987.188	14.8691
990.081	17.8707
992.974	21.1681
995.866	24.6675
998.759	25.4305
1001.65	26.2272
1004.54	28.4784
1007.44	32.882
1010.33	41.917
1013.22	55.404
1016.12	71.6733
1019.01	90.3506
1021.9	104.583
1024.79	111.758
1027.69	102.832
1030.58	83.4654
1033.47	61.2406
1036.36	41.8288
1039.26	28.8376
1042.15	18.1133
1045.04	14.5787
1047.93	8.67524
1050.83	8.84973
1053.72	5.83772
1056.61	3.24692
1059.51	1.41054
1062.4	2.41511
1065.29	0.116058
1068.18	0.129761
1071.08	1.65723
1073.97	0.091805
1076.86	0.531395
1079.76	1.05205
1082.65	1.63901
1085.54	2.00352
1088.43	3.56829
1091.33	5.42186
1094.22	6.31836
1097.11	7.53112
1100	7.19019
1102.9	5.01722
1105.79	4.0788
1108.68	2.89566
1111.57	2.15113
1114.47	2.2758
1117.36	1.97212
1120.25	1.28959
1123.14	0.926445
1126.04	0.596657
1128.93	0.950356
1131.82	1.03605
1134.72	0.73687
1137.61	0.307655
1140.5	1.08702
1143.39	0.122955
1146.29	0.946304
1149.18	1.03435
1152.07	1.42094
1154.96	0.833328
1157.86	1.26684
1160.75	0.064171
1163.64	1.47152
1166.54	2.58759
1169.43	1.53752
1172.32	0.834137
1175.21	0.876762
1178.11	2.39269
1181	1.68468
1183.89	1.13239
1186.78	1.17789
1189.68	1.6936
1192.57	2.46639
1195.46	2.09699
1198.36	2.2028
1201.25	1.38152
1204.14	0.989799
1207.03	1.51741
1209.93	2.40986
1212.82	1.09148
1215.71	0.633522
1218.6	2.18228
1221.5	2.29398
1224.39	0.524864
1227.28	2.40431
1230.17	2.13579
1233.07	0.310196
1235.96	3.05961
1238.85	1.2581
1241.75	0.682884
1244.64	0.089516
1247.53	3.06025
1250.42	2.26417
1253.32	1.19576
1256.21	1.65019
1259.1	1.08654
1261.99	1.98281
1264.89	1.03365
1267.78	1.15578
1270.67	0.343361
1273.57	1.00716
1276.46	1.26293
1279.35	0.353966
