Measurement: Raman, 532 nm, unoriented, Raman Data Processed
Mineral: Guanajuatite
Rruff sample: R080140
Ideal chemistry: Bi^3+^_2_Se^2-^_3_
Locality: Falun, Dalarna, Sweden
Source: James Shigley
Description: Compact mass of silver flattened crystals, exhibiting metallic luster
Raman shift (cm-1)	intensity
134.398	0
137.773	5.17442
141.148	2.24724
144.523	0.42686
147.898	1.33427
151.272	4.26667
154.647	6.86161
158.022	4.02939
161.397	4.88601
164.772	4.91031
168.147	5.69676
171.521	3.74552
174.896	3.00299
178.271	2.74381
181.646	0.90659
185.021	0.599359
188.395	0.514425
191.77	0.319342
195.145	0.414792
198.52	1.37892
201.895	1.56003
205.269	1.69953
208.644	2.78803
212.019	6.22769
215.394	6.48329
218.769	10.0224
222.143	12.1568
225.518	14.9089
228.893	16.9767
232.268	17.7459
235.643	17.5081
239.018	16.1909
242.392	15.0416
245.767	14.0365
249.142	12.0241
252.517	12.5202
255.892	11.4766
259.267	10.2407
262.641	8.75918
266.016	6.33942
269.391	4.35472
272.766	2.0212
276.141	0.849242
279.515	0.699163
282.89	0.316777
286.265	0.087886
289.64	0.162806
293.015	0.551587
296.389	0.377217
299.764	0.73978
303.139	0.091541
306.514	0.086241
309.889	0.882321
313.264	0.802027
316.638	0.372152
320.013	0.462267
323.388	1.11532
326.763	0.890827
330.138	1.15282
333.512	1.19194
336.887	1.26503
340.262	2.3416
343.637	2.49621
347.012	1.80975
350.387	1.7818
353.761	2.12141
357.136	2.21988
360.511	1.19493
363.886	1.26472
367.261	0.775463
370.635	0.619053
374.01	0.967387
377.385	0.814235
380.76	0.38811
384.135	0.952114
387.51	1.31144
390.884	0.977709
394.259	0.323569
397.634	0.953701
401.009	0.722972
404.384	0.58763
407.759	0.021832
411.133	0.134166
414.508	0.58904
417.883	0.098382
421.258	0.056646
424.632	0.557596
428.007	0.805248
431.382	0.235447
434.757	0.245519
438.132	0.100917
441.507	0.002275
444.881	0.437443
448.256	0.406465
451.631	0.065348
455.006	0.444288
458.381	0.287611
461.755	0.787042
465.13	0.277916
468.505	0.337862
471.88	0.383049
475.255	0.321176
478.63	0.06668
482.004	-0.269133
485.379	0.419714
488.754	0.311473
492.129	0.502313
495.504	0.088534
498.878	0.822091
502.253	0.0469457
505.628	0.106027
509.003	0.096409
512.378	0.299838
515.753	0.358263
519.127	0.615843
522.502	0.149813
525.877	0.12418
529.252	0.225443
532.627	0.385253
536.001	0.253306
539.376	0.036147
542.751	0.532985
546.126	0.404028
549.501	0.056117
552.876	0.167846
556.25	0.155707
559.625	0.247765
563	0.432332
566.375	0.201847
569.75	0.352815
573.125	0.022768
576.499	0.623995
579.874	0.802399
583.249	0.04816
586.624	0.571695
589.999	0.52331
593.373	0.710939
596.748	0.337311
600.123	0.183816
603.498	0.251406
606.873	0.616782
610.247	0.555392
613.622	0.632239
616.997	0.198772
620.372	0.466085
623.747	0.353947
627.121	0.577975
630.496	0.837388
633.871	0.372743
637.246	0.49584
640.621	0.292873
643.996	0.323916
647.37	0.450042
650.745	0.642527
654.12	0.919543
657.495	0.492223
660.87	0.747
664.245	0.274292
667.619	0.244592
670.994	0.299624
674.369	0.556579
677.744	0.251085
681.119	0.549378
684.493	1.03327
687.868	0.839713
691.243	0.539082
694.618	0.504775
697.993	0.228567
701.367	0.369369
704.742	0.592667
708.117	0.471631
711.492	0.061064
714.867	0.33376
718.242	0.473608
721.616	0.580723
724.991	0.221011
728.366	0.211554
731.741	0.703149
735.116	0.116457
738.49	0.036673
741.865	0.37038
745.24	0.12211
748.615	0.163964
751.99	0.177966
755.365	0.329979
758.739	0.52588
762.114	0.449235
765.489	0.19259
768.864	0.085011
772.239	0.424687
775.614	0.263204
778.988	0.370116
782.363	0.05819
785.738	0.076645
789.113	0.205582
792.487	0.605318
795.862	0.714963
799.237	0.109627
802.612	0.509172
805.987	0.394736
809.362	0.341982
812.736	0.47927
816.111	1.04879
819.486	0.244085
822.861	1.06435
826.236	0.811681
829.611	0.838662
832.985	0.772188
836.36	1.02827
839.735	1.33196
843.11	1.56347
846.485	1.06323
849.859	1.30552
853.234	1.79404
856.609	1.29012
859.984	0.964786
863.359	1.61822
866.734	1.43114
870.108	1.1665
873.483	0.96604
876.858	1.06465
880.233	1.20791
883.608	0.829699
886.982	1.03113
890.357	0.22838
893.732	0.617079
897.107	0.308766
900.482	0.103382
903.856	0.365802
907.231	-0.28483
910.606	-0.101347
913.981	0.141333
917.356	0.499993
920.731	0.0297537
924.105	0.033262
927.48	0.089173
930.855	0.765747
934.23	0.202682
937.605	0.573044
940.98	0.513075
944.354	0.403819
947.729	0.067293
951.104	0.314645
954.479	0.191302
957.854	0.137078
961.228	0.453225
964.603	0.433321
967.978	0.074293
971.353	0.052654
974.728	0.880782
978.102	0.753632
981.477	0.290413
984.852	0.704271
988.227	0.117358
991.602	0.595469
994.977	0.755416
998.351	0.567544
1001.73	0.706403
1005.1	0.866133
1008.48	0.541379
1011.85	0.864303
1015.23	0.425811
1018.6	0.371001
1021.98	0.668363
1025.35	0.529215
1028.72	0.776135
1032.1	0.469999
1035.47	0.25913
1038.85	0.820825
1042.22	0.057221
1045.6	1.07715
1048.97	0.675661
1052.35	0.562751
1055.72	1.20481
1059.1	1.35361
1062.47	0.676933
1065.85	0.129967
1069.22	0.035973
1072.6	0.405726
1075.97	0.609308
1079.35	0.259622
1082.72	0.593454
1086.1	0.009199
1089.47	0.475775
1092.85	0.303851
1096.22	0.198387
1099.6	0.088723
1102.97	0.773224
1106.35	0.711445
1109.72	0.1895
1113.1	0.222039
1116.47	0.888925
1119.85	0.18251
1123.22	0.002036
1126.59	0.060161
1129.97	0.260239
1133.34	0.126636
1136.72	0.152347
1140.09	0.014575
1143.47	0.393619
1146.84	0.463987
1150.22	0.034666
1153.59	0.019195
1156.97	0.341225
1160.34	0.468846
1163.72	0.251541
1167.09	0.016149
1170.47	0.810683
1173.84	0.059182
1177.22	0.584556
1180.59	0.513836
1183.97	0.122779
1187.34	0.23792
1190.72	0.169133
1194.09	0.346162
1197.47	0.226096
1200.84	0.248639
1204.21	0.083136
1207.59	0.682617
1210.96	0.394969
1214.34	0.286755
1217.71	0.043347
1221.09	0.289112
1224.46	0.037105
1227.84	0.037034
1231.21	0.457101
1234.59	0.28422
1237.96	0.793671
1241.34	0.694886
1244.71	0.028449
1248.09	0.152845
1251.46	0.682791
1254.84	0.260552
1258.21	0.124924
1261.59	0.79074
1264.96	0.005025
1268.34	0.47112
1271.71	0.451792
1275.09	0.005276
1278.46	0.222065
1281.84	0.236347
1285.21	0.121071
1288.59	0.702026
1291.96	0.135435
1295.34	0.15264
1298.71	0.15689
1302.09	0.224479
