Measurement: Raman, 780 nm, unoriented, Raman Data Processed
Mineral: Guanajuatite
Rruff sample: R080140
Ideal chemistry: Bi^3+^_2_Se^2-^_3_
Locality: Falun, Dalarna, Sweden
Source: James Shigley
Description: Compact mass of silver flattened crystals, exhibiting metallic luster
Raman shift (cm-1)	intensity
134.763	0
137.656	1.6805
140.549	2.346
143.441	0.289282
146.334	0.14456
149.227	1.07446
152.119	1.17025
155.012	2.16649
157.905	2.23444
160.798	2.15794
163.69	2.56115
166.583	1.81518
169.476	1.73931
172.368	1.02508
175.261	0.480197
178.154	0.97862
181.046	0.087207
183.939	0.204116
186.832	0.063778
189.725	0.140746
192.617	0.888558
195.51	0.15446
198.403	0.569808
201.295	1.70147
204.188	1.64335
207.081	1.77934
209.973	2.63626
212.866	3.2018
215.759	4.01305
218.651	5.17503
221.544	6.65745
224.437	6.895
227.33	8.34898
230.222	8.75825
233.115	9.04525
236.008	9.60119
238.9	9.73232
241.793	9.63082
244.686	8.83725
247.578	8.96836
250.471	8.74113
253.364	7.22288
256.257	7.30996
259.149	6.68956
262.042	5.12961
264.935	5.15674
267.827	2.73444
270.72	1.96688
273.613	1.2606
276.505	0.47277
279.398	0.275112
282.291	0.556198
285.184	0.682809
288.076	0.415421
290.969	0.389304
293.862	0.044055
296.755	0.138741
299.647	0.456342
302.54	0.198074
305.433	0.107486
308.325	0.551385
311.218	0.044427
314.111	0.378136
317.003	0.30228
319.896	0.936518
322.789	0.002395
325.682	0.441003
328.574	0.157211
331.467	0.49439
334.36	0.314617
337.252	0.433009
340.145	0.222715
343.038	1.32523
345.93	1.16063
348.823	0.708503
351.716	0.661509
354.608	0.727781
357.501	1.2223
360.394	0.317361
363.287	0.018099
366.179	0.360008
369.072	0.351863
371.965	0.120008
374.857	0.300817
377.75	0.639145
380.643	0.325024
383.536	0.073843
386.428	0.608391
389.321	0.752492
392.214	0.629833
395.106	0.83113
397.999	0.522881
400.892	0.402036
403.784	0.311368
406.677	0.290505
409.57	0.068427
412.462	0.042595
415.355	0.328979
418.248	0.461081
421.141	0.437552
424.033	0.395913
426.926	0.549012
429.819	0.388872
432.711	0.467912
435.604	0.643094
438.497	0.165103
441.389	0.798088
444.282	0.527288
447.175	0.700605
450.068	0.342772
452.96	0.037271
455.853	0.323746
458.746	0.947005
461.639	0.483242
464.531	0.462304
467.424	0.292635
470.317	0.508754
473.209	0.69317
476.102	0.7192
478.995	0.723217
481.887	0.992879
484.78	0.957152
487.673	0.299413
490.565	0.360353
493.458	0.419277
496.351	0.459002
499.244	0.651193
502.136	0.678235
505.029	0.470509
507.922	0.156875
510.814	0.379746
513.707	0.083873
516.6	0.06312
519.492	0.607848
522.385	0.575605
525.278	0.294505
528.171	0.444349
531.063	0.28753
533.956	0.541699
536.849	0.703962
539.741	0.489385
542.634	0.206762
545.527	0.507107
548.419	0.300489
551.312	0.208777
554.205	0.350906
557.098	0.604043
559.99	0.554579
562.883	0.228892
565.776	0.518509
568.668	0.428221
571.561	0.504432
574.454	0.071127
577.346	0.460935
580.239	0.662509
583.132	0.020632
586.025	0.050612
588.917	0.427331
591.81	0.078809
594.703	0.677216
597.596	0.105067
600.488	0.60872
603.381	0.201598
606.274	0.824567
609.166	0.160825
612.059	0.071918
614.952	0.096302
617.844	0.078357
620.737	0.471205
623.63	0.230699
626.523	0.515688
629.415	0.931868
632.308	0.322996
635.201	0.11883
638.093	0.123932
640.986	0.570699
643.879	0.316624
646.771	0.307241
649.664	0.228937
652.557	0.011034
655.449	0.432513
658.342	0.033767
661.235	0.213405
664.128	0.311318
667.02	0.08712
669.913	0.435928
672.806	0.497218
675.698	0.236012
678.591	0.600331
681.484	0.065155
684.376	0.06
687.269	0.638665
690.162	0.793317
693.055	0.391751
695.947	0.961741
698.84	0.506316
701.733	0.267498
704.625	0.110851
707.518	0.040055
710.411	0.459055
713.303	1.10428
716.196	0.376391
719.089	0.611821
721.982	0.412862
724.874	0.372573
727.767	0.165082
730.66	0.118867
733.552	0.156106
736.445	0.034953
739.338	0.437502
742.231	0.228878
745.123	0.64506
748.016	0.523051
750.909	0.315493
753.801	0.075596
756.694	1.15748
759.587	0.419847
762.479	0.03981
765.372	0.300684
768.265	0.655616
771.158	0.174768
774.05	0.344332
776.943	0.493355
779.836	0.385619
782.728	0.116358
785.621	0.628358
788.514	0.170157
791.406	0.08599
794.299	0.795237
797.192	0.015807
800.085	0.329064
802.977	0.442038
805.87	0.062555
808.763	0.400551
811.655	0.589951
814.548	0.035948
817.441	0.539604
820.333	0.57941
823.226	1.0153
826.119	0.517052
829.012	0.101963
831.904	1.00689
834.797	0.4606
837.69	0.392267
840.582	0.569755
843.475	0.777877
846.368	0.770464
849.26	1.01049
852.153	0.621142
855.046	0.394409
857.939	0.418159
860.831	0.887197
863.724	0.555882
866.617	0.720633
869.509	0.873121
872.402	0.753695
875.295	1.06853
878.188	0.311882
881.08	0.206808
883.973	0.555922
886.866	0.432725
889.758	0.156454
892.651	0.004573
895.544	0.364252
898.436	0.370936
901.329	0.181161
904.222	0.186776
907.115	0.769481
910.007	0.487536
912.9	0.236271
915.793	0.55265
918.685	0.602903
921.578	0.386959
924.471	0.444816
927.364	0.651256
930.256	0.118126
933.149	0.216172
936.042	1.15234
938.934	0.508876
941.827	0.093996
944.72	0.569171
947.612	0.543697
950.505	0.033002
953.398	0.313512
956.29	0.461894
959.183	0.230873
962.076	1.14644
964.969	0.209061
967.861	0.926954
970.754	0.367158
973.647	0.327889
976.539	0.24812
979.432	1.26309
982.325	0.905169
985.217	0.00395
988.11	0.212588
991.003	0.309986
993.896	0.604707
996.788	0.386165
999.681	0.902692
1002.57	0.609708
1005.47	0.593281
1008.36	0.581234
1011.25	0.371145
1014.14	0.566089
1017.04	0.437184
1019.93	0.569152
1022.82	0.309763
1025.71	0.056002
1028.61	0.286997
1031.5	0.499137
1034.39	0.17793
1037.29	0.300947
1040.18	0.492943
1043.07	0.516302
1045.96	0.066543
1048.86	0.092524
1051.75	0.156824
1054.64	0.02197
1057.54	0.228307
1060.43	0.664853
1063.32	0.791045
1066.21	0.599583
1069.11	0.265216
1072	0.320154
1074.89	0.415049
1077.78	0.251189
1080.68	0.432693
1083.57	1.16023
1086.46	0.081894
1089.36	0.049857
1092.25	0.770318
1095.14	0.250882
1098.03	0.801927
1100.93	0.221326
1103.82	0.46576
1106.71	0.375059
1109.6	0.331125
1112.5	0.110343
1115.39	0.088799
1118.28	0.099688
1121.17	0.641646
1124.07	0.753574
1126.96	0.085291
1129.85	0.153109
1132.74	0.33596
1135.64	0.277827
1138.53	0.006325
1141.42	0.374161
1144.32	0.680939
1147.21	0.162116
1150.1	0.94567
1152.99	0.035914
1155.89	0.213345
1158.78	0.859924
1161.67	0.059012
1164.57	1.1164
1167.46	0.665307
1170.35	0.034895
1173.24	0.452861
1176.14	0.392981
1179.03	0.09615
1181.92	0.930245
1184.81	0.722632
1187.71	0.299769
1190.6	0.335936
1193.49	1.03693
1196.38	0.00961
1199.28	0.458298
1202.17	0.042014
1205.06	0.016518
1207.96	0.43876
1210.85	0.561357
1213.74	0.023624
1216.63	0.975733
1219.53	0.584432
1222.42	1.14426
1225.31	0.343019
1228.2	0.914949
1231.1	0.522711
1233.99	0.367187
1236.88	0.633247
1239.78	0.460256
1242.67	0.153057
1245.56	0.042837
1248.45	0.708451
1251.35	0.390554
1254.24	0.596278
1257.13	0.466479
1260.02	0.009843
1262.92	0.301046
1265.81	0.393708
1268.7	0.590507
1271.6	0.677763
1274.49	0.26242
1277.38	0.328476
1280.27	0.640859
1283.17	0.728032
1286.06	0.141467
