Measurement: Raman, 532 nm, unoriented, Raman Data Processed
Mineral: Gudmundite
Rruff sample: R060741
Ideal chemistry: Fe^3+^(SbS)^3-^
Locality: Pezinok, Czechoslovakia
Source: Michael Scott
Description: Silver metallic blebs with a blue surface tarnish associated with quartz, stibnite and kermesite, R060742
Measured chemistry: Fe_1.00_Sb_1.00_S_1.00_ ; trace amounts of As
Raman shift (cm-1)	intensity
150.637	0
153.53	274.098
156.423	5.53455
159.316	8.75171
162.208	25.9331
165.101	13.9481
167.994	36.7456
170.886	91.3716
173.779	121.841
176.672	140.231
179.565	114.846
182.457	128.549
185.35	287.826
188.243	312.534
191.135	508.812
194.028	173.417
196.921	61.2837
199.813	78.2968
202.706	67.7855
205.599	71.8898
208.492	75.4727
211.384	95.3057
214.277	82.7828
217.17	47.2147
220.062	75.1058
222.955	78.9452
225.848	82.7053
228.74	50.4373
231.633	1.25879
234.526	12.8331
237.418	19.1252
240.311	70.1047
243.204	165.409
246.097	199.071
248.989	353.621
251.882	523.935
254.775	832.318
257.667	552.814
260.56	96.1146
263.453	72.076
266.346	76.4862
269.238	11.0596
272.131	3.9696
275.024	3.59436
277.916	3.30115
280.809	4.86731
283.702	0.150513
286.594	12.1213
289.487	28.2642
292.38	46.3107
295.272	73.3335
298.165	128.536
301.058	119.635
303.951	297.163
306.843	459.578
309.736	633.361
312.629	533.059
315.521	122.953
318.414	76.5471
321.307	31.9399
324.2	0.486572
327.092	5.20606
329.985	16.823
332.878	53.0093
335.77	14.3523
338.663	39.9612
341.556	24.8845
344.449	63.6594
347.341	68.075
350.234	127.103
353.127	180.232
356.019	322.548
358.912	464.785
361.805	645.484
364.697	698.16
367.59	437.201
370.483	180.27
373.375	143.964
376.268	167.804
379.161	139.438
382.054	31.2124
384.946	41.3357
387.839	32.4321
390.732	55.697
393.624	46.3955
396.517	28.4336
399.41	12.0571
402.303	43.114
405.195	20.1167
408.088	8.97998
410.981	54.8272
413.873	23.2627
416.766	18.3716
419.659	47.5054
422.551	43.0449
425.444	45.3225
428.337	26.6196
431.229	13.2019
434.122	58.6487
437.015	104.919
439.908	86.218
442.8	145.389
445.693	160.592
448.586	183.048
451.478	231.27
454.371	247.467
457.264	149.15
460.156	144.362
463.049	150.093
465.942	113.694
468.835	102.803
471.727	92.6086
474.62	59.6394
477.513	52.697
480.405	58.6616
483.298	43.7642
486.191	79.5422
489.084	58.4031
491.976	18.8574
494.869	31.602
497.762	28.4639
500.654	46.5242
503.547	20.8274
506.44	0.896729
509.332	5.73315
512.225	11.7566
515.118	27.9206
518.01	47.7712
520.903	9.54321
523.796	23.1096
526.689	34.8992
529.581	11.9758
532.474	41.3914
535.367	54.3015
538.259	69.4639
541.152	57.571
544.045	80.779
546.938	111.832
549.83	35.9495
552.723	48.0764
555.616	74.0085
558.508	38.1174
561.401	44.0107
564.294	16.9458
567.186	28.0671
570.079	93.3877
572.972	4.28662
575.865	49.2317
578.757	56.0478
581.65	15.6968
584.543	40.6921
587.435	7.94458
590.328	55.2393
593.221	54.4224
596.114	21.2607
599.006	31.655
601.899	85.8342
604.792	73.0994
607.684	27.3728
610.577	43.7087
613.47	65.6064
616.362	73.1587
619.255	71.5732
622.148	39.469
625.04	45.4631
627.933	61.1103
630.826	54.3567
633.719	26.8347
636.611	17.125
639.504	14.209
642.397	10.5925
645.289	17.355
648.182	18.6958
651.075	51.5803
653.967	40.0493
656.86	34.9487
659.753	24.2278
662.646	44.9783
665.538	11.6457
668.431	41.7683
671.324	47.0876
674.216	72.9634
677.109	76.2268
680.002	12.0112
682.894	50.7588
685.787	57.1951
688.68	53.0437
691.573	18.0076
694.465	40.5601
697.358	34.4729
700.251	89.5234
703.143	85.9561
706.036	31.4627
708.929	58.197
711.822	67.4321
714.714	77.0286
717.607	5.56348
720.5	13.0281
723.392	27.8867
726.285	34.1909
729.178	22.0171
732.07	5.63965
734.963	39.3396
737.856	1.75366
740.749	9.71997
743.641	27.2905
746.534	16.4761
749.427	18.0879
752.319	28.5764
755.212	23.7546
758.105	32.7483
760.997	20.248
763.89	37.771
766.783	27.0024
769.676	32.8108
772.568	35.0305
775.461	7.3584
778.354	14.5391
781.246	19.1099
784.139	35.1792
787.032	33.498
789.924	55.8057
792.817	46.0938
795.71	8.8479
798.602	31.7695
801.495	9.18066
804.388	19.2588
807.281	37.3118
810.173	49.2625
813.066	34.2427
815.959	34.2268
818.851	14.2957
821.744	19.491
824.637	22.3599
827.529	57.0852
830.422	37.4048
833.315	53.4028
836.208	2.07129
839.1	43.1409
841.993	50.1248
844.886	13.2439
847.778	42.9453
850.671	59.47
853.564	34.9858
856.457	5.96509
859.349	54.3206
862.242	16.8445
865.135	38.4941
868.027	53.4734
870.92	61.5474
873.813	42.0149
876.705	50.519
879.598	38.5842
882.491	63.3142
885.384	44.1882
888.276	47.3933
891.169	54.8882
894.062	23.0806
896.954	21.8562
899.847	32.8984
902.74	15.1221
905.632	53.5579
908.525	26.0088
911.418	18.8447
914.311	44.4644
917.203	20.3403
920.096	19.6074
922.989	1.71069
925.881	2.57227
928.774	17.5769
931.667	46.9375
934.559	37.9766
937.452	20.8291
940.345	25.7559
943.237	29.2483
946.13	37.8479
949.023	11.6511
951.916	51.6233
954.808	16.1868
957.701	51.0625
960.594	12.7776
963.486	52.3115
966.379	5.15015
969.272	51.2766
972.165	30.5493
975.057	106.784
977.95	25.0564
980.843	25.0303
983.735	56.3093
986.628	0.428467
989.521	9.65185
992.413	51.8049
995.306	8.28906
998.199	31.1043
1001.09	51.0906
1003.98	7.71314
1006.88	11.1609
1009.77	42.9597
1012.66	35.9265
1015.55	4.78101
1018.45	26.9119
1021.34	5.45337
1024.23	21.9026
1027.13	24.9683
1030.02	40.509
1032.91	22.5945
1035.8	1.13135
1038.7	37.7097
1041.59	11.2034
1044.48	18.3486
1047.38	28.5481
1050.27	6.1936
1053.16	25.5032
1056.05	30.2415
1058.95	46.7002
1061.84	9.38208
1064.73	64.3323
1067.62	24.7188
1070.52	40.2703
1073.41	33.3591
1076.3	41.4168
1079.19	33.082
1082.09	41.125
1084.98	16.0579
1087.87	70.0339
1090.77	45.1899
1093.66	41.6177
1096.55	46.769
1099.44	54.8999
1102.34	44.3005
1105.23	27.9746
1108.12	19.8828
1111.01	40.8264
1113.91	43.9326
1116.8	23.6318
1119.69	41.4841
1122.59	6.30566
1125.48	5.7251
1128.37	18.0901
1131.26	18.636
1134.16	45.094
1137.05	64.7292
1139.94	35.084
1142.83	31.625
1145.73	22.4346
1148.62	22.8862
1151.51	58.3535
1154.4	23.0642
1157.3	14.3806
1160.19	23.4512
1163.08	46.9793
1165.98	37.8127
1168.87	8.23633
1171.76	39.1489
1174.65	40.0691
1177.55	36.3042
1180.44	26.3227
1183.33	51.9033
1186.22	41.8252
1189.12	12.3391
1192.01	39.3213
1194.9	17.7236
1197.8	17.6096
1200.69	17.3381
1203.58	63.1567
1206.47	24.7942
1209.37	26.6094
1212.26	4.10352
1215.15	46.9048
1218.04	51.4836
1220.94	24.1611
1223.83	39.4121
1226.72	40.8943
1229.62	37.1204
1232.51	49.957
1235.4	3.9419
1238.29	25.0217
1241.19	21.5684
1244.08	38.4802
1246.97	9.2561
1249.86	9.01074
1252.76	31.5886
1255.65	41.4951
1258.54	81.499
1261.43	1.89819
1264.33	0.612305
1267.22	145.802
1270.11	26.936
1273.01	23.6533
