Measurement: Raman, 532 nm, unoriented, Raman Data Processed
Mineral: Gustavite
Rruff sample: R100202
Ideal chemistry: Ag^1+^Pb^2+^Bi^3+^_3_S^2-^_6_
Locality: Level 390, Vein 14, Mina Herminia, Julcani District, Huancavelica, Peru
Source: William W Pinch
Description: Elongated black metallic crystals frozen in white granular quartz and barite mixture
Measured chemistry: Ag_1.03_Pb_0.91_Bi_1.72_Sb_1.32_(S_5.96_As_0.04_)_Î£=6.00_
Raman shift (cm-1)	intensity
160.46	0
163.353	4.56384
166.245	3.17311
169.138	2.2706
172.031	7.54166
174.924	4.13871
177.816	6.63602
180.709	11.3371
183.602	8.80168
186.494	4.872
189.387	0.385902
192.28	1.20733
195.173	2.99196
198.065	4.13213
200.958	8.05596
203.851	9.82894
206.743	13.2677
209.636	12.2639
212.529	6.4557
215.421	4.37894
218.314	2.84232
221.207	2.51143
224.1	4.80053
226.992	5.02716
229.885	6.88042
232.778	5.29007
235.67	2.58991
238.563	0.215371
241.456	0.696971
244.348	0.929531
247.241	0.089573
250.134	0.935103
253.026	0.162307
255.919	0.303088
258.812	0.992219
261.705	0.938921
264.597	1.16167
267.49	3.53398
270.383	0.812097
273.276	1.94603
276.168	1.42695
279.061	1.94754
281.954	0.262135
284.846	2.056
287.739	1.94628
290.632	1.22114
293.524	0.577193
296.417	2.05585
299.31	1.61036
302.202	3.58359
305.095	2.57153
307.988	2.85302
310.881	3.08982
313.773	2.86672
316.666	2.03298
319.559	2.5037
322.451	3.05961
325.344	0.411142
328.237	2.92575
331.13	1.85986
334.022	0.70073
336.915	0.183086
339.808	2.83856
342.7	2.25012
345.593	2.1185
348.486	0.222823
351.378	1.78367
354.271	3.14204
357.164	2.22218
360.057	4.41907
362.949	3.20241
365.842	2.42371
368.735	1.90593
371.627	0.22448
374.52	1.32713
377.413	1.73775
380.305	1.27852
383.198	1.43629
386.091	1.87922
388.984	2.61898
391.876	0.7568
394.769	0.563538
397.662	1.24903
400.554	1.22202
403.447	2.35479
406.34	0.589145
409.233	2.74771
412.125	1.22303
415.018	1.96597
417.911	1.94666
420.803	1.51982
423.696	0.58018
426.589	1.40708
429.481	1.47478
432.374	2.84757
435.267	0.071765
438.159	1.23542
441.052	2.26117
443.945	2.94523
446.838	4.23811
449.73	1.37393
452.623	2.3261
455.516	2.60824
458.409	0.940827
461.301	1.27462
464.194	2.22304
467.087	1.38947
469.979	1.87446
472.872	2.38491
475.765	2.41046
478.657	0.589409
481.55	1.53261
484.443	1.32788
487.336	1.78272
490.228	1.87684
493.121	2.07541
496.014	2.7144
498.906	1.51969
501.799	0.646416
504.692	1.40312
507.584	2.45623
510.477	3.3972
513.37	2.83768
516.263	0.113976
519.155	1.32197
522.048	2.28181
524.941	2.79472
527.833	0.501077
530.726	2.188
533.619	1.67436
536.511	1.17865
539.404	2.18707
542.297	1.85638
545.19	0.225188
548.082	1.17561
550.975	0.911343
553.868	1.0233
556.76	1.45579
559.653	1.09182
562.546	0.3446
565.438	0.342722
568.331	1.65878
571.224	2.01891
574.117	1.16619
577.009	0.743015
579.902	1.76938
582.795	2.12797
585.687	0.814962
588.58	1.2497
591.473	3.42566
594.365	3.31589
597.258	2.32328
600.151	1.37452
603.044	1.89583
605.936	2.5813
608.829	0.883766
611.722	1.2707
614.614	1.79977
617.507	1.83662
620.4	0.461941
623.293	0.255595
626.185	0.202137
629.078	0.043309
631.971	0.690733
634.863	0.139121
637.756	1.9878
640.649	1.54017
643.542	0.602425
646.434	0.532236
649.327	2.5888
652.22	1.70837
655.112	2.98644
658.005	0.91876
660.898	2.33511
663.79	2.28662
666.683	1.42662
669.576	1.15852
672.468	1.59798
675.361	1.57366
678.254	2.07502
681.147	2.19359
684.039	1.53104
686.932	1.51904
689.825	1.18473
692.717	1.33833
695.61	1.53413
698.503	1.69031
701.396	2.58764
704.288	0.062785
707.181	1.67255
710.074	0.38423
712.966	1.60619
715.859	1.87507
718.752	0.280414
721.644	0.288323
724.537	1.70173
727.43	0.245684
730.323	2.15645
733.215	2.20765
736.108	0.846423
739.001	1.53043
741.893	1.04765
744.786	2.31929
747.679	1.4604
750.572	0.543697
753.464	1.48437
756.357	0.487053
759.25	2.93948
762.142	1.87027
765.035	1.84547
767.928	1.58387
770.82	1.53402
773.713	0.002208
776.606	0.91458
779.499	0.1852
782.391	2.28112
785.284	1.70054
788.177	1.48013
791.069	0.547171
793.962	1.66689
796.855	1.23427
799.747	1.06184
802.64	2.47127
805.533	0.662069
808.426	2.1524
811.318	2.28996
814.211	2.36756
817.104	1.95855
819.996	1.57636
822.889	0.830029
825.782	1.93214
828.674	1.50376
831.567	1.21462
834.46	1.98203
837.353	0.898955
840.245	0.5369
843.138	2.59568
846.031	3.4215
848.923	0.067596
851.816	1.35248
854.709	1.41982
857.601	0.890786
860.494	2.73265
863.387	0.914285
866.28	2.54906
869.172	0.853825
872.065	0.09095
874.958	1.6209
877.851	0.463236
880.743	3.35508
883.636	0.364322
886.529	0.734386
889.421	0.850062
892.314	0.762054
895.207	2.32484
898.099	0.363626
900.992	1.44174
903.885	0.913078
906.778	0.650582
909.67	1.78735
912.563	0.944869
915.456	2.20074
918.348	0.322109
921.241	2.1257
924.134	2.26083
927.026	0.491788
929.919	2.29121
932.812	0.865952
935.705	0.449391
938.597	0.836451
941.49	1.72586
944.383	0.610084
947.275	1.49809
950.168	2.44033
953.061	1.52411
955.953	2.3859
958.846	1.41717
961.739	1.50735
964.631	2.74782
967.524	1.58767
970.417	1.2972
973.31	1.81635
976.202	2.13967
979.095	2.72209
981.988	3.26477
984.88	1.88689
987.773	1.34958
990.666	0.544832
993.559	1.37536
996.451	1.40957
999.344	1.76222
1002.24	0.85025
1005.13	1.45844
1008.02	2.70657
1010.91	1.34063
1013.81	2.58211
1016.7	1.52473
1019.59	1.28088
1022.49	1.75813
1025.38	1.29524
1028.27	1.3093
1031.16	1.95813
1034.06	2.09227
1036.95	3.09907
1039.84	2.47637
1042.73	2.16949
1045.63	1.42179
1048.52	2.03929
1051.41	1.2149
1054.31	1.08423
1057.2	1.66479
1060.09	1.48233
1062.98	2.76184
1065.88	0.37651
1068.77	2.70734
1071.66	0.032537
1074.55	1.90142
1077.45	0.320274
1080.34	2.36226
1083.23	1.58546
1086.12	0.092721
1089.02	0.92148
1091.91	1.83806
1094.8	1.17821
1097.7	2.23803
1100.59	1.57688
1103.48	0.531711
1106.37	0.293915
1109.27	1.34802
1112.16	2.68743
1115.05	0.959377
1117.94	0.03647
1120.84	1.26449
1123.73	0.039466
1126.62	2.59805
1129.52	1.62633
1132.41	1.10885
1135.3	0.990267
1138.19	2.14924
1141.09	1.02237
1143.98	0.010879
1146.87	0.43007
1149.77	1.20789
1152.66	2.65856
1155.55	2.61763
1158.44	0.133009
1161.34	2.88148
1164.23	2.08744
1167.12	1.68865
1170.01	1.30539
1172.91	0.738697
1175.8	2.89764
1178.69	1.53588
1181.58	3.22056
1184.48	0.312808
1187.37	1.68513
1190.26	1.3434
1193.15	1.90937
1196.05	1.82776
1198.94	1.73909
1201.83	3.61911
1204.73	2.09074
1207.62	1.31083
1210.51	1.2922
1213.4	1.6762
1216.3	1.95752
1219.19	0.184819
1222.08	1.29549
1224.97	1.25059
1227.87	1.90282
1230.76	1.23549
1233.65	3.0775
1236.55	1.77245
1239.44	2.03375
1242.33	1.10848
1245.22	2.17273
1248.12	0.395684
1251.01	1.15898
1253.9	1.35088
1256.8	1.96806
1259.69	2.56797
1262.58	1.52648
1265.47	1.60847
1268.37	1.23324
1271.26	0.830714
1274.15	2.81423
1277.04	0.837558
1279.94	0.922702
1282.83	0.545073
1285.72	2.37062
1288.61	1.35027
1291.51	0.979116
1294.4	2.27917
1297.29	0.732554
1300.18	2.3169
