Measurement: Raman, 780 nm, unoriented, Raman Data Processed
Mineral: Gustavite
Rruff sample: R100203
Ideal chemistry: Ag^1+^Pb^2+^Bi^3+^_3_S^2-^_6_
Locality: Level 390, Vein 14, Mina Herminia, Julcani District, Huancavelica, Peru
Source: William W Pinch
Description: Elongated black metallic crystals with striations, on a matrix of tetrahedrite, R100204.
Measured chemistry: Ag_1.02_Pb_0.96_Bi_1.86_Sb_1.17_(S_5.97_As_0.03_)_Î£=6.00_
Raman shift (cm-1)	intensity
171.601	0
174.494	0.055
177.386	2.58465
180.279	4.61103
183.172	1.00132
186.065	0.293568
188.957	0.667686
191.85	6.21226
194.743	2.87994
197.635	7.28848
200.528	1.33125
203.421	3.1909
206.313	0.632746
209.206	1.15269
212.099	2.91309
214.992	3.23748
217.884	1.09517
220.777	2.04203
223.67	3.3423
226.562	4.64153
229.455	1.62196
232.348	0.730011
235.24	0.171638
238.133	2.5645
241.026	3.41296
243.918	5.80576
246.811	2.29297
249.704	5.54105
252.597	7.62047
255.489	11.6777
258.382	6.39006
261.275	12.9738
264.167	15.7323
267.06	20.5018
269.953	19.2289
272.846	20.4056
275.738	14.513
278.631	12.8001
281.524	16.783
284.416	12.2659
287.309	10.7848
290.202	9.79858
293.094	7.80745
295.987	6.88621
298.88	7.34467
301.772	6.46591
304.665	10.3806
307.558	7.16692
310.45	4.56882
313.343	0.169836
316.236	3.32386
319.129	3.52658
322.021	5.06859
324.914	7.30424
327.807	0.767688
330.699	1.75205
333.592	8.03249
336.485	1.22158
339.377	5.67948
342.27	6.13399
345.163	2.58508
348.056	7.051
350.948	0.666917
353.841	2.5465
356.734	5.7011
359.626	4.31342
362.519	4.90171
365.412	3.16684
368.305	4.34781
371.197	5.4443
374.09	0.456325
376.983	1.25998
379.875	3.26938
382.768	3.02012
385.661	3.34534
388.553	2.06855
391.446	2.36568
394.339	2.77832
397.231	0.683968
400.124	7.20025
403.017	3.00032
405.909	6.4491
408.802	8.47303
411.695	4.86196
414.588	3.3889
417.48	0.934484
420.373	3.87687
423.266	2.8742
426.158	1.51411
429.051	0.453304
431.944	0.535706
434.837	7.24311
437.729	3.2335
440.622	5.10966
443.515	1.93805
446.407	3.00709
449.3	4.43449
452.193	4.74533
455.085	2.24809
457.978	2.02567
460.871	5.25247
463.764	3.78188
466.656	1.9338
469.549	4.81867
472.442	3.75597
475.334	0.053924
478.227	8.21738
481.12	2.60152
484.012	5.2387
486.905	4.43293
489.798	2.86715
492.69	6.63469
495.583	5.46069
498.476	3.7184
501.369	4.11515
504.261	2.24096
507.154	0.069046
510.047	3.69036
512.939	3.47552
515.832	1.26255
518.725	6.58866
521.617	0.291647
524.51	5.34795
527.403	4.1879
530.296	2.17031
533.188	2.57572
536.081	2.87644
538.974	4.23113
541.866	2.45905
544.759	0.90284
547.652	8.35903
550.544	2.39222
553.437	3.79698
556.33	5.30525
559.222	3.98853
562.115	6.73362
565.008	3.28321
567.901	2.54773
570.793	0.654243
573.686	2.95246
576.579	7.74922
579.471	4.11323
582.364	1.81998
585.257	6.09128
588.149	2.25608
591.042	3.6438
593.935	3.69649
596.828	1.78922
599.72	2.83718
602.613	0.182108
605.506	2.24791
608.398	4.75707
611.291	5.51313
614.184	3.29305
617.077	1.66201
619.969	6.08579
622.862	3.67535
625.755	4.55981
628.647	3.65132
631.54	2.98143
634.433	4.93964
637.325	6.03731
640.218	0.271777
643.111	3.31162
646.004	2.18241
648.896	6.45461
651.789	1.58458
654.682	6.0456
657.574	2.51646
660.467	5.97743
663.36	3.87132
666.252	3.42038
669.145	3.54303
672.038	2.22165
674.931	2.91651
677.823	2.21094
680.716	3.97941
683.609	4.1576
686.501	3.76698
689.394	1.73167
692.287	8.22911
695.179	0.373841
698.072	2.57883
700.965	6.03633
703.857	1.25819
706.75	3.46986
709.643	7.7386
712.535	1.92379
715.428	6.76085
718.321	2.21492
721.214	1.21584
724.106	0.105779
726.999	0.771245
729.892	2.54267
732.784	0.193025
735.677	2.68183
738.57	1.74472
741.462	2.25127
744.355	1.78979
747.248	5.56837
750.141	0.526258
753.033	5.17717
755.926	4.46519
758.819	4.17237
761.711	3.94008
764.604	4.11187
767.497	4.0744
770.389	3.48291
773.282	1.43173
776.175	3.59163
779.068	3.86508
781.96	5.51058
784.853	5.26062
787.746	1.50876
790.638	2.75563
793.531	1.35125
796.424	4.74147
799.317	3.76401
802.209	0.450778
805.102	3.76825
807.995	0.90718
810.887	3.14183
813.78	4.49171
816.673	2.2617
819.565	3.19806
822.458	2.16091
825.351	3.31968
828.244	3.20114
831.136	3.56741
834.029	7.10473
836.922	4.3871
839.814	3.70411
842.707	3.82969
845.6	4.84152
848.492	5.95583
851.385	6.67722
854.278	4.33872
857.17	7.00212
860.063	5.6661
862.956	2.59151
865.849	2.72235
868.741	4.00477
871.634	4.66697
874.527	4.21908
877.419	5.03096
880.312	0.532458
883.205	6.9524
886.097	1.25274
888.99	0.005311
891.883	5.235
894.775	5.69547
897.668	2.21162
900.561	5.46062
903.454	3.46112
906.346	7.40442
909.239	0.54578
912.132	3.38032
915.024	3.17734
917.917	1.61493
920.81	0.759646
923.702	3.61163
926.595	5.08909
929.488	4.73155
932.381	2.60873
935.273	3.54103
938.166	5.47567
941.059	4.42254
943.951	2.43307
946.844	1.18449
949.737	2.79159
952.63	4.78054
955.522	2.7596
958.415	3.29489
961.308	0.945954
964.2	1.71454
967.093	4.88995
969.986	4.5313
972.878	2.12005
975.771	2.83614
978.664	2.38213
981.557	1.31974
984.449	1.13621
987.342	3.70219
990.235	3.33209
993.127	2.38986
996.02	6.05395
998.913	5.29004
1001.8	6.16979
1004.7	1.33644
1007.59	4.99839
1010.48	1.11306
1013.38	6.04214
1016.27	0.40745
1019.16	3.27689
1022.05	4.4387
1024.95	3.20339
1027.84	6.49786
1030.73	3.29107
1033.62	1.33881
1036.52	3.56889
1039.41	3.04567
1042.3	3.13948
1045.2	5.33143
1048.09	2.44782
1050.98	0.382773
1053.87	4.8002
1056.77	5.07437
1059.66	3.1768
1062.55	1.57539
1065.44	2.00216
1068.34	0.120823
1071.23	3.37135
1074.12	1.90571
1077.02	3.97728
1079.91	4.23627
1082.8	3.3342
1085.69	3.77851
1088.59	1.81944
1091.48	6.66923
1094.37	2.66925
1097.26	5.65404
1100.16	0.076781
1103.05	3.66404
1105.94	2.16233
1108.84	6.0506
1111.73	1.87778
1114.62	4.47542
1117.51	3.01976
1120.41	4.10055
1123.3	5.63621
1126.19	0.43799
1129.08	4.99547
1131.98	1.63702
1134.87	4.64561
1137.76	5.28461
1140.65	2.9368
1143.55	4.34018
1146.44	4.00199
1149.33	4.49268
1152.23	5.55799
1155.12	8.03001
1158.01	4.55043
1160.9	1.19048
1163.8	3.31907
1166.69	1.51886
1169.58	3.49283
1172.47	0.380874
1175.37	5.46515
1178.26	2.63922
1181.15	0.674404
1184.05	3.41314
1186.94	5.03658
1189.83	3.33372
1192.72	5.13111
1195.62	1.97378
1198.51	2.76019
1201.4	2.75386
1204.29	0.520372
1207.19	3.9504
1210.08	4.39506
1212.97	4.09252
1215.87	0.360241
1218.76	3.51201
1221.65	3.62715
1224.54	2.16621
1227.44	7.92463
1230.33	4.47261
1233.22	0.824631
1236.11	4.01169
1239.01	3.234
1241.9	3.87918
1244.79	3.67511
1247.68	3.98855
1250.58	0.492285
1253.47	6.53805
1256.36	5.28229
1259.26	3.40738
1262.15	1.69751
1265.04	3.39122
1267.93	3.66375
1270.83	4.73372
1273.72	1.05402
1276.61	3.61287
1279.5	2.90549
1282.4	2.55671
