Measurement: Raman, 780 nm, unoriented, Raman Data Processed
Mineral: Gysinite-(Nd)
Rruff sample: R100062
Ideal chemistry: Pb^2+^Nd^3+^(CO_3_)_2_(OH)H_2_O
Locality: Kasompi, 70 km west of Kambove, Katanga, Congo
Source: William W Pinch
Description: Pink glassy granular crystals associated with green malachite
Raman shift (cm-1)	intensity
108.407	0
111.3	4.3324
114.193	5.08203
117.085	3.44714
119.978	8.07812
122.871	7.44836
125.763	6.29089
128.656	11.5435
131.549	13.1062
134.442	19.5233
137.334	24.0504
140.227	22.7781
143.12	26.4655
146.012	39.0825
148.905	45.6774
151.798	51.8329
154.69	47.9116
157.583	42.2755
160.476	36.0574
163.369	35.318
166.261	27.3389
169.154	19.3199
172.047	13.2369
174.939	8.50867
177.832	9.30859
180.725	0.696777
183.618	0.357788
186.51	3.19385
189.403	0.313599
192.296	1.66394
195.188	5.20166
198.081	9.45447
200.974	16.941
203.866	22.2098
206.759	36.5649
209.652	43.9797
212.544	56.8571
215.437	65.8529
218.33	70.495
221.223	74.7704
224.115	79.447
227.008	87.6743
229.901	78.361
232.793	74.4501
235.686	77.5101
238.579	71.3328
241.471	59.4387
244.364	57.9741
247.257	43.4542
250.15	24.1766
253.042	26.5092
255.935	8.95325
258.828	4.72107
261.72	2.01428
264.613	2.58313
267.506	10.6793
270.399	8.59912
273.291	5.04504
276.184	12.6942
279.077	21.8953
281.969	36.8517
284.862	57.6862
287.755	72.7075
290.647	86.5342
293.54	102.2
296.433	116.576
299.325	132.843
302.218	147.992
305.111	161.851
308.004	170.78
310.896	183.867
313.789	192.179
316.682	201.687
319.574	191.412
322.467	187.839
325.36	171.201
328.252	173.693
331.145	159.432
334.038	146.119
336.931	141.198
339.823	134.206
342.716	126.537
345.609	119.688
348.501	112.23
351.394	109.552
354.287	107.386
357.18	114.696
360.072	120.247
362.965	116.417
365.858	116.721
368.75	112.846
371.643	112.097
374.536	102.505
377.428	101.622
380.321	88.8015
383.214	84.6152
386.106	80.7978
388.999	71.8364
391.892	61.3543
394.785	62.2737
397.677	56.231
400.57	49.7313
403.463	47.4015
406.355	37.7461
409.248	35.9122
412.141	25.4287
415.034	27.0771
417.926	12.7202
420.819	12.7223
423.712	6.04443
426.604	4.97522
429.497	0.047119
432.39	4.15588
435.282	5.29602
438.175	3.29456
441.068	3.35889
443.961	0.691528
446.853	4.32495
449.746	1.87122
452.639	2.77258
455.531	0.466919
458.424	0.931396
461.317	4.03162
464.209	7.57117
467.102	6.3457
469.995	6.14832
472.887	5.5481
475.78	12.8123
478.673	13.9097
481.566	15.834
484.458	13.3771
487.351	9.72595
490.244	13.3865
493.136	10.4281
496.029	9.58789
498.922	1.48096
501.815	1.51074
504.707	7.45874
507.6	0.966797
510.493	6.09302
513.385	0.050537
516.278	0.37915
519.171	1.13965
522.063	3.45801
524.956	4.00244
527.849	3.31543
530.741	11.1013
533.634	18.45
536.527	16.4988
539.42	19.0483
542.312	27.959
545.205	30.3066
548.098	35.3296
550.99	39.1116
553.883	41.1794
556.776	47.0085
559.668	46.1833
562.561	47.1074
565.454	54.4573
568.347	48.3167
571.239	55.2227
574.132	52.9148
577.025	49.5732
579.917	53.8804
582.81	57.2415
585.703	54.1216
588.596	59.4446
591.488	60.1572
594.381	59.7463
597.274	56.3625
600.166	50.6316
603.059	51.665
605.952	51.9443
608.845	52.3735
611.737	46.5215
614.63	38.1841
617.523	35.4995
620.415	35.8127
623.308	32.0032
626.201	21.0415
629.093	24.043
631.986	28.3203
634.879	22.4238
637.771	14.812
640.664	12.1191
643.557	5.33936
646.45	8.46399
649.342	4.52075
652.235	3.06519
655.128	5.20679
658.02	5.63953
660.913	9.39587
663.806	8.6167
666.698	14.9238
669.591	24.1835
672.484	27.0676
675.377	31.2939
678.269	32.0516
681.162	35.9381
684.055	44.398
686.947	45.4396
689.84	53.7745
692.733	60.1838
695.625	62.5621
698.518	71.9493
701.411	71.9618
704.304	55.121
707.196	48.3353
710.089	49.3871
712.982	48.9285
715.874	57.7122
718.767	60.6113
721.66	56.9071
724.553	50.7341
727.445	37.791
730.338	23.8138
733.231	15.6116
736.123	5.40112
739.016	5.65784
741.909	4.23718
744.801	1.07861
747.694	3.79456
750.587	1.49451
753.48	4.2135
756.372	4.48779
759.265	1.76831
762.158	4.1471
765.05	1.33374
767.943	7.61804
770.836	5.02991
773.728	4.94482
776.621	2.91187
779.514	5.02795
782.407	3.06775
785.299	6.82983
788.192	8.01758
791.085	7.15393
793.977	2.23865
796.87	14.3718
799.763	8.11731
802.655	6.52075
805.548	9.00818
808.441	5.09485
811.333	7.55798
814.226	3.61365
817.119	2.89941
820.012	2.98498
822.904	11.1148
825.797	8.8877
828.69	9.0625
831.582	9.72315
834.475	6.14075
837.368	7.2666
840.26	12.9921
843.153	11.7437
846.046	16.3251
848.939	21.0538
851.831	21.4719
854.724	28.6829
857.617	33.9313
860.509	36.8389
863.402	46.1099
866.295	60.0819
869.188	74.6122
872.08	65.0512
874.973	36.8188
877.866	26.0463
880.758	16.9208
883.651	15.9402
886.544	10.1951
889.436	1.1532
892.329	5.5813
895.222	1.82519
898.115	3.54468
901.007	0.429932
903.9	0.47467
906.793	1.35242
909.685	1.77875
912.578	3.0603
915.471	2.00592
918.363	0.018433
921.256	5.27301
924.149	3.58533
927.042	2.08935
929.934	5.03589
932.827	6.26062
935.72	1.95081
938.612	6.36865
941.505	9.05853
944.398	5.9458
947.29	7.64844
950.183	7.77386
953.076	7.41577
955.968	10.9807
958.861	7.67444
961.754	7.72974
964.647	10.6472
967.539	13.411
970.432	14.6129
973.325	11.3029
976.217	9.04688
979.11	11.0972
982.003	11.2948
984.895	14.9717
987.788	9.78101
990.681	18.3059
993.574	12.7601
996.466	20.954
999.359	23.8225
1002.25	20.7888
1005.14	21.3117
1008.04	20.7903
1010.93	17.559
1013.82	23.46
1016.72	16.491
1019.61	17.203
1022.5	14.3916
1025.39	16.6848
1028.29	11.3147
1031.18	10.4064
1034.07	5.85669
1036.96	10.8208
1039.86	4.83081
1042.75	5.30896
1045.64	4.63684
1048.54	1.52539
1051.43	0.216553
1054.32	0.89563
1057.21	1.80334
1060.11	11.7848
1063	20.0947
1065.89	48.4221
1068.78	79.5267
1071.68	117.317
1074.57	158.663
1077.46	187.589
1080.36	204.588
1083.25	196.65
1086.14	122.611
1089.03	42.2574
1091.92	7.38904
1094.82	5.3916
1097.71	0.471558
1100.6	9.52576
1103.5	18.2983
1106.39	14.3052
1109.28	15.5714
1112.17	16.8628
1115.07	5.40198
