Measurement: Raman, 785 nm, unoriented, Raman Data Processed
Mineral: Haleniusite-(La)
Rruff sample: R060808
Ideal chemistry: LaOF
Locality: Bastnas, Sweden
Source: Michael Scott
Description: Yellow to ochre granular aggregate
Raman shift (cm-1)	intensity
181.792	0
184.685	11.6768
187.578	94.2466
190.47	7.76465
193.363	8.03516
196.256	114.494
199.149	174.85
202.041	176.66
204.934	188.06
207.827	12.6416
210.719	19.0381
213.612	56.6128
216.505	145.539
219.397	319.65
222.29	365.704
225.183	250.675
228.076	263.722
230.968	45.5454
233.861	59.7715
236.754	134.09
239.646	142.298
242.539	107.17
245.432	128.44
248.324	118.328
251.217	40.4228
254.11	53.1606
257.002	61.0098
259.895	131.566
262.788	199.217
265.681	256.647
268.573	297.441
271.466	299.977
274.359	555.468
277.251	440.861
280.144	647.04
283.037	785.995
285.93	880.446
288.822	872.308
291.715	792.163
294.608	715.42
297.5	829.683
300.393	1089.46
303.286	1154.78
306.178	1410.77
309.071	1448.18
311.964	1291.11
314.856	1096.02
317.749	1141.86
320.642	1091.23
323.535	1187.93
326.427	1385.95
329.32	1505.85
332.213	1401.53
335.105	1462.77
337.998	1116.1
340.891	985.104
343.784	757.367
346.676	780.101
349.569	705.889
352.462	619.156
355.354	396.088
358.247	294.545
361.14	77.499
364.032	69.835
366.925	4.74805
369.818	119.281
372.711	81.9277
375.603	223.786
378.496	138.422
381.389	18.5479
384.281	0.192383
387.174	104.767
390.067	29.8818
392.959	7.69531
395.852	88.0449
398.745	258.068
401.637	210.567
404.53	235.653
407.423	157.391
410.316	204.719
413.208	425.796
416.101	691.438
418.994	788.864
421.886	872.989
424.779	1024.17
427.672	1020.77
430.565	960.742
433.457	878.204
436.35	786.74
439.243	840.01
442.135	788.883
445.028	652.02
447.921	551.458
450.813	318.414
453.706	324.392
456.599	209.423
459.492	210.46
462.384	282.276
465.277	188.319
468.17	313.071
471.062	243.977
473.955	183.173
476.848	143.94
479.74	35.1357
482.633	9.02539
485.526	38.7402
488.419	138.455
491.311	282.927
494.204	196.562
497.097	107.213
499.989	102.068
502.882	7.57227
505.775	45.043
508.668	58.1768
511.56	101.102
514.453	89.5078
517.346	75.0156
520.238	150.545
523.131	196.849
526.024	176.392
528.916	222.109
531.809	139.86
534.702	230.214
537.595	150.681
540.487	208.222
543.38	198.682
546.273	113.822
549.165	116.449
552.058	88.2647
554.951	82.7871
557.843	120.484
560.736	99.6558
563.629	144.379
566.521	288.832
569.414	72.2246
572.307	5.76269
575.2	74.6387
578.092	1.71533
580.985	85.8428
583.878	119.104
586.77	46.5576
589.663	70.9727
592.556	63.5874
595.448	37.3984
598.341	10.5469
601.234	0.870605
604.127	67.7539
607.019	84.6162
609.912	53.4004
612.805	91.0415
615.697	67.3428
618.59	28.7295
621.483	6.05371
624.375	21.8584
627.268	38.9775
630.161	6.47461
633.054	52.7993
635.946	109.591
638.839	126.332
641.732	125.633
644.624	88.2358
647.517	86.5083
650.41	55.3638
653.303	127.04
656.195	211.617
659.088	156.997
661.981	152.751
664.873	85.1094
667.766	149.673
670.659	78.9922
673.551	179.178
676.444	154.272
679.337	224.728
682.23	197.265
685.122	129.937
688.015	217.825
690.908	136.345
693.8	108.943
696.693	249.855
699.586	190.36
702.478	151.748
705.371	195.764
708.264	69.1133
711.157	76.1343
714.049	122.769
716.942	46.6592
719.835	108.05
722.727	108.503
725.62	27.6172
728.513	91.5752
731.405	63.3525
734.298	11.9287
737.191	74.2827
740.083	31.148
742.976	113.847
745.869	79.4907
748.762	208.391
751.654	190.179
754.547	216.308
757.44	136.664
760.332	51.9265
763.225	147.283
766.118	177.039
769.01	72.6123
771.903	75.7339
774.796	186.77
777.689	163.759
780.581	36.665
783.474	95.9829
786.367	142.418
789.259	69.4265
792.152	78.4636
795.045	74.2117
797.938	109.967
800.83	51.9392
803.723	10.3804
806.616	28.9724
809.508	94.0137
812.401	13.5501
815.294	119.053
818.186	72.4314
821.079	70.9219
823.972	61.5688
826.865	92.2141
829.757	8.49414
832.65	3.5603
835.543	70.2747
838.435	73.0193
841.328	56.6226
844.221	55.7029
847.114	47.6926
850.006	116.486
852.899	129.065
855.792	80.8506
858.684	111.347
861.577	139.544
864.47	70.4861
867.362	60.5825
870.255	97.4512
873.148	47.2964
876.04	51.3105
878.933	199.802
881.826	88.2336
884.719	123.415
887.611	180.042
890.504	203.04
893.397	145.657
896.289	12.6145
899.182	67.8955
902.075	49.7793
904.967	77.8276
907.86	201.238
910.753	128.449
913.646	85.7192
916.538	86.6097
919.431	82.9497
922.324	18.3524
925.216	82.5784
928.109	23.2532
931.002	83.3521
933.894	137.531
936.787	87.4484
939.68	69.3912
942.573	15.9055
945.465	27.8158
948.358	27.0395
951.251	50.1551
954.143	16.8313
957.036	59.1512
959.929	127.613
962.822	65.5903
965.714	71.7753
968.607	82.1704
971.5	113.424
974.392	118.199
977.285	129.349
980.178	133.698
983.07	23.0957
985.963	92.4967
988.856	20.4463
991.749	8.14087
994.641	31.0171
997.534	42.0863
1000.43	47.8597
1003.32	120.001
1006.21	157.792
1009.11	175.948
1012	108.397
1014.89	70.9982
1017.78	205.434
1020.67	110.6
1023.57	75.0844
1026.46	95.884
1029.35	76.0065
1032.25	115.383
1035.14	210.752
1038.03	47.489
1040.92	148.448
1043.82	205.203
1046.71	131.954
1049.6	138.534
1052.49	143.802
1055.39	194.21
1058.28	169.512
1061.17	136.158
1064.07	232.051
1066.96	197.395
1069.85	188.556
1072.74	249.841
1075.64	217.875
1078.53	202.13
1081.42	303.682
1084.32	182.323
1087.21	146.179
1090.1	258.769
1092.99	234.175
1095.89	187.235
1098.78	195.396
1101.67	102.171
1104.56	28.7136
1107.46	97.0129
1110.35	44.7109
1113.24	18.1197
1116.13	32.6072
1119.03	23.6429
1121.92	16.3691
1124.81	58.5478
1127.7	112.144
1130.6	39.4565
1133.49	6.3678
1136.38	54.1528
1139.28	78.7809
1142.17	187.986
1145.06	164.919
1147.95	192.06
1150.85	154.585
1153.74	174.139
1156.63	135.058
1159.53	204.188
1162.42	163.129
1165.31	102.034
1168.2	119.936
1171.1	162.992
1173.99	28.2319
