Measurement: Raman, 532 nm, unoriented, Raman Data Processed
Mineral: Haleniusite-(La)
Rruff sample: R060808
Ideal chemistry: LaOF
Locality: Bastnas, Sweden
Source: Michael Scott
Description: Yellow to ochre granular aggregate
Raman shift (cm-1)	intensity
152.86	0
155.753	109.713
158.646	488.871
161.538	1112.53
164.431	1840.13
167.324	2330.64
170.217	1801.02
173.109	814.955
176.002	204.045
178.895	20.9785
181.787	38.2656
184.68	42.1562
187.573	24.5195
190.465	134.873
193.358	143.406
196.251	85.5742
199.143	134.65
202.036	19.3047
204.929	256.353
207.822	507.828
210.714	810.805
213.607	1305.93
216.5	1924.17
219.392	2483.17
222.285	2583.94
225.178	2256.43
228.07	1582.02
230.963	1061.74
233.856	744.238
236.749	733.766
239.641	737.203
242.534	919.377
245.427	1127.77
248.319	835.906
251.212	398.315
254.105	62.3516
256.997	58.334
259.89	25.7168
262.783	204.066
265.676	322.127
268.568	495.99
271.461	766.322
274.354	785.729
277.246	917.764
280.139	687.729
283.032	687.891
285.924	401.049
288.817	430.022
291.71	408.123
294.603	411.1
297.495	610.457
300.388	979.484
303.281	1541.43
306.173	1800.73
309.066	1820.02
311.959	1330.66
314.851	893.967
317.744	749.885
320.637	954.098
323.53	1356.59
326.422	1840.67
329.315	2333.18
332.208	2728.85
335.1	3092.94
337.993	3013.84
340.886	2462.79
343.778	1664.12
346.671	1074.03
349.564	682.863
352.457	440.846
355.349	245.106
358.242	35.5215
361.135	16.6133
364.027	57.7285
366.92	137.865
369.813	107.422
372.705	65.2793
375.598	183.016
378.491	559.287
381.384	398.621
384.276	535.527
387.169	834.553
390.062	856.432
392.954	829.236
395.847	951.666
398.74	1044.72
401.632	1270.47
404.525	1544.36
407.418	1989.52
410.31	2418.99
413.203	3078.88
416.096	3692.57
418.988	4375.59
421.881	4843.86
424.774	5251.52
427.667	5505.5
430.559	5408.76
433.452	5161.62
436.345	4686.57
439.237	4188
442.13	3686.82
445.023	2945.65
447.915	2196.24
450.808	1726.43
453.701	1452.58
456.594	1130.75
459.486	877.535
462.379	702.172
465.272	563.982
468.164	603.033
471.057	663.4
473.95	441.867
476.842	289.967
479.735	223.488
482.628	247.467
485.521	349.394
488.413	297.141
491.306	104.83
494.199	29.3867
497.091	22.502
499.984	35.127
502.877	156.047
505.77	104.191
508.662	37.5215
511.555	8.53711
514.448	67.1973
517.34	53.0449
520.233	220.441
523.126	177.572
526.018	108.369
528.911	299.055
531.804	166.758
534.696	154.051
537.589	112.898
540.482	186.471
543.375	295.15
546.267	305.731
549.16	338.566
552.053	169.135
554.945	230.281
557.838	156.133
560.731	118.293
563.623	150.941
566.516	210.773
569.409	186.096
572.302	169.434
575.194	84.3672
578.087	125.477
580.98	45.1406
583.872	343.039
586.765	292.441
589.658	418.721
592.55	460.607
595.443	592.838
598.336	502.322
601.229	614.627
604.121	592.769
607.014	790.248
609.907	744.494
612.799	679.832
615.692	446.164
618.585	270.877
621.477	311.971
624.37	225.93
627.263	273.984
630.156	121.113
633.048	7.91406
635.941	22.8867
638.834	101.305
641.726	36.8438
644.619	163.598
647.512	241.424
650.404	520.287
653.297	409.09
656.19	536.703
659.083	493.848
661.975	502.019
664.868	588.295
667.761	464.244
670.653	556.221
673.546	483.963
676.439	278.949
679.331	357.535
682.224	572.428
685.117	541.752
688.01	489.432
690.902	524.799
693.795	498.559
696.688	439.065
699.58	292.541
702.473	130.369
705.366	70.7598
708.258	86.1973
711.151	12.4414
714.044	23.5117
716.936	8.63086
719.829	103.742
722.722	118.469
725.615	68.0293
728.507	114.814
731.4	190.51
734.293	104.107
737.185	32.0078
740.078	63.8477
742.971	116.885
745.863	340.656
748.756	378.41
751.649	157.478
754.542	194.371
757.434	239.076
760.327	110.227
763.22	6.54297
766.112	42.9219
769.005	187.268
771.898	406.279
774.79	112.215
777.683	46.9375
780.576	187.074
783.468	179.488
786.361	186.078
789.254	309.125
792.146	373.035
795.039	435.883
797.932	280.543
800.825	276.633
803.717	224.18
806.61	312.004
809.503	316.262
812.395	84.3789
815.288	57.0664
818.181	77.8867
821.073	115.113
823.966	3.01562
826.859	74.418
829.752	255.934
832.644	192.918
835.537	27.668
838.43	81.5195
841.322	84.5117
844.215	115.059
847.108	47.2461
850	45.0703
852.893	44.2617
855.786	40.8633
858.679	178.996
861.571	166.883
864.464	272.746
867.357	266.078
870.249	64.0703
873.142	369.262
876.035	202.324
878.927	262.59
881.82	260.902
884.713	256.781
887.606	280.352
890.498	338.559
893.391	567.008
896.284	429.066
899.176	409.691
902.069	313.625
904.962	276.457
907.854	89.5352
910.747	198.91
913.64	132.141
916.533	202.398
919.425	219.051
922.318	389.18
925.211	412.367
928.103	403.676
930.996	390.356
933.889	242.121
936.781	307.883
939.674	367.453
942.567	193.137
945.46	86.4453
948.352	4.01562
951.245	183.473
954.138	132.754
957.03	57.7148
959.923	158.106
962.816	201.871
965.708	65.7578
968.601	29.9727
971.494	40.3945
974.386	199.289
977.279	209.144
980.172	270.68
983.065	179.969
985.957	182.977
988.85	108.738
991.743	131.453
994.635	169.859
997.528	102.805
1000.42	178.555
1003.31	220.316
1006.21	194.164
1009.1	143.406
1011.99	180.531
1014.88	75.4297
1017.78	93.4492
1020.67	197.809
1023.56	146.172
1026.45	175.586
1029.35	201.027
1032.24	18.2188
1035.13	205.793
1038.03	251.102
1040.92	339.758
1043.81	87.1641
1046.7	40.5469
1049.6	106.051
1052.49	190.938
1055.38	370.18
1058.28	349.75
1061.17	286.012
1064.06	96.8906
1066.95	222.281
1069.85	336.238
1072.74	258.312
1075.63	328.172
1078.52	103.902
1081.42	242.336
1084.31	323.062
1087.2	462.742
1090.09	316.102
1092.99	492.324
1095.88	632.09
1098.77	715.102
1101.66	508.41
1104.56	531.051
1107.45	500.394
1110.34	296.496
1113.24	160.977
1116.13	299.098
1119.02	52.625
1121.91	75.8086
1124.81	35.8633
1127.7	259.512
1130.59	450.102
1133.48	435.371
1136.38	119.887
1139.27	142.992
1142.16	310.414
1145.06	149.078
1147.95	82.1758
1150.84	137.102
1153.73	150.148
1156.63	154.598
1159.52	176.656
1162.41	158.551
1165.31	0.613281
1168.2	99.4922
1171.09	58.125
1173.98	193.231
1176.88	322.953
1179.77	288.219
1182.66	373.281
1185.55	372.598
1188.45	133.941
1191.34	130.117
1194.23	115.984
1197.12	69.6406
1200.02	175.289
1202.91	101.277
1205.8	94.9219
1208.69	210.289
1211.59	449.277
1214.48	425.535
1217.37	146.363
1220.27	113.641
1223.16	345.434
1226.05	458.906
1228.94	417.898
1231.84	313.957
1234.73	521.613
1237.62	474.211
1240.52	271.738
1243.41	427.902
1246.3	479.363
1249.19	556.195
1252.09	342.859
1254.98	302.117
1257.87	364.668
1260.76	325.469
1263.66	41.6602
1266.55	258.137
1269.44	374.309
1272.33	719.352
1275.23	651.527
1278.12	289.426
1281.01	131.981
1283.9	238.57
1286.8	292.234
1289.69	68.418
