Measurement: Raman, 780 nm, unoriented, Raman Data Processed
Mineral: Halotrichite
Rruff sample: R060118
Ideal chemistry: Fe^2+^Al_2_(S^6+^O_4_)_4_22H_2_O
Locality: Alum Canyon, Patagonia Mountains, Arizona, USA
Source: University of Arizona Mineral Museum
Description: Colorless acicular single crystals
Raman shift (cm-1)	intensity
140.719	0
143.612	0.742626
146.505	0.195415
149.397	0.33239
152.29	1.31093
155.183	2.08767
158.075	0.602268
160.968	0.370014
163.861	0.26458
166.753	-0.300559
169.646	0.0745805
172.539	0.536794
175.431	0.774206
178.324	0.868421
181.217	0.895527
184.11	0.163292
187.002	1.0269
189.895	1.28791
192.788	0.81781
195.68	0.667957
198.573	0.392742
201.466	2.71386
204.358	2.35024
207.251	3.36441
210.144	3.76256
213.037	3.44913
215.929	3.99906
218.822	3.608
221.715	3.72676
224.607	4.79442
227.5	3.83518
230.393	3.83817
233.286	3.51473
236.178	3.64333
239.071	4.99423
241.964	3.85758
244.856	4.87706
247.749	3.63931
250.642	1.85963
253.534	1.86566
256.427	0.566374
259.32	0.165428
262.212	0.257462
265.105	0.937939
267.998	0.478693
270.891	1.13417
273.783	1.00656
276.676	0.351606
279.569	1.18827
282.461	0.815571
285.354	0.564034
288.247	1.5622
291.139	2.4357
294.032	1.75873
296.925	2.09166
299.817	3.64761
302.71	3.0423
305.603	2.83722
308.496	2.65295
311.388	2.69689
314.281	3.06223
317.174	2.8373
320.066	2.29495
322.959	2.44191
325.852	2.39151
328.745	3.05688
331.637	2.00263
334.53	2.89541
337.423	1.73743
340.315	1.7822
343.208	2.88196
346.101	1.18716
348.993	1.42332
351.886	1.87875
354.779	1.67664
357.671	1.58529
360.564	0.138983
363.457	1.04201
366.35	0.237101
369.242	0.745821
372.135	0.152225
375.028	0.836281
377.92	0.290627
380.813	0.484018
383.706	0.143394
386.599	0.149801
389.491	0.384457
392.384	0.238169
395.277	0.839987
398.169	0.978243
401.062	1.27422
403.955	1.51974
406.847	2.13549
409.74	2.67348
412.633	4.2175
415.526	3.88408
418.418	5.31349
421.311	6.03358
424.204	5.42254
427.096	5.19093
429.989	4.81823
432.882	4.88113
435.774	3.95602
438.667	4.05862
441.56	4.35342
444.452	4.46797
447.345	5.66827
450.238	5.34176
453.13	5.24135
456.023	5.99128
458.916	6.71193
461.809	6.55998
464.701	7.47296
467.594	7.10796
470.487	5.32533
473.379	5.62515
476.272	5.01164
479.165	3.92543
482.058	3.39683
484.95	3.27496
487.843	2.29288
490.736	1.72015
493.628	0.143206
496.521	0.085812
499.414	0.478382
502.306	0.464314
505.199	0.216862
508.092	0.511602
510.985	0.102531
513.877	0.808233
516.77	1.06466
519.663	0.119322
522.555	0.595411
525.448	0.038044
528.341	0.674015
531.233	0.761372
534.126	1.17697
537.019	0.584299
539.912	0.087484
542.804	0.607756
545.697	0.83746
548.59	0.083073
551.482	0.507542
554.375	0.224913
557.268	0.547733
560.16	0.552532
563.053	0.369469
565.946	0.545616
568.838	0.124846
571.731	0.083267
574.624	0.00264
577.516	0.421183
580.409	0.604841
583.302	0.815052
586.195	1.34255
589.087	2.11386
591.98	2.49717
594.873	2.35098
597.765	3.39528
600.658	3.43674
603.551	3.79407
606.443	4.84565
609.336	5.47173
612.229	5.06576
615.122	6.28511
618.014	5.46086
620.907	5.97197
623.8	5.37826
626.692	4.50045
629.585	3.66811
632.478	3.51358
635.37	3.36562
638.263	2.40924
641.156	2.23369
644.049	1.8606
646.941	1.67546
649.834	1.07322
652.727	1.18961
655.619	0.478589
658.512	0.14234
661.405	1.05673
664.298	0.497538
667.19	0.277337
670.083	0.563839
672.976	0.868736
675.868	0.679777
678.761	0.817832
681.654	0.829704
684.546	0.115879
687.439	1.11654
690.332	0.472215
693.225	0.054386
696.117	0.942001
699.01	0.555015
701.903	0.897383
704.795	0.727454
707.688	0.624748
710.581	0.241273
713.473	0.744467
716.366	0.018681
719.259	0.082665
722.151	0.295974
725.044	0.029609
727.937	0.248362
730.83	0.580057
733.722	0.911429
736.615	0.181421
739.508	0.321329
742.4	0.122078
745.293	0.492151
748.186	1.01951
751.078	0.663339
753.971	0.355406
756.864	0.533695
759.756	0.217961
762.649	0.339941
765.542	0.980004
768.435	0.829864
771.327	0.583941
774.22	0.276276
777.113	1.03214
780.005	1.26298
782.898	0.607759
785.791	1.01207
788.683	2.05298
791.576	0.809532
794.469	0.767521
797.362	1.58288
800.254	0.897881
803.147	1.08119
806.04	0.813894
808.932	1.29821
811.825	1.37857
814.718	1.5258
817.611	1.53287
820.503	0.41258
823.396	1.502
826.289	0.948698
829.181	1.0257
832.074	0.334743
834.967	2.09855
837.859	1.62964
840.752	1.09609
843.645	1.00671
846.538	1.49652
849.43	2.38354
852.323	1.09254
855.216	1.87669
858.108	1.71223
861.001	2.28349
863.894	1.9629
866.786	2.19008
869.679	0.97254
872.572	1.86392
875.464	2.39347
878.357	1.09657
881.25	1.12042
884.143	0.68668
887.035	1.74289
889.928	1.30923
892.821	0.849337
895.713	1.1663
898.606	0.738021
901.499	0.457395
904.391	0.15968
907.284	0.361021
910.177	0.173742
913.069	0.192898
915.962	1.1026
918.855	0.030229
921.748	0.761132
924.64	0.417294
927.533	0.201181
930.426	0.005731
933.318	0.249501
936.211	1.18951
939.104	0.874159
941.996	1.44346
944.889	2.4633
947.782	2.81365
950.675	2.44352
953.567	2.6083
956.46	4.78775
959.353	6.11153
962.245	8.19976
965.138	10.1906
968.031	12.4129
970.923	16.8414
973.816	19.6375
976.709	20.3508
979.602	17.5483
982.494	17.6903
985.387	25.349
988.28	35.2811
991.172	44.0791
994.065	47.156
996.958	42.8561
999.851	25.5722
1002.74	12.7774
1005.64	6.44003
1008.53	3.78482
1011.42	2.41976
1014.31	1.94726
1017.21	2.52054
1020.1	0.729404
1022.99	0.792585
1025.88	0.410622
1028.78	0.296929
1031.67	0.389812
1034.56	0.015895
1037.46	0.207942
1040.35	0.253658
1043.24	0.289751
1046.13	0.658951
1049.03	1.0061
1051.92	1.18409
1054.81	0.457485
1057.7	0.223092
1060.6	0.013346
1063.49	1.82597
1066.38	2.24539
1069.28	1.72585
1072.17	1.33514
1075.06	1.46002
1077.95	2.02992
1080.85	1.39827
1083.74	1.39298
1086.63	1.15097
1089.52	0.722145
1092.42	1.13762
1095.31	0.552004
1098.2	1.31578
1101.1	0.563303
1103.99	1.32709
1106.88	0.575796
1109.77	0.353106
1112.67	0.877712
1115.56	0.231076
1118.45	1.11791
1121.34	1.17264
1124.24	0.374619
1127.13	1.02129
1130.02	2.1304
1132.91	1.79412
1135.81	1.52461
1138.7	0.451759
1141.59	1.03997
1144.48	1.32603
1147.38	0.970157
1150.27	1.19314
1153.16	1.34514
1156.06	0.730228
1158.95	1.27177
1161.84	1.46107
1164.73	1.05882
1167.63	0.594909
1170.52	0.170247
1173.41	0.45803
1176.31	0.756135
1179.2	0.339064
1182.09	1.30046
1184.98	0.239386
1187.88	0.265427
1190.77	0.620338
1193.66	0.085525
1196.55	0.258273
1199.45	0.500838
1202.34	0.72002
1205.23	0.274871
1208.12	0.586099
1211.02	0.42906
1213.91	0.447206
1216.8	0.168374
1219.7	0.718122
1222.59	0.438467
1225.48	1.14549
1228.37	1.02513
1231.27	0.389087
1234.16	0.249703
1237.05	1.14213
1239.94	0.910798
1242.84	2.02145
1245.73	0.996322
1248.62	1.38014
1251.52	0.754339
1254.41	0.207994
1257.3	1.06021
1260.19	0.737247
1263.09	1.61576
1265.98	1.72416
1268.87	0.379128
1271.76	1.34674
1274.66	1.16381
1277.55	1.38925
1280.44	1.39751
1283.34	1.46571
1286.23	0
