Measurement: Raman, 780 nm, unoriented, Raman Data Processed
Mineral: Halotrichite
Rruff sample: R070673
Ideal chemistry: Fe^2+^Al_2_(S^6+^O_4_)_4_22H_2_O
Locality: Orphan mine, Grand Canyon, Coconino County, Arizona, USA
Source: Malcolm Alter
Description: Loose aggregates of pale blue silky fibers
Measured chemistry: (Fe_0.98_Ni_0.02_)_Σ=1_Al_2.00_(S_1.00_O_4_)_4_·22H_2_O; H_2_O estimated by difference
Raman shift (cm-1)	intensity
119.175	0
122.068	2.80188
124.961	6.90692
127.854	19.7339
130.746	24.2413
133.639	24.2131
136.532	20.9165
139.424	75.1608
142.317	48.0386
145.21	68.3725
148.102	68.7358
150.995	60.7123
153.888	90.9788
156.781	69.3206
159.673	1.63562
162.566	27.8428
165.459	18.6948
168.351	8.94232
171.244	7.60761
174.137	14.3148
177.03	29.8882
179.922	4.36591
182.815	61.2501
185.708	26.9048
188.6	31.5968
191.493	50.135
194.386	23.1472
197.278	53.3227
200.171	50.2769
203.064	53.4061
205.957	83.7306
208.849	79.0173
211.742	24.4033
214.635	89.7612
217.527	63.5603
220.42	55.3977
223.313	88.5308
226.205	84.6479
229.098	80.7257
231.991	109.29
234.883	109.697
237.776	108.12
240.669	97.2565
243.562	52.1655
246.454	79.1875
249.347	44.545
252.24	44.8369
255.132	50.4085
258.025	50.3818
260.918	31.9791
263.81	29.9374
266.703	12.7336
269.596	0.600006
272.489	7.07773
275.381	10.846
278.274	34.923
281.167	25.4611
284.059	1.88022
286.952	70.848
289.845	94.0298
292.738	71.3466
295.63	63.6476
298.523	48.1609
301.416	62.0627
304.308	71.5055
307.201	77.7895
310.094	7.14877
312.986	66.4661
315.879	56.4634
318.772	56.9081
321.664	63.1082
324.557	60.6857
327.45	55.5289
330.343	50.3509
333.235	31.0616
336.128	32.5607
339.021	44.0638
341.913	29.5393
344.806	44.7379
347.699	24.196
350.591	27.3925
353.484	19.3334
356.377	20.5679
359.27	24.1384
362.162	44.5748
365.055	25.9504
367.948	25.1999
370.84	4.46982
373.733	37.4754
376.626	14.6881
379.519	18.9774
382.411	8.58926
385.304	5.01975
388.197	56.5831
391.089	6.13199
393.982	32.4425
396.875	7.29266
399.767	28.7198
402.66	22.6834
405.553	20.8382
408.445	13.6792
411.338	32.8896
414.231	97.0295
417.124	85.9471
420.016	127.484
422.909	104.94
425.802	119.392
428.694	71.4265
431.587	93.2476
434.48	64.2733
437.373	88.1224
440.265	95.0425
443.158	97.4474
446.051	77.3419
448.943	94.3725
451.836	114.257
454.729	120.63
457.621	109.905
460.514	103.456
463.407	109.504
466.299	94.0017
469.192	93.1525
472.085	85.5371
474.978	71.3614
477.87	60.1469
480.763	37.3959
483.656	9.18921
486.548	20.0879
489.441	15.6749
492.334	11.1675
495.226	5.07181
498.119	23.1065
501.012	23.9772
503.904	16.7546
506.797	15.9953
509.69	16.4503
512.583	11.5962
515.475	3.24774
518.368	12.7945
521.261	8.26831
524.153	44.7194
527.046	18.0973
529.939	42.2866
532.832	58.8296
535.724	50.167
538.617	36.1977
541.51	16.7088
544.402	22.108
547.295	12.2235
550.188	18.989
553.08	3.19238
555.973	35.3325
558.866	27.7378
561.759	52.5293
564.651	5.26065
567.544	30.0067
570.437	28.0588
573.329	7.57282
576.222	31.7303
579.115	34.0911
582.007	9.17932
584.9	26.7798
587.793	30.0478
590.686	57.6481
593.578	4.57089
596.471	80.5393
599.364	66.274
602.256	62.6549
605.149	79.7257
608.042	110.889
610.934	93.0651
613.827	113.449
616.72	138.768
619.612	78.011
622.505	90.8219
625.398	81.1191
628.291	65.8303
631.183	73.5603
634.076	24.4871
636.969	47.2374
639.861	64.5808
642.754	38.7907
645.647	24.7425
648.54	50.7903
651.432	44.0057
654.325	29.483
657.218	25.5769
660.11	42.216
663.003	32.2063
665.896	3.01849
668.788	17.032
671.681	33.1655
674.574	14.1535
677.467	12.0647
680.359	33.1279
683.252	14.4849
686.145	3.16052
689.037	24.544
691.93	26.8923
694.823	6.75409
697.716	2.72073
700.608	9.31513
703.501	18.7383
706.394	15.6488
709.286	28.83
712.179	6.72748
715.072	15.8327
717.964	29.5306
720.857	28.2519
723.75	28.1309
726.643	29.5387
729.535	36.3634
732.428	4.98215
735.321	8.41126
738.213	12.4014
741.106	0.189117
743.999	27.5467
746.891	6.45316
749.784	0.279816
752.677	24.9061
755.569	27.5837
758.462	4.82111
761.355	10.1927
764.248	25.3978
767.14	10.7918
770.033	5.1019
772.926	31.881
775.818	2.55695
778.711	14.1008
781.604	41.2082
784.496	34.8928
787.389	45.7408
790.282	33.8126
793.175	35.704
796.067	34.1383
798.96	15.3148
801.853	35.4381
804.745	57.4113
807.638	55.6841
810.531	43.3436
813.423	60.4851
816.316	89.6978
819.209	65.7329
822.102	35.7943
824.994	70.193
827.887	66.405
830.78	90.1202
833.672	81.8872
836.565	61.5209
839.458	99.2408
842.35	43.762
845.243	82.6141
848.136	65.4289
851.029	60.0689
853.921	74.3633
856.814	75.929
859.707	54.5537
862.599	60.8643
865.492	74.4554
868.385	58.7441
871.277	85.3686
874.17	45.0164
877.063	31.7507
879.956	58.3549
882.848	32.5536
885.741	24.6526
888.634	44.596
891.526	24.3792
894.419	13.7065
897.312	12.9126
900.204	27.0119
903.097	15.5384
905.99	5.89261
908.883	9.3808
911.775	5.91186
914.668	19.37
917.561	9.18155
920.453	21.3547
923.346	1.81946
926.239	14.9511
929.131	23.2301
932.024	0.73941
934.917	9.98041
937.809	28.805
940.702	46.6401
943.595	34.1944
946.488	54.0306
949.38	91.6082
952.273	55.9539
955.166	103.773
958.058	126.132
960.951	118.266
963.844	172.707
966.736	182.731
969.629	228.573
972.522	310.86
975.415	296.688
978.307	282.308
981.2	247.398
984.093	282.208
986.985	439.518
989.878	617.305
992.771	642.914
995.663	631.912
998.556	409.359
1001.45	227.173
1004.34	114.573
1007.23	76.4079
1010.13	57.9667
1013.02	66.2596
1015.91	11.5553
1018.8	3.80035
1021.7	22.1787
1024.59	3.8396
1027.48	32.3857
1030.38	11.2173
1033.27	30.6497
1036.16	1.14197
1039.05	29.0073
1041.95	30.042
1044.84	13.6684
1047.73	17.4528
1050.62	16.7709
1053.52	30.1763
1056.41	21.1332
1059.3	17.8289
1062.2	29.9016
1065.09	32.0436
1067.98	19.2509
1070.87	11.7788
1073.77	5.45651
1076.66	51.5254
1079.55	22.014
1082.44	12.0932
1085.34	23.0538
1088.23	24.2864
1091.12	24.6228
1094.02	9.42383
1096.91	23.1305
1099.8	8.98981
1102.69	2.89926
1105.59	31.6405
1108.48	1.7724
1111.37	16.9203
1114.26	31.3495
1117.16	24.2832
1120.05	16.7885
1122.94	1.84172
1125.84	11.352
1128.73	35.2246
1131.62	7.44086
1134.51	18.8235
1137.41	18.108
1140.3	7.02118
1143.19	32.023
1146.08	43.7451
1148.98	4.65799
1151.87	19.3527
1154.76	40.0446
1157.65	17.4982
1160.55	9.76457
1163.44	11.7969
1166.33	30.2279
1169.22	24.6705
1172.12	8.16598
1175.01	32.4823
1177.9	31.9498
1180.8	11.5216
1183.69	22.0838
1186.58	18.537
1189.47	12.3065
1192.37	32.7085
1195.26	18.4834
1198.15	22.5832
1201.05	43.3097
1203.94	0.920502
1206.83	25.6362
1209.72	30.9814
1212.62	1.07133
1215.51	32.1079
1218.4	17.3836
1221.29	26.2098
1224.19	6.2361
1227.08	28.1003
1229.97	51.5581
1232.87	49.2323
1235.76	32.0226
1238.65	7.58768
1241.54	10.0037
1244.44	7.05582
1247.33	16.9647
1250.22	9.81262
1253.11	21.9311
1256.01	20.6197
1258.9	15.0174
1261.79	19.9938
1264.68	8.51727
