Measurement: Raman, 780 nm, unoriented, Raman Data Processed
Mineral: Hammarite
Rruff sample: R110028
Ideal chemistry: Cu^1+^_2_Pb^2+^_2_Bi^3+^_4_S^2-^_9_
Locality: Baita Mining District (Baita Bihor; Rezbanya), Nucet, Bihor Co., Romania
Source: Bob Jenkins
Description: Steel-gray parallel aggregates of prismatic crystals
Raman shift (cm-1)	intensity
152.798	0
155.691	2.18128
158.584	0.671463
161.477	0.630192
164.369	0.011395
167.262	2.68295
170.155	5.04984
173.047	3.56538
175.94	3.86681
178.833	2.80254
181.726	5.21967
184.618	6.87166
187.511	6.13951
190.404	5.59086
193.296	5.48611
196.189	4.16493
199.082	3.85923
201.974	1.74661
204.867	3.07287
207.76	0.539288
210.652	0.855541
213.545	4.63107
216.438	3.5965
219.331	5.40565
222.223	5.2885
225.116	6.09916
228.009	8.72191
230.901	12.6303
233.794	12.7037
236.687	18.4675
239.579	19.7874
242.472	25.3436
245.365	28.0966
248.257	34.6091
251.15	41.1428
254.043	40.5403
256.936	42.4776
259.828	40.5192
262.721	34.627
265.614	32.6633
268.506	25.6211
271.399	23.7513
274.292	17.5937
277.185	12.617
280.077	13.421
282.97	6.93204
285.863	5.01317
288.755	3.9133
291.648	1.22328
294.541	1.78274
297.433	1.78368
300.326	0.597708
303.219	0.57999
306.111	2.65304
309.004	0.701847
311.897	1.79763
314.79	1.09069
317.682	0.890736
320.575	1.86001
323.468	3.54428
326.36	1.36016
329.253	0.946972
332.146	1.41286
335.038	1.05386
337.931	0.808054
340.824	2.91899
343.717	2.48009
346.609	3.99406
349.502	3.06692
352.395	2.17143
355.287	3.39454
358.18	3.26688
361.073	0.654607
363.965	4.62423
366.858	1.41339
369.751	1.50132
372.644	5.91757
375.536	2.83835
378.429	2.2785
381.322	2.84124
384.214	5.47985
387.107	1.766
390	3.70073
392.892	2.20834
395.785	1.04032
398.678	1.51946
401.57	3.20508
404.463	3.6379
407.356	4.1006
410.249	3.567
413.141	2.16358
416.034	0.435471
418.927	2.91021
421.819	2.78924
424.712	2.25685
427.605	0.726132
430.498	2.01922
433.39	0.805614
436.283	1.86855
439.176	1.69946
442.068	1.7265
444.961	1.20626
447.854	2.17336
450.746	2.37957
453.639	3.26803
456.532	1.30632
459.425	2.75808
462.317	1.24588
465.21	2.84232
468.103	4.63826
470.995	1.06691
473.888	2.00115
476.781	3.08475
479.673	1.70467
482.566	2.23567
485.459	2.43504
488.351	0.307178
491.244	1.5694
494.137	1.7412
497.029	1.25317
499.922	2.18128
502.815	0.824154
505.708	2.46463
508.6	1.74386
511.493	2.71091
514.386	1.83278
517.278	4.71756
520.171	0.330706
523.064	0.936488
525.957	2.37451
528.849	4.65461
531.742	1.40924
534.635	3.82775
537.527	3.40671
540.42	2.91016
543.313	3.88966
546.205	2.66793
549.098	3.7321
551.991	3.13271
554.884	1.38825
557.776	3.31366
560.669	3.502
563.562	2.73083
566.454	1.68598
569.347	3.57304
572.24	0.673358
575.132	1.76834
578.025	3.60962
580.918	0.271528
583.811	2.00324
586.703	0.502214
589.596	2.13047
592.489	1.87874
595.381	0.939782
598.274	2.03939
601.167	2.13011
604.059	1.78923
606.952	3.32109
609.845	0.818745
612.737	2.43788
615.63	1.96152
618.523	0.902957
621.416	2.94291
624.308	2.34578
627.201	1.69793
630.094	1.85648
632.986	0.779133
635.879	2.49872
638.772	0.934335
641.664	2.06981
644.557	2.47878
647.45	2.7546
650.342	2.16029
653.235	0.236268
656.128	1.25068
659.021	3.41805
661.913	1.89787
664.806	0.677255
667.699	1.5897
670.591	1.5783
673.484	0.528444
676.377	3.3043
679.269	0.787032
682.162	3.2366
685.055	2.54531
687.948	1.50041
690.84	0.421792
693.733	1.22801
696.626	2.49164
699.518	1.2016
702.411	1.46982
705.304	2.47766
708.197	2.87434
711.089	1.53068
713.982	1.38646
716.875	1.62623
719.767	2.89528
722.66	1.4754
725.553	0.069477
728.445	3.16054
731.338	0.631368
734.231	0.088415
737.124	1.4531
740.016	2.79277
742.909	2.58599
745.802	0.45944
748.694	2.08689
751.587	0.658452
754.48	1.58662
757.372	2.19712
760.265	1.99578
763.158	2.16224
766.051	1.31734
768.943	2.22802
771.836	0.466783
774.729	1.63204
777.621	1.16596
780.514	2.7224
783.407	1.11366
786.299	1.62478
789.192	1.95161
792.085	3.56893
794.977	2.76002
797.87	1.31546
800.763	3.55395
803.655	1.11866
806.548	2.46404
809.441	0.118363
812.334	1.15095
815.226	2.89168
818.119	1.12573
821.012	3.71446
823.904	3.61599
826.797	4.55912
829.69	2.14979
832.582	3.91393
835.475	1.44503
838.368	3.05784
841.261	2.09722
844.153	1.16297
847.046	1.85391
849.939	3.51348
852.831	0.697828
855.724	0.367185
858.617	3.37994
861.51	1.22211
864.402	2.85104
867.295	1.21816
870.188	2.24863
873.08	1.47954
875.973	0.047313
878.866	1.82401
881.758	1.61375
884.651	1.85006
887.544	1.98947
890.437	1.24671
893.329	0.871766
896.222	1.35566
899.115	0.74648
902.007	2.17831
904.9	0.772123
907.793	0.285131
910.685	0.824466
913.578	2.34084
916.471	0.15665
919.364	1.66706
922.256	0.276425
925.149	0.998406
928.042	2.4039
930.934	2.09176
933.827	0.516615
936.72	0.600557
939.612	3.47279
942.505	0.639092
945.398	1.10648
948.29	0.241045
951.183	1.39365
954.076	0.793632
956.968	3.61789
959.861	4.09279
962.754	2.08534
965.647	0.913684
968.539	0.915934
971.432	2.39133
974.325	3.70163
977.217	1.68994
980.11	0.388885
983.003	1.44383
985.895	2.97628
988.788	2.29425
991.681	2.91656
994.574	2.89454
997.466	2.71954
1000.36	0.088078
1003.25	2.86883
1006.14	2.89073
1009.04	3.41909
1011.93	0.291188
1014.82	1.39935
1017.72	0.076723
1020.61	2.92237
1023.5	0.832448
1026.39	2.13548
1029.29	2.24912
1032.18	1.87362
1035.07	2.94601
1037.96	0.728477
1040.86	2.00889
1043.75	3.25472
1046.64	0.907493
1049.54	0.707016
1052.43	3.32301
1055.32	3.12577
1058.21	1.06902
1061.11	1.03422
1064	2.02648
1066.89	1.90641
1069.78	0.970785
1072.68	2.92714
1075.57	1.45714
1078.46	0.321728
1081.35	2.62614
1084.25	0.411809
1087.14	2.62377
1090.03	1.58889
1092.92	2.05769
1095.82	1.60376
1098.71	0.393365
1101.6	0.808974
1104.5	3.32304
1107.39	1.54567
1110.28	3.04043
1113.17	0.48748
1116.07	2.73136
1118.96	2.18115
1121.85	2.86542
1124.74	1.90674
1127.64	0.628896
1130.53	0.212367
1133.42	3.47844
1136.32	2.1449
1139.21	1.80401
1142.1	4.26105
1144.99	3.45699
1147.89	4.60619
1150.78	2.5394
1153.67	3.11117
1156.57	3.40381
1159.46	2.01878
1162.35	1.75377
1165.24	2.32132
1168.13	3.71972
1171.03	2.65576
1173.92	3.71954
1176.81	2.42828
1179.71	1.68224
1182.6	2.85681
1185.49	1.77541
1188.38	2.95816
1191.28	2.64648
1194.17	1.30275
1197.06	5.9888
1199.95	3.11689
1202.85	3.24791
1205.74	0.508548
1208.63	1.22663
1211.53	2.09309
1214.42	2.17457
1217.31	3.63525
1220.2	1.49123
1223.1	0.148549
1225.99	1.21203
1228.88	3.10704
1231.78	1.0939
1234.67	3.229
1237.56	1.94136
1240.45	2.51135
1243.35	2.05713
1246.24	2.85574
1249.13	0.87741
1252.02	1.20955
1254.92	3.64156
1257.81	1.19142
1260.7	2.61313
1263.59	2.7643
1266.49	3.24551
1269.38	2.93975
1272.27	0.068951
1275.16	1.53865
1278.06	2.48763
1280.95	2.39147
1283.84	0.006371
