Measurement: Raman, 532 nm, unoriented, Raman Data Processed
Mineral: Hastingsite
Rruff sample: R070250
Ideal chemistry: NaCa_2_(Fe^2+^_4_Fe^3+^)(Si_6_Al_2_)O_22_(OH)_2_
Locality: unnamed quarry, Dmitrievka village, Mariupol' Massif (Oktyabr'skii), Azov Sea Region, Donetsk Oblast', Ukraine
Source: Michael Scott
Description: Dark green to black crystals exhibiting typical amphibole cleavage
Measured chemistry: ([box]_0.38_Na_0.34_K_0.28_)_Σ=1_(Ca_1.70_Na_0.30_)_Σ=2_((Fe^2+^_2.99_Mg_0.81_Mn_0.07_)_Σ=3.87_(Fe^3+^_0.75_Ti_0.22_Al_0.16_)_Σ=1.13_)_Σ=5_(Si_6.33_Al_1.67_)O_22_((OH)_1.57_F_0.37_Cl_0.06_)_Σ=2_; (OH) estimated by difference
Raman shift (cm-1)	intensity
161.715	0
164.607	2.06592
167.5	7.75684
170.393	36.5906
173.286	37.9846
176.178	98.395
179.071	10.2729
181.964	36.8503
184.856	42.5347
187.749	46.6973
190.642	42.9145
193.535	11.2563
196.427	50.0684
199.32	83.1873
202.213	112.296
205.105	69.3645
207.998	123.229
210.891	101.791
213.783	117.074
216.676	120.176
219.569	137.054
222.462	104.396
225.354	90.6108
228.247	53.5491
231.14	63.8501
234.032	3.06348
236.925	68.3276
239.818	65.9863
242.71	55.1724
245.603	18.8896
248.496	65.2246
251.388	23.2788
254.281	31.9756
257.174	17.8003
260.067	6.09668
262.959	1.40869
265.852	27.7036
268.745	1.33838
271.637	2.05225
274.53	7.09814
277.423	22.7217
280.315	36.1352
283.208	62.9414
286.101	54.6597
288.994	47.771
291.886	73.1606
294.779	77.0884
297.672	80.3648
300.564	33.6279
303.457	63.29
306.35	23.9453
309.243	36.0977
312.135	96.2319
315.028	1.13281
317.921	44.0723
320.813	28.4858
323.706	44.7969
326.599	66.4629
329.491	56.1645
332.384	23.9404
335.277	60.8179
338.17	44.3091
341.062	35.7734
343.955	50.9839
346.848	28.5234
349.74	35.7549
352.633	28.6323
355.526	9.54785
358.418	22.1099
361.311	105.75
364.204	3.62549
367.097	6.33936
369.989	2.56543
372.882	36.1797
375.775	18.7178
378.667	44.9365
381.56	37.331
384.453	87.3052
387.346	36.125
390.238	39.8765
393.131	38.4009
396.024	93.3979
398.916	58.3579
401.809	4.81055
404.702	38.7334
407.594	24.1426
410.487	20.9365
413.38	140.347
416.272	70.6899
419.165	74.1216
422.058	81.2256
424.951	60.3042
427.843	100.001
430.736	48.686
433.629	98.7275
436.521	81.062
439.414	33.374
442.307	21.6182
445.2	15.8945
448.092	23.3032
450.985	48.3452
453.878	6.38232
456.77	32.4912
459.663	25.7261
462.556	7.4668
465.448	34.8696
468.341	17.4663
471.234	39.4775
474.127	22.7456
477.019	45.0869
479.912	62.0102
482.805	25.189
485.697	48.1255
488.59	97.7148
491.483	56.7607
494.375	108.172
497.268	117.986
500.161	132.204
503.053	183.698
505.946	132.584
508.839	261.182
511.732	226.472
514.624	288.514
517.517	249.597
520.41	245.287
523.302	269.121
526.195	255.751
529.088	328.863
531.981	259.505
534.873	297.647
537.766	277.175
540.659	279.324
543.551	352.903
546.444	310.408
549.337	326.979
552.229	274.273
555.122	236.513
558.015	278.514
560.908	265.056
563.8	183.519
566.693	218.541
569.586	99.1187
572.478	82.0102
575.371	85.5503
578.264	43.3345
581.156	8.99414
584.049	83.3843
586.942	20.2021
589.835	23.311
592.727	18.0889
595.62	55.2036
598.513	42.8101
601.405	50.5591
604.298	20.8643
607.191	4.22559
610.083	0.445801
612.976	59.8838
615.869	115.772
618.762	55.2456
621.654	71.417
624.547	130.386
627.44	179.279
630.332	146.095
633.225	136.433
636.118	180.117
639.01	171.373
641.903	235.051
644.796	273.013
647.689	289.302
650.581	356.779
653.474	353.787
656.367	383.196
659.259	402.478
662.152	413.768
665.045	325.366
667.938	287.988
670.83	188.526
673.723	166.074
676.616	125.47
679.508	162.473
682.401	62.6694
685.294	71.2305
688.186	96.3638
691.079	137.041
693.972	74.4243
696.865	63.208
699.757	180.415
702.65	130.993
705.543	209.773
708.435	188.296
711.328	281.551
714.221	313.662
717.113	287.471
720.006	348.945
722.899	248.499
725.792	271.449
728.684	240.608
731.577	208.515
734.47	231.153
737.362	156.312
740.255	82.9761
743.148	141.965
746.04	98.7983
748.933	10.834
751.826	23.8745
754.719	22.8716
757.611	7.71289
760.504	0.171387
763.397	40.2251
766.289	4.98975
769.182	0.868164
772.075	25.7314
774.967	1.69189
777.86	106.82
780.753	34.8486
783.646	120.829
786.538	42.8389
789.431	76.0679
792.324	110.886
795.216	27.874
798.109	59.3227
801.002	39.5278
803.894	29.8892
806.787	37.8086
809.68	32.0225
812.573	37.7612
815.465	19.749
818.358	21.8364
821.251	82.5112
824.143	28.2803
827.036	26.7407
829.929	57.3643
832.822	47.5322
835.714	76.9263
838.607	44.1065
841.5	29.9131
844.392	83.1152
847.285	87.25
850.178	79.5298
853.07	23.8335
855.963	93.6235
858.856	89.1841
861.749	36.0991
864.641	32.3965
867.534	30.8491
870.427	65.9795
873.319	37.6763
876.212	14.04
879.105	91.5288
881.997	113.045
884.89	141.279
887.783	65.6006
890.676	89.375
893.568	42.6357
896.461	67.875
899.354	57.6982
902.246	92.3506
905.139	82.8379
908.032	42.6855
910.924	83.6514
913.817	56.208
916.71	89.5781
919.602	117.823
922.495	41.4102
925.388	131.075
928.281	17.9697
931.173	60.1045
934.066	90.6572
936.959	67.085
939.851	40.5801
942.744	68.9111
945.637	113.13
948.529	39.9102
951.422	87.8857
954.315	34.9844
957.208	44.3955
960.1	83.3408
962.993	49.4941
965.886	43.2344
968.778	20.002
971.671	38.0537
974.564	43.376
977.457	29.5986
980.349	117.12
983.242	21.7881
986.135	4.97363
989.027	78.3984
991.92	104.989
994.813	78.7148
997.705	150.489
1000.6	101.647
1003.49	205.062
1006.38	172.625
1009.28	202.754
1012.17	34.0996
1015.06	107.112
1017.95	122.856
1020.85	108.844
1023.74	102.075
1026.63	149.009
1029.53	99.3447
1032.42	73.1074
1035.31	28.8662
1038.2	52.1973
1041.1	61.1758
1043.99	11.9141
1046.88	133.373
1049.77	36.9502
1052.67	33.6191
1055.56	79.3496
1058.45	128.176
1061.35	83.7363
1064.24	16.7783
1067.13	96.3418
1070.02	10.625
1072.92	4.42188
1075.81	124.96
1078.7	16.6748
1081.59	27.7578
1084.49	46.1738
1087.38	59.8594
1090.27	69.4609
1093.16	19.7139
1096.06	112.445
1098.95	13.7471
1101.84	8.6875
1104.73	17.7129
1107.63	33.8721
1110.52	29.4248
1113.41	36.1035
1116.31	94.7168
1119.2	73.8603
1122.09	86.9316
1124.98	76.6143
1127.88	62.7578
1130.77	48.9287
1133.66	4.07519
1136.56	95.9121
1139.45	35.5576
1142.34	55.709
1145.23	48.3086
1148.13	40.6113
1151.02	55.707
1153.91	62.4287
1156.8	78.3106
1159.7	109.909
1162.59	106.247
1165.48	109.462
1168.38	76.7656
1171.27	42.1318
1174.16	39.3799
1177.05	81.5039
1179.95	35.0205
1182.84	6.01758
1185.73	61.7324
1188.62	50.0381
1191.52	99.8164
1194.41	78.2686
1197.3	16.6318
1200.19	54.6191
1203.09	1.63867
1205.98	28.2822
1208.87	79.3955
1211.77	36.9346
1214.66	29.3604
1217.55	75.4453
1220.44	80.4482
1223.34	90.2246
1226.23	26.5635
1229.12	88.5742
1232.01	59.4688
1234.91	42.7051
1237.8	52.3848
1240.69	58.8623
1243.59	128.449
1246.48	71.0898
1249.37	86.4121
1252.26	25.834
1255.16	127.585
1258.05	45.2783
1260.94	206.356
1263.83	90.5596
1266.73	97.7559
1269.62	58.2305
1272.51	71.4033
1275.4	40.7988
1278.3	121.766
1281.19	73.5684
1284.08	57.1357
1286.98	22.373
1289.87	48.2148
1292.76	79.083
1295.65	0.417969
1298.55	15.1494
1301.44	86.8682
1304.33	101.871
1307.22	87.4902
1310.12	28.8623
1313.01	12.918
