Measurement: Raman, 532 nm, unoriented, Raman Data Processed
Mineral: Hastingsite
Rruff sample: R070194
Ideal chemistry: NaCa_2_(Fe^2+^_4_Fe^3+^)(Si_6_Al_2_)O_22_(OH)_2_
Locality: Seglenge, Sweden
Source: California Institute of Technology
Description: Black cleavage fragment
Measured chemistry: (Na_0.39_K_0.32_[box]_0.29_)_Σ=1_(Ca_1.75_Na_0.25_)_Σ=2_((Fe^2+^_3.52_Mg_0.34_Mn_0.12_)_Σ=3.98_(Fe^3+^_0.66_Ti_0.24_Al_0.12_)_Σ=1.02_)_Σ=5_(Si_6.28_Al_1.64_)O_22_((OH)_1.79_F_0.17_Cl_0.04_)_Σ=2_; (OH) estimated by difference
Raman shift (cm-1)	intensity
153.556	0
156.449	17.6694
159.342	10.7719
162.235	32.2382
165.127	19.9109
168.02	51.5028
170.913	69.4877
173.805	45.9779
176.698	41.9109
179.591	29.6719
182.483	10.4362
185.376	4.75354
188.269	26.9722
191.162	52.0582
194.054	81.6646
196.947	61.9158
199.84	63.4929
202.732	70.0559
205.625	51.2975
208.518	39.0897
211.411	74.5785
214.303	74.4056
217.196	11.2346
220.089	33.4855
222.981	8.31909
225.874	29.0205
228.767	15.8877
231.659	13.3269
234.552	32.0751
237.445	33.6713
240.338	31.1936
243.23	68.8464
246.123	47.3801
249.016	60.3176
251.908	36.4961
254.801	31.3041
257.694	2.34314
260.586	3.59192
263.479	12.0248
266.372	6.69861
269.264	10.8578
272.157	41.8125
275.05	46.9571
277.943	62.9716
280.835	71.7667
283.728	80.9415
286.621	74.407
289.513	69.0138
292.406	94.3508
295.299	85.4156
298.192	66.3977
301.084	96.1864
303.977	97.124
306.87	48.6288
309.762	77.1125
312.655	50.1376
315.548	91.5177
318.44	51.7672
321.333	56.172
324.226	47.6898
327.118	53.823
330.011	34.3804
332.904	19.9959
335.797	55.0166
338.689	27.5201
341.582	71.3768
344.475	53.8972
347.367	49.9481
350.26	63.7614
353.153	76.9211
356.046	45.0346
358.938	61.7355
361.831	53.3818
364.724	48.5635
367.616	62.9481
370.509	48.0607
373.402	35.9382
376.294	10.8799
379.187	31.3429
382.08	27.9081
384.973	39.6256
387.865	13.839
390.758	8.73523
393.651	15.474
396.543	3.30823
399.436	16.3857
402.329	10.6982
405.221	7.27918
408.114	2.40662
411.007	51.8563
413.899	70.2754
416.792	70.1412
419.685	98.2595
422.578	113.037
425.47	165.833
428.363	148.576
431.256	116.315
434.148	150.36
437.041	108.129
439.934	107.477
442.827	46.1093
445.719	54.7578
448.612	25.4613
451.505	19.9741
454.397	40.2599
457.29	35.8217
460.183	40.9006
463.075	30.899
465.968	18.9851
468.861	18.4712
471.753	16.5316
474.646	10.6945
477.539	33.4386
480.432	62.7787
483.324	83.9554
486.217	95.8674
489.11	126.653
492.002	165.371
494.895	177.911
497.788	220.999
500.68	276.3
503.573	274.997
506.466	322.033
509.359	352.423
512.251	413.241
515.144	416.387
518.037	461.537
520.929	514.417
523.822	547.413
526.715	587.576
529.607	563.943
532.5	527.99
535.393	509.312
538.286	498.7
541.178	471.219
544.071	416.103
546.964	424.418
549.856	415.61
552.749	375.099
555.642	330.974
558.534	288.449
561.427	275.651
564.32	224.15
567.213	181.702
570.105	141.53
572.998	95.1372
575.891	63.5841
578.783	73.1371
581.676	46.4625
584.569	48.9249
587.462	8.86987
590.354	2.67712
593.247	1.95862
596.14	6.82642
599.032	7.99744
601.925	10.6531
604.818	27.1858
607.71	4.18091
610.603	7.84119
613.496	4.95972
616.389	6.78686
619.281	6.89746
622.174	20.9972
625.067	10.759
627.959	13.5211
630.852	64.1213
633.745	25.0233
636.638	97.7482
639.53	127.521
642.423	141.878
645.316	197.257
648.208	191.448
651.101	242.806
653.994	252.075
656.886	276.595
659.779	250.372
662.672	219.088
665.564	170.191
668.457	104.439
671.35	81.1309
674.243	94.4785
677.135	42.9641
680.028	40.183
682.921	52.2831
685.813	33.1765
688.706	51.4878
691.599	70.8665
694.491	49.3815
697.384	107.03
700.277	135.179
703.17	151.162
706.062	159.361
708.955	179.774
711.848	224.304
714.74	227.286
717.633	248.072
720.526	239.644
723.418	243.188
726.311	246.564
729.204	199.918
732.097	205.269
734.989	177.769
737.882	162.544
740.775	135.202
743.667	110.521
746.56	83.0991
749.453	95.8531
752.346	59.4271
755.238	64.4246
758.131	88.0002
761.024	81.6497
763.916	90.312
766.809	73.5156
769.702	93.288
772.594	102.253
775.487	109.812
778.38	107.622
781.273	104.089
784.165	98.8227
787.058	80.555
789.951	29.5321
792.843	53.4387
795.736	56.3682
798.629	38.786
801.521	21.954
804.414	8.84448
807.307	13.3301
810.199	5.97937
813.092	7.26343
815.985	4.78918
818.878	12.0193
821.77	13.4805
824.663	8.84558
827.556	2.19641
830.448	12.6996
833.341	21.4559
836.234	7.40576
839.126	1.76453
842.019	20.5763
844.912	10.7236
847.805	31.2585
850.697	32.7102
853.59	30.3287
856.483	55.375
859.375	30.0966
862.268	11.1997
865.161	49.514
868.053	37.035
870.946	62.7184
873.839	42.9562
876.732	60.1222
879.624	67.5796
882.517	61.7484
885.41	71.6904
888.302	34.7142
891.195	58.0031
894.088	35.4691
896.981	27.8787
899.873	43.3715
902.766	11.6599
905.659	3.75623
908.551	1.24683
911.444	4.44958
914.337	41.6636
917.229	16.1675
920.122	4.21802
923.015	42.6143
925.908	47.8068
928.8	42.1051
931.693	29.7291
934.586	45.7673
937.478	48.0076
940.371	66.7255
943.264	38.9517
946.156	12.8735
949.049	73.9759
951.942	26.9639
954.835	36.6793
957.727	21.0446
960.62	33.9388
963.513	4.88513
966.405	18.001
969.298	8.05542
972.191	28.3464
975.083	16.745
977.976	10.7201
980.869	3.07544
983.761	44.6194
986.654	13.8834
989.547	57.3807
992.44	81.262
995.332	72.6492
998.225	81.8104
1001.12	79.7312
1004.01	82.4467
1006.9	76.8259
1009.8	81.9226
1012.69	98.8635
1015.58	96.3417
1018.47	73.7317
1021.37	72.7854
1024.26	82.8099
1027.15	82.9508
1030.05	78.2753
1032.94	83.8296
1035.83	65.9769
1038.72	60.8618
1041.62	77.4733
1044.51	45.3003
1047.4	67.2164
1050.29	81.3214
1053.19	56.2756
1056.08	44.0187
1058.97	67.7714
1061.86	45.7321
1064.76	50.1882
1067.65	33.5292
1070.54	53.2084
1073.43	33.4199
1076.33	56.3556
1079.22	12.9727
1082.11	39.155
1085.01	19.6612
1087.9	64.7198
1090.79	25.6898
1093.68	9.96118
1096.58	8.67078
1099.47	26.6814
1102.36	47.0803
1105.26	22.1921
1108.15	10.6251
1111.04	23.9109
1113.93	40.4906
1116.83	22.7427
1119.72	21.5841
1122.61	6.36255
1125.5	10.0863
1128.4	0.209717
1131.29	43.3456
1134.18	31.0949
1137.08	9.44214
1139.97	7.45691
1142.86	12.5787
1145.75	18.7219
1148.65	27.8763
1151.54	23.9965
1154.43	37.439
1157.32	14.2312
1160.22	59.5354
1163.11	60.5917
1166	14.1616
1168.89	26.1221
1171.79	35.2363
1174.68	50.4193
1177.57	28.3372
1180.46	62.057
1183.36	49.2687
1186.25	37.911
1189.14	43.6282
1192.04	65.8018
1194.93	6.59729
1197.82	46.2191
1200.71	58.1002
1203.61	41.4728
1206.5	24.2926
1209.39	47.103
1212.29	44.2024
1215.18	37.6211
1218.07	37.6652
1220.96	51.3245
1223.86	25.5481
1226.75	73.0502
1229.64	43.6913
1232.53	36.155
1235.43	5.37329
1238.32	71.2101
1241.21	24.7687
1244.11	35.3696
1247	32.7307
1249.89	47.5665
1252.78	26.1857
1255.67	14.6708
1258.57	10.2928
1261.46	23.4977
1264.35	3.97595
1267.25	8.9198
1270.14	8.23498
1273.03	21.5022
1275.92	33.0979
1278.82	17.1451
1281.71	19.3534
1284.6	23.4391
1287.49	39.8279
1290.39	13.2236
1293.28	14.3904
1296.17	32.2788
1299.07	26.6925
