Measurement: Raman, 785 nm, unoriented, Raman Data Processed
Mineral: Hastingsite
Rruff sample: R070194
Ideal chemistry: NaCa_2_(Fe^2+^_4_Fe^3+^)(Si_6_Al_2_)O_22_(OH)_2_
Locality: Seglenge, Sweden
Source: California Institute of Technology
Description: Black cleavage fragment
Measured chemistry: (Na_0.39_K_0.32_[box]_0.29_)_Σ=1_(Ca_1.75_Na_0.25_)_Σ=2_((Fe^2+^_3.52_Mg_0.34_Mn_0.12_)_Σ=3.98_(Fe^3+^_0.66_Ti_0.24_Al_0.12_)_Σ=1.02_)_Σ=5_(Si_6.28_Al_1.64_)O_22_((OH)_1.79_F_0.17_Cl_0.04_)_Σ=2_; (OH) estimated by difference
Raman shift (cm-1)	intensity
154.576	0
157.468	54.3274
160.361	8.39624
163.254	13.3662
166.146	31.5532
169.039	21.5294
171.932	51.5824
174.824	53.2188
177.717	16.9753
180.61	34.6206
183.502	12.099
186.395	35.7267
189.288	46.9548
192.181	48.4495
195.073	73.7519
197.966	31.2849
200.859	41.1732
203.751	71.4237
206.644	75.9741
209.537	70.9172
212.429	71.8223
215.322	68.384
218.215	92.8002
221.108	138.55
224	109.996
226.893	115.059
229.786	113.488
232.678	102.55
235.571	116.691
238.464	89.6928
241.357	75.2767
244.249	86.2635
247.142	96.7425
250.035	50.7067
252.927	67.076
255.82	39.4412
258.713	17.3831
261.605	0.591187
264.498	22.3569
267.391	21.1314
270.284	23.8652
273.176	33.7866
276.069	14.257
278.962	37.7401
281.854	56.6958
284.747	58.8315
287.64	60.21
290.532	52.053
293.425	75.295
296.318	32.3511
299.211	46.7914
302.103	35.5975
304.996	39.5679
307.889	36.3441
310.781	40.5568
313.674	19.6141
316.567	23.5034
319.459	19.8927
322.352	15.1604
325.245	23.8612
328.137	15.9501
331.03	2.02405
333.923	7.75586
336.816	43.1948
339.708	3.82117
342.601	9.83691
345.494	23.5367
348.386	44.7899
351.279	29.0635
354.172	54.4031
357.065	41.0092
359.957	90.2936
362.85	107.904
365.743	130.351
368.635	144.785
371.528	117.696
374.421	95.201
377.313	93.5016
380.206	64.1516
383.099	45.052
385.991	55.4657
388.884	55.3756
391.777	2.1084
394.67	46.6803
397.562	10.066
400.455	7.54761
403.348	10.8259
406.24	30.0801
409.133	11.2971
412.026	37.2406
414.918	35.2539
417.811	26.6381
420.704	58.6394
423.597	76.454
426.489	101.441
429.382	72.0099
432.275	77.9624
435.167	75.4987
438.06	84.0432
440.953	53.5337
443.846	16.1652
446.738	60.7145
449.631	9.4884
452.524	16.9817
455.416	30.8851
458.309	0.541626
461.202	15.7018
464.094	22.8957
466.987	2.83984
469.88	32.8927
472.772	6.67871
475.665	11.36
478.558	0.771851
481.451	0.247803
484.343	42.2803
487.236	77.4943
490.129	56.9928
493.021	123.4
495.914	103.671
498.807	128.593
501.7	174.865
504.592	178.358
507.485	169.182
510.378	215.459
513.27	244.536
516.163	262.804
519.056	301.132
521.948	328.655
524.841	345.374
527.734	337.193
530.626	322.694
533.519	255.32
536.412	281.491
539.305	258.415
542.197	237.749
545.09	242.183
547.983	202.039
550.875	184.723
553.768	204.759
556.661	202.383
559.553	136.59
562.446	123.429
565.339	117.55
568.232	134.948
571.124	99.6509
574.017	81.4954
576.91	82.3865
579.802	66.8817
582.695	30.6454
585.588	50.2898
588.481	21.2787
591.373	1.16077
594.266	11.1366
597.159	7.93189
600.051	8.76379
602.944	8.24939
605.837	3.84003
608.729	7.94421
611.622	15.7573
614.515	4.58875
617.408	17.6418
620.3	33.3284
623.193	53.628
626.086	36.9344
628.978	77.2249
631.871	63.7942
634.764	91.4575
637.656	95.882
640.549	134.377
643.442	153.856
646.335	186.284
649.227	231.454
652.12	259.16
655.013	323.892
657.905	363.077
660.798	425.559
663.691	468.516
666.583	498.238
669.476	584.603
672.369	664.885
675.261	683.868
678.154	730.169
681.047	674.679
683.94	613.532
686.832	520.508
689.725	445.86
692.618	340.224
695.51	301.448
698.403	242.063
701.296	204.84
704.188	180.067
707.081	166.132
709.974	137.215
712.867	121.885
715.759	85.6254
718.652	99.5026
721.545	65.9165
724.437	50.9518
727.33	28.9469
730.223	61.5843
733.115	40.3911
736.008	3.24927
738.901	47.1748
741.794	8.5835
744.686	24.3983
747.579	8.91846
750.472	17.3835
753.364	21.5201
756.257	10.6832
759.15	11.9288
762.043	5.0285
764.935	1.22107
767.828	25.5947
770.721	15.2197
773.613	1.94275
776.506	9.8974
779.399	10.4587
782.291	9.19464
785.184	29.1035
788.077	38.861
790.97	38.7355
793.862	48.2053
796.755	40.3804
799.648	30.2234
802.54	30.2469
805.433	2.59589
808.326	15.1985
811.218	0.844788
814.111	22.1304
817.004	3.36841
819.896	39.5782
822.789	59.6938
825.682	44.7467
828.575	24.9941
831.467	31.7741
834.36	26.0287
837.253	37.3657
840.145	33.6308
843.038	33.0726
845.931	25.5593
848.823	24.3937
851.716	17.312
854.609	17.2499
857.502	11.8116
860.394	26.8051
863.287	6.53058
866.18	6.22473
869.072	22.9053
871.965	18.6622
874.858	4.94501
877.75	12.6377
880.643	8.53802
883.536	4.98157
886.429	0.674011
889.321	27.1419
892.214	8.82367
895.107	14.3985
897.999	36.6918
900.892	32.4734
903.785	20.9219
906.678	34.4268
909.57	34.5729
912.463	62.2747
915.356	24.3245
918.248	33.0434
921.141	12.8738
924.034	19.2393
926.926	28.1841
929.819	29.7048
932.712	0.266052
935.605	17.3807
938.497	9.74457
941.39	3.65924
944.283	44.3648
947.175	31.7817
950.068	22.5506
952.961	41.7709
955.853	40.3469
958.746	28.9078
961.639	21.4805
964.532	37.5921
967.424	30.1417
970.317	19.5902
973.21	36.0779
976.102	37.3912
978.995	49.3381
981.888	32.5824
984.78	68.4262
987.673	59.2648
990.566	68.321
993.458	49.3524
996.351	43.8355
999.244	28.412
1002.14	32.5423
1005.03	29.8918
1007.92	50.3166
1010.82	42.4259
1013.71	57.2957
1016.6	42.2144
1019.49	36.0116
1022.38	66.6762
1025.28	71.8752
1028.17	30.7701
1031.06	45.4145
1033.96	60.8411
1036.85	35.9357
1039.74	32.1014
1042.63	22.5203
1045.53	13.9499
1048.42	29.1126
1051.31	33.1087
1054.2	14.9834
1057.1	4.1579
1059.99	20.0448
1062.88	11.3719
1065.78	19.5884
1068.67	2.10986
1071.56	3.58771
1074.45	18.0889
1077.35	12.858
1080.24	27.4724
1083.13	4.20422
1086.03	12.6308
1088.92	24.2793
1091.81	14.8476
1094.7	27.738
1097.6	35.3837
1100.49	23.9091
1103.38	7.6507
1106.27	16.6113
1109.17	20.0301
1112.06	1.00043
1114.95	10.7688
1117.85	13.4746
1120.74	19.078
1123.63	59.7793
1126.52	5.38611
1129.41	28.739
1132.31	50.1129
1135.2	13.5105
1138.09	32.475
1140.99	7.10315
1143.88	34.1426
1146.77	31.6682
1149.66	18.8684
1152.56	7.04297
1155.45	18.0117
1158.34	37.1351
1161.23	31.2783
1164.13	30.4498
1167.02	28.8602
1169.91	27.2255
1172.81	9.96289
1175.7	47.6932
1178.59	41.7924
1181.48	29.641
1184.38	19.3969
1187.27	12.5096
1190.16	19.9607
1193.06	12.62
1195.95	29.8034
1198.84	14.3879
1201.73	25.9249
1204.63	46.9429
1207.52	36.262
1210.41	5.69916
1213.3	26.7519
1216.2	4.95026
1219.09	37.668
1221.98	34.4963
1224.88	5.63611
