Measurement: Raman, 785 nm, unoriented, Raman Data Processed
Mineral: Hastingsite
Rruff sample: R070124
Ideal chemistry: NaCa_2_(Fe^2+^_4_Fe^3+^)(Si_6_Al_2_)O_22_(OH)_2_
Locality: Clea Claims, Pelly River area, Yukon Territory, Canada
Source: Mark Mauthner
Description: Loose black bladed crystals
Measured chemistry: ([box]_0.48_Na_0.28_K_0.24_)_Σ=1_(Ca_1.85_Na_0.15_)_Σ=2_((Fe^2+^_3.06_Mg_0.68_Mn_0.04_Ti_0.07_)_Σ=3.97_(Fe^3+^_0.63_Al_0.40_)_Σ=1.03_)_Σ=5_(Si_6.46_Al_1.54_)O_22_((OH)_1.75_F_0.21_Cl_0.04_)_Σ=2_; (OH) estimated by difference
Raman shift (cm-1)	intensity
175.789	0
178.682	6.74817
181.575	5.09668
184.467	12.3542
187.36	16.7474
190.253	14.4766
193.145	33.9363
196.038	26.2076
198.931	50.0597
201.823	43.2883
204.716	86.4819
207.609	60.6789
210.502	26.9766
213.394	55.0159
216.287	51.6475
219.18	20.4983
222.072	31.2731
224.965	39.3695
227.858	16.2736
230.75	26.896
233.643	5.01306
236.536	14.7862
239.429	33.1358
242.321	8.10602
245.214	10.0839
248.107	31.1768
250.999	22.0916
253.892	16.8442
256.785	17.4449
259.678	26.713
262.57	17.5274
265.463	10.7323
268.356	22.0487
271.248	26.9273
274.141	26.7106
277.034	21.3535
279.926	45.5297
282.819	16.3313
285.712	84.7864
288.604	72.7152
291.497	65.4069
294.39	60.2686
297.283	67.9237
300.175	51.6711
303.068	46.7223
305.961	38.923
308.853	48.6015
311.746	55.266
314.639	35.7982
317.531	41.5008
320.424	28.6954
323.317	28.1897
326.21	45.5377
329.102	3.21612
331.995	28.8836
334.888	8.19763
337.78	7.7652
340.673	2.60217
343.566	7.71088
346.459	5.18085
349.351	16.195
352.244	4.39807
355.137	19.5103
358.029	29.8594
360.922	20.5367
363.815	31.9749
366.707	39.3517
369.6	33.2228
372.493	28.4711
375.385	54.8139
378.278	51.0109
381.171	64.2378
384.064	73.4455
386.956	84.4563
389.849	19.9812
392.742	33.8448
395.634	32.1865
398.527	4.16486
401.42	20.4002
404.312	35.3167
407.205	14.419
410.098	21.9658
412.99	21.1642
415.883	14.0912
418.776	13.498
421.669	43.1299
424.561	49.2921
427.454	65.694
430.347	56.5272
433.239	56.5102
436.132	46.8026
439.025	65.4369
441.918	50.0262
444.81	39.5873
447.703	8.79748
450.596	31.3777
453.488	26.1193
456.381	4.5506
459.274	21.728
462.166	15.0459
465.059	12.5117
467.952	9.71277
470.844	1.90253
473.737	7.09692
476.63	17.8467
479.523	10.8293
482.415	43.4161
485.308	66.3145
488.201	56.1998
491.093	70.1894
493.986	112.829
496.879	134.977
499.772	131.405
502.664	143.294
505.557	174.286
508.45	191.2
511.342	187.829
514.235	222.083
517.128	203.452
520.02	242.196
522.913	260.921
525.806	265.391
528.698	266.391
531.591	238.217
534.484	227.18
537.377	246.398
540.269	208.966
543.162	191.076
546.055	172.257
548.947	167.549
551.84	149.482
554.733	110.731
557.625	117.01
560.518	132.603
563.411	110.289
566.304	93.0482
569.196	80.7346
572.089	63.7891
574.982	51.9481
577.874	26.1489
580.767	34.0538
583.66	32.7831
586.553	20.514
589.445	22.9678
592.338	4.86603
595.231	6.39838
598.123	11.69
601.016	1.28607
603.909	1.7063
606.801	12.5596
609.694	4.98731
612.587	1.53656
615.48	6.70648
618.372	3.00378
621.265	6.22827
624.158	19.484
627.05	33.8748
629.943	40.6375
632.836	28.9473
635.728	74.9836
638.621	57.2824
641.514	42.1047
644.407	67.3742
647.299	63.3529
650.192	54.1435
653.085	43.0759
655.977	87.9543
658.87	54.1547
661.763	80.448
664.655	54.9714
667.548	37.0374
670.441	45.9666
673.333	20.9474
676.226	38.3331
679.119	29.5691
682.012	37.6964
684.904	30.4438
687.797	27.2175
690.69	9.20801
693.582	20.9315
696.475	19.2442
699.368	37.5441
702.26	38.5493
705.153	16.7595
708.046	11.2927
710.939	32.8704
713.831	6.01721
716.724	6.70709
719.617	16.1842
722.509	13.083
725.402	24.4371
728.295	28.5776
731.188	8.07349
734.08	32.0577
736.973	29.9561
739.866	7.18884
742.758	32.9497
745.651	22.0643
748.544	17.6722
751.436	27.4429
754.329	39.8666
757.222	17.2697
760.114	15.2353
763.007	3.92108
765.9	25.2867
768.793	35.0283
771.685	27.2927
774.578	58.4155
777.471	23.5038
780.363	4.87567
783.256	7.87549
786.149	15.4038
789.041	7.84198
791.934	20.3058
794.827	0.254761
797.72	48.9847
800.612	19.85
803.505	32.0938
806.398	33.1763
809.29	22.55
812.183	8.9823
815.076	28.4533
817.968	17.0363
820.861	32.0386
823.754	11.6486
826.646	49.1697
829.539	0.21991
832.432	21.5652
835.325	16.9554
838.217	7.83679
841.11	30.1105
844.003	27.2039
846.895	33.3957
849.788	22.4575
852.681	10.0046
855.573	21.7332
858.466	1.72723
861.359	16.9797
864.252	19.3598
867.144	41.505
870.037	16.0812
872.93	11.5227
875.822	24.3823
878.715	1.42645
881.608	13.8456
884.5	14.6411
887.393	12.6237
890.286	16.0783
893.179	13.2837
896.071	22.9023
898.964	0.597046
901.857	5.44202
904.75	10.8161
907.642	13.6554
910.535	1.8313
913.428	1.89807
916.32	12.3539
919.213	21.815
922.106	57.7866
924.998	34.3925
927.891	20.0568
930.784	41.8383
933.677	28.9196
936.569	22.5338
939.462	10.9929
942.355	11.4584
945.247	12.8202
948.14	21.6669
951.033	42.5024
953.925	22.642
956.818	24.6113
959.711	35.8415
962.603	13.8605
965.496	53.7391
968.389	31.3625
971.282	30.6405
974.174	47.8267
977.067	56.3848
979.96	52.5324
982.852	38.2562
985.745	62.3299
988.638	42.8375
991.53	38.9324
994.423	61.1728
997.316	44.3801
1000.21	51.5333
1003.1	28.9449
1005.99	42.314
1008.89	38.6086
1011.78	46.1846
1014.67	23.4947
1017.57	60.3177
1020.46	20.6876
1023.35	24.8334
1026.24	40.9304
1029.13	29.0444
1032.03	40.7248
1034.92	25.0837
1037.81	32.2608
1040.71	18.2701
1043.6	31.0055
1046.49	13.755
1049.38	17.9922
1052.28	14.9197
1055.17	16.7929
1058.06	28.8746
1060.95	36.6284
1063.85	2.17304
1066.74	11.2548
1069.63	13.2371
1072.53	26.8992
1075.42	13.1244
1078.31	16.7732
1081.2	18.4102
1084.1	12.2788
1086.99	20.1158
1089.88	27.4487
1092.78	4.65082
1095.67	9.70523
1098.56	0.37558
1101.45	6.51105
1104.35	30.7598
1107.24	4.11145
1110.13	25.9532
1113.02	48.921
1115.92	39.1039
1118.81	0.680969
1121.7	17.8684
1124.6	15.5993
1127.49	13.4359
1130.38	0.638519
1133.27	26.8089
1136.16	18.8699
1139.06	32.7659
1141.95	42.093
1144.84	6.87311
1147.74	22.5911
1150.63	29.0278
1153.52	28.8673
1156.41	5.63477
1159.31	7.01047
1162.2	26.0891
1165.09	28.399
1167.98	19.5318
1170.88	17.1637
1173.77	24.3368
1176.66	28.5335
1179.56	29.3271
1182.45	31.8985
1185.34	13.3395
1188.23	3.94528
1191.13	24.2786
1194.02	2.93961
1196.91	37.5156
1199.81	24.7217
1202.7	17.5603
1205.59	29.7254
1208.48	24.5901
1211.38	9.00601
1214.27	24.5966
1217.16	15.9936
1220.05	16.0388
1222.95	21.3028
1225.84	26.0503
1228.73	24.6033
1231.62	17.4731
1234.52	6.68411
1237.41	24.5928
1240.3	2.7963
