Measurement: Raman, 532 nm, unoriented, Raman Data Processed
Mineral: Hastingsite
Rruff sample: R070124
Ideal chemistry: NaCa_2_(Fe^2+^_4_Fe^3+^)(Si_6_Al_2_)O_22_(OH)_2_
Locality: Clea Claims, Pelly River area, Yukon Territory, Canada
Source: Mark Mauthner
Description: Loose black bladed crystals
Measured chemistry: ([box]_0.48_Na_0.28_K_0.24_)_Σ=1_(Ca_1.85_Na_0.15_)_Σ=2_((Fe^2+^_3.06_Mg_0.68_Mn_0.04_Ti_0.07_)_Σ=3.97_(Fe^3+^_0.63_Al_0.40_)_Σ=1.03_)_Σ=5_(Si_6.46_Al_1.54_)O_22_((OH)_1.75_F_0.21_Cl_0.04_)_Σ=2_; (OH) estimated by difference
Raman shift (cm-1)	intensity
149.7	0
153.074	5.4491
156.449	38.1649
159.824	26.0486
163.199	57.4437
166.574	48.0913
169.948	42.762
173.323	42.2136
176.698	48.0444
180.073	81.8165
183.448	72.896
186.822	82.4565
190.197	82.6478
193.572	85.4197
196.947	88.815
200.322	75.2334
203.697	69.2131
207.071	61.1198
210.446	77.1511
213.821	46.228
217.196	1.55634
220.571	9.664
223.946	9.61389
227.32	1.73968
230.695	4.82642
234.07	16.7266
237.445	13.7432
240.82	6.71161
244.195	11.6751
247.569	36.0759
250.944	8.32324
254.319	4.15167
257.694	14.0978
261.068	26.2271
264.443	11.1352
267.818	4.85095
271.193	35.3849
274.568	39.264
277.943	33.6115
281.317	36.1929
284.692	37.575
288.067	47.0146
291.442	58.3982
294.817	20.9242
298.192	39.2079
301.566	36.5018
304.941	30.3906
308.316	35.3679
311.691	45.6312
315.066	27.8598
318.44	20.3021
321.815	19.7689
325.19	31.3158
328.565	1.69189
331.94	5.73291
335.315	24.077
338.689	4.53864
342.064	13.8264
345.439	27.1644
348.814	59.9695
352.189	50.437
355.563	41.973
358.938	37.4874
362.313	51.4944
365.688	24.2408
369.063	36.8069
372.438	27.9425
375.812	44.9633
379.187	34.2983
382.562	44.0223
385.937	24.4133
389.312	13.4241
392.687	18.0737
396.061	17.0938
399.436	0.951172
402.811	0.858337
406.186	4.5459
409.56	3.36151
412.935	5.69983
416.31	27.7161
419.685	39.8625
423.06	38.1912
426.435	71.09
429.81	55.8132
433.184	31.0529
436.559	64.4555
439.934	29.9381
443.309	43.4902
446.684	23.0662
450.058	0.998596
453.433	7.93225
456.808	19.8165
460.183	2.52643
463.558	0.920654
466.933	0.325012
470.307	3.96857
473.682	19.6041
477.057	18.2465
480.432	33.4073
483.807	31.1516
487.181	39.5795
490.556	68.3837
493.931	88.5703
497.306	136.36
500.681	146.143
504.055	161.03
507.43	179.029
510.805	201.791
514.18	200.61
517.555	242.564
520.93	240.864
524.304	250.695
527.679	277.261
531.054	279.603
534.429	266.461
537.804	235.248
541.178	229.469
544.553	206.973
547.928	196.657
551.303	187.126
554.678	164.265
558.053	165.727
561.427	150.023
564.802	115.943
568.177	98.8403
571.552	84.4772
574.927	57.5147
578.302	57.4581
581.676	32.7503
585.051	20.3676
588.426	19.8724
591.801	3.66791
595.176	4.86847
598.55	15.872
601.925	16.4969
605.3	1.9104
608.675	9.98645
612.05	5.15851
615.424	9.33087
618.799	37.0177
622.174	31.2246
625.549	41.0634
628.924	43.8754
632.299	69.1929
635.673	71.6077
639.048	92.8019
642.423	92.533
645.798	117.623
649.173	117.921
652.548	138.737
655.922	113.352
659.297	89.4105
662.672	56.5365
666.047	72.0019
669.422	46.3077
672.796	35.0856
676.171	30.8357
679.546	55.0581
682.921	51.6728
686.296	22.5126
689.67	25.0178
693.045	35.4176
696.42	4.66333
699.795	13.3353
703.17	7.21765
706.545	1.79883
709.919	2.05646
713.294	9.98352
716.669	18.0687
720.044	13.0883
723.419	26.4002
726.793	35.0908
730.168	23.0873
733.543	30.8563
736.918	26.7361
740.293	13.7615
743.668	35.7522
747.042	30.4092
750.417	39.064
753.792	68.1058
757.167	27.0276
760.542	42.3112
763.917	31.5844
767.291	45.5988
770.666	38.4418
774.041	41.7812
777.416	23.3129
780.791	65.6259
784.165	46.4374
787.54	28.298
790.915	11.5037
794.29	32.5975
797.665	7.84369
801.039	2.47156
804.414	25.9412
807.789	11.3065
811.164	9.77948
814.539	0.485474
817.914	11.1434
821.288	0.196228
824.663	3.72711
828.038	2.17712
831.413	13.3793
834.788	25.0298
838.163	5.23053
841.537	23.0919
844.912	28.7751
848.287	38.1852
851.662	23.7192
855.037	44.6365
858.411	60.0818
861.786	27.6973
865.161	32.417
868.536	49.184
871.911	34.2059
875.285	49.8708
878.66	31.7716
882.035	21.256
885.41	12.7404
888.785	0.125305
892.16	1.58301
895.534	21.1996
898.909	5.54834
902.284	13.595
905.659	10.6937
909.034	15.8215
912.409	31.5568
915.783	15.6133
919.158	23.9141
922.533	14.43
925.908	35.7719
929.283	20.3403
932.657	45.6907
936.032	41.1514
939.407	23.2791
942.782	23.138
946.157	31.7262
949.532	28.0605
952.906	29.3281
956.281	18.9399
959.656	13.6284
963.031	15.9793
966.406	16.6642
969.78	5.68213
973.155	3.5094
976.53	23.7188
979.905	34.6661
983.28	47.9045
986.654	50.7174
990.029	38.9584
993.404	48.0246
996.779	70.7301
1000.15	54.9102
1003.53	69.7084
1006.9	74.846
1010.28	55.6154
1013.65	83.6175
1017.03	104.74
1020.4	66.3203
1023.78	70.9908
1027.15	41.4305
1030.53	65.2156
1033.9	43.0894
1037.28	31.4627
1040.65	38.982
1044.03	47.5996
1047.4	53.1423
1050.78	29.3909
1054.15	38.1561
1057.53	25.392
1060.9	45.5139
1064.28	20.6938
1067.65	5.04297
1071.03	19.5631
1074.4	35.1249
1077.78	24.9831
1081.15	14.4183
1084.52	18.8029
1087.9	26.2792
1091.27	18.4035
1094.65	46.9013
1098.02	1.18811
1101.4	3.55713
1104.77	1.53827
1108.15	19.0914
1111.52	15.8619
1114.9	8.71069
1118.27	33.8066
1121.65	13.3727
1125.02	28.9251
1128.4	31.3172
1131.77	25.5395
1135.15	13.9635
1138.52	22.5061
1141.9	17.9954
1145.27	12.1278
1148.65	18.8551
1152.02	1.88382
1155.39	13.0014
1158.77	22.8047
1162.14	13.395
1165.52	9.93161
1168.89	3.54288
1172.27	17.0034
1175.64	5.37906
1179.02	9.24933
1182.39	9.60025
1185.77	10.7183
1189.14	32.5744
1192.52	7.1568
1195.89	22.1096
1199.27	15.9615
1202.64	32.3507
1206.02	14.1727
1209.39	38.8998
1212.77	37.2212
1216.14	7.47333
1219.52	35.897
1222.89	35.0577
1226.27	35.9949
1229.64	11.6496
1233.02	40.0823
1236.39	30.6189
1239.77	28.9143
1243.14	19.1465
1246.52	26.0518
1249.89	44.7878
1253.27	46.9632
1256.64	30.1484
1260.02	23.2949
1263.39	35.588
1266.76	16.8142
1270.14	31.5301
1273.51	13.5141
1276.89	20.0889
1280.26	22.6772
1283.64	25.4848
1287.01	34.9379
1290.39	9.65518
1293.76	33.9471
1297.14	5.50784
1300.51	3.8703
1303.89	10.2729
1307.26	13.5959
