Measurement: Raman, 532 nm, unoriented, Raman Data Processed
Mineral: Hatchite
Rruff sample: R100058
Ideal chemistry: Ag^1+^Pb^2+^Tl^1+^As^3+^_2_S^2-^_5_
Locality: Lengenbach quarry, Binnental, Canton Wallis, Switzerland
Source: William W Pinch
Description: Black euhedral crystal embedded in white dolomite with red realgar
Raman shift (cm-1)	intensity
168.595	0
171.488	5.38889
174.381	2.59476
177.273	2.01868
180.166	2.44247
183.059	7.52054
185.951	6.91782
188.844	10.1256
191.737	8.45642
194.629	5.56421
197.522	7.90714
200.415	9.18793
203.308	6.09464
206.2	6.88495
209.093	2.82962
211.986	2.93951
214.878	2.26038
217.771	1.51981
220.664	0.176239
223.556	1.55441
226.449	4.83209
229.342	1.75705
232.234	0.252075
235.127	1.89096
238.02	0.911835
240.913	0.748383
243.805	0.828522
246.698	1.5007
249.591	3.56625
252.483	4.32214
255.376	4.78815
258.269	4.93948
261.161	3.61337
264.054	1.12747
266.947	4.78293
269.84	6.31119
272.732	7.61679
275.625	7.02686
278.518	9.35919
281.41	11.438
284.303	9.08164
287.196	15.819
290.089	18.5464
292.981	24.0647
295.874	30.9419
298.767	29.6825
301.659	38.4979
304.552	43.937
307.445	45.0596
310.337	47.3839
313.23	46.6854
316.123	52.4432
319.015	57.395
321.908	56.9462
324.801	63.9215
327.694	65.8303
330.586	72.7816
333.479	74.54
336.372	77.4669
339.264	76.356
342.157	75.1036
345.05	69.1005
347.942	68.0593
350.835	63.0056
353.728	61.1121
356.621	68.0885
359.513	76.4011
362.406	87.5406
365.299	96.8338
368.191	109.958
371.084	127.955
373.977	138.163
376.87	158.488
379.762	161.206
382.655	143.803
385.548	105.891
388.44	63.1402
391.333	32.0274
394.226	16.9465
397.118	10.159
400.011	3.21252
402.904	1.28333
405.796	0.77478
408.689	2.06763
411.582	0.446899
414.475	2.4093
417.367	0.468262
420.26	3.30396
423.153	4.03101
426.045	0.651031
428.938	0.554138
431.831	0.802582
434.724	1.58606
437.616	0.955444
440.509	0.633972
443.402	3.35455
446.294	3.44543
449.187	3.05563
452.08	1.5755
454.972	6.4794
457.865	8.39111
460.758	8.64587
463.651	11.7782
466.543	10.5188
469.436	12.4851
472.329	11.6288
475.221	10.7978
478.114	12.5828
481.007	12.6471
483.899	13.518
486.792	16.2592
489.685	16.1021
492.577	13.9141
495.47	12.2541
498.363	9.41885
501.256	10.7392
504.148	7.15982
507.041	7.69904
509.934	4.65741
512.826	4.62582
515.719	6.17938
518.612	2.10953
521.505	1.34967
524.397	2.68051
527.29	4.57382
530.183	1.48593
533.075	0.344055
535.968	1.90497
538.861	2.94669
541.753	0.534119
544.646	0.884155
547.539	0.715027
550.432	0.815277
553.324	1.66119
556.217	1.06177
559.11	1.69647
562.002	1.35794
564.895	4.88812
567.788	2.95612
570.68	0.605896
573.573	1.27136
576.466	1.03134
579.359	1.66718
582.251	2.29245
585.144	0.636078
588.037	5.79031
590.929	2.35297
593.822	1.73355
596.715	3.40796
599.607	2.42108
602.5	1.00497
605.393	0.455475
608.285	3.58121
611.178	3.6687
614.071	3.13455
616.964	1.18805
619.856	0.788879
622.749	1.93722
625.642	0.744751
628.534	2.03372
631.427	0.2724
634.32	3.0433
637.212	2.9906
640.105	1.41666
642.998	2.54697
645.891	0.154175
648.783	2.25302
651.676	3.97812
654.569	5.45019
657.461	3.16614
660.354	3.43774
663.247	3.39917
666.139	3.95505
669.032	2.43497
671.925	2.79623
674.818	4.20032
677.71	4.07016
680.603	6.10202
683.496	1.55972
686.388	2.07718
689.281	3.8476
692.174	5.29428
695.067	2.3682
697.959	4.26038
700.852	1.81805
703.745	2.5217
706.637	1.17587
709.53	4.69052
712.423	4.88806
715.315	3.56244
718.208	2.03738
721.101	2.04721
723.994	2.4838
726.886	3.00293
729.779	2.3707
732.672	6.39996
735.564	2.94592
738.457	1.97217
741.35	2.2168
744.242	0.10202
747.135	1.52631
750.028	3.80743
752.92	2.65698
755.813	1.91064
758.706	6.32202
761.599	0.052887
764.491	1.52667
767.384	1.81641
770.277	1.56616
773.169	3.88882
776.062	1.14734
778.955	0.527527
781.847	2.71902
784.74	1.789
787.633	2.68597
790.526	2.65335
793.418	4.47318
796.311	0.870087
799.204	0.271149
802.096	0.420502
804.989	1.07285
807.882	3.13296
810.774	3.2771
813.667	0.030121
816.56	4.36679
819.453	2.9151
822.345	3.3551
825.238	2.31299
828.131	3.16611
831.023	5.6799
833.916	4.44742
836.809	3.95694
839.702	3.56839
842.594	0.843384
845.487	1.11685
848.38	5.70001
851.272	4.17493
854.165	2.5426
857.058	1.06708
859.95	3.80093
862.843	2.4187
865.736	1.08005
868.629	1.26819
871.521	4.25827
874.414	1.56604
877.307	2.53357
880.199	1.87753
883.092	0.319855
885.985	0.811554
888.877	2.36844
891.77	2.73087
894.663	3.16757
897.556	2.61603
900.448	2.33896
903.341	2.54208
906.234	1.10187
909.126	2.13773
912.019	1.29407
914.912	3.16333
917.804	0.976746
920.697	3.38525
923.59	3.65518
926.482	1.57687
929.375	2.67032
932.268	3.58572
935.161	2.01315
938.053	2.44556
940.946	0.451904
943.839	0.542664
946.731	2.18127
949.624	1.36499
952.517	0.870819
955.409	1.50742
958.302	1.32495
961.195	1.90921
964.088	1.85806
966.98	0.404572
969.873	1.95047
972.766	0.888794
975.658	1.2001
978.551	4.00296
981.444	5.82742
984.337	3.17389
987.229	3.32483
990.122	2.95908
993.015	2.71448
995.907	0.191345
998.8	2.68533
1001.69	0.984589
1004.59	4.22012
1007.48	2.93887
1010.37	5.25464
1013.26	3.76257
1016.16	3.67374
1019.05	3.0405
1021.94	6.97165
1024.83	3.01831
1027.73	1.62784
1030.62	2.08139
1033.51	4.0755
1036.4	4.7775
1039.3	2.08026
1042.19	3.81827
1045.08	1.02585
1047.98	2.72046
1050.87	1.87824
1053.76	2.86279
1056.65	0.422455
1059.55	0.627655
1062.44	0.214813
1065.33	0.516266
1068.22	0.654694
1071.12	1.90366
1074.01	1.27426
1076.9	1.2103
1079.8	1.50244
1082.69	2.72647
1085.58	2.89481
1088.47	1.0925
1091.37	1.9776
1094.26	4.27371
1097.15	3.47815
1100.04	0.642639
1102.94	2.8945
1105.83	2.62222
1108.72	0.069
1111.62	2.45319
1114.51	3.4061
1117.4	2.00842
1120.29	4.80588
1123.19	5.53095
1126.08	1.28937
1128.97	1.6727
1131.86	4.22827
1134.76	3.28009
1137.65	3.31995
1140.54	3.953
1143.43	2.16214
1146.33	4.73303
1149.22	2.3912
1152.11	4.17398
1155.01	4.89004
1157.9	4.59427
1160.79	2.42566
1163.68	4.34933
1166.58	2.6319
1169.47	4.37653
1172.36	3.79453
1175.26	5.38593
1178.15	1.51813
1181.04	2.29755
1183.93	4.05121
1186.83	1.90704
1189.72	0.707458
1192.61	0.23291
1195.5	0.465698
1198.4	3.24753
1201.29	1.03812
1204.18	3.56989
1207.07	1.09906
1209.97	2.38635
1212.86	0.40506
1215.75	3.22751
1218.64	1.2767
1221.54	4.65881
1224.43	2.51028
1227.32	4.51947
1230.22	4.09824
1233.11	5.42545
1236	4.27991
1238.89	5.45767
1241.79	4.85931
1244.68	9.35251
1247.57	6.16779
1250.46	8.97989
1253.36	7.17837
1256.25	6.75043
1259.14	6.51874
1262.04	5.94763
1264.93	4.95462
1267.82	6.87433
1270.71	6.81451
1273.61	3.21027
1276.5	2.20431
1279.39	3.69952
1282.29	1.00531
1285.18	2.06787
1288.07	0.557465
1290.96	2.59226
1293.86	3.78162
1296.75	1.04077
1299.64	0.53064
1302.53	1.6521
