Measurement: Raman, 532 nm, unoriented, Raman Data Processed
Mineral: Hauerite
Rruff sample: R070506
Ideal chemistry: Mn^2+^(S_2_)^2-^
Locality: Destricella mine, Raddusa, Catania Province, Italy
Source: James Shigley
Description: Metallic brownish-gray octahedral crystal
Measured chemistry: Mn_1.00_S_2.00_
Raman shift (cm-1)	intensity
170.404	0
173.297	94.4541
176.19	57.2798
179.082	47.7964
181.975	71.1538
184.868	25.398
187.761	27.1113
190.653	14.7373
193.546	39.3159
196.439	27.7539
199.331	59.2749
202.224	29.4248
205.117	133.249
208.009	128.682
210.902	182.902
213.795	221.898
216.688	339.195
219.58	384.81
222.473	257.299
225.366	311.421
228.258	324.01
231.151	295.724
234.044	224.685
236.936	283.039
239.829	325.812
242.722	407.207
245.614	409.414
248.507	366.018
251.4	267.037
254.293	276.049
257.185	192.93
260.078	174.647
262.971	128.648
265.863	118.408
268.756	121.739
271.649	72.6094
274.541	139.849
277.434	75.7495
280.327	45.6777
283.22	72.6318
286.112	81.1992
289.005	26.293
291.898	101.224
294.79	0.769043
297.683	38.2124
300.576	17.0571
303.469	40.582
306.361	14.5088
309.254	29.7856
312.147	71.501
315.039	82.0449
317.932	0.791016
320.825	71.4473
323.717	107.373
326.61	103.929
329.503	48.749
332.396	62.0449
335.288	14.3999
338.181	147.502
341.074	127.06
343.966	30.7476
346.859	94.9531
349.752	136.805
352.644	126.948
355.537	217.577
358.43	137.406
361.322	98.8794
364.215	193.515
367.108	183.425
370.001	154.162
372.893	168.8
375.786	246.601
378.679	250.832
381.572	235.69
384.464	247.126
387.357	264.455
390.25	223.733
393.142	123.882
396.035	83.3677
398.928	95.9712
401.82	87.9477
404.713	80.9185
407.606	31.8096
410.498	53.6099
413.391	43.4438
416.284	38.2124
419.177	1.82666
422.069	16.626
424.962	3.79443
427.855	12.3179
430.747	19.0483
433.64	9.75195
436.533	7.75195
439.425	2.76904
442.318	20.3096
445.211	1.05176
448.104	37.3892
450.996	7.2583
453.889	35.9062
456.782	121.392
459.674	123.675
462.567	150.23
465.46	200.809
468.353	269.316
471.245	498.179
474.138	652.846
477.031	890.613
479.923	1320.29
482.816	1763.84
485.709	2071.42
488.601	1986.52
491.494	1479.01
494.387	1061.52
497.279	685.796
500.172	460.487
503.065	268.14
505.958	294.603
508.85	249.885
511.743	237.414
514.636	196.538
517.528	185.723
520.421	193.023
523.314	163.648
526.207	231.789
529.099	197.63
531.992	223.022
534.885	205.345
537.777	179.653
540.67	192.948
543.563	155.91
546.455	272.902
549.348	213.219
552.241	204.962
555.134	174.817
558.026	145.549
560.919	122.972
563.812	122.033
566.704	173.849
569.597	81.8408
572.49	65.71
575.382	72.5654
578.275	11.8809
581.168	19.1943
584.061	34.0156
586.953	36.5283
589.846	31.3896
592.739	13.6328
595.631	45.0889
598.524	10.7129
601.417	67.6826
604.309	46.2041
607.202	91.2373
610.095	78.5977
612.987	123.482
615.88	65.5781
618.773	86.5566
621.666	105.263
624.558	137.012
627.451	119.675
630.344	164.712
633.236	64.6133
636.129	70.54
639.022	102.277
641.915	63.6934
644.807	61.9131
647.7	65.3232
650.593	132.277
653.485	39.7275
656.378	28.8564
659.271	71.1113
662.163	35.1807
665.056	57.1504
667.949	38.0723
670.842	16.2314
673.734	155.94
676.627	106.941
679.52	21.9033
682.412	51.1103
685.305	10.2998
688.198	2.75195
691.091	14.3828
693.983	59.6094
696.876	10.8457
699.769	44.5947
702.661	79.3965
705.554	26.1748
708.447	57.9141
711.339	26.7002
714.232	83.0557
717.125	28.7559
720.018	77.9326
722.91	30.3838
725.803	11.001
728.696	64.8789
731.588	123.872
734.481	127.644
737.374	63.6406
740.266	47.123
743.159	97.3936
746.052	125.743
748.944	143.977
751.837	34.9199
754.73	90.8701
757.623	84.5625
760.515	134.88
763.408	2.74902
766.301	55.1143
769.193	6.3916
772.086	23.8281
774.979	45.9473
777.871	48.5264
780.764	24.6582
783.657	49.2471
786.55	85.9238
789.442	72.3769
792.335	40.0039
795.228	5.15527
798.12	12.46
801.013	29.8281
803.906	21.623
806.798	56.4912
809.691	47.6953
812.584	63.7285
815.477	16.9092
818.369	19.6475
821.262	34.04
824.155	91.5772
827.047	39.0586
829.94	88.4297
832.833	22.6787
835.726	10.0938
838.618	11.2432
841.511	59.9238
844.404	67.832
847.296	134.94
850.189	41.3779
853.082	84.915
855.975	95.3115
858.867	84.3701
861.76	94.5283
864.653	124.975
867.545	112.048
870.438	52.7031
873.331	66.1455
876.223	92.1103
879.116	97.6719
882.009	110.619
884.902	32.3955
887.794	28.5088
890.687	89.9932
893.58	109.043
896.472	117.608
899.365	18.7334
902.258	77.0586
905.15	89.2432
908.043	140.006
910.936	89.0977
913.828	23.7051
916.721	45.3906
919.614	12.6797
922.507	53.0469
925.399	17.9209
928.292	68.9238
931.185	43.5547
934.077	85.9394
936.97	6.03418
939.863	75.7236
942.755	39.9824
945.648	1.57715
948.541	58.5576
951.434	8.33691
954.326	68.6523
957.219	148.414
960.112	118.468
963.004	120.06
965.897	119.894
968.79	206.997
971.683	124.333
974.575	190.705
977.468	125.63
980.361	147.392
983.253	64.1699
986.146	129.068
989.039	124.391
991.931	151.736
994.824	203.157
997.717	108.746
1000.61	278.009
1003.5	378.188
1006.39	239.559
1009.29	121.637
1012.18	115.27
1015.07	138.31
1017.97	64.0049
1020.86	9.26953
1023.75	34.1816
1026.64	36.2383
1029.54	73.6055
1032.43	150.321
1035.32	9.43555
1038.21	18.3066
1041.11	1.83789
1044	93.21
1046.89	69.5644
1049.79	71.5244
1052.68	45.7607
1055.57	60.791
1058.46	14.6729
1061.36	33.2725
1064.25	66.5557
1067.14	117.387
1070.03	126.568
1072.93	98.918
1075.82	128.196
1078.71	30.7812
1081.61	60.4795
1084.5	103.988
1087.39	76.0186
1090.28	35.7168
1093.18	39.4062
1096.07	105.662
1098.96	59.8672
1101.85	72.793
1104.75	5.33301
1107.64	27.1191
1110.53	44.5234
1113.42	149.652
1116.32	153.227
1119.21	85.8223
1122.1	17.8193
1125	47.3799
1127.89	41.4648
1130.78	42.0049
1133.67	84.3994
1136.57	112.859
1139.46	28.6973
1142.35	144.444
1145.24	89.6865
1148.14	44.1875
1151.03	51.5557
1153.92	61.7705
1156.82	31.334
1159.71	76.8731
1162.6	15.5967
1165.49	18.5479
1168.39	43.9346
1171.28	104.55
1174.17	57.6475
1177.06	107.776
1179.96	126.386
1182.85	108.632
1185.74	136.478
1188.63	122.829
1191.53	204.132
1194.42	136.733
1197.31	74.7158
1200.21	106.014
1203.1	123.685
1205.99	113.013
1208.88	93.1426
1211.78	71.9678
1214.67	77.3311
1217.56	99.2393
1220.45	241.065
1223.35	224.121
1226.24	126.204
1229.13	116.376
1232.03	9.01465
1234.92	64.5098
1237.81	129.414
1240.7	106.746
1243.6	71.7158
1246.49	56.1338
1249.38	122.25
1252.28	111.019
1255.17	71.8359
1258.06	20.8535
1260.95	113.15
1263.85	187.059
1266.74	144.051
1269.63	189.463
1272.52	66.959
1275.42	41.8877
1278.31	43.3037
1281.2	69.6455
1284.09	47.2051
1286.99	0.168945
