Measurement: Raman, 532 nm, unoriented, Raman Data Processed
Mineral: Hawleyite
Rruff sample: R061010
Ideal chemistry: Cd^2+^S^2-^
Locality: Eureka County, Nevada, USA
Source: Michael Scott
Description: Bright yellow-orange fine-grained powder
Raman shift (cm-1)	intensity
222.285	0
225.177	27.4375
228.07	120.406
230.963	156.137
233.855	228.477
236.748	196.203
239.641	248.902
242.533	348.305
245.426	582.723
248.319	738.023
251.212	605.434
254.104	625.246
256.997	757.258
259.89	1368.85
262.782	1695.69
265.675	1868.52
268.568	2308.34
271.46	2648.53
274.353	3564.09
277.246	4410.87
280.139	5649.56
283.031	7550.06
285.924	9385.52
288.817	11930.4
291.709	14290.5
294.602	16264.2
297.495	16776.7
300.387	15904.6
303.28	13264.1
306.173	10103.2
309.065	7455.5
311.958	5701
314.851	4398.19
317.743	3533.3
320.636	2964.81
323.529	2505.08
326.422	2145.23
329.314	1887.54
332.207	1442.36
335.1	1118.87
337.992	1079.35
340.885	1059.31
343.778	560.051
346.671	583.207
349.563	551.231
352.456	564.418
355.349	285.129
358.241	172.039
361.134	16.0898
364.027	29.3984
366.919	86.7422
369.812	139.852
372.705	27.9297
375.598	120.879
378.49	95.3555
381.383	82.8867
384.276	86.0781
387.168	195.191
390.061	200.203
392.954	22.0312
395.846	138.465
398.739	47.5312
401.632	124.832
404.524	93.1289
407.417	189.805
410.31	101.676
413.203	340.512
416.095	466.887
418.988	514.082
421.881	247.824
424.773	320.582
427.666	234.938
430.559	364.812
433.452	286.273
436.344	142.176
439.237	210.894
442.13	187.582
445.022	296.133
447.915	245.984
450.808	316.277
453.7	218.781
456.593	5.59766
459.486	54.8867
462.378	204.66
465.271	200.828
468.164	229.324
471.057	364.398
473.949	258.211
476.842	96.2188
479.735	135.086
482.627	385.023
485.52	432.172
488.413	222.945
491.305	109.32
494.198	52.6875
497.091	35.668
499.984	61.2734
502.876	60.8906
505.769	126.496
508.662	88.207
511.554	150.367
514.447	162.957
517.34	24.9609
520.232	317.219
523.125	226.844
526.018	151.719
528.91	263.137
531.803	200.16
534.696	192.848
537.589	231.477
540.481	477.902
543.374	576.914
546.267	791.41
549.159	832.441
552.052	965.731
554.945	1008.32
557.837	1241.01
560.73	1451.11
563.623	1887.5
566.516	2358.27
569.408	2926.02
572.301	3378.61
575.194	3991.17
578.086	4945.47
580.979	6226.86
583.872	7518.99
586.764	8765.77
589.657	10060.1
592.55	10802.4
595.443	11399.8
598.335	11349.7
601.228	10903.3
604.121	10029.2
607.013	9018.45
609.906	8074.3
612.799	7106.6
615.692	6451.8
618.584	6206.34
621.477	5929.89
624.37	5460.28
627.262	5104.85
630.155	4819.44
633.048	4099.68
635.94	3894.48
638.833	3280.91
641.726	2574.55
644.619	2108.02
647.511	1863.34
650.404	1642.69
653.297	1334
656.189	1008.25
659.082	647.023
661.975	277.809
664.867	286.176
667.76	248.988
670.653	74.7578
673.545	182.996
676.438	269.422
679.331	64.7109
682.224	80.043
685.116	283.496
688.009	68.2617
690.902	87.1445
693.794	261.066
696.687	137.777
699.58	21.0781
702.472	2.41016
705.365	143.945
708.258	1.23047
711.151	114.824
714.043	130.215
716.936	302.617
719.829	131.59
722.721	475.141
725.614	429.727
728.507	222.582
731.399	189.629
734.292	45.7266
737.185	43.6523
740.078	70.5625
742.97	251.223
745.863	265.367
748.756	438.359
751.648	28.1562
754.541	152.062
757.434	116.707
760.327	150.469
763.219	97.6289
766.112	4.69531
769.005	159.84
771.897	264.598
774.79	209.379
777.683	252.957
780.575	258.523
783.468	272.379
786.361	663.266
789.253	768.496
792.146	902.691
795.039	1025.75
797.932	966.566
800.824	1112.23
803.717	1245.64
806.61	1390.97
809.502	1775.27
812.395	2228.97
815.288	2550.41
818.18	2765.15
821.073	2888.74
823.966	3119.92
826.859	3123.38
829.751	3128.09
832.644	2950.27
835.537	2677.82
838.429	2467.5
841.322	2403.84
844.215	2148.91
847.107	1803.89
850	1162.75
852.893	874.449
855.785	797.547
858.678	895.668
861.571	960.027
864.464	673.93
867.356	523.215
870.249	503.246
873.142	442.996
876.034	666.422
878.927	897.523
881.82	875.492
884.712	917.781
887.605	1155.31
890.498	1368
893.391	1532.08
896.283	1367.07
899.176	1160.27
902.069	888.625
904.961	772.246
907.854	821.172
910.747	524.32
913.639	525.008
916.532	344.664
919.425	266.891
922.318	365.582
925.21	578.68
928.103	398.824
930.996	416.781
933.888	424.469
936.781	199.731
939.674	212.914
942.567	156.375
945.459	125.09
948.352	55.4766
951.245	152.481
954.137	9.78516
957.03	74.1719
959.923	69.2734
962.815	126.414
965.708	108.238
968.601	119.727
971.494	7.16797
974.386	3.44531
977.279	52.3555
980.172	235.109
983.064	228.461
985.957	188.836
988.85	39.875
991.742	62.4883
994.635	151.164
997.528	275.129
1000.42	310.328
1003.31	282.746
1006.21	259.562
1009.1	107.856
1011.99	283.879
1014.88	353.047
1017.78	203.43
1020.67	314.578
1023.56	502.82
1026.45	521.75
1029.35	425.516
1032.24	276.586
1035.13	417.484
1038.03	515.328
1040.92	315.301
1043.81	237.961
1046.7	126.699
1049.6	233.414
1052.49	504.477
1055.38	427.348
1058.27	574.535
1061.17	291.992
1064.06	91.7969
1066.95	67.1016
1069.85	151.781
1072.74	321.922
1075.63	72.5352
1078.52	143.469
1081.42	101.227
1084.31	279.82
1087.2	260.769
1090.09	500.973
1092.99	309.981
1095.88	344.012
1098.77	439.492
1101.66	418.356
1104.56	413.769
1107.45	317.805
1110.34	363.504
1113.24	132.781
1116.13	188.539
1119.02	37.1836
1121.91	22.1094
1124.81	26.2969
1127.7	380.422
1130.59	504.078
1133.48	306.934
1136.38	204.848
1139.27	197.09
1142.16	121.562
1145.06	62.9062
1147.95	48.2812
1150.84	279.754
1153.73	299.25
1156.63	414.703
1159.52	196.512
1162.41	204.195
1165.3	124.219
1168.2	128.059
1171.09	195.922
1173.98	362.508
1176.88	421.535
1179.77	469.215
1182.66	580.211
1185.55	435.176
1188.45	291.922
1191.34	248.273
1194.23	222.019
1197.12	314.387
1200.02	183.188
1202.91	286.734
1205.8	395.586
1208.69	459.426
1211.59	398.922
1214.48	219.664
1217.37	174.125
1220.27	201.125
1223.16	127.887
1226.05	180.672
1228.94	266.941
1231.84	379.438
1234.73	428.086
1237.62	484.828
1240.51	290.207
1243.41	275.566
1246.3	408.902
1249.19	437.727
1252.09	180.953
1254.98	229.32
1257.87	204.828
1260.76	17.5938
1263.66	22.3906
1266.55	52.7656
1269.44	293.106
1272.33	453.012
1275.23	502.09
1278.12	129.023
1281.01	126.738
1283.9	196.711
1286.8	260.43
1289.69	162.691
1292.58	132.777
1295.48	0
