Measurement: Raman, 532 nm, unoriented, Raman Data Processed
Mineral: Heazlewoodite
Rruff sample: R061074
Ideal chemistry: Ni_3_S_2_
Locality: Tasmania, Australia
Source: Michael Scott
Description: Pale gray metallic massive
Raman shift (cm-1)	intensity
141.814	0
145.189	79.9922
148.564	74.2925
151.938	101.216
155.313	89.3104
158.688	17.3563
162.063	79.2804
165.438	30.6457
168.812	15.9164
172.187	25.402
175.562	54.3456
178.937	78.8055
182.312	84.868
185.687	138.969
189.061	143.242
192.436	150.566
195.811	161.103
199.186	206.162
202.561	163.933
205.935	42.4087
209.31	44.9171
212.685	102.073
216.06	110.944
219.435	202.835
222.81	193.533
226.184	110.623
229.559	67.8788
232.934	49.3993
236.309	56.2715
239.684	17.3
243.059	18.4163
246.433	7.81128
249.808	18.7045
253.183	45.196
256.558	23.2853
259.933	22.3453
263.307	2.12915
266.682	37.0505
270.057	43.6558
273.432	36.9108
276.807	44.7258
280.181	11.4845
283.556	3.16663
286.931	33.5046
290.306	131.855
293.681	173.015
297.055	236.036
300.43	331.154
303.805	316.897
307.18	236.311
310.555	193.41
313.93	222.523
317.304	244.889
320.679	327.3
324.054	284.23
327.429	267.804
330.804	225.596
334.178	184.246
337.553	244.669
340.928	367.818
344.303	528.371
347.678	619.48
351.053	624.13
354.427	334.563
357.802	164.124
361.177	76.8566
364.552	97.8616
367.927	50.1803
371.301	26.0503
374.676	41.6887
378.051	59.2349
381.426	34.0104
384.801	26.3522
388.175	57.3374
391.55	33.9536
394.925	12.3262
398.3	29.5692
401.675	14.1112
405.05	16.5714
408.424	25.7974
411.799	10.7006
415.174	32.058
418.549	6.01001
421.924	13.5413
425.298	18.587
428.673	47.9218
432.048	21.7468
435.423	8.1355
438.798	23.0736
442.173	49.8168
445.547	17.6608
448.922	36.0172
452.297	19.9774
455.672	59.2798
459.047	51.6742
462.421	50.9019
465.796	44.4127
469.171	85.2579
472.546	20.3271
475.921	50.4456
479.296	45.4907
482.67	67.8053
486.045	38.5795
489.42	20.1801
492.795	4.01831
496.17	4.66736
499.544	30.934
502.919	24.7831
506.294	19.1622
509.669	28.8551
513.044	34.2454
516.418	9.01318
519.793	51.3389
523.168	6.9762
526.543	11.2593
529.918	27.0361
533.293	0.074585
536.667	0.770264
540.042	67.8854
543.417	32.7522
546.792	36.9006
550.167	61.9724
553.541	32.1614
556.916	32.7087
560.291	44.3033
563.666	21.0277
567.041	31.3141
570.415	45.771
573.79	20.856
577.165	47.7824
580.54	33.3042
583.915	36.6659
587.29	44.8136
590.664	56.1249
594.039	71.9575
597.414	64.9747
600.789	22.4905
604.164	85.3075
607.538	29.2231
610.913	39.9567
614.288	32.5311
617.663	33.6528
621.038	68.3781
624.413	62.3267
627.787	46.6068
631.162	33.3986
634.537	41.2238
637.912	22.0057
641.287	15.2551
644.661	11.7835
648.036	15.0013
651.411	27.7167
654.786	1.08862
658.161	70.9409
661.535	9.90942
664.91	39.7773
668.285	17.4058
671.66	45.9436
675.035	39.0185
678.41	18.1028
681.784	44.3401
685.159	42.3613
688.534	34.1328
691.909	46.1917
695.284	49.1711
698.659	39.7542
702.033	44.6101
705.408	60.5718
708.783	49.6204
712.158	66.8054
715.533	34.4768
718.907	33.7688
722.282	39.9665
725.657	28.9082
729.032	18.2688
732.407	62.7258
735.782	38.3667
739.156	45.7998
742.531	23.3989
745.906	32.0784
749.281	42.7444
752.656	72.2314
756.03	27.4983
759.405	52.6416
762.78	63.8865
766.155	23.2297
769.53	22.6951
772.904	15.1074
776.279	54.54
779.654	49.4653
783.029	21.7349
786.404	20.5081
789.779	28.8135
793.153	21.8709
796.528	32.7026
799.903	34.0395
803.278	37.0964
806.653	1.87695
810.027	19.8176
813.402	18.5979
816.777	5.97168
820.152	47.8823
823.527	66.4722
826.902	80.344
830.276	72.0425
833.651	65.0015
837.026	75.2896
840.401	40.5356
843.776	31.0347
847.15	45.1797
850.525	81.6042
853.9	60.1609
857.275	79.2808
860.65	27.7644
864.024	48.7109
867.399	22.6519
870.774	39.9568
874.149	24.6211
877.524	22.8066
880.899	0.434814
884.273	57.72
887.648	35.8914
891.023	81.2085
894.398	62.082
897.773	34.2576
901.147	28.9248
904.522	4.01489
907.897	45.7017
911.272	14.5874
914.647	31.0776
918.021	16.397
921.396	48.6863
924.771	59.3442
928.146	41.2014
931.521	46.4924
934.896	32.3159
938.27	26.1099
941.645	32.885
945.02	97.9641
948.395	27.8967
951.77	50.925
955.144	49.1504
958.519	47.937
961.894	27.1431
965.269	59.8779
968.644	35.604
972.019	42.1624
975.393	15.3511
978.768	23.8564
982.143	50.0478
985.518	46.2371
988.893	93.8203
992.268	55.25
995.642	21.3357
999.017	37.2908
1002.39	37.3726
1005.77	17.5732
1009.14	41.9983
1012.52	33.8467
1015.89	12.6484
1019.27	6.91528
1022.64	29.6562
1026.02	34.345
1029.39	82.4082
1032.77	27.3049
1036.14	80.1177
1039.52	51.3159
1042.89	46.8811
1046.27	56.2493
1049.64	30.0686
1053.01	64.1213
1056.39	20.407
1059.76	33.1787
1063.14	25.103
1066.51	20.405
1069.89	46.2256
1073.26	39.5369
1076.64	39.5042
1080.01	30.8892
1083.39	31.5955
1086.76	33.4338
1090.14	8.17676
1093.51	3.59204
1096.89	27.1873
1100.26	66.9292
1103.64	46.7141
1107.01	21.8589
1110.39	30.877
1113.76	34.4702
1117.14	49.8103
1120.51	46.8477
1123.88	36.3704
1127.26	45.6306
1130.63	22.6697
1134.01	40.1096
1137.38	57.8489
1140.76	61.5442
1144.13	45.6626
1147.51	26.218
1150.88	36.9241
1154.26	10.7036
1157.63	39.6965
1161.01	16.7402
1164.38	26.1443
1167.76	46.053
1171.13	36.7461
1174.51	84.3591
1177.88	31.3132
1181.26	18.5654
1184.63	54.6948
1188.01	53.7695
1191.38	64.9148
1194.76	14.1492
1198.13	50.9402
1201.51	13.0566
1204.88	52.5452
1208.26	13.1404
1211.63	77.0635
1215.01	13.8772
1218.38	28.582
1221.76	49.408
1225.13	82.3291
1228.51	50.354
1231.88	50.8413
1235.25	18.5403
1238.63	42.6812
1242	49.2087
1245.38	13.7734
1248.75	74.7044
1252.13	72.2126
1255.5	31.5391
1258.88	50.6472
1262.25	70.5356
1265.63	46.6455
1269	13.0542
1272.38	63.8433
1275.75	64.3464
1279.13	60.2688
1282.5	44.2434
1285.88	66.7729
1289.25	33.0662
1292.63	56.7288
1296	1.82227
1299.38	17.5234
