Measurement: Raman, 532 nm, unoriented, Raman Data Processed
Mineral: Hedleyite
Rruff sample: R100114
Ideal chemistry: Bi_7_Te_3_
Locality: Good Hope mine, Hedley, British Columbia, Canada
Source: Robert Woodside
Description: Tin-white platy masses
Raman shift (cm-1)	intensity
138.716	0
142.09	2.21206
145.465	0.872099
148.84	5.80932
152.215	9.16487
155.59	6.75576
158.964	6.92411
162.339	6.95723
165.714	12.4383
169.089	10.5299
172.464	7.82135
175.839	8.35883
179.213	7.52897
182.588	6.19696
185.963	7.21286
189.338	4.07079
192.713	3.92462
196.088	3.96815
199.462	1.69972
202.837	2.89899
206.212	2.30635
209.587	1.47987
212.962	3.60224
216.336	2.47962
219.711	0.887384
223.086	2.35958
226.461	1.91824
229.836	0.156023
233.21	1.16322
236.585	0.061356
239.96	0.659912
243.335	1.3637
246.71	0.940563
250.085	1.53473
253.459	1.0862
256.834	2.22106
260.209	1.71079
263.584	0.741261
266.959	2.164
270.334	2.45663
273.708	2.63568
277.083	0.060877
280.458	1.77802
283.833	0.348307
287.208	0.911741
290.582	2.55399
293.957	0.204775
297.332	1.59636
300.707	0.428074
304.082	0.133102
307.457	0.34842
310.831	2.66726
314.206	0.577458
317.581	2.38015
320.956	2.6617
324.331	3.36615
327.705	2.59886
331.08	0.919097
334.455	3.51993
337.83	2.21274
341.205	0.461432
344.58	3.09335
347.954	1.84581
351.329	0.261373
354.704	1.86232
358.079	0.970682
361.454	0.988423
364.829	2.16443
368.203	1.48623
371.578	1.59368
374.953	2.41416
378.328	1.0246
381.703	1.33785
385.077	0.015767
388.452	1.00917
391.827	1.44033
395.202	1.30316
398.577	3.00342
401.952	1.98168
405.326	2.66933
408.701	1.45445
412.076	2.21557
415.451	0.013008
418.826	1.51253
422.2	0.10207
425.575	0.291418
428.95	1.50224
432.325	1.76337
435.7	1.69409
439.075	2.16551
442.449	2.01869
445.824	0.852518
449.199	1.66281
452.574	1.8484
455.949	3.38386
459.324	3.74895
462.698	2.02107
466.073	1.13259
469.448	1.88941
472.823	0.755047
476.198	2.02676
479.572	1.18077
482.947	2.86819
486.322	2.68832
489.697	0.539594
493.072	2.09108
496.447	2.0207
499.821	1.24366
503.196	1.24917
506.571	1.84535
509.946	0.892529
513.321	1.55717
516.695	0.821428
520.07	2.3399
523.445	2.66051
526.82	0.704563
530.195	0.02072
533.57	0.20875
536.944	2.58828
540.319	2.87304
543.694	0.105243
547.069	1.87794
550.444	1.45039
553.818	1.5683
557.193	1.15981
560.568	2.1983
563.943	1.32471
567.318	1.18915
570.693	2.7375
574.067	3.15908
577.442	2.73196
580.817	1.68654
584.192	0.862551
587.567	1.37426
590.942	2.46514
594.316	3.72815
597.691	0.961978
601.066	1.94803
604.441	1.8049
607.816	2.09455
611.19	2.2307
614.565	0.974153
617.94	0.363632
621.315	1.40758
624.69	3.15544
628.064	0.438441
631.439	0.270445
634.814	2.26899
638.189	1.05323
641.564	2.64107
644.939	2.34359
648.313	2.16899
651.688	2.04127
655.063	2.11848
658.438	1.95067
661.813	1.63671
665.188	2.06794
668.562	0.794888
671.937	2.2478
675.312	0.846662
678.687	3.5321
682.062	2.29043
685.437	1.5052
688.811	0.211398
692.186	0.905005
695.561	2.02386
698.936	1.45971
702.311	1.48309
705.685	1.94922
709.06	1.93162
712.435	0.071928
715.81	0.349793
719.185	1.65511
722.559	1.65105
725.934	2.34032
729.309	0.774611
732.684	1.92962
736.059	0.629099
739.434	2.348
742.808	0.460166
746.183	1.02506
749.558	2.08889
752.933	2.36376
756.308	0.364674
759.683	1.825
763.057	2.54938
766.432	2.27373
769.807	0.610714
773.182	1.52967
776.557	1.54499
779.932	0.654861
783.306	0.861545
786.681	2.23566
790.056	2.37689
793.431	1.6364
796.806	2.33869
800.18	1.38305
803.555	3.07071
806.93	1.88628
810.305	1.18263
813.68	2.7244
817.054	1.95094
820.429	3.49076
823.804	1.20421
827.179	2.18981
830.554	1.53192
833.929	2.37153
837.303	0.76743
840.678	3.35624
844.053	0.654661
847.428	3.29094
850.803	1.1445
854.178	3.62937
857.552	0.586537
860.927	1.87935
864.302	0.79517
867.677	0.429059
871.052	2.37764
874.427	1.19132
877.801	2.19483
881.176	2.34009
884.551	1.56192
887.926	1.1092
891.301	0.098632
894.675	0.908963
898.05	0.613689
901.425	0.980652
904.8	0.254192
908.175	0.575165
911.549	0.881052
914.924	1.63791
918.299	0.709962
921.674	2.97948
925.049	1.88099
928.424	0.139051
931.798	0.954285
935.173	1.60762
938.548	1.33986
941.923	2.24154
945.298	1.63368
948.673	1.33815
952.047	2.9661
955.422	2.1375
958.797	1.12146
962.172	2.4145
965.547	0.604221
968.921	2.09247
972.296	0.429379
975.671	1.3369
979.046	0.374992
982.421	0.817715
985.795	1.60145
989.17	0.859267
992.545	0.372097
995.92	0.470271
999.295	3.23892
1002.67	1.88032
1006.04	1.32625
1009.42	1.87277
1012.79	2.1113
1016.17	1.13547
1019.54	0.216015
1022.92	2.96293
1026.29	2.26345
1029.67	1.18456
1033.04	2.09226
1036.42	0.122342
1039.79	1.8753
1043.17	1.99074
1046.54	0.234037
1049.92	0.230232
1053.29	1.62957
1056.67	0.421911
1060.04	0.844897
1063.42	0.782767
1066.79	2.59961
1070.17	2.2861
1073.54	0.475684
1076.92	1.62563
1080.29	1.90429
1083.66	2.3502
1087.04	1.88548
1090.41	1.10741
1093.79	1.49303
1097.16	0.443449
1100.54	1.51696
1103.91	2.31671
1107.29	0.413076
1110.66	3.16899
1114.04	0.856416
1117.41	0.299785
1120.79	1.91598
1124.16	1.76065
1127.54	2.16463
1130.91	0.902856
1134.29	1.59285
1137.66	0.196864
1141.04	2.13789
1144.41	0.200069
1147.79	0.426489
1151.16	0.322864
1154.54	0.799405
1157.91	2.356
1161.29	0.354348
1164.66	1.77574
1168.04	2.24908
1171.41	2.33633
1174.79	2.36085
1178.16	0.638697
1181.54	2.90433
1184.91	2.59165
1188.29	0.73529
1191.66	1.62373
1195.03	3.04479
1198.41	2.03323
1201.78	2.25069
1205.16	2.30843
1208.53	1.563
1211.91	1.62273
1215.28	2.47486
1218.66	0.195085
1222.03	1.51029
1225.41	1.46097
1228.78	2.3556
1232.16	1.52517
1235.53	2.59146
1238.91	0.9534
1242.28	0.07445
1245.66	0.579361
1249.03	1.37208
1252.41	3.56906
1255.78	0.031567
1259.16	1.20539
1262.53	2.29389
1265.91	2.25105
1269.28	0.711209
1272.65	1.42602
1276.03	0.661693
1279.4	2.49497
1282.78	0.942533
1286.15	0.37074
1289.53	0.020135
1292.9	1.37243
