Measurement: Raman, 532 nm, unoriented, Raman Data Processed
Mineral: Hellyerite
Rruff sample: R061050
Ideal chemistry: Ni^2+^CO_3_6H_2_O
Locality: Lord Brassy mine, Tasmania, Australia
Source: Michael Scott
Description: Apple green colored, lamellar, fragmented crystals, amorphous, apparently dehydrated
Raman shift (cm-1)	intensity
163.949	0
166.842	19.1055
169.735	7.95166
172.627	5.58521
175.52	38.4868
178.413	59.0583
181.305	7.91431
184.198	36.3948
187.091	24.259
189.983	70.2908
192.876	40.3586
195.769	58.8777
198.662	47.6382
201.554	83.8828
204.447	47.0464
207.34	78.3169
210.232	8.71069
213.125	14.5957
216.018	35.9023
218.911	13.0647
221.803	15.7803
224.696	50.6106
227.589	32.7405
230.481	50.1548
233.374	33.1958
236.267	72.1348
239.159	2.15894
242.052	6.69165
244.945	28.5361
247.838	34.6467
250.73	57.6047
253.623	3.99121
256.516	29.4482
259.408	20.5513
262.301	64.6899
265.194	34.3081
268.086	45.9739
270.979	30.6724
273.872	24.1694
276.764	15.209
279.657	41.3923
282.55	32.0315
285.442	63.5327
288.335	58.0254
291.228	94.0493
294.121	71.8144
297.013	65.2954
299.906	41.1794
302.799	78.3931
305.691	86.7095
308.584	90.2302
311.477	71.3809
314.37	65.2708
317.262	47.8374
320.155	33.396
323.048	35.1521
325.94	17.3174
328.833	44.0117
331.726	44.5859
334.618	27.6853
337.511	17.9878
340.404	24.4544
343.296	25.3035
346.189	8.85938
349.082	18.8738
351.975	35.5637
354.867	29.0056
357.76	21.374
360.653	42.6738
363.545	5.00073
366.438	35.4719
369.331	12.1912
372.224	0.409668
375.116	19.8052
378.009	19.2078
380.902	12.9495
383.794	8.75732
386.687	30.1179
389.58	64.3562
392.472	4.77026
395.365	12.1863
398.258	33.4294
401.151	44.293
404.043	8.4624
406.936	22.6028
409.829	92.23
412.721	61.3784
415.614	77.9722
418.507	80.7014
421.399	110.123
424.292	41.1697
427.185	104.163
430.077	87.9556
432.97	122.697
435.863	129.168
438.755	132.336
441.648	113.579
444.541	147.381
447.434	186.459
450.326	180.492
453.219	192.243
456.112	130.816
459.004	176.405
461.897	102.237
464.79	147.829
467.683	132.278
470.575	112.181
473.468	57.4822
476.361	13.1829
479.253	0.452881
482.146	0.507568
485.039	41.8127
487.931	31.9041
490.824	65.9397
493.717	74.0698
496.61	41.5869
499.502	123.814
502.395	133.778
505.288	203.471
508.18	325.584
511.073	397.105
513.966	531.976
516.858	669.739
519.751	861.888
522.644	1062.84
525.536	1145.4
528.429	1127.77
531.322	997.652
534.215	903.832
537.107	756.075
540	613.666
542.893	539.323
545.785	406.511
548.678	344.44
551.571	258.632
554.463	218.961
557.356	143.869
560.249	94.4194
563.141	49.3159
566.034	72.3298
568.927	41.0837
571.82	18.8259
574.712	11.6209
577.605	5.9187
580.498	11.5754
583.39	13.7236
586.283	36.0459
589.176	14.1111
592.068	23.6233
594.961	24.9485
597.854	56.5442
600.747	62.7563
603.639	92.3254
606.532	114.017
609.425	99.874
612.317	101.919
615.21	151.764
618.103	190.082
620.995	146.174
623.888	172.564
626.781	218.683
629.673	169.53
632.566	194.705
635.459	154.319
638.352	170.893
641.244	154.436
644.137	144.076
647.03	113.217
649.922	133.383
652.815	58.3772
655.708	92.3328
658.601	60.1389
661.493	58.012
664.386	41.7424
667.279	34.9541
670.171	45.8594
673.064	69.3909
675.957	55.0459
678.849	41.2849
681.742	75.6641
684.635	38.4348
687.528	39.5557
690.42	55.6548
693.313	89.9556
696.206	16.4443
699.098	28.9451
701.991	13.1777
704.884	30.4168
707.776	21.8572
710.669	21.1614
713.562	16.6555
716.455	49.5732
719.347	38.0969
722.24	46.4568
725.133	54.1728
728.025	72.1672
730.918	3.93433
733.811	53.3003
736.703	30.9331
739.596	50.3516
742.489	45.6985
745.381	35.3674
748.274	30.0215
751.167	26.4014
754.059	27.3574
756.952	15.0832
759.845	6.2644
762.738	0.921143
765.63	48.0906
768.523	39.4414
771.416	39.0566
774.308	34.3982
777.201	34.4138
780.094	41.9087
782.986	36.596
785.879	3.26343
788.772	47.0078
791.665	68.7417
794.557	19.7339
797.45	92.3882
800.343	86.9873
803.235	90.0681
806.128	85.0288
809.021	83.7815
811.913	88.9224
814.806	106.132
817.699	163.075
820.592	198.633
823.484	138.408
826.377	185.329
829.27	140.098
832.162	187.07
835.055	116.903
837.948	125.066
840.841	135.884
843.733	89.8413
846.626	58.6648
849.519	111.887
852.411	16.3113
855.304	46.1919
858.197	3.57251
861.089	2.37012
863.982	0.851807
866.875	15.4675
869.767	14.8623
872.66	69.5525
875.553	5.46265
878.446	45.3005
881.338	43.4705
884.231	32.655
887.124	21.356
890.016	17.8787
892.909	52.9165
895.802	31.3633
898.694	63.0745
901.587	73.8769
904.48	72.5188
907.372	59.5225
910.265	79.1013
913.158	17.9802
916.051	72.7229
918.943	109.676
921.836	153.069
924.729	149.858
927.621	151.356
930.514	207.671
933.407	163.602
936.299	236.43
939.192	187.872
942.085	187.342
944.977	183.642
947.87	111.167
950.763	129.442
953.656	82.1846
956.548	42.1719
959.441	6.85303
962.334	16.5022
965.226	48.8135
968.119	18.4036
971.012	31.7898
973.904	64.3713
976.797	32.0618
979.69	72.907
982.583	27.5203
985.475	11.5913
988.368	11.5581
991.261	26.0452
994.153	31.4661
997.046	41.636
999.939	0.743896
1002.83	37.9375
1005.72	7.9751
1008.62	28.7395
1011.51	41.1155
1014.4	24.7436
1017.29	6.92065
1020.19	26.5679
1023.08	34.7244
1025.97	67.2231
1028.87	41.8621
1031.76	81.1406
1034.65	104.785
1037.54	51.5696
1040.44	71.0657
1043.33	99.1643
1046.22	59.3774
1049.12	48.7
1052.01	112.799
1054.9	99.2922
1057.79	166.316
1060.68	147.058
1063.58	187.253
1066.47	189.258
1069.36	175.117
1072.26	174.989
1075.15	206.394
1078.04	219.254
1080.93	169.514
1083.83	225.029
1086.72	238.508
1089.61	166.478
1092.51	162.228
1095.4	224.477
1098.29	176.941
1101.18	153.94
1104.08	129.292
1106.97	188.248
1109.86	154.789
1112.75	116.703
1115.65	83.7705
1118.54	11.0059
1121.43	81.9265
1124.33	82.9287
1127.22	70.2339
1130.11	28.3784
1133	13.502
1135.9	18.53
1138.79	14.5159
1141.68	15.5552
1144.57	31.9915
1147.47	5.90137
1150.36	23.1514
1153.25	49.7888
1156.14	91.3394
1159.04	66.1731
1161.93	53.3713
1164.82	36.8284
1167.71	61.8023
1170.61	6.47314
1173.5	19.0664
1176.39	24.0864
1179.29	43.311
1182.18	59.4199
1185.07	65.7407
1187.96	41.4424
1190.86	26.03
1193.75	20.0381
1196.64	85.5715
1199.54	34.8643
1202.43	49.6352
1205.32	24.696
1208.21	58.4407
1211.11	25.5671
1214	68.7554
1216.89	54.4534
1219.78	51.0308
1222.68	65.7559
1225.57	8.03662
1228.46	89.1003
1231.36	43.4314
1234.25	74.9358
1237.14	60.9482
1240.03	73.7292
1242.92	88.3142
1245.82	65.4656
1248.71	35.4817
1251.6	46.8267
1254.5	25.0608
1257.39	43.9282
1260.28	19.5916
1263.17	26.6086
1266.07	50.3826
1268.96	34.948
1271.85	39.803
1274.74	56.9668
1277.64	108.717
1280.53	67.2805
1283.42	1.61865
1286.32	68.6299
1289.21	35.1919
1292.1	3.56812
