Measurement: Raman, 514 nm, unoriented, Raman Data Processed
Mineral: Hematite
Rruff sample: R050300
Ideal chemistry: Fe^3+^_2_O_3_
Locality: Argentina
Source: Eugene Schlepp
Description: Pseudomorph after magnetite
Measured chemistry: Fe_2.00_O_3_
Raman shift (cm-1)	intensity
164.161	0
168.308	35.773
172.452	7.522
176.594	19.841
180.734	20.075
184.872	4.599
189.008	46.953
193.143	261.589
197.275	425.61
201.405	374.328
205.534	524.652
209.66	506.889
213.784	117.969
217.907	472.421
222.027	1295.86
226.146	2821.74
230.263	1424.34
234.377	489.861
238.49	522.469
242.601	1523.42
246.709	1860.52
250.816	679.635
254.921	277.693
259.024	189.539
263.125	118.369
267.224	182.828
271.321	249.875
275.416	432.804
279.51	719.771
283.601	1390.73
287.69	2807.66
291.778	4847.53
295.863	4609.28
299.947	3689.88
304.029	2059.36
308.108	951.781
312.186	439.243
316.262	226.271
320.336	173.716
324.408	81.697
328.478	75.011
332.546	11.564
336.612	25.554
340.677	52.186
344.739	58.033
348.799	16.847
352.858	21.9
356.915	34.458
360.969	52.811
365.022	26.82
369.073	87.901
373.122	98.508
377.169	174.761
381.215	245.395
385.258	270.301
389.299	370.816
393.339	573.225
397.376	914.207
401.412	1690.82
405.446	3246.45
409.478	5131.78
413.508	4808.79
417.536	2778.28
421.562	1444.24
425.586	830.819
429.609	556.446
433.629	441.057
437.648	276.618
441.665	231.424
445.68	169.611
449.693	137.051
453.704	146.446
457.713	85.837
461.721	43.272
465.726	45.792
469.73	82.696
473.731	122.861
477.731	139.96
481.729	166.985
485.725	297.952
489.72	576.408
493.712	727.496
497.703	875.353
501.691	892.098
505.678	673.686
509.663	489.116
513.646	310.641
517.627	202.244
521.607	136.298
525.584	76.321
529.56	10.248
533.534	28.251
537.506	118.052
541.476	29.976
545.444	25.664
549.41	36.868
553.375	78.073
557.337	88.278
561.298	60.451
565.257	126.778
569.214	137.467
573.17	155.769
577.123	123.471
581.075	178.405
585.024	184.043
588.972	245.651
592.918	315.988
596.863	405.483
600.805	647.334
604.746	1074
608.685	1625.59
612.621	1956.58
616.557	1656.55
620.49	1077.7
624.421	663.522
628.351	519.182
632.279	428.966
636.205	330.838
640.129	377.626
644.051	394.06
647.972	472.524
651.89	624.658
655.807	728.769
659.722	808.88
663.636	781.026
667.547	639.208
671.457	494.343
675.365	429.407
679.271	229.406
683.175	271.178
687.077	190.247
690.978	119.894
694.877	65.204
698.774	79.347
702.669	67.068
706.562	18.007
710.454	19.152
714.344	20.111
718.232	6.676
722.118	24.025
726.002	11.989
729.885	2.682
733.766	42.363
737.645	22.397
741.522	15.756
745.397	21.451
749.271	49.046
753.143	11.017
757.013	21.831
760.881	13.751
764.748	12.237
768.613	21.36
772.476	70.296
776.337	42.484
780.196	43.112
784.054	82.592
787.91	22.074
791.764	46.053
795.616	117.035
799.467	80.876
803.316	109.573
807.163	182.131
811.008	207.552
814.851	272.835
818.693	212.979
822.533	259.982
826.371	202.844
830.208	249.565
834.042	114.233
837.875	156.725
841.706	132.149
845.536	156.551
849.363	57.447
853.189	153.372
857.013	120.231
860.836	69.652
864.656	49.677
868.475	58.864
872.292	11.172
876.108	34.75
879.922	2.918
883.733	16.621
887.544	6.156
891.352	21.787
895.159	0.59
898.964	7.131
902.767	1.131
906.568	129.013
910.368	42.809
914.166	73.16
917.962	16.414
921.757	83.33
925.55	88.849
929.341	46.206
933.13	102.414
936.918	78.006
940.703	122.154
944.488	62.726
948.27	94.521
952.051	161.15
955.83	146.792
959.607	135.525
963.383	109.191
967.156	94.794
970.928	101.393
974.699	31.819
978.468	25.246
982.234	11.496
986	34.248
989.763	22.498
993.525	59.368
997.285	65.08
1001.04	85.525
1004.8	111.266
1008.55	94.143
1012.31	92.829
1016.06	168.621
1019.81	155.937
1023.56	181.474
1027.31	262.504
1031.05	330.657
1034.79	407.811
1038.53	461
1042.27	518.588
1046.01	511.561
1049.75	554.998
1053.48	527.225
1057.22	585.943
1060.95	502.832
1064.68	534.577
1068.4	557.428
1072.13	481.481
1075.86	435.159
1079.58	413.791
1083.3	400.017
1087.02	399.003
1090.74	361.582
1094.45	363.942
1098.17	432.338
1101.88	338.771
1105.59	307.244
1109.3	197.758
1113.01	215.313
1116.71	227.913
1120.42	169.56
1124.12	172.257
1127.82	122.006
1131.52	45.801
1135.22	40.535
1138.91	32.322
1142.61	68.996
1146.3	26.489
1149.99	22.95
1153.68	13.452
1157.37	2.151
1161.06	36.572
1164.74	22.269
1168.42	98.199
1172.1	60.765
1175.78	199.483
1179.46	224.358
1183.14	278.358
1186.81	279.509
1190.48	367.827
1194.15	296.309
1197.83	348.926
1201.49	315.676
1205.16	455.552
1208.82	383.547
1212.49	524.666
1216.15	724.909
1219.81	617.291
1223.46	598.806
1227.12	630.457
1230.78	689.24
1234.43	871.16
1238.08	947.195
1241.73	1066.33
1245.38	1212.55
1249.03	1235.88
1252.67	1563.31
1256.31	1716.84
1259.95	2017.48
1263.6	2224.23
1267.23	2473.1
1270.87	2662.1
1274.51	2931.24
1278.14	3252.74
1281.77	3528.62
1285.4	3760.2
1289.03	4081.4
1292.66	4483.23
1296.28	4940.13
1299.91	5499.84
1303.53	6186.96
1307.15	6806.84
1310.77	7578.7
1314.38	7990.72
1318	8460.34
1321.61	8548.41
1325.23	8304.98
1328.84	7802.7
1332.45	7321.48
1336.06	6622.63
1339.66	5879.11
1343.27	5104.7
1346.87	4471.51
1350.47	3917.52
1354.07	3419.89
1357.67	3025.18
1361.26	2646.76
1364.86	2356.69
1368.45	2050.49
1372.04	1716.49
1375.63	1541.28
1379.22	1258.69
1382.81	1048.5
1386.39	891.497
1389.98	796.691
1393.56	577.084
1397.14	565.679
1400.72	467.484
1404.3	337.628
1407.87	293.447
1411.45	198.852
1415.02	210.705
1418.59	139.997
1422.16	127.562
1425.73	117.376
1429.29	37.424
1432.86	3.283
1436.42	58.252
1439.98	19.893
1443.54	26.983
1447.1	40.093
1450.66	9.378
1454.21	15.939
1457.77	19.697
1461.32	6.854
1464.87	17.626
1468.42	1.705
1471.96	9.644
1475.51	46.606
1479.06	86.795
1482.6	63.42
1486.14	75.931
1489.68	67.318
1493.22	85.417
1496.75	68.549
1500.29	13.811
1503.82	120.834
1507.35	2.83
1510.88	67.228
1514.41	120.319
1517.94	0.143
