Measurement: Raman, 532 nm, unoriented, Raman Data Processed
Mineral: Hematite
Rruff sample: R060190
Ideal chemistry: Fe^3+^_2_O_3_
Locality: Florence mine, Egremont, Cumbria, England
Source: Lloyd Twaites
Description: Red tinged, steel-gray fragment of a botryoidal mass
Measured chemistry: Fe_2.00_O_3_
Raman shift (cm-1)	intensity
150.274	0
153.166	0.960432
156.059	0.622238
158.952	1.89914
161.844	2.6616
164.737	1.73598
167.63	0.204056
170.523	0.34271
173.415	0.35737
176.308	0.103317
179.201	0.243622
182.093	1.14309
184.986	1.25596
187.879	0.881697
190.771	0.749626
193.664	0.652142
196.557	0.558636
199.45	0.557404
202.342	0.071222
205.235	1.38352
208.128	5.8872
211.02	10.7473
213.913	13.6969
216.806	15.0688
219.698	21.7183
222.591	31.464
225.484	44.6151
228.376	36.0375
231.269	14.793
234.162	10.5864
237.055	10.5488
239.947	12.8654
242.84	18.5137
245.733	20.265
248.625	13.6192
251.518	4.34382
254.411	1.49643
257.303	0.553951
260.196	0.379673
263.089	0.736113
265.982	1.00659
268.874	2.53223
271.767	5.06288
274.66	7.22044
277.552	10.3125
280.445	15.5404
283.338	19.5599
286.231	26.3436
289.123	34.2244
292.016	39.118
294.909	35.1473
297.801	27.3127
300.694	22.9048
303.587	16.124
306.479	11.0836
309.372	5.88165
312.265	5.69437
315.158	2.1075
318.05	1.72527
320.943	1.4895
323.836	1.06609
326.728	1.22656
329.621	0.706085
332.514	2.3175
335.406	1.27713
338.299	0.374249
341.192	0.793612
344.084	0.470069
346.977	0.842941
349.87	0.113269
352.762	1.35264
355.655	1.10201
358.548	0.123043
361.441	1.19495
364.333	2.02773
367.226	1.72622
370.119	2.51227
373.011	2.02477
375.904	3.95898
378.797	2.48387
381.69	3.11233
384.582	4.44288
387.475	5.12444
390.368	7.46262
393.26	11.4128
396.153	14.4778
399.046	19.3919
401.938	24.9853
404.831	31.9362
407.724	36.1985
410.616	38.2039
413.509	34.0746
416.402	24.4934
419.295	14.7232
422.187	8.91461
425.08	6.26744
427.973	4.18869
430.865	3.80788
433.758	1.51448
436.651	2.08481
439.543	1.63874
442.436	1.35037
445.329	0.000832
448.222	0.630211
451.114	0.435639
454.007	0.000387
456.9	0.050796
459.792	0.110753
462.685	0.309344
465.578	0.538593
468.471	1.34658
471.363	0.504704
474.256	1.20958
477.149	0.562562
480.041	2.12413
482.934	3.25196
485.827	4.76759
488.719	5.44702
491.612	6.09798
494.505	8.72783
497.397	9.47658
500.29	8.54248
503.183	9.09114
506.076	6.38355
508.968	4.96128
511.861	4.36505
514.754	4.38857
517.646	2.31961
520.539	1.35981
523.432	0.912479
526.324	1.82895
529.217	0.756059
532.11	0.663658
535.003	0.419913
537.895	0.095714
540.788	0.096931
543.681	0.896004
546.573	0.075931
549.466	1.03069
552.359	0.323491
555.251	0.720264
558.144	1.60271
561.037	0.501886
563.93	0.983027
566.822	0.508551
569.715	0.328694
572.608	0.133745
575.5	0.294292
578.393	0.80512
581.286	1.21526
584.178	0.886038
587.071	1.55468
589.964	2.47634
592.857	2.82249
595.749	4.83529
598.642	5.98963
601.535	6.88535
604.427	8.46909
607.32	10.8833
610.213	12.698
613.106	13.3646
615.998	9.40183
618.891	7.05238
621.784	5.584
624.676	4.9809
627.569	4.51652
630.462	3.71634
633.354	3.95176
636.247	3.77303
639.14	3.63375
642.033	4.445
644.925	5.00823
647.818	6.65519
650.711	7.73501
653.603	8.31454
656.496	8.04684
659.389	8.61121
662.281	7.37991
665.174	7.4943
668.067	6.10706
670.96	5.90199
673.852	4.24122
676.745	4.21412
679.638	3.95318
682.53	4.22879
685.423	3.06682
688.316	1.79952
691.208	1.87992
694.101	1.93542
696.994	1.42208
699.886	0.983936
702.779	0.151722
705.672	0.74802
708.565	1.65435
711.457	0.186647
714.35	0.044129
717.243	0.104854
720.135	1.38516
723.028	0.621737
725.921	0.077638
728.813	0.462143
731.706	0.760756
734.599	0.044989
737.492	0.285841
740.384	0.478886
743.277	0.067377
746.17	0.780252
749.062	0.230461
751.955	0.2304
754.848	0.895163
757.74	0.585569
760.633	0.969826
763.526	0.702333
766.419	0.261822
769.311	1.23613
772.204	0.811995
775.097	0.989546
777.989	1.06621
780.882	1.92639
783.775	1.25513
786.667	0.892712
789.56	2.29583
792.453	1.50573
795.346	2.03828
798.238	2.56037
801.131	3.97964
804.024	3.24299
806.916	4.87639
809.809	4.62552
812.702	4.21609
815.594	4.58988
818.487	5.10664
821.38	5.02285
824.273	4.12989
827.165	3.88098
830.058	4.79144
832.951	3.65199
835.843	3.37371
838.736	2.64409
841.629	1.93547
844.521	2.38385
847.414	1.95961
850.307	2.03251
853.199	2.11581
856.092	1.39822
858.985	0.882597
861.878	1.0518
864.77	0.325005
867.663	1.26753
870.556	1.07199
873.448	0.94817
876.341	0.151794
879.234	1.30634
882.126	0.693607
885.019	0.629255
887.912	0.812822
890.805	0.341406
893.697	0.625553
896.59	0.935888
899.483	0.390512
902.375	0.589983
905.268	0.863409
908.161	0.48698
911.053	0.176661
913.946	0.528597
916.839	1.03249
919.732	1.02216
922.624	0.220457
925.517	0.465115
928.41	0.227772
931.302	0.861872
934.195	1.18633
937.088	0.586721
939.981	0.470903
942.873	1.25147
945.766	1.30003
948.659	0.776279
951.551	1.30259
954.444	2.1305
957.337	0.893034
960.229	1.66727
963.122	1.10928
966.015	0.905684
968.908	1.40086
971.8	1.07268
974.693	0.101141
977.586	0.133228
980.478	0.234585
983.371	0.517628
986.264	0.515215
989.156	0.443481
992.049	0.596516
994.942	0.535477
997.835	0.078333
1000.73	0.535124
1003.62	0.55797
1006.51	0.342878
1009.4	0.808443
1012.3	0.993591
1015.19	0.91416
1018.08	0.580416
1020.98	1.28168
1023.87	2.18092
1026.76	2.87412
1029.65	3.29492
1032.55	3.19767
1035.44	4.75776
1038.33	5.15717
1041.22	5.53234
1044.12	4.69169
1047.01	3.5949
1049.9	4.45827
1052.8	4.73328
1055.69	3.9024
1058.58	3.77197
1061.47	3.56722
1064.37	4.06258
1067.26	4.69745
1070.15	3.95091
1073.05	3.51611
1075.94	4.0657
1078.83	3.01843
1081.72	3.33968
1084.62	2.90218
1087.51	3.37333
1090.4	2.70239
1093.29	3.84133
1096.19	4.19899
1099.08	2.15085
1101.97	2.73187
1104.86	3.23578
1107.76	3.04082
1110.65	3.40052
1113.54	3.47881
1116.43	2.04619
1119.33	2.55217
1122.22	1.67099
1125.11	1.32728
1128.01	1.38176
1130.9	0.547117
1133.79	1.37189
1136.68	0.299553
1139.58	0.000509
1142.47	0.175169
1145.36	0.125729
1148.26	0.914909
1151.15	0.490417
1154.04	0.153204
1156.93	0.459621
1159.83	0.670908
1162.72	0.551329
1165.61	0.637011
1168.5	2.37729
1171.4	2.2511
1174.29	3.00968
1177.18	2.92419
1180.08	4.33604
1182.97	4.3667
1185.86	4.42439
1188.75	5.07771
1191.64	5.22529
1194.54	5.38774
1197.43	5.63045
1200.32	5.72465
1203.22	5.86104
1206.11	6.11139
1209	5.86686
1211.89	3.89996
1214.79	5.36613
1217.68	3.82796
1220.57	3.41539
1223.46	3.98665
1226.36	2.58622
1229.25	2.12928
1232.14	1.1816
1235.04	1.49596
1237.93	1.64732
1240.82	0.356426
1243.71	0.115631
1246.61	0.84309
1249.5	1.15214
1252.39	1.59501
1255.29	1.65298
1258.18	2.14079
1261.07	3.42117
1263.96	3.96466
1266.86	4.33937
1269.75	4.80351
1272.64	5.26228
1275.53	3.373
1278.43	1.4929
1281.32	1.57678
1284.21	1.83248
1287.1	1.6605
1290	1.68562
1292.89	1.6139
1295.78	1.04861
1298.67	0.67115
1301.57	1.39116
