Measurement: Raman, 785 nm, unoriented, Raman Data Processed
Mineral: Hendersonite
Rruff sample: R070467
Ideal chemistry: Ca_1.3_(V^5+^,V^4+^)_6_O_16_6H_2_O
Locality: Mineral Joe No. 1 mine, Paradox Valley, Uravan District, Montrose County, Colorado, USA
Source: Michael Scott
Description: Black to dark green massive associated with rounded pebbles of quartz
Raman shift (cm-1)	intensity
145.617	0
148.51	731.483
151.403	1490.36
154.295	1359.02
157.188	747.619
160.081	201.63
162.973	26.1133
165.866	18.7334
168.759	108.193
171.651	48.7017
174.544	32.5952
177.437	64.5005
180.329	37.3745
183.222	160.286
186.115	207.039
189.008	207.316
191.9	170.469
194.793	133.638
197.686	135.625
200.578	105.942
203.471	42.7642
206.364	1.66602
209.256	37.9385
212.149	2.02734
215.042	18.1309
217.935	3.86475
220.827	71.2266
223.72	49.4541
226.613	108.717
229.505	184.903
232.398	167.263
235.291	187.671
238.184	345.6
241.076	436.529
243.969	432.36
246.862	562.514
249.754	710.354
252.647	843.572
255.54	1041.5
258.432	1271.41
261.325	1565.89
264.218	1801.13
267.111	1854.54
270.003	1863.72
272.896	1629.06
275.789	1508.85
278.681	1403.44
281.574	1286.75
284.467	1185.15
287.359	1050.71
290.252	948.661
293.145	780.266
296.038	699.861
298.93	616.011
301.823	563.812
304.716	495.255
307.608	440.916
310.501	333.276
313.394	328.145
316.286	204.89
319.179	207.041
322.072	119.398
324.964	106.193
327.857	105.975
330.75	46.6616
333.643	19.9336
336.535	61.3701
339.428	16.5449
342.321	2.97168
345.213	38.6016
348.106	10.7808
350.999	18.4307
353.892	5.72314
356.784	14.9712
359.677	4.30273
362.57	82.3579
365.462	43.0884
368.355	30.0996
371.248	68.6894
374.14	185.484
377.033	129.864
379.926	236.035
382.818	270.535
385.711	282.057
388.604	307.482
391.497	369.856
394.389	486.122
397.282	506.92
400.175	530.715
403.067	487.722
405.96	483.109
408.853	431.998
411.745	405.799
414.638	333.043
417.531	305.427
420.424	274.858
423.316	239.008
426.209	208.395
429.102	180.323
431.994	144.549
434.887	92.6636
437.78	50.8496
440.673	0.005371
443.565	9.04785
446.458	2.47656
449.351	3.87256
452.243	4.56445
455.136	3.73731
458.029	5.08057
460.921	83.2832
463.814	88.936
466.707	148.824
469.599	147.685
472.492	168.512
475.385	176.356
478.278	215.196
481.17	304.485
484.063	227.743
486.956	238.459
489.848	275.927
492.741	325.173
495.634	340.726
498.526	347.302
501.419	345.642
504.312	387.723
507.205	436.194
510.097	464.647
512.99	541.384
515.883	518.659
518.775	509.782
521.668	528.984
524.561	480.173
527.454	502.249
530.346	452.41
533.239	427.812
536.132	404.397
539.024	329.331
541.917	220.914
544.81	201.144
547.702	177.738
550.595	151.39
553.488	107.914
556.38	85.7207
559.273	80.0469
562.166	44.8281
565.059	45.626
567.951	40.5425
570.844	27.1201
573.737	4.15771
576.629	6.47803
579.522	0.356445
582.415	9.2876
585.308	13.3379
588.2	29.3823
591.093	32.7988
593.986	44.0727
596.878	10.2769
599.771	2.24219
602.664	10.3813
605.556	13.3648
608.449	21.0249
611.342	97.8584
614.235	17.5254
617.127	46.125
620.02	46.876
622.913	48.729
625.805	71.4102
628.698	65.8369
631.591	72.8501
634.483	72.8467
637.376	38.0845
640.269	92.9116
643.162	140.079
646.054	114.99
648.947	138.729
651.84	125.424
654.732	171.578
657.625	169.648
660.518	206.865
663.41	298.796
666.303	298.786
669.196	397.633
672.088	484.438
674.981	573.821
677.874	639.552
680.767	738.381
683.659	847.785
686.552	853.947
689.445	955.748
692.337	928.553
695.23	990.631
698.123	1020.71
701.015	873.993
703.908	907.286
706.801	785.71
709.694	755.179
712.586	654.886
715.479	614.055
718.372	570.69
721.264	523.568
724.157	455.994
727.05	418.809
729.942	394.231
732.835	282.394
735.728	260.904
738.621	240.507
741.513	252.071
744.406	253.345
747.299	297.606
750.191	210.016
753.084	191.366
755.977	228.511
758.87	136.484
761.762	147.774
764.655	155.487
767.548	90.3613
770.44	100.241
773.333	65.7769
776.226	42.8525
779.118	50.9761
782.011	69.8174
784.904	33.1387
787.797	47.1943
790.689	16.9131
793.582	1.7749
796.475	58.1606
799.367	5.30615
802.26	17.5352
805.153	19.2046
808.045	8.21924
810.938	30.8828
813.831	2.35547
816.723	15.3633
819.616	6.06982
822.509	16.0747
825.402	25.2783
828.294	21.5395
831.187	21.8018
834.08	36.3862
836.972	60.3694
839.865	23.2576
842.758	33.7615
845.65	42.0999
848.543	59.4468
851.436	80.8269
854.329	56.4409
857.221	97.2595
860.114	60.0725
863.007	72.9231
865.899	57.4495
868.792	60.2422
871.685	79.4099
874.577	83.4023
877.47	69.053
880.363	90.1084
883.256	73.1699
886.148	27.7629
889.041	24.4761
891.934	14.7315
894.826	49.5855
897.719	6.11792
900.612	6.75659
903.505	75.1836
906.397	68.1519
909.29	49.6074
912.183	46.0679
915.075	65.3135
917.968	46.3877
920.861	53.1492
923.753	88.1077
926.646	28.5354
929.539	29.4734
932.432	37.165
935.324	38.9612
938.217	81.9954
941.11	58.9028
944.002	32.012
946.895	33.2966
949.788	40.5132
952.68	36.594
955.573	59.1375
958.466	44.7803
961.359	1.18921
964.251	59.124
967.144	12.4885
970.037	43.6721
972.929	65.7122
975.822	132.241
978.715	160.966
981.607	240.023
984.5	334.234
987.393	462.175
990.285	497.087
993.178	477.266
996.071	397.27
998.964	283.866
1001.86	215.397
1004.75	188.398
1007.64	182.5
1010.53	153.748
1013.43	162.492
1016.32	128.309
1019.21	145.197
1022.11	167.46
1025	162.07
1027.89	167.257
1030.78	120.26
1033.68	163.282
1036.57	135.077
1039.46	123.031
1042.35	32.6953
1045.25	23.9565
1048.14	19.4492
1051.03	6.47266
1053.92	3.41357
1056.82	28.2798
1059.71	31.7097
1062.6	2.45752
1065.5	21.2449
1068.39	34.4304
1071.28	6.66772
1074.17	27.752
1077.07	54.7148
1079.96	7.47095
1082.85	57.1106
1085.74	30.1653
1088.64	30.531
1091.53	30.8718
1094.42	32.6074
1097.32	33.0679
1100.21	83.6064
1103.1	33.969
1105.99	36.8242
1108.89	43.707
1111.78	40.4868
1114.67	20.3154
1117.56	56.6414
1120.46	22.4856
1123.35	32.1103
1126.24	20.4233
1129.13	5.01489
1132.03	46.9651
1134.92	12.1787
1137.81	38.124
1140.71	19.6958
1143.6	25.7571
1146.49	15.3015
1149.38	51.7366
1152.28	55.074
1155.17	47.9355
1158.06	42.3899
1160.95	18.7317
1163.85	18.5037
1166.74	34.5393
1169.63	17.9016
1172.53	31.8335
1175.42	58.3547
1178.31	59.6318
1181.2	19.8284
1184.1	22.166
1186.99	33.6152
1189.88	20.2019
1192.78	36.1592
1195.67	41.3076
1198.56	37.7546
1201.45	10.9499
1204.35	46.5923
1207.24	39.0344
1210.13	65.3159
1213.02	61.21
1215.92	76.4353
1218.81	40.418
1221.7	46.3545
1224.59	1.66992
1227.49	8.88599
1230.38	28.2307
1233.27	43.2285
1236.16	43.3044
1239.06	5.52661
1241.95	0.293701
