Measurement: Raman, 785 nm, unoriented, Raman Data Processed
Mineral: Hentschelite
Rruff sample: R061015
Ideal chemistry: Cu^2+^Fe^3+^_2_(PO_4_)_2_(OH)_2_
Locality: Spring Creek Copper mine, South Australia, Australia
Source: Michael Scott
Description: Dark green platy crystals in radial aggregates associated with quartz and malachite
Measured chemistry: (Cu_0.91_Fe^2+^_0.08_Mn_0.01_)_Î£=1_Fe^3+^_2.00_(P_1.00_O_4_)_2_(OH)_2_; OH estimated by charge balance; Fe^2+^ by charge balance and stoichiometry
Raman shift (cm-1)	intensity
193.846	0
196.738	12.8733
199.631	74.1597
202.524	51.2651
205.416	20.8281
208.309	48.919
211.202	1.61231
214.095	94.6113
216.987	103.336
219.88	180.887
222.773	111.469
225.665	70.1882
228.558	25.1194
231.451	28.7144
234.343	10.864
237.236	66.1875
240.129	109.693
243.022	243.334
245.914	267.606
248.807	439.973
251.7	571.773
254.592	703.059
257.485	800.548
260.378	776.802
263.27	726.212
266.163	661.464
269.056	449.707
271.949	342.507
274.841	321.669
277.734	274.938
280.627	252.545
283.519	264.865
286.412	231.009
289.305	304.37
292.197	386.939
295.09	370.733
297.983	393.839
300.875	471.148
303.768	542.009
306.661	645.058
309.554	682.287
312.446	710.825
315.339	640.946
318.232	561.575
321.124	489.103
324.017	527.729
326.91	496.66
329.803	524.157
332.695	511.552
335.588	376.265
338.481	447.688
341.373	461.346
344.266	376.095
347.159	385.332
350.051	345.713
352.944	289.132
355.837	171.155
358.729	79.1455
361.622	12.044
364.515	18.1499
367.408	9.25903
370.3	23.1416
373.193	83.2898
376.086	204.93
378.978	241.064
381.871	218.981
384.764	202.264
387.656	180.732
390.549	221.743
393.442	261.529
396.335	241.075
399.227	216.013
402.12	120.74
405.013	103.008
407.905	42.0566
410.798	36.5486
413.691	12.022
416.584	14.4416
419.476	7.05786
422.369	4.45117
425.262	8.62695
428.154	4.29443
431.047	19.9751
433.94	6.86133
436.832	30.898
439.725	56.0706
442.618	105.883
445.51	128.515
448.403	140.941
451.296	235.297
454.189	248.029
457.081	280.228
459.974	372.287
462.867	393.528
465.759	442.036
468.652	512.451
471.545	548.282
474.438	568.773
477.33	601.69
480.223	655.71
483.116	664.989
486.008	649.561
488.901	626.15
491.794	558.345
494.686	511.096
497.579	503.554
500.472	447.497
503.365	444.797
506.257	474.425
509.15	438.146
512.043	444.938
514.935	482.041
517.828	481.915
520.721	449.616
523.613	401.644
526.506	322.015
529.399	258.505
532.292	187.228
535.184	159.603
538.077	117.97
540.97	91.9919
543.862	64.3308
546.755	83.5134
549.648	72.6736
552.54	28.9658
555.433	14.1155
558.326	21.9724
561.218	17.1748
564.111	2.37988
567.004	13.219
569.897	19.2019
572.789	13.0601
575.682	74.5847
578.575	76.5444
581.467	60.8447
584.36	83.9937
587.253	152.419
590.145	159.118
593.038	185.683
595.931	249.622
598.824	284.591
601.716	394.16
604.609	473.535
607.502	531.25
610.394	581.115
613.287	510.05
616.18	428.021
619.072	382.83
621.965	350.918
624.858	265.116
627.751	211.839
630.643	198.02
633.536	152.007
636.429	108.619
639.321	120.925
642.214	97.8237
645.107	38.1057
648	41.1565
650.892	25.8555
653.785	3.83276
656.678	14.7642
659.57	59.9265
662.463	29.6113
665.356	31.7837
668.248	37.5842
671.141	0.812256
674.034	8.9519
676.927	12.217
679.819	32.154
682.712	22.3513
685.605	15.7563
688.497	10.221
691.39	47.9419
694.283	17.9568
697.175	54.8167
700.068	55.6887
702.961	14.6904
705.854	11.7581
708.746	0.458008
711.639	29.4609
714.532	21.2539
717.424	36.9849
720.317	33.9504
723.21	11.2107
726.102	27.0002
728.995	18.2219
731.888	26.0911
734.78	21.2422
737.673	44.7886
740.566	11.6028
743.459	38.6714
746.351	26.7459
749.244	35.8938
752.137	30.2988
755.029	22.939
757.922	3.12231
760.815	40.7024
763.707	14.4355
766.6	13.3133
769.493	9.55566
772.386	29.5007
775.278	0.267578
778.171	74.4753
781.064	48.2239
783.956	58.429
786.849	83.6832
789.742	67.2563
792.635	58.187
795.527	47.1936
798.42	26.0798
801.313	56.2
804.205	56.4171
807.098	55.0225
809.991	58.4019
812.883	47.9048
815.776	51.7692
818.669	63.8064
821.562	55.4719
824.454	73.2972
827.347	42.0971
830.24	55.1316
833.132	73.1523
836.025	19.0362
838.918	34.4702
841.81	54.325
844.703	41.8132
847.596	67.7781
850.489	67.6051
853.381	49.9768
856.274	74.3311
859.167	41.1849
862.059	27.2042
864.952	39.7444
867.845	43.6963
870.737	43.5917
873.63	47.5837
876.523	42.83
879.415	19.4915
882.308	22.6199
885.201	4.09363
888.094	32.0338
890.986	69.7394
893.879	18.3983
896.772	67.7026
899.664	14.4115
902.557	15.3874
905.45	1.09021
908.342	24.6128
911.235	25.1058
914.128	14.8186
917.021	31.6617
919.913	15.8765
922.806	2.96204
925.699	8.16553
928.591	4.61633
931.484	32.3187
934.377	6.27002
937.269	10.5177
940.162	12.5002
943.055	16.9833
945.948	10.4645
948.84	1.16553
951.733	19.828
954.626	11.0142
957.518	64.2203
960.411	49.0701
963.304	82.5549
966.197	123.261
969.089	145.433
971.982	166.872
974.875	197.471
977.767	260.986
980.66	350.238
983.553	436.505
986.445	571.538
989.338	608.868
992.231	660.39
995.124	664.791
998.016	663.604
1000.91	646.681
1003.8	638.918
1006.69	592.403
1009.59	536.363
1012.48	476.422
1015.37	390.15
1018.26	312.848
1021.16	289.694
1024.05	172.102
1026.94	182.087
1029.84	259.138
1032.73	220.535
1035.62	306.639
1038.51	328.167
1041.41	313.429
1044.3	263.155
1047.19	267.231
1050.09	252.872
1052.98	220.215
1055.87	140.902
1058.76	166.761
1061.66	78.1875
1064.55	84.1177
1067.44	72.9756
1070.33	49.1453
1073.23	44.126
1076.12	20.0574
1079.01	15.5408
1081.9	12.5083
1084.8	0.767578
1087.69	5.94434
1090.58	13.1396
1093.47	28.8616
1096.37	17.6948
1099.26	19.605
1102.15	61.4062
1105.05	51.9463
1107.94	62.0344
1110.83	78.3506
1113.72	123.279
1116.62	125.743
1119.51	123.704
1122.4	136.756
1125.3	149.512
1128.19	182.144
1131.08	154.431
1133.97	129.802
1136.87	152.755
1139.76	156.254
1142.65	147.723
1145.54	163.553
1148.44	152.578
1151.33	93.3024
1154.22	92.9067
1157.12	98.8737
1160.01	63.0216
1162.9	72.4667
1165.79	55.4571
1168.68	57.0635
1171.58	53.4962
1174.47	51.2032
1177.36	22.9165
1180.26	50.73
1183.15	8.72827
1186.04	1.00122
1188.93	13.0172
1191.83	2.09363
1194.72	0.11499
1197.61	16.5582
1200.51	48.1202
1203.4	27.8265
1206.29	11.3942
1209.18	71.2607
1212.08	5.99146
1214.97	98.2044
1217.86	92.1588
1220.75	105.466
1223.65	106.896
1226.54	129.122
1229.43	74.1865
1232.33	94.2966
1235.22	33.5376
1238.11	32.1148
1241	50.0754
1243.9	54.9578
1246.79	44.5095
1249.68	34.3801
1252.57	9.53833
