Measurement: Raman, 785 nm, unoriented, Raman Data Processed
Mineral: Herbertsmithite
Rruff sample: R070099
Ideal chemistry: Cu^2+^_3_Zn^2+^(OH)_6_Cl_2_
Locality: San Francisco mine, Sierra Gorda, Antofagasta, Chile
Source: Michael Scott
Description: Blue-green crystals scattered on matrix, showing a range of habits from hexagonal plates to pseudo-octahedra
Raman shift (cm-1)	intensity
146.38	0
149.273	13.6664
152.166	15.9276
155.058	9.14439
157.951	8.69704
160.844	0.43187
163.736	11.5603
166.629	17.8893
169.522	25.8156
172.414	24.7657
175.307	17.3689
178.2	36.9709
181.093	33.4012
183.985	56.497
186.878	47.652
189.771	32.4805
192.663	40.0556
195.556	30.291
198.449	50.825
201.341	45.2603
204.234	49.7232
207.127	36.6275
210.019	40.5165
212.912	24.1162
215.805	39.3586
218.698	30.5553
221.59	35.0254
224.483	37.1983
227.376	56.7737
230.268	28.0303
233.161	42.4597
236.054	33.2777
238.946	34.4836
241.839	25.2666
244.732	16.3429
247.625	25.3035
250.517	26.3425
253.41	12.012
256.303	26.7864
259.195	26.3656
262.088	18.934
264.981	13.4544
267.873	4.51352
270.766	11.1693
273.659	11.2802
276.552	25.6683
279.444	1.45027
282.337	4.54028
285.23	13.9498
288.122	4.64987
291.015	4.70668
293.908	13.3041
296.8	13.7805
299.693	11.2132
302.586	11.6225
305.479	4.59358
308.371	9.33197
311.264	2.89554
314.157	0.566391
317.049	16.2583
319.942	13.3171
322.835	1.17526
325.728	24.6101
328.62	18.646
331.513	7.30583
334.406	21.6561
337.298	23.633
340.191	19.622
343.084	9.11269
345.976	36.9808
348.869	41.6267
351.762	53.4839
354.654	87.8139
357.547	115.169
360.44	108.333
363.333	94.731
366.225	98.0365
369.118	50.1911
372.011	38.3523
374.903	19.7389
377.796	24.1758
380.689	19.2307
383.582	8.19086
386.474	4.75114
389.367	12.1045
392.26	29.4635
395.152	30.9651
398.045	42.1942
400.938	54.9916
403.83	44.2137
406.723	45.6519
409.616	51.1575
412.509	25.3662
415.401	35.9167
418.294	27.6881
421.187	9.39847
424.079	15.1047
426.972	7.07191
429.865	6.78892
432.757	8.45799
435.65	1.98503
438.543	2.45396
441.435	9.09827
444.328	4.91396
447.221	9.51611
450.114	16.9717
453.006	10.6091
455.899	16.9125
458.792	9.44579
461.684	30.1956
464.577	57.8557
467.47	32.0512
470.363	30.5486
473.255	27.1755
476.148	54.3287
479.041	61.7726
481.933	59.3436
484.826	74.3706
487.719	92.7447
490.611	128.094
493.504	139.224
496.397	178.977
499.289	195.725
502.182	208.2
505.075	196.427
507.968	147.303
510.86	123.577
513.753	109.955
516.646	63.9161
519.538	55.1061
522.431	37.7841
525.324	30.044
528.217	30.6143
531.109	7.49142
534.002	9.07431
536.895	17.5847
539.787	15.1199
542.68	2.37947
545.573	1.53635
548.466	3.52257
551.358	7.79074
554.251	19.1493
557.144	10.479
560.036	1.07463
562.929	32.3707
565.822	6.65212
568.714	22.0054
571.607	7.48447
574.5	29.908
577.392	22.717
580.285	4.98543
583.178	16.3411
586.071	28.1833
588.963	5.72079
591.856	22.3175
594.749	11.3646
597.641	14.3293
600.534	7.91423
603.427	8.76939
606.319	22.235
609.212	21.5886
612.105	1.69565
614.997	8.64542
617.89	23.5523
620.783	26.8453
623.676	17.7101
626.568	8.78923
629.461	22.9384
632.354	10.9004
635.246	16.878
638.139	20.9718
641.032	20.3754
643.924	8.0412
646.817	4.29962
649.71	1.60643
652.603	18.6668
655.495	10.3959
658.388	19.2219
661.281	9.9549
664.173	12.64
667.066	0.13092
669.959	19.0583
672.851	23.43
675.744	7.17664
678.637	20.3832
681.53	27.7716
684.422	25.8163
687.315	30.2607
690.208	63.6841
693.1	59.3062
695.993	58.7398
698.886	62.9689
701.779	59.3786
704.671	63.0575
707.564	60.8785
710.457	55.5131
713.349	65.5993
716.242	29.2717
719.135	20.9755
722.027	34.2131
724.92	20.8415
727.813	27.6213
730.706	21.4814
733.598	8.60736
736.491	20.9484
739.384	16.4371
742.276	19.5895
745.169	11.6826
748.062	28.6695
750.954	2.44994
753.847	2.99156
756.74	25.4255
759.633	25.1184
762.525	24.9084
765.418	21.8936
768.311	17.8448
771.203	21.1219
774.096	11.9537
776.989	28.2484
779.881	7.5817
782.774	37.0175
785.667	6.87763
788.559	16.9127
791.452	7.46487
794.345	5.52657
797.238	37.3691
800.13	14.9621
803.023	21.6429
805.916	20.6198
808.808	23.2151
811.701	18.9822
814.594	36.2627
817.486	13.8871
820.379	23.954
823.272	30.6746
826.165	11.9853
829.057	13.8406
831.95	41.7888
834.843	45.7948
837.735	0.510071
840.628	27.1327
843.521	21.847
846.413	8.04202
849.306	2.61218
852.199	0.577148
855.092	26.1951
857.984	0.031677
860.877	2.93996
863.77	9.74831
866.662	25.4884
869.555	1.58255
872.448	9.0919
875.341	28.3372
878.233	28.3804
881.126	14.1245
884.019	13.0475
886.911	20.523
889.804	22.1516
892.697	33.1995
895.589	24.5238
898.482	10.1922
901.375	13.9585
904.268	28.4353
907.16	22.9274
910.053	18.9762
912.946	28.5329
915.838	37.845
918.731	20.0451
921.624	55.8552
924.516	64.9706
927.409	68.0193
930.302	100.461
933.194	100.653
936.087	101.209
938.98	144.038
941.873	131.036
944.765	130.688
947.658	89.5298
950.551	77.3847
953.443	65.7868
956.336	53.3954
959.229	48.0142
962.121	46.0624
965.014	26.0128
967.907	32.919
970.8	28.4431
973.692	24.7676
976.585	27.0786
979.478	8.39732
982.37	29.2692
985.263	32.5297
988.156	16.3402
991.048	7.34045
993.941	17.873
996.834	8.20148
999.727	27.2949
1002.62	22.5055
1005.51	28.0837
1008.4	10.1649
1011.3	4.78822
1014.19	2.29167
1017.08	20.3166
1019.98	25.7675
1022.87	18.8633
1025.76	21.8005
1028.65	21.0844
1031.55	0.312714
1034.44	14.6958
1037.33	19.7191
1040.22	24.3988
1043.12	11.0532
1046.01	10.7013
1048.9	1.83163
1051.8	17.8984
1054.69	21.2779
1057.58	28.3021
1060.47	2.42319
1063.37	18.1581
1066.26	19.2706
1069.15	30.2673
1072.04	34.6654
1074.94	7.03317
1077.83	12.5759
1080.72	26.8963
1083.62	25.7738
1086.51	30.9664
1089.4	23.0846
1092.29	37.3216
1095.19	12.6364
1098.08	19.7425
1100.97	14.4586
1103.86	23.9539
1106.76	12.5405
1109.65	5.8837
1112.54	12.7179
1115.43	30.5186
1118.33	11.5666
1121.22	28.9901
1124.11	4.88376
1127.01	22.8184
1129.9	13.324
1132.79	28.8029
1135.68	19.1303
1138.58	13.6556
1141.47	25.7532
1144.36	28.0956
1147.25	7.94792
1150.15	21.1914
1153.04	24.333
1155.93	18.8224
1158.83	24.1476
1161.72	47.5874
1164.61	23.9403
1167.5	8.16956
1170.4	31.6121
1173.29	9.98546
1176.18	25.7929
1179.07	24.516
1181.97	25.5181
1184.86	27.6031
1187.75	27.0436
1190.64	15.086
1193.54	3.22838
1196.43	43.1254
1199.32	9.49327
1202.22	44.578
1205.11	31.1696
1208	42.4085
1210.89	28.5693
1213.79	22.9249
1216.68	13.5419
1219.57	27.8034
1222.46	36.2672
1225.36	37.507
1228.25	47.2586
1231.14	12.4411
1234.04	46.53
1236.93	21.8686
1239.82	22.1993
1242.71	7.9744
