Measurement: Raman, 780 nm, unoriented, Raman Data Processed
Mineral: Herbertsmithite
Rruff sample: R060387
Ideal chemistry: Cu^2+^_3_Zn^2+^(OH)_6_Cl_2_
Locality: San Francisco mine, Sierra Gorda, Antofagasta, Chile
Source: Michael Scott
Description: Greenish-blue thin hexagonal plates associated with hemimorphite, anglesite, and quartz
Measured chemistry: (Cu_2.98_Zn_0.02_)_Î£=3_Zn_1.00_(OH)_6_Cl_2.00_
Raman shift (cm-1)	intensity
185.582	0
188.475	1.62716
191.368	2.63659
194.261	0.506081
197.153	3.94011
200.046	0.854916
202.939	3.29104
205.831	1.47168
208.724	2.94437
211.617	1.58762
214.509	2.95443
217.402	3.95069
220.295	3.04202
223.188	1.51474
226.08	1.18586
228.973	2.8651
231.866	2.10453
234.758	1.66948
237.651	1.83836
240.544	2.67219
243.436	3.31436
246.329	5.35509
249.222	3.03605
252.114	2.69548
255.007	0.852858
257.9	1.37786
260.793	2.01837
263.685	0.305387
266.578	1.10374
269.471	0.66852
272.363	0.488726
275.256	1.1273
278.149	0.37855
281.041	1.05059
283.934	0.54155
286.827	0.028646
289.719	0.198427
292.612	0.102142
295.505	1.02701
298.398	0.286451
301.29	0.572044
304.183	1.3188
307.076	0.11747
309.968	0.901016
312.861	1.49258
315.754	0.892977
318.647	2.82628
321.539	0.273788
324.432	2.50378
327.325	2.27053
330.217	3.27921
333.11	2.14156
336.003	3.75746
338.895	6.54818
341.788	6.8368
344.681	7.5487
347.574	8.55038
350.466	9.52454
353.359	8.2462
356.252	8.57254
359.144	7.4717
362.037	5.59256
364.93	2.69197
367.822	2.7179
370.715	1.47392
373.608	2.22233
376.5	1.40095
379.393	2.80916
382.286	1.95062
385.179	2.68999
388.071	3.606
390.964	1.73409
393.857	3.70067
396.749	2.26266
399.642	1.50422
402.535	1.3932
405.427	2.75959
408.32	1.07215
411.213	0.2917
414.106	1.32052
416.998	0.730904
419.891	0.362143
422.784	0.017929
425.676	2.38316
428.569	1.22505
431.462	1.32278
434.354	0.68235
437.247	2.55885
440.14	0.105223
443.033	0.687122
445.925	1.77381
448.818	3.04594
451.711	3.01704
454.603	2.88347
457.496	1.64812
460.389	2.91806
463.281	1.99868
466.174	3.76621
469.067	3.67029
471.959	4.33225
474.852	4.91902
477.745	4.98858
480.638	5.05901
483.53	6.30178
486.423	6.05606
489.316	6.18102
492.208	8.88144
495.101	5.7075
497.994	4.85934
500.887	3.32412
503.779	3.03232
506.672	2.93712
509.565	2.26856
512.457	1.18643
515.35	0.844326
518.243	0.904299
521.135	1.51073
524.028	0.455269
526.921	1.60633
529.813	2.64458
532.706	0.667585
535.599	1.07977
538.492	1.24775
541.384	1.25822
544.277	3.10414
547.17	0.837921
550.062	1.57316
552.955	0.508944
555.848	2.34127
558.74	2.29718
561.633	2.00338
564.526	1.78124
567.418	0.296783
570.311	2.12698
573.204	1.06554
576.097	0.9807
578.989	1.12106
581.882	1.31248
584.775	2.68861
587.667	0.52043
590.56	0.280895
593.453	0.526142
596.346	0.565595
599.238	1.87516
602.131	2.20239
605.024	0.465753
607.916	1.18237
610.809	0.40366
613.702	0.672745
616.594	2.22051
619.487	1.50711
622.38	1.82951
625.273	0.954262
628.165	1.57515
631.058	0.13793
633.951	2.64537
636.843	1.54976
639.736	1.82323
642.629	1.54394
645.521	1.50926
648.414	0.947321
651.307	0.757725
654.199	1.37041
657.092	0.034616
659.985	1.39774
662.878	1.74351
665.77	1.76286
668.663	2.80154
671.556	1.25007
674.448	3.02013
677.341	3.72934
680.234	5.25992
683.126	5.73305
686.019	5.51463
688.912	6.33629
691.805	7.25809
694.697	6.26171
697.59	4.11287
700.483	5.59621
703.375	4.27067
706.268	2.99062
709.161	2.74733
712.053	0.373795
714.946	1.23318
717.839	0.450472
720.731	0.88632
723.624	2.11138
726.517	1.213
729.41	0.527027
732.302	0.225883
735.195	1.11761
738.088	0.993343
740.98	1.06298
743.873	0.289135
746.766	1.10013
749.659	0.59623
752.551	0.226753
755.444	0.322903
758.337	0.334274
761.229	2.36012
764.122	0.534828
767.015	0.730671
769.907	2.25762
772.8	0.335094
775.693	0.035784
778.586	0.668913
781.478	2.90493
784.371	1.00337
787.264	0.471674
790.156	2.20081
793.049	0.913492
795.942	0.482464
798.834	1.98968
801.727	0.456543
804.62	0.802469
807.513	2.02669
810.405	3.22991
813.298	1.0529
816.191	0.330812
819.083	2.18113
821.976	2.13162
824.869	1.86597
827.761	2.45901
830.654	2.54739
833.547	1.72615
836.439	3.23213
839.332	2.14302
842.225	1.89881
845.118	1.83003
848.01	2.22544
850.903	2.18487
853.796	2.4612
856.688	2.94463
859.581	3.59944
862.474	0.785809
865.366	1.75425
868.259	2.54088
871.152	1.82079
874.044	2.93676
876.937	0.859152
879.83	1.36824
882.723	1.37132
885.615	1.09201
888.508	1.32156
891.401	0.069538
894.293	0.924763
897.186	0.991507
900.079	0.049204
902.971	0.164305
905.864	0.949072
908.757	3.21544
911.65	0.991379
914.542	3.20062
917.435	3.54198
920.328	4.19669
923.22	5.82354
926.113	6.43438
929.006	7.76942
931.899	7.61564
934.791	7.46676
937.684	8.31648
940.577	5.14914
943.469	2.97725
946.362	1.97181
949.255	2.56132
952.147	0.068394
955.04	1.69739
957.933	1.47893
960.825	1.932
963.718	0.477325
966.611	2.87319
969.504	1.42041
972.396	1.56815
975.289	0.716992
978.182	1.33111
981.074	2.01588
983.967	0.987319
986.86	1.40918
989.752	2.43573
992.645	1.20958
995.538	1.07468
998.431	1.36945
1001.32	0.468202
1004.22	1.68748
1007.11	2.35352
1010	0.935301
1012.89	1.46956
1015.79	2.57269
1018.68	1.74315
1021.57	1.945
1024.46	1.45962
1027.36	2.70117
1030.25	2.82192
1033.14	0.231614
1036.04	2.42221
1038.93	1.77312
1041.82	1.47717
1044.71	0.919055
1047.61	1.93614
1050.5	1.11208
1053.39	1.78136
1056.29	1.13077
1059.18	1.16964
1062.07	1.84892
1064.96	1.1716
1067.86	1.5602
1070.75	2.6252
1073.64	1.18419
1076.53	2.0588
1079.43	1.83088
1082.32	1.38115
1085.21	0.029101
1088.1	1.61498
1091	1.50728
1093.89	0.503453
1096.78	1.6669
1099.67	0.769656
1102.57	0.72533
1105.46	0.322183
1108.35	0.472199
1111.25	0.428022
1114.14	2.36007
1117.03	0.38988
1119.92	1.48212
1122.82	2.76781
1125.71	0.487974
1128.6	1.00966
1131.49	0.114134
1134.39	1.06177
1137.28	1.37619
1140.17	0.509148
1143.07	1.39333
1145.96	1.65923
1148.85	1.14827
1151.74	2.88672
1154.64	0.203978
1157.53	1.45813
1160.42	0.744617
1163.31	2.41456
1166.21	0.116864
1169.1	2.42018
1171.99	2.59621
1174.88	1.24392
1177.78	0.332951
1180.67	1.81946
1183.56	3.01699
1186.46	1.38799
1189.35	1.99749
1192.24	0.19565
1195.13	1.64986
1198.03	2.64945
1200.92	0.112423
1203.81	0.821294
1206.7	1.66783
1209.6	1.4168
1212.49	2.88687
1215.38	2.77432
1218.28	1.3365
1221.17	1.89362
1224.06	0.881977
1226.95	1.09507
1229.85	0.85569
1232.74	1.07177
1235.63	2.58976
1238.53	1.80562
1241.42	2.09698
1244.31	2.66267
1247.2	1.68541
1250.1	2.20322
1252.99	1.84187
1255.88	3.31397
1258.77	1.65369
1261.67	2.43531
1264.56	2.7481
1267.45	3.77728
1270.34	2.30044
1273.24	4.39272
1276.13	2.85066
1279.02	1.64733
1281.91	0.823366
1284.81	0
