Measurement: Raman, 532 nm, unoriented, Raman Data Processed
Mineral: Hessite
Rruff sample: R070445
Ideal chemistry: Ag_2_Te
Locality: Klondike mine, Findley Gulch (Findlay Gulch), Bonanza District, Saguache County, Colorado, USA
Source: Michael Scott
Description: Tarnished lead-gray massive polished and embedded in epoxy
Raman shift (cm-1)	intensity
168.243	0
171.136	16.2242
174.029	23.2681
176.921	11.2843
179.814	36.5331
182.707	17.861
185.6	16.3912
188.492	9.98926
191.385	10.3286
194.278	13.5957
197.17	25.9935
200.063	14.0947
202.956	38.396
205.848	38.4388
208.741	37.8527
211.634	27.1825
214.526	43.5758
217.419	32.6688
220.312	38.3511
223.205	33.0153
226.097	57.533
228.99	8.79785
231.883	49.4569
234.775	7.29114
237.668	34.4051
240.561	9.87817
243.453	29.9429
246.346	34.8383
249.239	1.3999
252.132	39.0774
255.024	26.8837
257.917	21.0956
260.81	29.2894
263.702	28.0591
266.595	10.7727
269.488	29.5704
272.38	12.0269
275.273	22.6211
278.166	25.3254
281.059	11.8424
283.951	26.2814
286.844	2.27051
289.737	5.49109
292.629	19.8296
295.522	22.3517
298.415	20.2559
301.308	31.3081
304.2	8.72888
307.093	34.6902
309.986	1.74219
312.878	18.5605
315.771	10.4564
318.664	3.35437
321.556	7.20667
324.449	35.2903
327.342	16.1954
330.235	32.6355
333.127	48.2356
336.02	61.1448
338.913	103.752
341.805	184.626
344.698	230.594
347.591	277.378
350.483	253.267
353.376	217.869
356.269	155.766
359.162	83.9206
362.054	74.2511
364.947	30.464
367.84	15.6382
370.732	68.5439
373.625	108.723
376.518	135.47
379.411	189.319
382.303	240.996
385.196	235.225
388.089	215.648
390.981	162.745
393.874	88.1255
396.767	17.5751
399.659	13.6998
402.552	26.6128
405.445	13.1538
408.337	9.65356
411.23	11.8357
414.123	7.94739
417.016	1.23438
419.908	24.2821
422.801	21.6155
425.694	35.5241
428.586	32.0477
431.479	49.1215
434.372	40.7891
437.264	77.3119
440.157	77.9158
443.05	49.4496
445.943	65.1697
448.835	41.1421
451.728	43.2048
454.621	43.813
457.513	7.31958
460.406	22.095
463.299	5.24524
466.192	25.4126
469.084	32.1454
471.977	0.25293
474.87	27.3861
477.762	28.7511
480.655	28.7621
483.548	10.408
486.44	17.5217
489.333	1.96375
492.226	18.4048
495.118	24.9944
498.011	48.2804
500.904	27.0784
503.797	46.7787
506.689	28.1417
509.582	29.3824
512.475	80.3185
515.367	37.1537
518.26	1.72449
521.153	21.7261
524.045	42.6184
526.938	37.2728
529.831	25.3965
532.724	46.6809
535.616	17.6306
538.509	15.8813
541.402	48.4995
544.294	59.7317
547.187	40.9895
550.08	7.427
552.972	26.8269
555.865	5.17578
558.758	54.3758
561.651	23.6234
564.543	31.2115
567.436	42.7605
570.329	13.7339
573.221	35.1254
576.114	56.2836
579.007	36.392
581.899	12.8767
584.792	30.5997
587.685	25.8588
590.578	26.1158
593.47	43.5941
596.363	56.3943
599.256	16.4768
602.149	23.4971
605.041	37.0623
607.934	15.2595
610.827	14.7341
613.719	1.74707
616.612	54.3362
619.505	46.8579
622.397	31.5623
625.29	27.3032
628.183	8.31177
631.076	6.8396
633.968	16.2295
636.861	18.6123
639.754	17.2593
642.646	53.1973
645.539	47.9785
648.432	40.3767
651.324	55.3152
654.217	18.9534
657.11	27.5911
660.003	11.7883
662.895	17.8071
665.788	49.9412
668.681	38.1538
671.573	28.9707
674.466	31.1565
677.359	20.9639
680.251	40.3025
683.144	48.9954
686.037	34.835
688.929	36.0352
691.822	48.3677
694.715	30.4873
697.608	20.7578
700.5	11.4004
703.393	17.2798
706.286	32.8794
709.178	38.457
712.071	38.3511
714.964	26.2754
717.856	33.9509
720.749	39.3281
723.642	41.4185
726.535	41.3108
729.427	33.519
732.32	8.8728
735.213	28.3745
738.105	38.2629
740.998	24.0051
743.891	1.99731
746.784	41.863
749.676	9.47144
752.569	33.5964
755.462	18.1631
758.354	35.3777
761.247	25.9138
764.14	3.22241
767.033	28.2222
769.925	18.0796
772.818	21.616
775.711	37.2185
778.603	2.1582
781.496	58.3696
784.389	54.1816
787.281	11.0632
790.174	7.54761
793.067	15.0759
795.96	16.2417
798.852	35.1636
801.745	13.0767
804.638	23.2881
807.53	36.7681
810.423	2.96558
813.316	8.4043
816.208	27.8799
819.101	38.1028
821.994	53.6416
824.886	30.9087
827.779	46.1773
830.672	34.7546
833.565	55.2568
836.457	16.7522
839.35	24.106
842.243	22.9202
845.135	43.8367
848.028	44.9248
850.921	30.8814
853.813	50.8025
856.706	80.4822
859.599	46.1243
862.492	52.4495
865.384	51.6428
868.277	64.8701
871.17	57.8508
874.062	78.7749
876.955	48.5149
879.848	71.5735
882.74	35.7014
885.633	60.9016
888.526	36.0659
891.419	0.935547
894.311	48.8801
897.204	31.1081
900.097	26.5413
902.989	35.0176
905.882	3.10669
908.775	63.0022
911.668	1.04785
914.56	1.05469
917.453	15.3779
920.346	5.33984
923.238	31.8032
926.131	1.05371
929.024	32.7144
931.916	32.8193
934.809	32.7664
937.702	34.3149
940.595	32.2053
943.487	20.6655
946.38	25.4258
949.273	39.6052
952.165	26.3477
955.058	22.7373
957.951	26.8176
960.843	11.385
963.736	28.9722
966.629	26.3728
969.521	26.0288
972.414	51.699
975.307	91.6504
978.2	8.86328
981.092	32.0562
983.985	78.8313
986.878	34.2107
989.77	32.821
992.663	17.9199
995.556	18.3828
998.448	36.7048
1001.34	24.1655
1004.23	30.7927
1007.13	37.8235
1010.02	54.2725
1012.91	35.3281
1015.8	14.1023
1018.7	46.4605
1021.59	34.4236
1024.48	52.9045
1027.38	53.8628
1030.27	57.6072
1033.16	49.4966
1036.05	25.2202
1038.95	6.56567
1041.84	18.6377
1044.73	23.7661
1047.62	28.0877
1050.52	27.9209
1053.41	48.5264
1056.3	34.5891
1059.19	60.3062
1062.09	41.7241
1064.98	29.8189
1067.87	33.7422
1070.77	13.7705
1073.66	30.3184
1076.55	7.06128
1079.44	32.167
1082.34	9.79614
1085.23	35.1326
1088.12	30.4353
1091.02	64.9077
1093.91	39.6533
1096.8	9.73657
1099.69	60.7602
1102.59	43.3816
1105.48	56.2261
1108.37	47.0142
1111.26	60.3928
1114.16	79.5242
1117.05	34.9531
1119.94	26.852
1122.84	90.99
1125.73	4.99561
1128.62	48.7644
1131.51	25.7021
1134.41	42.3765
1137.3	37.6824
1140.19	23.7759
1143.08	26.4766
1145.98	53.1155
1148.87	0.269775
1151.76	60.0295
1154.65	18.9341
1157.55	23.7495
1160.44	34.0855
1163.33	15.6802
1166.22	26.3301
1169.12	93.5059
1172.01	27.2991
1174.9	42.9924
1177.8	63.4587
1180.69	69.5989
1183.58	41.5518
1186.47	8.94775
1189.37	28.8359
1192.26	44.3982
1195.15	52.9734
1198.05	78.2854
1200.94	41.8396
1203.83	13.3118
1206.72	19.0879
1209.62	26.1023
1212.51	19.2895
1215.4	16.5547
1218.29	24.5598
1221.19	53.2361
1224.08	33.447
1226.97	29.7192
1229.87	23.3245
1232.76	26.7844
1235.65	53.2976
1238.54	39.6226
1241.44	26.2063
1244.33	32.5571
1247.22	60.7275
1250.11	13.4724
1253.01	58.5203
1255.9	12.4348
1258.79	43.1243
1261.68	75.2605
1264.58	50.2114
1267.47	0.100586
1270.36	5.83276
1273.26	57.6577
1276.15	54.5581
1279.04	45.2478
1281.93	105.162
1284.83	44.1069
1287.72	69.9363
1290.61	55.2275
1293.5	25.6328
