Measurement: Raman, 785 nm, unoriented, Raman Data Processed
Mineral: Hessite
Rruff sample: R070445
Ideal chemistry: Ag_2_Te
Locality: Klondike mine, Findley Gulch (Findlay Gulch), Bonanza District, Saguache County, Colorado, USA
Source: Michael Scott
Description: Tarnished lead-gray massive polished and embedded in epoxy
Raman shift (cm-1)	intensity
162.973	0
165.866	4.3667
168.759	26.6672
171.651	3.3324
174.544	0.918823
177.437	0.500854
180.329	21.7775
183.222	21.1848
186.115	28.1179
189.008	34.6637
191.9	17.6956
194.793	48.9691
197.686	46.8029
200.578	37.1168
203.471	55.9292
206.364	56.1825
209.256	25.4308
212.149	30.3715
215.042	14.4185
217.935	19.2274
220.827	24.3291
223.72	2.97302
226.613	28.3434
229.505	16.4878
232.398	21.3872
235.291	10.2395
238.184	22.5115
241.076	1.15784
243.969	12.4222
246.862	36.9775
249.754	3.53015
252.647	38.9656
255.54	46.3197
258.432	39.6769
261.325	52.1873
264.218	8.98535
267.111	10.8146
270.003	3.76428
272.896	27.4145
275.789	12.6154
278.681	42.352
281.574	5.84888
284.467	9.18481
287.359	18.7764
290.252	24.903
293.145	21.6886
296.038	0.632935
298.93	4.63415
301.823	22.2675
304.716	22.838
307.608	18.1731
310.501	42.0758
313.394	7.67029
316.286	11.4888
319.179	15.9922
322.072	35.1349
324.964	51.4071
327.857	76.1094
330.75	134.083
333.643	306.801
336.535	402.694
339.428	646.084
342.321	1020.88
345.213	1207.54
348.106	919.504
350.999	584.264
353.892	382.993
356.784	219.845
359.677	104.669
362.57	69.0066
365.462	66.5905
368.355	84.6511
371.248	139.711
374.14	207.394
377.033	299.318
379.926	432.38
382.818	401.426
385.711	288.383
388.604	171.034
391.497	120.391
394.389	66.1941
397.282	15.8835
400.175	7.97705
403.067	8.11755
405.96	8.54968
408.853	0.425293
411.745	13.5658
414.638	25.9309
417.531	9.95618
420.424	24.6355
423.316	21.0092
426.209	19.9392
429.102	2.15417
431.994	13.6807
434.887	4.9198
437.78	46.6821
440.673	43.0618
443.565	19.9723
446.458	6.53552
449.351	23.4006
452.243	36.0651
455.136	56.7677
458.029	16.6964
460.921	28.6265
463.814	27.8132
466.707	15.4972
469.599	32.7008
472.492	39.4908
475.385	54.8199
478.278	20.6433
481.17	19.0596
484.063	25.8678
486.956	37.1855
489.848	36.766
492.741	30.745
495.634	32.9344
498.526	4.73401
501.419	10.66
504.312	40.3468
507.205	20.9614
510.097	18.2834
512.99	6.22888
515.883	11.3569
518.775	23.9793
521.668	3.38928
524.561	17.4305
527.454	45.7176
530.346	1.82129
533.239	16.7602
536.132	30.9983
539.024	54.7504
541.917	10.442
544.81	37.5475
547.702	64.3175
550.595	38.9001
553.488	38.4884
556.38	39.8601
559.273	9.15588
562.166	59.1152
565.059	30.4327
567.951	58.0908
570.844	32.6606
573.737	35.4156
576.629	21.7153
579.522	37.441
582.415	19.734
585.308	29.1821
588.2	41.0123
591.093	44.1425
593.986	15.5389
596.878	16.3995
599.771	23.3203
602.664	0.592041
605.556	28.517
608.449	44.5613
611.342	6.79871
614.235	42.7288
617.127	34.7566
620.02	6.78455
622.913	27.345
625.805	13.134
628.698	18.557
631.591	1.87598
634.483	32.6993
637.376	4.46545
640.269	23.6305
643.162	10.0297
646.054	10.402
648.947	9.88306
651.84	17.0969
654.732	3.04602
657.625	16.8265
660.518	32.2883
663.41	28.1085
666.303	47.0991
669.196	24.8927
672.088	18.2904
674.981	53.884
677.874	24.0467
680.767	19.0193
683.659	42.3954
686.552	8.04846
689.445	18.0597
692.337	54.2549
695.23	23.6069
698.123	52.8529
701.015	9.25024
703.908	19.2692
706.801	16.6395
709.694	11.3643
712.586	44.8312
715.479	42.5624
718.372	22.2023
721.264	53.3302
724.157	37.3624
727.05	20.6931
729.942	50.1622
732.835	20.9691
735.728	27.0465
738.621	41.4368
741.513	37.3506
744.406	15.942
747.299	43.0387
750.191	24.9689
753.084	44.0797
755.977	9.27527
758.87	3.23279
761.762	19.9479
764.655	36.8949
767.548	26.8135
770.44	28.2883
773.333	52.3989
776.226	31.3746
779.118	25.3123
782.011	24.8026
784.904	43.5237
787.797	16.7687
790.689	30.4644
793.582	51.3934
796.475	58.9037
799.367	57.0065
802.26	14.4784
805.153	43.3961
808.045	63.7696
810.938	56.3511
813.831	70.2952
816.723	56.5532
819.616	16.0336
822.509	0.935547
825.402	26.307
828.294	21.5812
831.187	12.2052
834.08	4.64941
836.972	9.62585
839.865	9.49585
842.758	17.9835
845.65	15.7039
848.543	16.9868
851.436	36.4571
854.329	59.9074
857.221	57.9629
860.114	70.802
863.007	82.1216
865.899	49.881
868.792	79.3289
871.685	74.5499
874.577	63.7076
877.47	49.4598
880.363	68.2797
883.256	38.1576
886.148	66.2666
889.041	11.1931
891.934	29.9437
894.826	7.57886
897.719	2.9762
900.612	11.6344
903.505	1.61194
906.397	11.8588
909.29	26.5818
912.183	27.7614
915.075	21.7081
917.968	6.42615
920.861	43.1237
923.753	33.7051
926.646	27.6263
929.539	17.4362
932.432	37.0775
935.324	14.7662
938.217	18.0853
941.11	28.6705
944.002	10.1205
946.895	59.3898
949.788	25.7244
952.68	28.6699
955.573	43.046
958.466	0.270752
961.359	31.6649
964.251	14.4901
967.144	8.01904
970.037	5.48914
972.929	5.96753
975.822	36.4484
978.715	26.0212
981.607	71.4658
984.5	50.7037
987.393	3.61267
990.285	32.0895
993.178	47.7189
996.071	38.015
998.964	39.1619
1001.86	51.1963
1004.75	33.6632
1007.64	52.5928
1010.53	57.1228
1013.43	22.7461
1016.32	62.3137
1019.21	35.9871
1022.11	23.4437
1025	23.097
1027.89	1.86414
1030.78	13.7578
1033.68	36.0312
1036.57	32.9053
1039.46	39.6453
1042.35	43.127
1045.25	44.2513
1048.14	55.9646
1051.03	38.5737
1053.92	4.73047
1056.82	41.1047
1059.71	17.8285
1062.6	6.57483
1065.5	41.8577
1068.39	40.7123
1071.28	9.77502
1074.17	13.6837
1077.07	27.3412
1079.96	33.6885
1082.85	4.09216
1085.74	22.7515
1088.64	20.7168
1091.53	28.4268
1094.42	50.1907
1097.32	53.8429
1100.21	1.35571
1103.1	40.9032
1105.99	18.9508
1108.89	3.09009
1111.78	38.8862
1114.67	41.6188
1117.56	33.6577
1120.46	37.6086
1123.35	10.8773
1126.24	1.86353
1129.13	57.4977
1132.03	36.5942
1134.92	19.4156
1137.81	38.1494
1140.71	35.1813
1143.6	14.3928
1146.49	25.3984
1149.38	25.2311
1152.28	17.1533
1155.17	20.8153
1158.06	20.9025
1160.95	25.4708
1163.85	40.0931
1166.74	36.151
1169.63	24.5391
1172.53	13.0203
1175.42	28.4517
1178.31	5.09729
1181.2	33.3184
1184.1	30.8978
1186.99	38.2678
1189.88	56.468
1192.78	5.16296
1195.67	24.9081
1198.56	49.9717
1201.45	4.25964
1204.35	21.7044
1207.24	25.8199
1210.13	40.5656
1213.02	21.3676
1215.92	29.1759
1218.81	54.9706
1221.7	4.2793
1224.59	20.4033
1227.49	2.91687
1230.38	43.068
1233.27	0
