Measurement: Raman, 532 nm, unoriented, Raman Data Processed
Mineral: Heterogenite
Rruff sample: R050382
Ideal chemistry: Co^3+^O(OH)
Locality: Goodsprings, Nevada, USA
Source: University of Arizona Mineral Museum
Description: Black massive, polytype 3R
Measured chemistry: (Co^3+^_0.90_Ni_0.03_As^5+^_0.03_Zn_0.03_Al_0.01_)_Î£=1_O(OH)
Raman shift (cm-1)	intensity
156.475	0
159.368	0.720176
162.26	0.824606
165.153	1.19042
168.046	1.67362
170.939	1.06675
173.831	1.08714
176.724	0.370687
179.617	1.59509
182.509	0.848042
185.402	1.46133
188.295	1.07042
191.187	0.913193
194.08	0.408861
196.973	0.09032
199.865	0.819571
202.758	0.34672
205.651	0.54743
208.544	0.072428
211.436	1.04416
214.329	0.105507
217.222	0.908143
220.114	0.839963
223.007	0.109399
225.9	0.908979
228.792	1.49317
231.685	0.466294
234.578	0.957129
237.471	1.04078
240.363	0.707312
243.256	0.328403
246.149	0.693446
249.041	0.141976
251.934	0.29122
254.827	0.170403
257.719	0.916938
260.612	0.501895
263.505	0.730885
266.398	0.069801
269.29	0.070687
272.183	0.086647
275.076	1.43098
277.968	1.07733
280.861	0.34985
283.754	0.625381
286.647	1.02076
289.539	0.405317
292.432	0.035906
295.325	0.106964
298.217	0.136284
301.11	0.450837
304.003	0.868237
306.895	1.00753
309.788	0.999059
312.681	0.388348
315.574	0.686333
318.466	0.770867
321.359	1.57171
324.252	1.54808
327.144	0.64921
330.037	1.16276
332.93	0.496456
335.822	0.497287
338.715	0.156464
341.608	0.011894
344.5	0.879111
347.393	0.028168
350.286	1.65661
353.179	0.119598
356.071	0.222182
358.964	0.441347
361.857	1.22945
364.75	1.53306
367.642	0.035015
370.535	0.837076
373.428	1.80092
376.32	2.01461
379.213	0.004218
382.106	0.821377
384.998	0.663372
387.891	0.386736
390.784	1.43325
393.676	0.610126
396.569	0.684498
399.462	0.086701
402.355	1.25171
405.247	1.2774
408.14	0.958208
411.033	1.12057
413.925	0.609116
416.818	0.179633
419.711	0.340574
422.603	0.810616
425.496	0.043762
428.389	0.19664
431.282	0.640486
434.174	0.095913
437.067	0.079556
439.96	0.525042
442.852	0.351498
445.745	0.440042
448.638	0.131428
451.531	1.19553
454.423	0.229567
457.316	0.666587
460.209	0.869847
463.101	1.83782
465.994	1.96533
468.887	1.85114
471.779	3.10147
474.672	2.39124
477.565	3.52771
480.457	4.88341
483.35	6.05031
486.243	7.05217
489.136	8.01334
492.028	9.47577
494.921	9.13608
497.814	9.5332
500.706	8.68118
503.599	6.36584
506.492	5.32059
509.385	4.03348
512.277	2.399
515.17	1.7771
518.063	1.27365
520.955	0.995183
523.848	0.726431
526.741	0.979935
529.633	0.359969
532.526	0.630223
535.419	0.745448
538.312	0.067708
541.204	0.257117
544.097	0.020751
546.99	0.047139
549.882	0.527471
552.775	0.081771
555.668	0.320608
558.56	0.110155
561.453	0.087907
564.346	0.809039
567.239	1.02173
570.131	0.747783
573.024	1.33445
575.917	1.18378
578.809	1.29045
581.702	1.09816
584.595	1.63109
587.487	2.23266
590.38	1.4
593.273	1.40816
596.165	2.2431
599.058	2.1287
601.951	1.98773
604.844	1.68209
607.736	3.16077
610.629	2.18655
613.522	2.30518
616.414	2.43433
619.307	3.13791
622.2	3.42346
625.092	4.16921
627.985	2.90158
630.878	3.41722
633.771	4.18088
636.663	2.6661
639.556	3.23865
642.449	1.43643
645.341	1.52397
648.234	0.98664
651.127	1.66262
654.019	0.28179
656.912	0.755082
659.805	0.928121
662.698	1.63388
665.59	0.307796
668.483	0.968463
671.376	0.077199
674.268	0.935197
677.161	0.102508
680.054	0.794023
682.947	0.108018
685.839	0.635635
688.732	0.048429
691.625	0.724417
694.517	0.85262
697.41	0.025485
700.303	0.663188
703.195	0.574797
706.088	0.328932
708.981	0.174379
711.874	0.633945
714.766	0.16299
717.659	0.890724
720.552	0.644528
723.444	0.318803
726.337	0.291122
729.23	0.342469
732.122	0.042241
735.015	1.05359
737.908	0.576774
740.801	0.999181
743.693	0.248956
746.586	0.87058
749.479	0.651129
752.371	0.218014
755.264	0.041369
758.157	0.293017
761.049	0.947029
763.942	0.047354
766.835	0.136509
769.727	0.065631
772.62	0.587889
775.513	0.013239
778.406	0.346408
781.298	0.267395
784.191	0.034493
787.084	0.440581
789.976	0.864522
792.869	0.131164
795.762	0.657232
798.654	0.629544
801.547	0.585508
804.44	0.013764
807.333	0.554763
810.225	0.825938
813.118	0.73323
816.011	0.085004
818.903	0.793539
821.796	0.843788
824.689	0.418177
827.582	1.00379
830.474	0.635315
833.367	0.311483
836.26	1.34097
839.152	0.549365
842.045	0.967725
844.938	1.32295
847.83	1.41137
850.723	1.67241
853.616	1.69186
856.509	2.49119
859.401	1.0425
862.294	2.22595
865.187	2.19381
868.079	1.4824
870.972	1.69992
873.865	2.08538
876.757	1.31689
879.65	1.56093
882.543	1.45575
885.436	0.749545
888.328	1.01641
891.221	0.713531
894.114	0.772438
897.006	0.910669
899.899	0.62643
902.792	0.819592
905.684	0.23334
908.577	0.134059
911.47	0.09116
914.362	0.407036
917.255	0.040137
920.148	0.251766
923.041	0.174602
925.933	0.322668
928.826	0.654206
931.719	0.616073
934.611	0.042336
937.504	0.108664
940.397	0.777789
943.289	0.541061
946.182	0.767896
949.075	0.77157
951.968	0.123582
954.86	0.275279
957.753	0.649283
960.646	0.123396
963.538	0.32305
966.431	1.01494
969.324	0.793056
972.216	0.277069
975.109	0.708435
978.002	0.539538
980.895	0.728614
983.787	0.727067
986.68	0.131673
989.573	0.735544
992.465	0.279618
995.358	0.446982
998.251	0.06544
1001.14	0.241585
1004.04	0.269554
1006.93	0.542685
1009.82	0.324131
1012.71	1.0075
1015.61	0.983399
1018.5	0.02914
1021.39	1.74882
1024.29	0.50007
1027.18	1.17047
1030.07	0.439996
1032.96	1.15858
1035.86	1.17682
1038.75	0.559968
1041.64	1.20064
1044.53	0.37847
1047.43	0.175112
1050.32	0.770228
1053.21	0.867561
1056.11	0.83938
1059	0.773118
1061.89	0.763542
1064.78	0.139451
1067.68	0.060869
1070.57	0.541235
1073.46	0.784707
1076.35	0.139584
1079.25	0.382775
1082.14	0.505727
1085.03	0.811016
1087.92	0.916362
1090.82	0.646886
1093.71	1.16151
1096.6	0.829522
1099.49	0.4805
1102.39	0.217565
1105.28	1.35442
1108.17	0.665723
1111.07	0.307327
1113.96	0.782132
1116.85	0.266177
1119.74	0.540413
1122.64	0.026776
1125.53	0.243697
1128.42	0.603731
1131.32	0.882527
1134.21	0.515686
1137.1	0.713768
1139.99	0.830417
1142.89	1.37247
1145.78	0.860902
1148.67	1.60996
1151.56	1.32671
1154.46	0.952481
1157.35	1.31673
1160.24	0.521212
1163.13	1.35221
1166.03	0.62954
1168.92	0.552851
1171.81	0.048286
1174.71	0.722277
1177.6	0.91189
1180.49	0.873386
1183.38	0.08199
1186.28	1.36878
1189.17	0.241852
1192.06	0.661915
1194.95	0.856922
1197.85	0.018621
1200.74	0.337529
1203.63	0.853872
1206.53	0.748995
1209.42	0.292122
1212.31	0.146486
1215.2	1.10227
1218.1	0.788303
1220.99	0.521275
1223.88	0.023016
1226.77	1.12083
1229.67	1.51637
1232.56	0.881849
1235.45	0.881287
1238.35	0.350506
1241.24	0.235678
1244.13	0.726088
1247.02	0.751085
1249.92	1.32205
1252.81	1.05637
1255.7	0.787687
1258.59	0.597588
1261.49	0.418389
1264.38	0.347966
1267.27	0.064281
1270.16	0.389256
1273.06	0.244802
1275.95	0.492534
1278.84	0.172451
1281.73	0.938463
1284.63	0.897137
1287.52	0.926768
1290.41	1.13453
1293.31	0.768191
1296.2	1.1068
1299.09	0.317721
1301.98	0.864964
