Measurement: Raman, 780 nm, unoriented, Raman Data Processed
Mineral: Heterogenite
Rruff sample: R050382
Ideal chemistry: Co^3+^O(OH)
Locality: Goodsprings, Nevada, USA
Source: University of Arizona Mineral Museum
Description: Black massive, polytype 3R
Measured chemistry: (Co^3+^_0.90_Ni_0.03_As^5+^_0.03_Zn_0.03_Al_0.01_)_Î£=1_O(OH)
Raman shift (cm-1)	intensity
157.127	0
160.02	0.313223
162.912	0.244879
165.805	0.456686
168.698	0.119255
171.591	1.15882
174.483	0.690121
177.376	0.846777
180.269	1.59139
183.161	1.13972
186.054	1.18191
188.947	1.0986
191.839	1.24442
194.732	0.770346
197.625	0.560936
200.518	0.427792
203.41	0.525295
206.303	0.115612
209.196	1.03087
212.088	1.01909
214.981	0.484541
217.874	1.18222
220.766	0.074129
223.659	1.15659
226.552	1.0686
229.445	0.716452
232.337	0.758158
235.23	1.49255
238.123	0.934286
241.015	1.29265
243.908	0.368565
246.801	0.810505
249.694	0.574488
252.586	0.972549
255.479	1.3497
258.372	0.8573
261.264	0.75391
264.157	0.406599
267.05	0.295664
269.942	1.25996
272.835	0.334173
275.728	0.708561
278.62	0.75691
281.513	0.843867
284.406	1.12556
287.299	0.529961
290.191	0.585394
293.084	0.524101
295.977	0.29658
298.869	0.619783
301.762	0.74471
304.655	0.929972
307.548	1.09154
310.44	0.400885
313.333	0.42916
316.226	0.292851
319.118	0.366003
322.011	0.060813
324.904	0.575801
327.796	0.385297
330.689	0.65562
333.582	0.763149
336.474	1.30798
339.367	0.855454
342.26	0.018398
345.152	0.726961
348.045	0.605159
350.938	1.01464
353.831	0.285429
356.723	0.041799
359.616	0.40462
362.509	0.469897
365.401	1.29484
368.294	0.865973
371.187	0.799112
374.079	1.35188
376.972	0.857572
379.865	0.388515
382.758	0.985795
385.65	1.53575
388.543	1.14753
391.436	0.114973
394.328	1.49656
397.221	0.174087
400.114	0.971624
403.007	0.421597
405.899	0.584076
408.792	0.06673
411.685	0.482995
414.577	0.088317
417.47	0.687996
420.363	0.141879
423.255	0.138081
426.148	0.390371
429.041	0.32135
431.933	0.553284
434.826	0.294866
437.719	0.308851
440.612	0.872168
443.504	0.720016
446.397	0.7415
449.29	1.59111
452.182	1.24606
455.075	1.36232
457.968	1.9742
460.861	1.90237
463.753	2.76576
466.646	3.03662
469.539	3.23849
472.431	3.79744
475.324	4.80079
478.217	4.55103
481.109	6.20035
484.002	6.1406
486.895	8.05636
489.788	7.38387
492.68	7.93085
495.573	7.91574
498.466	7.1272
501.358	5.75412
504.251	4.45392
507.144	3.01619
510.036	3.08922
512.929	1.84124
515.822	1.0756
518.715	1.01229
521.607	0.077831
524.5	0.671562
527.393	0.196972
530.285	0.220467
533.178	0.387514
536.071	0.491894
538.963	0.198437
541.856	0.096695
544.749	0.155268
547.641	0.398514
550.534	0.61595
553.427	0.818487
556.32	1.01026
559.212	0.478148
562.105	0.543743
564.998	0.894718
567.89	2.02308
570.783	1.6096
573.676	1.0031
576.568	1.80329
579.461	1.63747
582.354	2.12535
585.247	1.89129
588.139	2.15086
591.032	2.08449
593.925	2.37223
596.817	1.67251
599.71	2.45597
602.603	1.63049
605.495	2.85826
608.388	2.12383
611.281	3.16153
614.174	2.77788
617.066	3.34842
619.959	3.97356
622.852	3.83363
625.744	3.89615
628.637	4.08803
631.53	3.9613
634.423	4.80258
637.315	4.33516
640.208	3.51241
643.101	4.14809
645.993	3.40365
648.886	3.96593
651.779	2.77825
654.671	2.14025
657.564	1.96272
660.457	2.1079
663.35	1.68029
666.242	1.34251
669.135	1.36424
672.028	1.7304
674.92	1.62454
677.813	1.03812
680.706	0.638243
683.598	1.54396
686.491	0.613641
689.384	0.584271
692.277	0.600882
695.169	0.650605
698.062	0.657404
700.955	0.248726
703.847	0.272245
706.74	0.2517
709.633	0.347139
712.525	0.067828
715.418	0.212561
718.311	0.447806
721.203	0.320331
724.096	0.198795
726.989	0.299142
729.882	0.299059
732.774	0.091641
735.667	0.030744
738.56	0.260352
741.452	0.036083
744.345	0.35714
747.238	0.421475
750.13	0.013834
753.023	0.067404
755.916	0.441416
758.809	0.583123
761.701	0.406028
764.594	0.752192
767.487	0.929053
770.379	0.304306
773.272	0.859047
776.165	0.654592
779.058	0.6075
781.95	0.010433
784.843	0.12526
787.736	0.596213
790.628	0.475885
793.521	0.547625
796.414	0.397229
799.306	0.694637
802.199	0.301078
805.092	0.779226
807.985	0.905457
810.877	0.690589
813.77	0.406787
816.663	1.49969
819.555	0.492881
822.448	0.884116
825.341	1.11718
828.233	0.860661
831.126	1.52863
834.019	0.954495
836.912	0.998198
839.804	0.932443
842.697	1.61676
845.59	1.34492
848.482	1.24313
851.375	1.05376
854.268	1.44252
857.16	0.80006
860.053	1.00424
862.946	0.818538
865.838	1.28308
868.731	1.47568
871.624	0.770263
874.517	1.3896
877.409	0.736782
880.302	0.752256
883.195	1.29158
886.087	0.73061
888.98	0.467384
891.873	0.82973
894.765	0.92557
897.658	0.477342
900.551	0.238696
903.444	0.0482
906.336	0.871835
909.229	0.212395
912.122	0.922065
915.014	0.024214
917.907	0.169846
920.8	0.254499
923.692	0.414392
926.585	0.298572
929.478	0.103949
932.37	0.711628
935.263	1.02548
938.156	0.828975
941.049	0.823399
943.941	0.350203
946.834	0.121317
949.727	0.641553
952.619	0.318868
955.512	0.489102
958.405	0.519273
961.298	0.269888
964.19	0.486818
967.083	0.543919
969.976	0.936263
972.868	0.444567
975.761	0.914124
978.654	0.625295
981.546	0.510674
984.439	0.910119
987.332	0.130864
990.225	0.345323
993.117	0.078782
996.01	0.735986
998.903	0.146259
1001.79	0.21314
1004.69	0.417051
1007.58	0.914603
1010.47	0.676575
1013.37	0.92881
1016.26	0.138691
1019.15	0.480563
1022.04	0.262487
1024.94	0.488766
1027.83	0.528885
1030.72	0.650737
1033.62	0.068736
1036.51	0.176964
1039.4	0.97325
1042.29	0.910084
1045.19	0.528082
1048.08	0.58427
1050.97	0.253336
1053.86	0.29532
1056.76	0.108393
1059.65	0.379817
1062.54	0.41678
1065.43	0.239846
1068.33	0.67072
1071.22	0.400945
1074.11	0.786097
1077.01	1.37305
1079.9	0.125652
1082.79	0.689102
1085.68	0.054665
1088.58	0.393402
1091.47	0.830996
1094.36	0.343596
1097.25	0.422276
1100.15	0.562156
1103.04	0.383638
1105.93	0.262194
1108.83	0.0719
1111.72	0.763677
1114.61	0.283042
1117.5	0.581354
1120.4	0.306309
1123.29	0.219349
1126.18	0.963802
1129.07	0.232045
1131.97	0.555524
1134.86	1.05023
1137.75	0.570199
1140.64	0.60646
1143.54	0.858901
1146.43	0.958183
1149.32	0.948402
1152.22	0.100575
1155.11	0.59001
1158	0.193367
1160.89	0.593178
1163.79	1.01619
1166.68	0.520547
1169.57	0.406386
1172.46	0.778093
1175.36	0.73117
1178.25	0.906873
1181.14	0.165582
1184.04	0.128119
1186.93	0.557618
1189.82	0.776705
1192.71	1.11874
1195.61	0.249735
1198.5	0.274799
1201.39	0.263123
1204.28	0.564198
1207.18	0.304564
1210.07	0.770924
1212.96	1.16733
1215.86	0.691623
1218.75	0.959935
1221.64	0.015045
1224.53	0.755165
1227.43	0.516731
1230.32	0.54419
1233.21	0.808064
1236.1	0.144022
1239	0.313236
1241.89	0.011415
1244.78	0.324924
1247.67	0.660141
1250.57	0.7492
1253.46	0.467687
1256.35	0.361953
1259.25	0.580232
1262.14	0.962413
1265.03	0.275334
1267.92	0.498724
1270.82	0.073674
1273.71	0.943016
1276.6	0.88763
1279.49	0.646673
1282.39	0.691792
1285.28	0.123078
