Measurement: Raman, 780 nm, unoriented, Raman Data Processed
Mineral: Heterosite
Rruff sample: R050165
Ideal chemistry: Fe^3+^PO_4_
Locality: White Elephant mine, Custer County, South Dakota, USA
Source: Marcus Origlieri
Description: Purple massive
Measured chemistry: (Fe^3+^_0.68_Mn^3+^_0.32_)P_1.00_O_4_
Raman shift (cm-1)	intensity
139.268	0
142.161	0.229706
145.053	0.903526
147.946	1.67265
150.839	2.44265
153.731	3.12911
156.624	3.88023
159.517	4.3798
162.41	4.9118
165.302	5.13969
168.195	4.67154
171.088	3.45895
173.98	2.3619
176.873	1.23721
179.766	0.71106
182.658	0.185103
185.551	0.053529
188.444	0.006234
191.337	0.08496
194.229	0.134901
197.122	0.042774
200.015	0.087274
202.907	0.291886
205.8	0.380395
208.693	0.475985
211.585	0.845398
214.478	1.03564
217.371	1.14588
220.263	1.42381
223.156	1.52402
226.049	1.72535
228.942	1.85757
231.834	1.86784
234.727	1.92081
237.62	1.89829
240.512	1.82717
243.405	1.60707
246.298	1.33274
249.19	0.933698
252.083	0.595681
254.976	0.231693
257.869	0.017654
260.761	0.007797
263.654	0.02497
266.547	0.029136
269.439	0.01637
272.332	0.175096
275.225	0.194344
278.118	0.349662
281.01	0.188569
283.903	0.281382
286.796	0.355425
289.688	0.443003
292.581	0.610609
295.474	0.586027
298.366	0.772733
301.259	0.956184
304.152	0.885785
307.045	1.12624
309.937	1.29665
312.83	1.3953
315.723	1.61504
318.615	1.65285
321.508	1.77706
324.401	1.75128
327.293	1.86806
330.186	1.8614
333.079	2.00788
335.971	1.97679
338.864	1.81154
341.757	1.53391
344.649	1.4235
347.542	1.19078
350.435	0.955855
353.328	0.922159
356.22	0.696481
359.113	0.444044
362.006	0.199811
364.898	0.12272
367.791	0.128027
370.684	0.071534
373.577	0.040759
376.469	0.0024
379.362	0.063046
382.255	0.039035
385.147	0.036433
388.04	0.063228
390.933	0.065624
393.825	0.132396
396.718	0.066302
399.611	0.186529
402.503	0.151688
405.396	0.181044
408.289	0.140508
411.182	0.182504
414.074	0.288943
416.967	0.15378
419.86	0.27168
422.752	0.248098
425.645	0.138401
428.538	0.092302
431.43	0.154824
434.323	0.075872
437.216	0.007075
440.109	0.025338
443.001	0.043715
445.894	0.062431
448.787	0.002083
451.679	0.002772
454.572	0.04064
457.465	0.012482
460.358	0.034514
463.25	0.054689
466.143	0.138401
469.036	0.182828
471.928	0.426642
474.821	0.453694
477.714	0.634752
480.606	0.83736
483.499	1.01544
486.392	0.950672
489.284	1.28132
492.177	1.15664
495.07	1.16555
497.963	1.09664
500.855	0.877874
503.748	0.74643
506.641	0.672591
509.533	0.706277
512.426	0.545865
515.319	0.686357
518.212	0.579564
521.104	0.449622
523.997	0.540795
526.89	0.523516
529.782	0.40657
532.675	0.290377
535.568	0.198029
538.46	0.23441
541.353	0.132822
544.246	0.114794
547.139	0.099631
550.031	0.030517
552.924	0.060421
555.817	0.135202
558.709	0.117584
561.602	0.092707
564.495	0.179052
567.388	0.205014
570.28	0.394421
573.173	0.40665
576.066	0.413501
578.958	0.525808
581.851	0.661654
584.744	0.627906
587.636	0.699549
590.529	0.905284
593.422	0.935131
596.314	1.11548
599.207	1.13225
602.1	1.02583
604.992	0.921983
607.885	0.736838
610.778	0.417809
613.671	0.216139
616.563	0.028355
619.456	0.017992
622.349	0.033892
625.241	0.112449
628.134	0.034453
631.027	0.047062
633.919	0.078177
636.812	0.183246
639.705	0.223968
642.598	0.383951
645.49	0.452807
648.383	0.525108
651.276	0.525887
654.168	0.541548
657.061	0.539739
659.954	0.414263
662.846	0.377276
665.739	0.443279
668.632	0.532941
671.525	0.620332
674.417	0.792394
677.31	0.787033
680.203	0.93967
683.095	0.914711
685.988	0.993831
688.881	0.917351
691.774	0.767315
694.666	0.630903
697.559	0.412934
700.452	0.281923
703.344	0.20596
706.237	0.15766
709.13	0.035234
712.022	0.156285
714.915	0.029501
717.808	0.035802
720.701	0.050953
723.593	0.045758
726.486	0.05826
729.379	0.095284
732.271	0.016237
735.164	0.037359
738.057	0.026782
740.949	0.095436
743.842	0.04282
746.735	0.096286
749.628	0.032429
752.52	0.063522
755.413	0.068139
758.306	0.098812
761.198	0.019396
764.091	0.10393
766.984	0.019201
769.876	0.074431
772.769	0.072578
775.662	0.131704
778.554	0.108449
781.447	0.096778
784.34	0.07021
787.233	0.077319
790.125	0.076646
793.018	0.080239
795.911	0.061613
798.803	0.204483
801.696	0.080165
804.589	0.144042
807.481	0.136706
810.374	0.125085
813.267	0.039521
816.16	0.048526
819.052	0.16329
821.945	0.153315
824.838	0.095456
827.73	0.155342
830.623	0.117352
833.516	0.189229
836.409	0.093982
839.301	0.201891
842.194	0.10326
845.087	0.137438
847.979	0.011346
850.872	0.050317
853.765	0.068448
856.657	0.088175
859.55	0.003087
862.443	0.067492
865.336	0.061257
868.228	0.060355
871.121	0.042183
874.014	0.088801
876.906	0.008844
879.799	0.181073
882.692	0.055063
885.584	0.065181
888.477	0.200736
891.37	0.167759
894.263	0.323698
897.155	0.262526
900.048	0.342206
902.941	0.364458
905.833	0.345429
908.726	0.285976
911.619	0.265481
914.511	0.18332
917.404	0.09786
920.297	0.136833
923.189	0.029264
926.082	0.032586
928.975	0.010756
931.868	0.123185
934.76	0.149264
937.653	0.038686
940.546	0.071369
943.438	0.109533
946.331	0.156729
949.224	0.160505
952.116	0.238135
955.009	0.233568
957.902	0.314988
960.795	0.347645
963.687	0.437103
966.58	0.374308
969.473	0.326727
972.365	0.328241
975.258	0.244997
978.151	0.184193
981.043	0.171598
983.936	0.113687
986.829	0.006646
989.722	0.031442
992.614	0.00256
995.507	0.025764
998.4	0.009139
1001.29	0.033401
1004.18	0.008934
1007.08	0.151591
1009.97	0.114341
1012.86	0.111508
1015.76	0.104278
1018.65	0.049532
1021.54	0.051916
1024.43	0.015996
1027.33	0.01813
1030.22	0.127711
1033.11	0.017687
1036.01	0.180839
1038.9	0.231903
1041.79	0.360658
1044.68	0.433195
1047.58	0.671128
1050.47	0.712802
1053.36	0.885473
1056.25	0.910611
1059.15	0.982669
1062.04	0.912716
1064.93	0.822393
1067.82	0.908863
1070.72	0.854564
1073.61	0.778527
1076.5	0.579802
1079.39	0.469553
1082.29	0.40669
1085.18	0.203053
1088.07	0.152681
1090.97	0.131203
1093.86	0.054266
1096.75	0.132038
1099.64	0.231523
1102.54	0.311934
1105.43	0.358545
1108.32	0.410416
1111.21	0.542439
1114.11	0.52534
1117	0.645759
1119.89	0.577178
1122.79	0.411687
1125.68	0.325486
1128.57	0.163267
1131.46	0.16667
1134.36	0.169109
1137.25	0.092233
1140.14	0.102925
1143.04	0.058645
1145.93	0.052736
1148.82	0.020731
1151.71	0.004402
1154.61	0.022048
1157.5	0.03047
1160.39	0.025906
1163.28	0.015471
1166.18	0.079629
1169.07	0.025853
1171.96	0.037943
1174.85	0.071776
1177.75	0.061496
1180.64	0.064947
1183.53	0.101238
1186.42	0.100874
1189.32	0.076925
1192.21	0.001634
1195.1	0.05162
1198	0.023427
1200.89	0.037894
1203.78	0.109267
1206.67	0.055909
1209.57	0.098371
1212.46	0.052171
1215.35	0.073696
1218.24	0.053341
1221.14	0.168338
1224.03	0.021906
1226.92	0.140462
1229.82	0.13693
1232.71	0.032101
1235.6	0.098955
1238.49	0.08984
1241.39	0.045916
1244.28	0.061876
1247.17	0.098258
1250.07	0.056759
1252.96	0.169974
1255.85	0.085543
1258.74	0.064054
1261.63	0.080205
1264.53	0.039011
1267.42	0.089389
1270.31	0.06376
1273.21	0.010716
1276.1	0.066242
1278.99	0.086893
1281.88	0.056164
1284.78	0.051755
