Measurement: Raman, 514 nm, unoriented, Raman Data Processed
Mineral: Heterosite
Rruff sample: R050165
Ideal chemistry: Fe^3+^PO_4_
Locality: White Elephant mine, Custer County, South Dakota, USA
Source: Marcus Origlieri
Description: Purple massive
Measured chemistry: (Fe^3+^_0.68_Mn^3+^_0.32_)P_1.00_O_4_
Raman shift (cm-1)	intensity
130.922	0
135.083	188.646
139.243	1513.34
143.401	1835.63
147.557	1979.74
151.711	1402.96
155.863	207.967
160.013	11.105
164.161	194.053
168.308	583.738
172.452	749.994
176.594	666.35
180.734	368.633
184.872	312.074
189.008	224.1
193.143	23.566
197.275	139.748
201.405	81.99
205.534	734.18
209.66	527.031
213.784	327.771
217.907	863.111
222.027	1164.74
226.146	1413.08
230.263	1344.4
234.377	857.938
238.49	422.896
242.601	271.738
246.709	46.61
250.816	21.675
254.921	8.289
259.024	63.99
263.125	20.38
267.224	30.367
271.321	0.073
275.416	79.919
279.51	10.902
283.601	238.143
287.69	215
291.778	399.935
295.863	512.246
299.947	734.647
304.029	1118.81
308.108	1288.6
312.186	1403.91
316.262	1266.61
320.336	1111.96
324.408	1017.82
328.478	998.465
332.546	1066.28
336.612	1225.68
340.677	1432.17
344.739	2050.81
348.799	2166.53
352.858	2627.86
356.915	2767.73
360.969	2824.21
365.022	2740.91
369.073	2724.82
373.122	2561.81
377.169	2410.64
381.215	2347.65
385.258	2131.01
389.299	1857.14
393.339	1652.04
397.376	1648.74
401.412	1495.68
405.446	1590.85
409.478	1574.31
413.508	1635.79
417.536	1576.09
421.562	1678.97
425.586	1919.19
429.609	2228.02
433.629	2482.8
437.648	2652.29
441.665	2896.84
445.68	2913.06
449.693	2528.75
453.704	2436.85
457.713	1953.02
461.721	1616.99
465.726	1460.25
469.73	1110.78
473.731	910.686
477.731	694.968
481.729	535.641
485.725	591.831
489.72	589.384
493.712	457.298
497.703	288.553
501.691	170.111
505.678	9.685
509.663	13.282
513.646	129.582
517.627	221.144
521.607	337.275
525.584	61.242
529.56	28.959
533.534	443.87
537.506	890.746
541.476	1070.34
545.444	1617
549.41	2115.26
553.375	2396.41
557.337	2714.72
561.298	2958.09
565.257	3434.55
569.214	3870.52
573.17	4707.48
577.123	5677.72
581.075	6750.12
585.024	7335.04
588.972	7691.56
592.918	6448.69
596.863	5828.51
600.805	5180.12
604.746	4702.95
608.685	4005.29
612.621	3813.41
616.557	3520.26
620.49	3631.16
624.421	3338.06
628.351	3445.8
632.279	3123.98
636.205	2621.95
640.129	2319.23
644.051	2056.08
647.972	1872.22
651.89	1572.22
655.807	1481.36
659.722	1354.04
663.636	996.426
667.547	937.94
671.457	752.23
675.365	589.747
679.271	595.592
683.175	664.065
687.077	550.777
690.978	530.233
694.877	389.121
698.774	249.407
702.669	173.778
706.562	135.937
710.454	103.866
714.344	42.514
718.232	54.864
722.118	101.891
726.002	12.718
729.885	47.099
733.766	39.936
737.645	48.715
741.522	65.248
745.397	138.754
749.271	51.291
753.143	64.245
757.013	10.005
760.881	107.077
764.748	13.004
768.613	90.279
772.476	26.271
776.337	53.945
780.196	30.853
784.054	60.001
787.91	45.719
791.764	84.232
795.616	70.391
799.467	0.734
803.316	136.486
807.163	18.019
811.008	86.245
814.851	15.826
818.693	91.648
822.533	127.6
826.371	80.988
830.208	19.287
834.042	185.345
837.875	74.722
841.706	74.976
845.536	181.703
849.363	93.049
853.189	95.382
857.013	211.465
860.836	154.471
864.656	179.444
868.475	276.859
872.292	356.386
876.108	465.189
879.922	591.007
883.733	717.854
887.544	785.989
891.352	1063.5
895.159	1314.37
898.964	1432.79
902.767	1643.48
906.568	1845.31
910.368	2132.51
914.166	2402.43
917.962	2737.62
921.757	3222.04
925.55	3531.54
929.341	4341.88
933.13	4896.74
936.918	5518.8
940.703	6350.66
944.488	6816.96
948.27	7575.44
952.051	8127.89
955.83	8647.49
959.607	8494.71
963.383	8542.99
967.156	8686.17
970.928	8732.29
974.699	8757.17
978.468	9365.79
982.234	9786.58
986	11301
989.763	12762.7
993.525	14121
997.285	15148.7
1001.04	15341
1004.8	14852.1
1008.55	13662.2
1012.31	11688.3
1016.06	9544.48
1019.81	7940.69
1023.56	6904
1027.31	6462.31
1031.05	5941.65
1034.79	5942.14
1038.53	5881.65
1042.27	5864.17
1046.01	6300.59
1049.75	6417.45
1053.48	6658.09
1057.22	6572.23
1060.95	6139.35
1064.68	6080.43
1068.4	5591.48
1072.13	4636.57
1075.86	3977.59
1079.58	3188.37
1083.3	2746.79
1087.02	2364.75
1090.74	2374.7
1094.45	1859.76
1098.17	1916.48
1101.88	2018.97
1105.59	2016.35
1109.3	2086.87
1113.01	2101.49
1116.71	2127.69
1120.42	2204.7
1124.12	2218.25
1127.82	2332.97
1131.52	2383.13
1135.22	2449.87
1138.91	2435.35
1142.61	2482.23
1146.3	2620.58
1149.99	2564.56
1153.68	2438.59
1157.37	2384.24
1161.06	2265.01
1164.74	2097.74
1168.42	1969.11
1172.1	1949.79
1175.78	1943.25
1179.46	1663.65
1183.14	1364.44
1186.81	1028.76
1190.48	961.293
1194.15	802.053
1197.83	749.166
1201.49	734.077
1205.16	567.504
1208.82	272.391
1212.49	204.319
1216.15	204.188
1219.81	210.628
1223.46	57.114
1227.12	40.923
1230.78	2.94
1234.43	50.536
1238.08	104.074
1241.73	15.508
1245.38	178.875
1249.03	184.395
1252.67	117.327
1256.31	54.184
1259.95	2.5
1263.6	30.392
1267.23	76.52
1270.87	87.17
1274.51	62
1278.14	102.465
1281.77	36.024
1285.4	129.49
1289.03	71.994
1292.66	48.69
1296.28	11.92
1299.91	27.464
1303.53	21.345
1307.15	19.54
1310.77	165.853
1314.38	52.516
1318	75.464
1321.61	52.947
1325.23	91.556
1328.84	160.593
1332.45	184.07
1336.06	233.996
1339.66	132.384
1343.27	171.093
1346.87	182.247
1350.47	286.995
1354.07	217.114
1357.67	287.819
1361.26	322.195
1364.86	378.605
1368.45	327.043
1372.04	328.515
1375.63	240.387
1379.22	298.703
1382.81	199.343
1386.39	524.815
1389.98	274.539
1393.56	221.405
1397.14	251.126
1400.72	261.275
1404.3	245.527
1407.87	89.469
1411.45	219.671
1415.02	215.617
1418.59	152.417
1422.16	270.97
1425.73	141.139
1429.29	198.624
1432.86	288.27
1436.42	301.474
1439.98	183.597
1443.54	248.105
1447.1	253.206
1450.66	238.678
1454.21	259.828
1457.77	359.845
1461.32	331.733
1464.87	222.96
1468.42	138.35
1471.96	168.073
1475.51	193.211
1479.06	105.478
1482.6	202.118
1486.14	170.058
1489.68	195.691
1493.22	225.55
1496.75	211.263
1500.29	201.45
1503.82	21.697
1507.35	259.656
1510.88	94.389
