Measurement: Raman, 532 nm, unoriented, Raman Data Processed
Mineral: Heulandite-K
Rruff sample: R061137
Ideal chemistry: (K,Ca,Na)_5_(Si_27_Al_9_)O_72_26H_2_O
Locality: Albero Bassi, Vicenza, Veneto, Italy
Source: Michael Scott
Description: Coating of orange grains
Raman shift (cm-1)	intensity
148.735	0
152.109	14.7116
155.484	61.6132
158.859	52.0778
162.234	65.6009
165.609	95.8436
168.983	111.17
172.358	104.634
175.733	79.2266
179.108	52.0945
182.483	38.6418
185.858	50.5662
189.232	4.49353
192.607	26.5496
195.982	2.73486
199.357	4.01856
202.732	55.3833
206.107	87.703
209.481	124.598
212.856	218.633
216.231	304.151
219.606	462.127
222.981	551.691
226.355	586.205
229.73	412.15
233.105	363.378
236.48	291.763
239.855	306.687
243.23	306.717
246.604	277.258
249.979	259.758
253.354	182.458
256.729	76.2505
260.103	41.7267
263.478	22.9232
266.853	9.5874
270.228	56.2998
273.603	85.0012
276.978	75.9917
280.352	140.987
283.727	242.514
287.102	289.775
290.477	339.781
293.852	400.581
297.226	346.034
300.601	299.526
303.976	269.156
307.351	202.991
310.726	124.481
314.101	89.2085
317.475	64.0046
320.85	42.2847
324.225	37.7424
327.6	29.6033
330.975	1.5769
334.349	2.70239
337.724	14.3667
341.099	1.99829
344.474	2.82739
347.849	9.02124
351.224	4.71411
354.598	28.0325
357.973	20.4851
361.348	11.8464
364.723	39.4368
368.098	85.8811
371.473	139.392
374.847	157.801
378.222	234.546
381.597	280.262
384.972	382.158
388.347	490.936
391.721	637.557
395.096	847.583
398.471	1132.58
401.846	1427.62
405.221	1670.54
408.596	1842.55
411.97	1762.39
415.345	1429.21
418.72	1081.96
422.095	796.672
425.47	549.267
428.844	391.018
432.219	304.146
435.594	233.984
438.969	182.866
442.344	148.655
445.719	118.653
449.093	167.22
452.468	189.721
455.843	211.523
459.218	213.263
462.593	149.679
465.967	118.886
469.342	97.843
472.717	73.2063
476.092	60.0925
479.467	131.162
482.841	256.965
486.216	352.638
489.591	466.84
492.966	583.903
496.341	635.638
499.716	562.112
503.09	410.108
506.465	261.395
509.84	174.51
513.215	95.8979
516.59	96.113
519.965	60.0832
523.339	51.0852
526.714	9.34473
530.089	30.4019
533.464	7.03369
536.839	13.7666
540.213	15.4873
543.588	24.1218
546.963	8.9375
550.338	1.75244
553.713	31.3301
557.087	27.6148
560.462	14.5747
563.837	19.6436
567.212	28.885
570.587	1.91333
573.962	48.9768
577.336	4.93213
580.711	35.8127
584.086	75.438
587.461	52.8635
590.836	98.8967
594.21	159.5
597.585	146.797
600.96	218.833
604.335	265.46
607.71	344.474
611.085	400.645
614.459	385.949
617.834	355.062
621.209	274.87
624.584	227.939
627.959	199.274
631.333	192.349
634.708	164.555
638.083	194.988
641.458	186.627
644.833	225.765
648.208	307.301
651.582	307.932
654.957	350.1
658.332	385.492
661.707	430.49
665.082	442.684
668.457	437.926
671.831	402.287
675.206	371.276
678.581	325.04
681.956	249.443
685.331	234.731
688.705	189.457
692.08	148.412
695.455	119.473
698.83	145.91
702.205	82.113
705.58	75.0491
708.954	76.1394
712.329	77.1689
715.704	43.5564
719.079	39.5073
722.454	67.6091
725.828	7.7522
729.203	4.03564
732.578	17.9893
735.953	24.3535
739.328	67.0303
742.702	13.8606
746.077	16.4265
749.452	27.2222
752.827	26.6802
756.202	18.8059
759.577	2.67236
762.951	8.66479
766.326	24.6064
769.701	15.1958
773.076	62.2165
776.451	16.1223
779.825	28.1877
783.2	60.1128
786.575	87.6782
789.95	102.228
793.325	90.3411
796.699	51.3159
800.074	131.572
803.449	115.652
806.824	99.9238
810.199	86.8709
813.574	93.2073
816.948	117.89
820.323	111.801
823.698	72.1851
827.073	77.2253
830.448	72.4661
833.822	63.7022
837.197	50.0603
840.572	33.4778
843.947	21.0676
847.322	47.907
850.697	58.0222
854.071	25.1765
857.446	30.1216
860.821	21.5041
864.196	21.844
867.571	39.1216
870.946	27.6594
874.32	57.5669
877.695	22.6995
881.07	26.0137
884.445	35.4631
887.82	52.49
891.194	36.4629
894.569	48.471
897.944	89.3706
901.319	45.6448
904.694	47.2685
908.068	9.7478
911.443	37.7803
914.818	50.3206
918.193	30.6633
921.568	62.3091
924.943	69.481
928.317	41.4954
931.692	40.3601
935.067	64.8879
938.442	27.105
941.817	8.16724
945.192	34.019
948.566	37.4988
951.941	34.2747
955.316	50.5964
958.691	21.7754
962.066	13.8674
965.44	16.1851
968.815	49.1633
972.19	9.93262
975.565	15.7656
978.94	5.00244
982.314	14.6572
985.689	3.64624
989.064	2.65674
992.439	4.26489
995.814	31.8867
999.189	32.8899
1002.56	52.1055
1005.94	24.4673
1009.31	60.937
1012.69	11.2026
1016.06	28.7122
1019.44	19.8718
1022.81	25.9192
1026.19	27.4597
1029.56	6.88477
1032.94	52.5588
1036.31	16.3154
1039.69	46.5422
1043.06	57.1641
1046.44	22.4412
1049.81	73.9307
1053.19	49.8115
1056.56	49.4858
1059.93	10.4639
1063.31	75.5081
1066.68	30.5173
1070.06	25.7293
1073.43	42.6462
1076.81	33.3752
1080.18	59.2625
1083.56	24.6011
1086.93	43.03
1090.31	37.4028
1093.68	63.0178
1097.06	64.197
1100.43	80.2349
1103.81	121.669
1107.18	107.471
1110.56	59.365
1113.93	65.6458
1117.31	18.8198
1120.68	76.5544
1124.06	55.8501
1127.43	58.7305
1130.81	36.4414
1134.18	36.8599
1137.56	40.2859
1140.93	23.0102
1144.31	24.1101
1147.68	44.978
1151.06	64.0403
1154.43	9.92285
1157.81	3.83106
1161.18	7.63086
1164.56	28.2585
1167.93	27.6482
1171.3	31.5061
1174.68	22.4998
1178.05	3.90772
1181.43	43.4145
1184.8	13.4634
1188.18	20.8994
1191.55	33.4131
1194.93	5.9314
1198.3	69.0637
1201.68	78.9783
1205.05	87.4888
1208.43	80.0037
1211.8	41.0918
1215.18	43.9228
1218.55	100.428
1221.93	42.9722
1225.3	97.4209
1228.68	13.2681
1232.05	44.8477
1235.43	69.9971
1238.8	67.6372
1242.17	66.1143
1245.55	53.2129
1248.92	16.062
1252.3	11.6255
1255.67	16.3496
1259.05	86.5635
1262.42	18.8892
1265.8	62.2197
1269.17	65.0259
1272.55	106.541
1275.92	98.2788
1279.3	105.822
1282.67	73.3521
1286.05	92.1211
1289.42	58.4522
1292.8	86.605
1296.17	118.784
1299.55	65.3066
1302.92	79.8633
1306.3	53.8755
1309.67	85.2095
1313.05	89.3936
1316.42	18.6431
