Measurement: Raman, 532 nm, unoriented, Raman Data Processed
Mineral: Heulandite-Ca
Rruff sample: R040021
Ideal chemistry: (Ca,Na,K)_5_(Si_27_Al_9_)O_72_26H_2_O
Locality: Prospect Park, Patterson, Passaic County, New Jersey, USA
Source: University of Arizona Mineral Museum
Description: Group of colorless lamellar crystals
Measured chemistry: Na_0.25_(Na_0.55_K_0.45_)_Σ=1_(Ca_2.42_Na_0.85_Sr_0.73_)_Σ=4.00_(Si_27.60_Al_8.40_)_Σ=36_O_72_·24H_2_O ; H_2_O estimated by difference
Raman shift (cm-1)	intensity
119.594	0
122.969	245.833
126.343	1321.27
129.718	2236.8
133.093	2325.01
136.468	2720.4
139.843	3619.88
143.217	4402.59
146.592	4707.67
149.967	4157.24
153.342	3569.42
156.717	3113.8
160.091	2782.9
163.466	2386.85
166.841	1868.69
170.216	1466.12
173.591	1047.74
176.965	828.139
180.34	560.734
183.715	390.343
187.09	247.472
190.465	156.744
193.84	33.5474
197.214	20.5059
200.589	35.1758
203.964	25.394
207.339	92.6211
210.714	46.5562
214.089	38.4731
217.463	20.3701
220.838	107.481
224.213	174.401
227.588	275.486
230.963	476.524
234.337	626.306
237.712	856.322
241.087	1163.29
244.462	1399.75
247.837	1538.13
251.212	1548.88
254.586	1440.05
257.961	1348.62
261.336	1213.26
264.711	1074.35
268.086	877.008
271.46	701.766
274.835	533.244
278.21	367.224
281.585	245.483
284.96	151.502
288.334	103.212
291.709	17.1545
295.084	20.8164
298.459	34.7549
301.834	9.89404
305.209	14.3777
308.583	5.10693
311.958	53.5344
315.333	26.9556
318.708	16.5796
322.083	94.5537
325.457	156.119
328.832	182.603
332.207	184.233
335.582	208.63
338.957	234.337
342.332	288.731
345.706	370.803
349.081	497.143
352.456	716.02
355.831	761.219
359.206	1045.94
362.58	1295.24
365.955	1587.01
369.33	1914.75
372.705	2368.87
376.08	2831.32
379.454	3336.64
382.829	3980.99
386.204	4703.89
389.579	5488.1
392.954	6389.12
396.329	7091.54
399.703	7671.86
403.078	7822.4
406.453	7333.64
409.828	6506.25
413.203	5430
416.577	4284.12
419.952	3268.52
423.327	2391.23
426.702	1622.97
430.077	1019.01
433.452	570.726
436.826	228.025
440.201	37.363
443.576	-92.5645
446.951	-72.8133
450.326	-24.4046
453.7	99.0483
457.075	333.373
460.45	682.026
463.825	1057.6
467.2	1389.47
470.575	1762.67
473.949	2387.53
477.324	3250.22
480.699	4405
484.074	5220.91
487.449	4818.57
490.823	3711.24
494.198	2521.78
497.573	1533.02
500.948	879.67
504.323	420.018
507.697	223.951
511.072	74.7485
514.447	13.6558
517.822	17.4067
521.197	18.928
524.572	6.56519
527.946	13.9961
531.321	10.229
534.696	1.09863
538.071	13.1352
541.446	30.0378
544.82	52.1975
548.195	0.322998
551.57	39.134
554.945	0.130371
558.32	56.6511
561.694	25.9812
565.069	56.897
568.444	93.3318
571.819	124.3
575.194	138.155
578.568	235.775
581.943	270.856
585.318	355.02
588.693	467.668
592.068	576.349
595.443	796.079
598.817	911.946
602.192	1113.62
605.567	1286.08
608.942	1286.18
612.317	1246.23
615.692	1143.22
619.066	971.939
622.441	884.798
625.816	806.251
629.191	632.767
632.566	510.671
635.94	418.486
639.315	302.138
642.69	222.738
646.065	176.652
649.44	156.815
652.814	82.9797
656.189	101.572
659.564	39.28
662.939	38.1148
666.314	28.8496
669.688	5.04736
673.063	28.1355
676.438	25.104
679.813	0.0896
683.188	27.0874
686.563	37.6352
689.937	12.6714
693.312	56.4851
696.687	66.0295
700.062	69.2524
703.437	89.5947
706.812	86.1606
710.186	96.7307
713.561	134.417
716.936	129.775
720.311	97.5513
723.686	26.8953
727.06	62.6533
730.435	25.5837
733.81	3.21802
737.185	4.46582
740.56	12.6763
743.934	7.16064
747.309	28.3972
750.684	68.3994
754.059	108.469
757.434	131.992
760.809	182.111
764.183	294.11
767.558	402.369
770.933	522.438
774.308	630.143
777.683	736.737
781.057	780.232
784.432	769.544
787.807	695.029
791.182	596.048
794.557	533.381
797.932	401.871
801.306	390.948
804.681	364.439
808.056	442.299
811.431	498.705
814.806	634.296
818.18	612.236
821.555	541.543
824.93	426.965
828.305	326.454
831.68	224.427
835.054	152.806
838.429	160.503
841.804	89.5078
845.179	33.4097
848.554	54.0161
851.929	50.279
855.303	28.8928
858.678	21.7742
862.053	8.69727
865.428	11.5171
868.803	11.6055
872.178	20.5146
875.552	13.3589
878.927	52.5742
882.302	10.5342
885.677	6.62524
889.052	43.1616
892.426	69.5041
895.801	60.6917
899.176	80.7585
902.551	39.0586
905.926	70.6924
909.3	28.0159
912.675	59.4094
916.05	78.7727
919.425	94.3762
922.8	106.99
926.174	63.592
929.549	61.7102
932.924	53.9099
936.299	44.4333
939.674	4.77661
943.049	1.42627
946.423	8.62524
949.798	10.7524
953.173	9.61182
956.548	11.9373
959.923	1.38965
963.298	12.0862
966.672	11.5071
970.047	3.10059
973.422	31.4158
976.797	18.1299
980.172	52.5051
983.546	16.9114
986.921	41.502
990.296	105.02
993.671	134.51
997.046	132.432
1000.42	161.301
1003.79	179.843
1007.17	160.038
1010.54	197.441
1013.92	207.062
1017.29	212.818
1020.67	192.602
1024.04	227.243
1027.42	167.718
1030.79	217.602
1034.17	181.896
1037.54	208.776
1040.92	186.315
1044.29	180.532
1047.67	170.304
1051.04	97.0293
1054.42	106.086
1057.79	44.2739
1061.17	11.7346
1064.54	12.6418
1067.92	33.7632
1071.29	20.3413
1074.67	63.1184
1078.04	96.6777
1081.42	115.223
1084.79	186.044
1088.17	277.804
1091.54	285.789
1094.91	338.137
1098.29	383.753
1101.66	403.145
1105.04	433.54
1108.41	420.947
1111.79	423.51
1115.16	385.864
1118.54	399.391
1121.91	339.951
1125.29	430.405
1128.66	401.52
1132.04	431.592
1135.41	437.143
1138.79	442.524
1142.16	452.177
1145.54	421.676
1148.91	400.048
1152.29	411.31
1155.66	367.449
1159.04	321.266
1162.41	279.431
1165.79	231.871
1169.16	192.425
1172.54	217.177
1175.91	156.728
1179.29	119.071
1182.66	94.7617
1186.04	105.263
1189.41	58.1196
1192.79	100.319
1196.16	46.6475
1199.54	17.4409
1202.91	8.78052
1206.28	36.5935
1209.66	30.3362
1213.03	14.2026
1216.41	14.0056
1219.78	13.9556
1223.16	8.30566
1226.53	50.968
1229.91	5.12646
1233.28	34.2197
1236.66	58.831
1240.03	72.573
1243.41	114.453
1246.78	67.9888
1250.16	83.8374
1253.53	88.5471
1256.91	64.1406
1260.28	67.6863
1263.66	65.2327
1267.03	58.2373
1270.41	92.5322
1273.78	86.012
1277.15	19.7803
1280.53	3.49438
1283.9	11.2056
1287.28	0
