Measurement: Raman, 785 nm, unoriented, Raman Data Processed
Mineral: Heulandite-Ca
Rruff sample: R040021
Ideal chemistry: (Ca,Na,K)_5_(Si_27_Al_9_)O_72_26H_2_O
Locality: Prospect Park, Patterson, Passaic County, New Jersey, USA
Source: University of Arizona Mineral Museum
Description: Group of colorless lamellar crystals
Measured chemistry: Na_0.25_(Na_0.55_K_0.45_)_Σ=1_(Ca_2.42_Na_0.85_Sr_0.73_)_Σ=4.00_(Si_27.60_Al_8.40_)_Σ=36_O_72_·24H_2_O ; H_2_O estimated by difference
Raman shift (cm-1)	intensity
105.618	0
108.511	99.907
111.404	17.2168
114.296	761.648
117.189	1353.89
120.082	1379.78
122.975	3382.6
125.867	6664.78
128.76	9673.64
131.653	13919.3
134.545	11446.6
137.438	7741.13
140.331	8757.73
143.223	12345.3
146.116	17198.8
149.009	17494.9
151.901	12568.7
154.794	10175.7
157.687	9834.68
160.58	8874.63
163.472	8643.78
166.365	7548.59
169.258	6737.66
172.15	5569.76
175.043	4784.37
177.936	3953.36
180.828	3214.73
183.721	2555.7
186.614	2152.87
189.507	1705.93
192.399	1692.51
195.292	1453.62
198.185	1219.61
201.077	1006.51
203.97	804.983
206.863	454.147
209.756	254.097
212.648	53.5591
215.541	30.6318
218.434	20.7344
221.326	37.3098
224.219	129.659
227.112	125.222
230.004	120.129
232.897	86.7747
235.79	241.882
238.683	404.832
241.575	601.707
244.468	749.386
247.361	840.824
250.253	816.619
253.146	796.37
256.039	652.39
258.931	627.299
261.824	527.362
264.717	397.646
267.61	285.135
270.502	279.798
273.395	239.645
276.288	176.937
279.18	144.8
282.073	159.899
284.966	71.425
287.858	0.509277
290.751	49.0889
293.644	40.3965
296.536	45.8079
299.429	69.3845
302.322	18.5269
305.215	121.418
308.107	127.845
311	109.508
313.893	141.947
316.785	158.196
319.678	148.61
322.571	157.931
325.464	182.952
328.356	185.399
331.249	236.862
334.142	267.783
337.034	249.537
339.927	345.257
342.82	381.354
345.712	451.765
348.605	538.771
351.498	606.655
354.39	697.705
357.283	813.812
360.176	896.429
363.068	1126.99
365.961	1325.01
368.854	1619.51
371.747	1907.97
374.639	2244.67
377.532	2555.5
380.425	2856.33
383.317	3278.54
386.21	3858.57
389.103	4590.5
391.995	5311.53
394.888	6046.59
397.781	6749.7
400.674	7127.53
403.566	7014.58
406.459	6523.85
409.352	5793.42
412.244	4993.01
415.137	4244.85
418.03	3499.79
420.923	2692.55
423.815	2004.9
426.708	1518.12
429.601	1004.75
432.493	545.479
435.386	260.229
438.279	36.3264
441.171	57.698
444.064	78.5281
446.957	72.5518
449.849	13.7898
452.742	156.882
455.635	495.014
458.528	870.245
461.42	1369.4
464.313	1763.86
467.206	2000.33
470.098	2215.27
472.991	2499.29
475.884	3091.88
478.777	3954.89
481.669	4808.47
484.562	5194.64
487.455	4741.63
490.347	3812.87
493.24	2728.45
496.133	1826.94
499.025	1135.46
501.918	653.831
504.811	378.079
507.704	210.542
510.596	134.947
513.489	34.7455
516.382	23.6541
519.274	5.82947
522.167	15.5087
525.06	15.0543
527.952	21.3077
530.845	0.974365
533.738	27.1262
536.631	33.6967
539.523	27.9382
542.416	50.6208
545.309	9.04419
548.201	65.5286
551.094	45.9172
553.987	54.4658
556.88	66.765
559.772	24.1314
562.665	85.58
565.558	86.8768
568.45	69.0814
571.343	134.6
574.236	169.615
577.128	233.885
580.021	251.512
582.914	298.977
585.806	336.248
588.699	450.249
591.592	531.301
594.485	656.344
597.377	762.295
600.27	919.921
603.163	1094.86
606.055	1182.82
608.948	1202.39
611.841	1152.78
614.733	1010.9
617.626	854.56
620.519	731.706
623.412	621.558
626.304	512.306
629.197	386.714
632.09	331.766
634.982	266.031
637.875	243.569
640.768	157.098
643.66	138.823
646.553	100.504
649.446	71.4244
652.338	58.8314
655.231	16.7019
658.124	35.7053
661.017	7.44153
663.909	5.66382
666.802	13.605
669.695	2.92859
672.587	8.22449
675.48	15.8502
678.373	14.845
681.265	15.3735
684.158	29.7283
687.051	32.058
689.944	33.1014
692.836	36.2871
695.729	40.9619
698.622	39.2222
701.514	30.8999
704.407	17.0681
707.3	38.8495
710.192	12.0914
713.085	28.8294
715.978	40.587
718.871	31.1704
721.763	42.4096
724.656	46.4673
727.549	7.38324
730.441	20.7991
733.334	6.93701
736.227	2.70252
739.12	6.99927
742.012	5.974
744.905	4.97986
747.798	15.212
750.69	11.0004
753.583	38.386
756.476	35.6801
759.368	73.8023
762.261	59.1686
765.154	85.1303
768.047	72.5823
770.939	107.978
773.832	144.334
776.725	151.444
779.617	142.404
782.51	144.26
785.403	148.087
788.295	126.508
791.188	121.851
794.081	120.993
796.973	119.854
799.866	70.7903
802.759	77.5939
805.652	64.9789
808.544	80.4539
811.437	93.9993
814.33	100.173
817.222	73.7959
820.115	54.7754
823.008	52.3348
825.9	44.9819
828.793	29.3766
831.686	16.952
834.579	22.256
837.471	2.47015
840.364	21.3683
843.257	24.9757
846.149	9.21124
849.042	27.6426
851.935	50.7279
854.827	6.59448
857.72	30.4125
860.613	11.6086
863.506	15.4301
866.398	32.866
869.291	17.796
872.184	19.165
875.076	37.8315
877.969	30.2912
880.862	37.2976
883.755	25.834
886.647	39.3486
889.54	35.0488
892.433	3.18445
895.325	33.8356
898.218	43.2939
901.111	29.5737
904.003	57.758
906.896	47.1267
909.789	49.366
912.682	26.7375
915.574	37.7222
918.467	43.4392
921.36	26.9642
924.252	72.2394
927.145	65.8701
930.038	30.2383
932.93	57.3854
935.823	37.0292
938.716	33.9524
941.609	41.7722
944.501	38.1196
947.394	4.357
950.287	13.3614
953.179	4.66901
956.072	4.7738
958.965	7.99194
961.857	37.0981
964.75	13.3815
967.643	16.3686
970.535	8.19098
973.428	8.07269
976.321	12.7687
979.214	23.3732
982.106	7.80237
984.999	7.79852
987.892	48.6644
990.784	15.6361
993.677	2.43799
996.57	20.8493
999.462	69.0192
1002.36	78.0162
1005.25	83.0235
1008.14	105.944
1011.03	103.607
1013.93	115.333
1016.82	89.5098
1019.71	70.5253
1022.6	24.5815
1025.5	41.6064
1028.39	68.7956
1031.28	81.2761
1034.17	86.2412
1037.07	79.2818
1039.96	46.9567
1042.85	57.1105
1045.75	66.0681
1048.64	57.2399
1051.53	25.2692
1054.42	7.12909
1057.32	12.9153
1060.21	3.83148
1063.1	9.4173
1065.99	22.0415
1068.89	14.3525
1071.78	29.0317
1074.67	10.2853
1077.57	83.35
1080.46	118.647
1083.35	137.056
1086.24	190.571
1089.14	219.709
1092.03	239.971
1094.92	274.558
1097.81	319.224
1100.71	292.995
1103.6	346.229
1106.49	328.271
1109.38	342.344
1112.28	327.002
1115.17	314.218
1118.06	317.968
1120.96	305.966
1123.85	332.196
1126.74	357.185
1129.63	392.719
1132.53	392.004
1135.42	424.462
1138.31	457.36
1141.2	442.213
1144.1	438.461
1146.99	463.152
1149.88	446.894
1152.78	435.889
1155.67	398.876
1158.56	366.163
1161.45	329.69
1164.35	282.014
1167.24	263.549
1170.13	220.087
1173.02	227.4
1175.92	186.155
1178.81	146.938
1181.7	149.508
1184.6	94.3618
1187.49	57.9992
1190.38	43.62
1193.27	49.8387
1196.17	27.4581
1199.06	28.311
1201.95	3.2431
1204.84	30.6238
1207.74	6.29864
1210.63	8.3288
1213.52	14.999
1216.41	38.4926
1219.31	30.801
1222.2	38.0685
1225.09	40.6621
1227.99	49.9456
1230.88	39.3383
1233.77	28.6811
1236.66	36.4933
1239.56	33.5269
1242.45	66.4637
1245.34	63.7592
1248.23	32.9918
1251.13	38.0953
1254.02	14.8774
