Measurement: Raman, 785 nm, unoriented, Raman Data Processed
Mineral: Heulandite-K
Rruff sample: R061137
Ideal chemistry: (K,Ca,Na)_5_(Si_27_Al_9_)O_72_26H_2_O
Locality: Albero Bassi, Vicenza, Veneto, Italy
Source: Michael Scott
Description: Coating of orange grains
Raman shift (cm-1)	intensity
112.15	0
115.043	14.0155
117.935	13.4788
120.828	3.022
123.721	9.77951
126.613	52.2603
129.506	104.97
132.399	131.795
135.291	81.9056
138.184	71.3019
141.077	175.188
143.97	291.818
146.862	376.432
149.755	409.129
152.648	378.956
155.54	355.75
158.433	347.223
161.326	376.384
164.218	404.873
167.111	434.087
170.004	445.498
172.897	389.769
175.789	374.69
178.682	360.168
181.575	349.795
184.467	326.765
187.36	307.663
190.253	277.041
193.145	265.126
196.038	244.391
198.931	229.915
201.823	241.545
204.716	211.48
207.609	209.446
210.501	207.073
213.394	193.13
216.287	221.989
219.18	242.536
222.072	263.648
224.965	285.935
227.858	252.271
230.75	198.355
233.643	173.98
236.536	138.604
239.429	126.518
242.321	118.795
245.214	137.486
248.107	95.6598
250.999	43.9049
253.892	48.9268
256.785	1.77747
259.677	7.81287
262.57	0.438477
265.463	0.112305
268.356	11.4912
271.248	9.72229
274.141	42.9757
277.034	65.8809
279.926	103.569
282.819	161.156
285.712	219.21
288.604	305.496
291.497	415.834
294.39	407.635
297.283	368.493
300.175	284.418
303.068	198.978
305.961	131.761
308.853	100.198
311.746	53.9896
314.639	43.3436
317.531	32.1539
320.424	42.4926
323.317	13.5649
326.209	19.2693
329.102	0.544556
331.995	1.50305
334.888	6.95459
337.78	19.6752
340.673	20.7635
343.566	15.4769
346.458	8.96167
349.351	11.6371
352.244	13.4775
355.137	25.5456
358.029	19.0359
360.922	16.2632
363.815	6.25305
366.707	19.9534
369.6	35.1571
372.493	81.4789
375.385	95.6781
378.278	116.277
381.171	136.809
384.063	192.96
386.956	224.606
389.849	286.18
392.742	334.398
395.634	464.758
398.527	601.387
401.42	703.794
404.312	823.856
407.205	981.48
410.098	995.981
412.99	913.54
415.883	733.986
418.776	532.721
421.669	374.912
424.561	308.276
427.454	246.988
430.347	135.032
433.239	139.792
436.132	110.409
439.025	94.7188
441.918	88.8008
444.81	84.0746
447.703	76.1423
450.596	89.9639
453.488	85.2468
456.381	125.992
459.274	103.117
462.166	79.953
465.059	85.2281
467.952	54.3995
470.844	36.8503
473.737	55.4836
476.63	58.3518
479.523	71.5171
482.415	109.309
485.308	182.311
488.201	181.358
491.093	266.335
493.986	314.963
496.879	323.815
499.772	239.522
502.664	168.151
505.557	119.634
508.45	62.9468
511.342	19.3389
514.235	19.7506
517.128	7.01074
520.02	4.88647
522.913	12.6719
525.806	17.8388
528.698	6.08435
531.591	12.0327
534.484	0.489014
537.377	6.38477
540.269	24.3882
543.162	3.03284
546.055	4.55798
548.947	17.3224
551.84	6.15906
554.733	54.3926
557.625	20.5636
560.518	55.1134
563.411	36.5068
566.303	34.333
569.196	62.0663
572.089	46.0613
574.982	46.3518
577.874	48.6395
580.767	53.6528
583.66	51.8096
586.552	71.2894
589.445	95.4205
592.338	94.4775
595.231	128.819
598.123	149.883
601.016	180.76
603.909	212.416
606.801	246.552
609.694	271.51
612.587	273.326
615.479	231.329
618.372	187.161
621.265	147.659
624.158	110.476
627.05	77.5289
629.943	103.098
632.836	75.8623
635.728	40.3554
638.621	65.8825
641.514	47.1883
644.406	41.2914
647.299	35.6647
650.192	25.5362
653.085	7.91602
655.977	34.807
658.87	26.5797
661.763	31.5654
664.655	22.3798
667.548	2.79651
670.441	17.162
673.333	4.36438
676.226	3.74414
679.119	1.54633
682.011	9.33148
684.904	6.47742
687.797	1.20325
690.69	11.6526
693.582	19.7895
696.475	5.25403
699.368	35.1021
702.26	2.97046
705.153	1.28412
708.046	13.7658
710.938	12.3697
713.831	20.8513
716.724	6.37402
719.617	0.418152
722.509	9.20087
725.402	6.26202
728.295	14.243
731.187	0.555786
734.08	15.5734
736.973	4.883
739.865	12.5864
742.758	38.1822
745.651	7.27283
748.544	13.6296
751.436	25.236
754.329	5.84546
757.222	25.1191
760.114	32.7875
763.007	27.7614
765.9	0.827393
768.793	22.5283
771.685	30.5712
774.578	31.9685
777.471	27.7999
780.363	30.2783
783.256	38.1082
786.149	35.2913
789.041	44.5935
791.934	46.1165
794.827	15.9531
797.72	35.9102
800.612	33.8227
803.505	36.9289
806.398	16.6071
809.29	20.873
812.183	6.40118
815.076	12.8017
817.968	8.54157
820.861	5.59613
823.754	3.64404
826.646	10.1859
829.539	9.66138
832.432	0.655212
835.325	18.2686
838.217	16.5324
841.11	23.7693
844.003	10.314
846.895	5.80707
849.788	6.20026
852.681	26.0176
855.573	19.7375
858.466	6.17364
861.359	18.8487
864.252	35.2947
867.144	15.2689
870.037	15.3284
872.93	1.7702
875.822	4.83167
878.715	13.819
881.608	23.6022
884.5	7.63751
887.393	7.26709
890.286	20.4068
893.179	15.7407
896.071	34.1625
898.964	25.1075
901.857	33.5544
904.749	35.3752
907.642	23.1273
910.535	22.1199
913.428	36.7495
916.32	2.50238
919.213	5.03815
922.106	26.7969
924.998	20.8507
927.891	27.8899
930.784	25.734
933.676	16.7106
936.569	11.9214
939.462	24.5856
942.355	10.8172
945.247	37.0223
948.14	32.0907
951.033	37.6047
953.925	14.3595
956.818	21.1457
959.711	37.7908
962.603	16.0967
965.496	21.5987
968.389	34.3505
971.281	5.67548
974.174	1.70245
977.067	12.8293
979.96	21.7493
982.852	8.3949
985.745	18.9174
988.638	5.72473
991.53	31.1982
994.423	31.1461
997.316	26.3384
1000.21	2.27325
1003.1	9.30573
1005.99	16.2984
1008.89	20.9734
1011.78	32.6504
1014.67	25.7759
1017.57	8.14581
1020.46	19.2223
1023.35	27.0392
1026.24	31.9428
1029.13	34.8837
1032.03	26.9271
1034.92	13.5353
1037.81	22.1185
1040.71	17.067
1043.6	7.14203
1046.49	30.0053
1049.38	5.18048
1052.28	13.1979
1055.17	0.02533
1058.06	13.5212
1060.95	15.9261
1063.85	12.199
1066.74	20.0535
1069.63	12.2614
1072.53	9.34705
1075.42	16.3998
1078.31	27.5705
1081.2	9.28156
1084.1	21.6503
1086.99	50.9712
1089.88	42.1826
1092.78	28.8542
1095.67	39.053
1098.56	17.4352
1101.45	43.5519
1104.35	28.8033
1107.24	38.9352
1110.13	35.5074
1113.02	47.9224
1115.92	24.3142
1118.81	44.3805
1121.7	32.4696
1124.59	16.6789
1127.49	47.123
1130.38	43.4217
1133.27	30.0557
1136.16	41.4441
1139.06	41.4061
1141.95	18.2895
1144.84	23.9496
1147.74	19.8873
1150.63	22.7402
1153.52	26.1392
1156.41	28.942
1159.31	21.3027
1162.2	18.5739
1165.09	4.57062
1167.98	11.0063
1170.88	22.3578
1173.77	15.0519
1176.66	10.0242
1179.56	14.8172
1182.45	5.0343
1185.34	19.3419
1188.23	22.4581
1191.13	11.853
1194.02	1.44452
1196.91	19.9542
1199.81	34.9282
1202.7	5.31372
1205.59	36.0659
1208.48	20.3152
1211.38	10.8286
1214.27	18.9367
1217.16	16.8101
1220.05	24.4243
1222.95	29.0283
1225.84	18.0295
1228.73	43.4265
1231.62	13.8983
1234.52	29.3293
1237.41	36.3407
1240.3	30.686
1243.19	7.42664
1246.09	0
