Measurement: Raman, 532 nm, unoriented, Raman Data Processed
Mineral: Heulandite-Ca
Rruff sample: R050647
Ideal chemistry: (Ca,Na,K)_5_(Si_27_Al_9_)O_72_26H_2_O
Locality: Rat's Nest Claim, Custer County, Idaho, USA
Source: John Cornish
Description: Pink anhedral grains
Measured chemistry: (Ca_0.69_Na_0.25_K_0.06_)_5_(Si_0.80_Al_0.20_)_36_O_72_Â·24H_2_O
Raman shift (cm-1)	intensity
163.161	0
166.054	9.99951
168.946	76.8643
171.839	113.629
174.732	143.424
177.624	179.367
180.517	223.527
183.41	188.423
186.302	324.437
189.195	358.269
192.088	455.282
194.981	363.402
197.873	398.796
200.766	371.949
203.659	319.021
206.551	269.944
209.444	173.922
212.337	136.971
215.229	133.148
218.122	152.659
221.015	54.4307
223.907	162.984
226.8	52.9844
229.693	7.93555
232.586	23.2617
235.478	30.749
238.371	89.6055
241.264	148.773
244.156	76.3291
247.049	19.4053
249.942	157.649
252.834	60.4541
255.727	84.0078
258.62	142.708
261.513	179.63
264.405	122.87
267.298	150.446
270.191	107.862
273.083	112.845
275.976	71.9463
278.869	148.036
281.762	155.665
284.654	110.574
287.547	199.998
290.44	103.266
293.332	160.66
296.225	70.1475
299.118	99.6074
302.01	89.6894
304.903	50.3027
307.796	6.03711
310.689	87.3398
313.581	49.5918
316.474	63.3477
319.367	50.5918
322.259	44.7852
325.152	52.3545
328.045	76.4893
330.938	10.6807
333.83	76.0879
336.723	37.0547
339.616	128.602
342.508	6.09766
345.401	82.4424
348.294	101.276
351.186	195.269
354.079	179.683
356.972	158.836
359.865	216.901
362.757	265.474
365.65	388.788
368.543	381.557
371.435	458.353
374.328	568.488
377.221	621.512
380.113	764.256
383.006	793.495
385.899	947.174
388.791	1201.8
391.684	1540.11
394.577	1703.86
397.47	1914.72
400.362	2053.36
403.255	1866.57
406.148	1736.78
409.04	1558.14
411.933	1237
414.826	1062.91
417.719	815.713
420.611	689.312
423.504	497.519
426.397	404.217
429.289	358.107
432.182	91.1504
435.075	167.712
437.967	78.7969
440.86	87.6348
443.753	28.0225
446.646	14.584
449.538	187.549
452.431	231.546
455.324	429.56
458.216	403.127
461.109	531.845
464.002	553.992
466.894	650.135
469.787	821.176
472.68	968.364
475.572	1212.87
478.465	1382.76
481.358	1494.11
484.251	1265.87
487.143	1088.99
490.036	769.894
492.929	549.757
495.822	378.762
498.714	287.591
501.607	112.344
504.5	127.769
507.392	46.8809
510.285	49.8135
513.178	46.581
516.07	29.3604
518.963	5.43262
521.856	5.29394
524.749	70.041
527.641	23.5693
530.534	117.874
533.427	45.4844
536.319	104.991
539.212	2.72559
542.105	102.157
544.997	35.6084
547.89	170.139
550.783	91.9375
553.676	84.6602
556.568	171.992
559.461	98.7715
562.354	126.385
565.246	50.7227
568.139	42.7598
571.032	35.3438
573.924	145.535
576.817	186.31
579.71	30.7578
582.602	3.50293
585.495	163.761
588.388	101.737
591.281	163.631
594.173	273.312
597.066	215.613
599.959	328.863
602.851	297.896
605.744	386.533
608.637	287.356
611.529	433.095
614.422	351.748
617.315	383.744
620.208	264.632
623.1	141.776
625.993	271.283
628.886	183.685
631.778	25.8184
634.671	145.536
637.564	83.6377
640.457	179.103
643.349	183.785
646.242	121.117
649.135	199.264
652.027	209.207
654.92	131.625
657.813	83.1113
660.705	152.211
663.598	64.7969
666.491	8.08008
669.384	54.9902
672.276	85.082
675.169	135.797
678.062	102.127
680.954	6.93359
683.847	164.557
686.74	25.0566
689.632	64.9004
692.525	90.2793
695.418	23.4492
698.311	21.709
701.203	107.307
704.096	117.676
706.989	0.421875
709.881	119.338
712.774	15.9453
715.667	95.043
718.559	103.205
721.452	23.6426
724.345	45.8945
727.237	107.619
730.13	36.6797
733.023	95.5293
735.916	10.4395
738.808	6.50391
741.701	135.394
744.594	78.0155
747.486	66.221
750.379	88.9192
753.272	72.937
756.165	108.955
759.057	96.3721
761.95	127.66
764.843	164.791
767.735	430.6
770.628	155.793
773.521	156.467
776.413	125.84
779.306	125.769
782.199	38.0254
785.092	271.066
787.984	121.748
790.877	170.199
793.77	134.565
796.662	156.428
799.555	73.6367
802.448	30.7637
805.341	166.381
808.233	108.443
811.126	129.6
814.019	65.6074
816.911	121.57
819.804	91.6133
822.697	177.516
825.589	40.873
828.482	116.879
831.375	108.748
834.268	127.1
837.16	189.178
840.053	24.7031
842.946	138.402
845.838	31.3848
848.731	137.738
851.624	178.115
854.516	297.625
857.409	217.957
860.302	300.344
863.194	132.356
866.087	127.32
868.98	218.772
871.873	112.287
874.765	151.547
877.658	159.717
880.551	222.141
883.443	123.059
886.336	13.8496
889.229	55.332
892.122	118.258
895.014	52.9434
897.907	27.6465
900.8	57.334
903.692	117.477
906.585	157.006
909.478	99.5293
912.37	39.0156
915.263	30.0566
918.156	125.398
921.049	152.547
923.941	139.17
926.834	27.1426
929.727	1.50586
932.619	88.3144
935.512	185.725
938.405	117.615
941.298	161.213
944.19	122.416
947.083	162.734
949.976	309.58
952.868	83.625
955.761	112.531
958.654	26.3496
961.546	85.8906
964.439	122.027
967.332	0.648438
970.225	119.613
973.117	89.9121
976.01	332.977
978.903	173.781
981.795	92.0859
984.688	105.65
987.581	140.297
990.473	96.4062
993.366	109.398
996.259	79.8438
999.152	67.5566
1002.04	85.9785
1004.94	142.641
1007.83	255.625
1010.72	142.555
1013.62	211.188
1016.51	114.762
1019.4	134.422
1022.29	203.748
1025.19	150.514
1028.08	139.365
1030.97	74.4941
1033.86	95.0332
1036.76	37.9414
1039.65	8.10938
1042.54	239.826
1045.43	47.7305
1048.33	98.4961
1051.22	88.4981
1054.11	177.92
1057.01	74.3555
1059.9	14.8809
1062.79	93.0664
1065.68	147.432
1068.58	30.1738
1071.47	18.043
1074.36	8.28516
1077.25	125.422
1080.15	105.74
1083.04	55.0391
1085.93	31.2617
1088.83	119.049
1091.72	78.0137
1094.61	319.49
1097.5	206.076
1100.4	159.621
1103.29	164.445
1106.18	151.148
1109.07	208.707
1111.97	223.803
1114.86	146.871
1117.75	269.324
1120.64	191.404
1123.54	151.791
1126.43	311.115
1129.32	211.674
1132.22	260.109
1135.11	191.469
1138	157.082
1140.89	83.4121
1143.79	170.051
1146.68	244.184
1149.57	262.041
1152.46	154.455
1155.36	257.353
1158.25	233.859
1161.14	159.336
1164.04	35.4609
1166.93	131.084
1169.82	72.8144
1172.71	86.4062
1175.61	78.3731
1178.5	96.7461
1181.39	77.7832
1184.28	263.103
1187.18	56.8125
1190.07	47.5781
1192.96	58.0449
1195.86	12.4766
1198.75	129.965
1201.64	177.643
1204.53	44.6816
1207.43	61.7793
1210.32	90.6328
1213.21	173.06
1216.1	69.4707
1219	13.4414
1221.89	76.9238
1224.78	134.508
1227.67	125.137
1230.57	101.463
1233.46	29.9355
1236.35	62.3633
1239.25	90.2734
1242.14	21.9531
1245.03	60.1309
1247.92	164.611
1250.82	194.541
1253.71	138.701
1256.6	24.3359
1259.49	132.154
1262.39	30.5703
1265.28	173.537
1268.17	221.221
1271.07	206.346
1273.96	162.393
1276.85	66.3418
1279.74	83.0957
1282.64	91.5234
1285.53	109.232
1288.42	211.387
1291.31	188.924
1294.21	201.543
1297.1	44.8887
1299.99	113.826
1302.88	111.043
1305.78	29.1191
