Measurement: Raman, 785 nm, unoriented, Raman Data Processed
Mineral: Heulandite-Ca
Rruff sample: R050647
Ideal chemistry: (Ca,Na,K)_5_(Si_27_Al_9_)O_72_26H_2_O
Locality: Rat's Nest Claim, Custer County, Idaho, USA
Source: John Cornish
Description: Pink anhedral grains
Measured chemistry: (Ca_0.69_Na_0.25_K_0.06_)_5_(Si_0.80_Al_0.20_)_36_O_72_Â·24H_2_O
Raman shift (cm-1)	intensity
185.633	0
188.525	16.8628
191.418	60.7114
194.311	65.333
197.204	136.599
200.096	152.512
202.989	208.309
205.882	142.769
208.774	109.291
211.667	80.4341
214.56	3.38379
217.452	17.6606
220.345	7.08447
223.238	11.4453
226.131	55.6426
229.023	8.58594
231.916	50.7109
234.809	9.5498
237.701	71.2046
240.594	103.67
243.487	115.498
246.38	191.655
249.272	163.819
252.165	164.938
255.058	87.4282
257.95	148.69
260.843	163.482
263.736	153.46
266.628	231.182
269.521	189.231
272.414	166.663
275.307	68.9175
278.199	65.9053
281.092	70.7324
283.985	48.7261
286.877	100.332
289.77	119.692
292.663	125.088
295.555	93.437
298.448	3.54736
301.341	65.9351
304.233	34.2847
307.126	40.2773
310.019	3.20947
312.912	86.0186
315.804	48.3799
318.697	63.0835
321.59	61.6753
324.482	13.0361
327.375	68.5581
330.268	122.443
333.161	61.395
336.053	88.8809
338.946	73.8745
341.839	22.6963
344.731	20.2197
347.624	54.0312
350.517	88.4419
353.409	169.585
356.302	176.684
359.195	293.402
362.087	249.81
364.98	302.829
367.873	394.289
370.766	394.541
373.658	507.142
376.551	623.053
379.444	729.169
382.336	754.369
385.229	950.072
388.122	1169.8
391.014	1370.88
393.907	1542.43
396.8	1837.71
399.693	2141.55
402.585	2196.86
405.478	2137.22
408.371	2002.67
411.263	1704.41
414.156	1429.45
417.049	1112.29
419.942	921.689
422.834	692.564
425.727	467.653
428.62	306.319
431.512	165.546
434.405	133.644
437.298	31.6523
440.19	10.7534
443.083	34.3384
445.976	20.1855
448.868	12.9473
451.761	48.7315
454.654	144.06
457.547	224.559
460.439	327.166
463.332	448.569
466.225	597.937
469.117	717.879
472.01	810.714
474.903	1038.49
477.796	1178.98
480.688	1388.87
483.581	1494.59
486.474	1348.52
489.366	1151.31
492.259	858.408
495.152	574.094
498.044	375.48
500.937	277.183
503.83	110.975
506.723	91.5503
509.615	78.2993
512.508	12.2344
515.401	28.0801
518.293	87.9253
521.186	5.59473
524.079	9.75977
526.971	45.0498
529.864	5.12793
532.757	16.9199
535.649	8.604
538.542	33.8931
541.435	47.0523
544.328	99.2026
547.22	63.5239
550.113	40.6211
553.006	19.0752
555.898	20.2793
558.791	62.271
561.684	8.62305
564.577	75.2246
567.469	146.862
570.362	27.6328
573.255	85.6841
576.147	81.792
579.04	45.9277
581.933	51.1714
584.825	60.5762
587.718	119.432
590.611	121.323
593.504	71.4106
596.396	138.723
599.289	157.815
602.182	122.267
605.074	312.991
607.967	243.807
610.86	317.569
613.752	369.789
616.645	318.589
619.538	324.312
622.431	155.933
625.323	166.38
628.216	166.889
631.109	218.415
634.001	134.127
636.894	83.4077
639.787	70.541
642.679	18.5366
645.572	50.6455
648.465	36.1812
651.357	66.0327
654.25	73.1294
657.143	62.7905
660.036	34.1851
662.928	2.08154
665.821	27.6724
668.714	16.373
671.606	95.293
674.499	19.9858
677.392	44.3833
680.284	35.8252
683.177	61.2349
686.07	127.957
688.963	16.314
691.855	81.5903
694.748	75.9878
697.641	123.758
700.533	93.5933
703.426	99.5864
706.319	167.243
709.212	180.497
712.104	196.36
714.997	202.275
717.89	90.3672
720.782	82.7695
723.675	86.168
726.568	77.3379
729.46	81.7876
732.353	64.8511
735.246	67.6021
738.139	13.251
741.031	81.1016
743.924	19.7686
746.817	38.8315
749.709	11.6851
752.602	19.2227
755.495	0.144531
758.387	16.7368
761.28	22.9087
764.173	55.7812
767.066	23.0542
769.958	52.6943
772.851	111.889
775.744	76.8457
778.636	119.543
781.529	57.5474
784.422	49.0415
787.314	86.7866
790.207	111.863
793.1	110.776
795.992	96.2398
798.885	116.572
801.778	97.438
804.671	33.4805
807.563	80.0186
810.456	102.995
813.349	52.1631
816.241	57.0903
819.134	81.582
822.027	64.8164
824.919	100.918
827.812	73.3413
830.705	11.4404
833.598	5.26074
836.49	15.8848
839.383	23.645
842.276	101.751
845.168	4.38379
848.061	71.8613
850.954	6.22607
853.846	86.0762
856.739	97.856
859.632	92.7681
862.525	156.17
865.417	42.2231
868.31	46.1714
871.203	102.377
874.095	70.0874
876.988	77.043
879.881	62.0513
882.774	24.5879
885.666	63.728
888.559	105.627
891.452	116.814
894.344	29.023
897.237	51.8145
900.13	111.312
903.022	16.1675
905.915	63.581
908.808	38.5625
911.701	57.7705
914.593	61.5029
917.486	42.1655
920.379	68.1387
923.271	46.1577
926.164	76.3057
929.057	54.6426
931.949	67.5147
934.842	6.35547
937.735	61.3355
940.628	56.5601
943.52	51.436
946.413	65.3731
949.306	32.0239
952.198	90.5107
955.091	18.9204
957.984	171.144
960.876	23.4297
963.769	35.9751
966.662	79.3125
969.554	63.9443
972.447	43.4072
975.34	67.8091
978.233	30.6314
981.125	107.469
984.018	84.2944
986.911	83.8726
989.803	113.676
992.696	93.8144
995.589	69.3784
998.481	27.5552
1001.37	57.7124
1004.27	38.644
1007.16	84.0269
1010.05	9.72021
1012.95	36.1699
1015.84	100.172
1018.73	81.8574
1021.62	130.181
1024.52	52.77
1027.41	80.4072
1030.3	1.74365
1033.19	40.9121
1036.09	22.8232
1038.98	100.193
1041.87	66.8154
1044.77	63.1773
1047.66	21.9126
1050.55	30.4326
1053.44	62.6074
1056.34	51.4937
1059.23	100.356
1062.12	10.4868
1065.01	29.4619
1067.91	95.0537
1070.8	59.8272
1073.69	44.0923
1076.58	13.0674
1079.48	100.098
1082.37	59.6977
1085.26	46.5488
1088.15	9.03613
1091.05	117.777
1093.94	39.9312
1096.83	26.48
1099.73	38.7988
1102.62	75.1797
1105.51	37.898
1108.4	120.015
1111.3	100.975
1114.19	122.516
1117.08	134.349
1119.97	78.4404
1122.87	82.8784
1125.76	113.504
1128.65	154.958
1131.55	182.867
1134.44	93.335
1137.33	84.3638
1140.22	147.064
1143.12	20.9087
1146.01	143.902
1148.9	90.9946
1151.8	99.4336
1154.69	91.3755
1157.58	83.5244
1160.47	116.251
1163.37	150.794
1166.26	99.4219
1169.15	160.15
1172.04	108.893
1174.94	81.7363
1177.83	73.0606
1180.72	119.28
1183.61	153.707
1186.51	58.5698
1189.4	77.9023
1192.29	67.2563
1195.18	75.1636
1198.08	84.3726
1200.97	63.9233
1203.86	52.2959
1206.76	43.1294
1209.65	10.6733
1212.54	2.49951
1215.43	2.66992
1218.33	140.437
1221.22	143.25
1224.11	102.192
1227.01	39.7105
1229.9	9.4375
1232.79	5.74561
