Measurement: Raman, 785 nm, unoriented, Raman Data Processed
Mineral: Hewettite
Rruff sample: R070428
Ideal chemistry: CaV^5+^_6_O_16_9H_2_O
Locality: Gold Quarry mine (Maggie claims), Maggie Creek District, Eureka County, Nevada, USA
Source: Michael Scott
Description: Coating of reddish brown fibers
Raman shift (cm-1)	intensity
162.491	0
165.384	28.2971
168.277	59.7436
171.169	40.7136
174.062	35.9834
176.955	36.5848
179.847	39.3638
182.74	22.3292
185.633	25.0037
188.525	25.4797
191.418	65.8063
194.311	63.0344
197.204	87.7103
200.096	70.22
202.989	81.7909
205.882	34.9243
208.774	77.4072
211.667	36.6289
214.56	72.8044
217.452	79.6143
220.345	77.4404
223.238	96.2295
226.131	178.08
229.023	122.061
231.916	176.392
234.809	148.423
237.701	140.925
240.594	94.9285
243.487	116.818
246.38	236.304
249.272	221.864
252.165	260.685
255.058	365.301
257.95	361.222
260.843	477.607
263.736	542.412
266.628	485.19
269.521	446.952
272.414	380.769
275.307	422.269
278.199	463.252
281.092	581.958
283.985	643.669
286.877	709.105
289.77	684.081
292.663	731.011
295.555	615.909
298.448	426.568
301.341	387.755
304.233	259.694
307.126	226.893
310.019	212.719
312.912	173.3
315.804	181.982
318.697	140.353
321.59	157.731
324.482	203.077
327.375	141.019
330.268	128.324
333.161	137.021
336.053	81.8048
338.946	39.0109
341.839	52.6086
344.731	63.3738
347.624	7.82251
350.517	22.373
353.409	10.3024
356.302	19.3137
359.195	19.6135
362.087	19.2728
364.98	6.94995
367.873	4.08423
370.766	16.5043
373.658	37.1893
376.551	67.261
379.444	21.4426
382.336	30.4271
385.229	40.1291
388.122	29.2545
391.014	54.1687
393.907	58.2966
396.8	48.4304
399.693	64.2814
402.585	31.3099
405.478	2.1485
408.371	29.6553
411.263	88.5084
414.156	58.5967
417.049	39.9802
419.942	4.27533
422.834	19.3016
425.727	25.8173
428.62	59.7379
431.512	30.6754
434.405	53.7428
437.298	19.597
440.19	29.0749
443.083	37.8998
445.976	34.364
448.868	40.1048
451.761	62.2833
454.654	111.672
457.547	114.47
460.439	147.404
463.332	158.502
466.225	153.54
469.117	116.66
472.01	163.193
474.903	169.107
477.796	126.888
480.688	139.515
483.581	106.504
486.474	81.1694
489.366	82.1072
492.259	51.5532
495.152	42.1188
498.044	70.6766
500.937	23.3761
503.83	45.4415
506.723	30.204
509.615	28.3385
512.508	56.9356
515.401	143.25
518.293	121.079
521.186	196.447
524.079	124.566
526.971	179.315
529.864	90.6097
532.757	167.103
535.649	159.761
538.542	164.952
541.435	197.854
544.328	159.125
547.22	102.94
550.113	77.0399
553.006	95.2208
555.898	129.933
558.791	128.283
561.684	66.3309
564.577	81.7116
567.469	85.7319
570.362	67.1263
573.255	76.2812
576.147	74.6057
579.04	74.7836
581.933	49.0752
584.825	6.4458
587.718	62.4715
590.611	39.1235
593.504	29.6504
596.396	0.374329
599.289	33.1137
602.182	10.3662
605.074	34.9442
607.967	48.0919
610.86	14.0631
613.752	32.9423
616.645	17.0991
619.538	105.38
622.431	11.1129
625.323	11.4109
628.216	31.3916
631.109	11.1218
634.001	32.8336
636.894	21.6149
639.787	1.91949
642.679	29.5685
645.572	41.9805
648.465	49.0385
651.357	70.1204
654.25	90.1238
657.143	37.2685
660.036	54.9282
662.928	91.9176
665.821	117.111
668.714	54.8398
671.606	127.844
674.499	102.174
677.392	96.9853
680.284	94.2214
683.177	113.42
686.07	122.687
688.963	64.9028
691.855	37.113
694.748	70.7196
697.641	4.33984
700.533	34.8728
703.426	25.1068
706.319	42.0076
709.212	19.7094
712.104	25.4847
714.997	53.2672
717.89	76.7488
720.782	124.291
723.675	182.573
726.568	171.709
729.46	198.238
732.353	165.076
735.246	181.605
738.139	180.13
741.031	132.675
743.924	147.12
746.817	90.6875
749.709	93.7064
752.602	112.266
755.495	117.448
758.387	172.945
761.28	125.772
764.173	147.28
767.066	200.559
769.958	178.165
772.851	182.298
775.744	97.6246
778.636	200.317
781.529	142.05
784.422	203.868
787.314	185.441
790.207	70.1019
793.1	151.371
795.992	86.345
798.885	55.898
801.778	85.3352
804.671	67.8383
807.563	107.48
810.456	126.154
813.349	72.9036
816.241	133.934
819.134	13.4509
822.027	48.0075
824.919	87.6479
827.812	44.5065
830.705	52.6678
833.598	25.6518
836.49	8.06451
839.383	2.81763
842.276	12.9708
845.168	22.3777
848.061	42.035
850.954	35.3262
853.846	30.1248
856.739	91.2324
859.632	15.473
862.525	7.68811
865.417	55.3876
868.31	9.25146
871.203	15.3434
874.095	29.4678
876.988	20.5359
879.881	29.4689
882.774	20.0263
885.666	6.23187
888.559	42.2623
891.452	73.6158
894.344	103.341
897.237	29.9032
900.13	15.7612
903.022	26.3075
905.915	35.4783
908.808	89.3044
911.701	114.904
914.593	35.5423
917.486	1.82477
920.379	28.4104
923.271	52.6647
926.164	87.3257
929.057	97.3911
931.949	73.6387
934.842	20.0617
937.735	76.0887
940.628	73.4557
943.52	102.617
946.413	92.7258
949.306	81.2559
952.198	141.864
955.091	84.5555
957.984	125.206
960.876	136.423
963.769	183.633
966.662	110.89
969.554	153.851
972.447	108.983
975.34	159.473
978.233	133.72
981.125	241.835
984.018	230.324
986.911	290.202
989.803	321.861
992.696	316.363
995.589	327.548
998.481	218.033
1001.37	167.606
1004.27	65.3975
1007.16	52.4113
1010.05	11.9108
1012.95	30.4855
1015.84	71.2053
1018.73	55.4921
1021.62	28.6682
1024.52	8.45605
1027.41	45.5693
1030.3	34.0602
1033.19	34.7236
1036.09	22.2703
1038.98	88.5204
1041.87	43.5443
1044.77	50.9523
1047.66	28.9869
1050.55	83.2943
1053.44	14.8651
1056.34	80.3664
1059.23	90.5419
1062.12	83.0893
1065.01	85.9753
1067.91	61.7663
1070.8	38.0284
1073.69	18.8394
1076.58	54.6442
1079.48	120.764
1082.37	58.2174
1085.26	101.972
1088.15	87.9318
1091.05	35.0899
1093.94	84.3151
1096.83	1.21716
1099.73	87.0024
1102.62	66.4068
1105.51	41.4271
1108.4	33.2717
1111.3	42.1647
1114.19	66.8593
1117.08	100.76
1119.97	74.207
1122.87	65.6025
1125.76	35.2149
1128.65	79.2202
1131.55	51.2508
1134.44	50.7787
1137.33	84.2446
1140.22	41.8946
1143.12	6.02026
1146.01	28.4774
1148.9	79.5606
1151.8	49.7822
1154.69	17.349
1157.58	48.6707
1160.47	58.0061
1163.37	45.3823
1166.26	90.7875
1169.15	0.925903
1172.04	89.9339
1174.94	31.3677
1177.83	34.936
1180.72	76.072
1183.61	-10.1543
1186.51	36.4333
1189.4	49.8541
1192.29	74.0376
1195.18	46.7386
1198.08	64.8542
1200.97	41.6837
1203.86	78.3984
1206.76	0.186951
1209.65	59.9769
1212.54	33.0477
1215.43	88.7685
1218.33	103.997
1221.22	15.086
1224.11	60.805
1227.01	87.6523
1229.9	10.0749
1232.79	108.328
1235.68	109.197
1238.58	50.0891
1241.47	15.3135
