Measurement: Raman, 532 nm, unoriented, Raman Data Processed
Mineral: Hewettite
Rruff sample: R070428
Ideal chemistry: CaV^5+^_6_O_16_9H_2_O
Locality: Gold Quarry mine (Maggie claims), Maggie Creek District, Eureka County, Nevada, USA
Source: Michael Scott
Description: Coating of reddish brown fibers
Raman shift (cm-1)	intensity
169.208	0
172.1	21.9381
174.993	9.776
177.886	52.1818
180.778	18.9031
183.671	20.2578
186.564	1.9762
189.456	10.8931
192.349	20.8712
195.242	45.4762
198.135	44.392
201.027	83.1809
203.92	94.7842
206.813	21.2864
209.705	66.215
212.598	53.9045
215.491	37.1736
218.383	88.2705
221.276	68.2969
224.169	45.2258
227.061	85.444
229.954	91.2665
232.847	82.2545
235.74	107.342
238.632	129.266
241.525	122.165
244.418	168.161
247.31	141.645
250.203	147.706
253.096	150.118
255.988	176.464
258.881	135.43
261.774	169.851
264.667	126.696
267.559	127.806
270.452	137.052
273.345	157.413
276.237	150.662
279.13	202.06
282.023	193.436
284.916	189.342
287.808	192.411
290.701	227.589
293.594	276.223
296.486	280.87
299.379	246.122
302.272	254.933
305.164	199.243
308.057	252.079
310.95	265.668
313.843	270.049
316.735	254.654
319.628	244.74
322.521	303.283
325.413	268.532
328.306	245.208
331.199	193.306
334.091	228.33
336.984	176.625
339.877	160.154
342.77	126.277
345.662	78.2373
348.555	52.5087
351.448	3.1947
354.34	14.4204
357.233	4.60205
360.126	16.928
363.019	37.0796
365.911	4.60669
368.804	3.79333
371.697	32.8923
374.589	34.8379
377.482	31.4979
380.375	73.866
383.267	9.55078
386.16	19.9736
389.053	12.9883
391.945	9.2279
394.838	3.92969
397.731	31.1713
400.624	30.083
403.516	13.5467
406.409	25.8192
409.302	11.0822
412.194	20.2082
415.087	19.2146
417.98	51.5627
420.873	14.5679
423.765	37.5087
426.658	67.47
429.551	64.9768
432.443	80.0535
435.336	78.3892
438.229	89.0787
441.121	104.485
444.014	103.163
446.907	98.4091
449.8	91.6229
452.692	103.446
455.585	123.404
458.478	84.7139
461.37	113.296
464.263	170.599
467.156	160.691
470.048	207.269
472.941	198.967
475.834	192.369
478.726	160.226
481.619	168.162
484.512	122.564
487.405	132.752
490.297	65.3227
493.19	59.2961
496.083	96.9773
498.975	43.5137
501.868	54.7854
504.761	65.6834
507.654	20.3061
510.546	26.5151
513.439	5.22656
516.332	24.7781
519.224	10.2515
522.117	6.40601
525.01	5.18945
527.903	42.2842
530.795	56.7361
533.688	32.9934
536.581	12.6182
539.473	10.6108
542.366	10.9287
545.259	7.47925
548.151	13.4307
551.044	47.2778
553.937	26.6689
556.83	49.1121
559.722	82.2625
562.615	30.3269
565.508	76.8875
568.4	16.084
571.293	20.8269
574.186	0.161865
577.078	72.8721
579.971	30.7275
582.864	74.7063
585.756	45.2778
588.649	12.1738
591.542	40.0442
594.435	14.9451
597.327	54.4282
600.22	30.0376
603.113	54.5034
606.005	27.8665
608.898	71.4043
611.791	31.7834
614.683	51.6411
617.576	18.2671
620.469	57.7188
623.362	57.7393
626.254	63.8625
629.147	74.4907
632.04	16.0513
634.932	7.54761
637.825	25.1824
640.718	51.4727
643.611	35.7964
646.503	97.677
649.396	42.8977
652.289	39.8774
655.181	11.623
658.074	5.5481
660.967	56.9893
663.859	39.6829
666.752	31.0566
669.645	23.8789
672.538	77.5166
675.43	35.5256
678.323	44.5425
681.216	47.0508
684.108	63.3076
687.001	63.4853
689.894	13.4609
692.786	13.5491
695.679	7.36719
698.572	33.5012
701.465	18.7927
704.357	30.2642
707.25	2.27832
710.143	6.86841
713.035	45.096
715.928	137.013
718.821	90.4868
721.713	135.261
724.606	179.233
727.499	193.169
730.391	260.125
733.284	313.604
736.177	270.219
739.07	311.736
741.962	327.505
744.855	378.07
747.748	412.269
750.64	406.875
753.533	443.784
756.426	404.299
759.318	423.676
762.211	452.133
765.104	442.281
767.997	381.41
770.889	381.916
773.782	331.283
776.675	356.519
779.567	297.745
782.46	286.753
785.353	253.014
788.245	221.661
791.138	223.027
794.031	196.209
796.924	124.422
799.816	116.638
802.709	94.0083
805.602	103.15
808.494	64.0535
811.387	58.1733
814.28	107.395
817.173	22.7605
820.065	49.0715
822.958	74.4031
825.851	35.292
828.743	22.0298
831.636	36.2625
834.529	24.3677
837.421	13.5286
840.314	7.74439
843.207	22.5671
846.1	26.552
848.992	2.02783
851.885	30.6113
854.778	2.68262
857.67	8.68726
860.563	13.7585
863.456	11.4102
866.348	6.75757
869.241	23.5955
872.134	1.52515
875.027	46.5478
877.919	53.2395
880.812	1.83423
883.705	45.6519
886.597	29.7939
889.49	34.2852
892.383	30.8564
895.275	44.3101
898.168	5.19153
901.061	37.1467
903.954	43.6277
906.846	73.8966
909.739	70.4412
912.632	72.7976
915.524	15.2692
918.417	49.3063
921.31	21.1099
924.202	43.1805
927.095	46.3419
929.988	78.8169
932.881	4.22717
935.773	46.8904
938.666	21.6108
941.559	28.8988
944.451	23.7495
947.344	34.6065
950.237	25.9254
953.13	48.0503
956.022	38.4977
958.915	41.8247
961.808	33.2784
964.7	2.97022
967.593	70.9949
970.486	66.0552
973.378	28.5839
976.271	70.806
979.164	41.7623
982.057	47.6205
984.949	100.013
987.842	88.2189
990.735	122.931
993.627	132.489
996.52	99.7473
999.413	112.794
1002.3	59.8628
1005.2	23.1868
1008.09	21.9329
1010.98	1.81726
1013.88	33.1777
1016.77	56.5996
1019.66	25.9507
1022.55	21.3785
1025.45	47.0282
1028.34	23.662
1031.23	24.6825
1034.12	4.26184
1037.02	37.831
1039.91	40.58
1042.8	34.168
1045.7	1.07397
1048.59	25.7852
1051.48	31.3433
1054.37	49.489
1057.27	33.0778
1060.16	8.41455
1063.05	49.2583
1065.94	47.7921
1068.84	2.15234
1071.73	64.6676
1074.62	48.8716
1077.52	19.6384
1080.41	27.5763
1083.3	49.9258
1086.19	57.0344
1089.09	37.0333
1091.98	13.0221
1094.87	24.6854
1097.77	27.5681
1100.66	42.6185
1103.55	13.6829
1106.44	49.0509
1109.34	50.9303
1112.23	24.3113
1115.12	35.9712
1118.01	55.4932
1120.91	14.7056
1123.8	42.9648
1126.69	44.3751
1129.58	4.41309
1132.48	67.2507
1135.37	59.0227
1138.26	49.9836
1141.15	27.1793
1144.05	52.3513
1146.94	6.43689
1149.83	38.5406
1152.73	35.2451
1155.62	41.2173
1158.51	46.8173
1161.4	20.5703
1164.3	88.4019
1167.19	26.1576
1170.08	35.6638
1172.97	27.2533
1175.87	34.2988
1178.76	2.84412
1181.65	36.7636
1184.55	32.983
1187.44	47.4636
1190.33	55.2794
1193.22	28.3865
1196.12	43.0977
1199.01	64.5958
1201.9	9.60596
1204.8	71.0459
1207.69	7.28406
1210.58	35.4137
1213.47	1.90417
1216.37	36.9719
1219.26	36.7264
1222.15	27.0132
1225.04	33.3981
1227.94	16.7207
1230.83	2.98596
1233.72	56.9958
1236.61	39.5161
1239.51	38.6997
1242.4	58.616
1245.29	42.7811
1248.18	23.39
1251.08	33.8065
1253.97	23.4386
1256.86	36.7184
1259.76	10.9868
1262.65	25.0748
1265.54	26.191
1268.43	45.2267
1271.33	79.7812
1274.22	89.8335
1277.11	62.453
1280.01	48.5168
1282.9	60.129
1285.79	48.5521
1288.68	44.2128
1291.58	52.6357
1294.47	49.2256
1297.36	21.536
1300.25	43.6
1303.15	10.79
1306.04	67.4713
1308.93	31.0427
1311.82	30.1227
1314.72	7.1582
1317.61	0
