Measurement: Raman, 532 nm, unoriented, Raman Data Processed
Mineral: Hilairite
Rruff sample: R080098
Ideal chemistry: Na_2_Zr^4+^Si_3_O_9_3H_2_O
Locality: St. Hilaire, Quebec, Canada
Source: William W. Pinch
Description: Pale orange rhombohedral crystals associated with calcite
Raman shift (cm-1)	intensity
150.208	0
153.1	30.2725
155.993	97.8496
158.886	81.2471
161.778	64.4609
164.671	97.6582
167.564	111.603
170.456	138.438
173.349	120.188
176.242	110.725
179.135	115.868
182.027	93.3174
184.92	80.0781
187.813	50.3633
190.705	46.167
193.598	25.9248
196.491	3.25098
199.383	2.70898
202.276	0.53125
205.169	22.709
208.061	1.79492
210.954	6.85059
213.847	21.9509
216.74	18.3111
219.632	27.1119
222.525	24.2853
225.418	32.3418
228.31	17.1055
231.203	23.8809
234.096	39.167
236.988	44.7275
239.881	27.043
242.774	47.4746
245.667	67.6475
248.559	74.4053
251.452	104.856
254.345	122.622
257.237	140.051
260.13	115.84
263.023	96.8066
265.916	128.7
268.808	165.055
271.701	144.245
274.594	221.352
277.486	243.315
280.379	238.108
283.272	225.719
286.164	180.023
289.057	188.793
291.95	203.12
294.842	155.819
297.735	143.999
300.628	196.666
303.521	197.234
306.413	222.096
309.306	189.038
312.199	151.529
315.091	189.912
317.984	221.817
320.877	203.833
323.769	180.79
326.662	179.622
329.555	170.391
332.448	167.064
335.34	116.292
338.233	101.631
341.126	69.7822
344.018	0.306641
346.911	0.446289
349.804	11.4233
352.697	-4.94766
355.589	9.72399
358.482	18.5789
361.375	-0.8957
364.267	12.7611
367.16	9.82129
370.053	18.038
372.945	7.20312
375.838	10.8457
378.731	10.0994
381.623	0.0877401
384.516	2.51667
387.409	8.23624
390.302	17.503
393.194	16.8672
396.087	5.4707
398.98	13.4229
401.872	32.5576
404.765	25.8477
407.658	32.0586
410.55	38.9209
413.443	30.9004
416.336	45.2188
419.229	60.9053
422.121	64.2822
425.014	57.3148
427.907	52.4631
430.799	69.6826
433.692	66.8779
436.585	61.8643
439.478	72.5112
442.37	53.6877
445.263	55.0488
448.156	54.9717
451.048	82.9004
453.941	72.1885
456.834	55.1719
459.726	43.4893
462.619	31.2344
465.512	21.7783
468.404	10.7549
471.297	3.09473
474.19	10.1709
477.083	18.7617
479.975	5.27637
482.868	33.6992
485.761	41
488.653	20.9648
491.546	44.8252
494.439	59.0225
497.332	113.775
500.224	139.589
503.117	216.495
506.01	270.279
508.902	358.494
511.795	507.287
514.688	618.539
517.58	739.333
520.473	743.489
523.366	621.887
526.259	481.497
529.151	363.838
532.044	251.95
534.937	197.04
537.829	161.446
540.722	117.691
543.615	90.9912
546.507	83.0166
549.4	40.919
552.293	47.6035
555.186	48.5869
558.078	20.5898
560.971	30.6396
563.864	22.2988
566.756	5.16113
569.649	12.916
572.542	9.16504
575.434	16.3447
578.327	30.2305
581.22	30.7822
584.112	47.5947
587.005	8.60352
589.898	3.07617
592.791	15.8828
595.683	30.2754
598.576	35.3027
601.469	41.0625
604.361	20.1523
607.254	47.0312
610.147	29.7822
613.039	35.6699
615.932	27.1201
618.825	20.2002
621.718	12.0469
624.61	26.5869
627.503	17.0381
630.396	27.9951
633.288	19.1436
636.181	42.3252
639.074	24.7754
641.966	3.15723
644.859	0.37207
647.752	6.33984
650.645	16.5303
653.537	4.19434
656.43	48.7412
659.323	35.9502
662.215	91.8525
665.108	96.4609
668.001	41.2861
670.894	43.043
673.786	29.9199
676.679	54.0147
679.572	45.541
682.464	52.542
685.357	23.0488
688.25	1.34082
691.142	15.8184
694.035	7.23828
696.928	24.9141
699.821	37.4014
702.713	40.9853
705.606	31.2744
708.499	23.1768
711.391	38.584
714.284	32.8272
717.177	28.501
720.069	37.874
722.962	66.5088
725.855	84.4541
728.747	79.7529
731.64	67.3477
734.533	55.8174
737.426	58.5986
740.318	70.8232
743.211	40.9893
746.104	35.9522
748.996	36.8867
751.889	23.6562
754.782	24.5977
757.674	29.3867
760.567	22.0693
763.46	18.9785
766.353	37.1221
769.245	43.2842
772.138	13.1055
775.031	28.4209
777.923	12.459
780.816	9.31445
783.709	23.8926
786.601	29.1406
789.494	18.415
792.387	33.3565
795.28	39.333
798.172	18.0898
801.065	30.668
803.958	53.791
806.85	45.3086
809.743	36.8838
812.636	3.6416
815.529	27.8418
818.421	20.4766
821.314	34.8857
824.207	48.5215
827.099	22.2949
829.992	5.80078
832.885	19.7969
835.777	5.84375
838.67	17.4795
841.563	14.2705
844.456	19.6836
847.348	2.86133
850.241	9.36719
853.134	22.5479
856.026	21.1689
858.919	13.1523
861.812	1.78906
864.704	1.20801
867.597	27.5977
870.49	25.7158
873.383	24.0977
876.275	4.08496
879.168	14.8848
882.061	12.4531
884.953	41.2871
887.846	49.7705
890.739	96.0186
893.631	95.2353
896.524	116.652
899.417	161.109
902.309	229.214
905.202	304.074
908.095	349.979
910.988	410.609
913.88	437.857
916.773	420.771
919.666	418.397
922.558	389.78
925.451	342.013
928.344	303.111
931.236	255.945
934.129	191.314
937.022	135.177
939.915	77.9746
942.807	60.9805
945.7	35.3379
948.593	40.7002
951.485	34.7648
954.378	29.5211
957.271	22.7173
960.163	21.2148
963.056	14.1367
965.949	14.3574
968.842	17.7109
971.734	17.9639
974.627	14.8057
977.52	17.9131
980.412	27.8857
983.305	8.58594
986.198	13.5244
989.091	12.9502
991.983	0.277344
994.876	4.77148
997.769	15.7715
1000.66	4.11426
1003.55	5.73242
1006.45	3.62109
1009.34	1.08887
1012.23	79.4805
1015.12	54.5723
1018.02	68.7549
1020.91	76.7061
1023.8	60.8828
1026.7	81.8272
1029.59	91.8213
1032.48	83.7549
1035.37	94.5439
1038.27	91.0391
1041.16	61.041
1044.05	46.335
1046.94	51.1953
1049.84	37.7705
1052.73	47.5332
1055.62	63.8066
1058.52	59.2559
1061.41	66.7539
1064.3	58.3184
1067.19	53.0957
1070.09	53.2764
1072.98	63.8408
1075.87	43.8867
1078.76	66.3682
1081.66	47.8296
1084.55	42.2695
1087.44	42.0928
1090.34	14.6265
1093.23	16.4297
1096.12	21.8506
1099.01	28.8311
1101.91	38.9858
1104.8	16.7222
1107.69	18.4517
1110.58	1.32568
1113.48	27.3052
1116.37	13.668
1119.26	4.5835
1122.15	5.69531
1125.05	3.60156
1127.94	6.52881
1130.83	24.9761
1133.72	52.7056
1136.62	38.8042
1139.51	53.5884
1142.4	17.752
1145.3	37.602
1148.19	34.3755
1151.08	21.272
1153.97	8.96826
1156.87	4.0249
1159.76	7.48584
1162.65	10.957
1165.55	44.144
1168.44	43.3779
1171.33	32.9844
1174.22	25.832
1177.12	31.4355
1180.01	24.8706
1182.9	33.6914
1185.79	8.02344
1188.69	42.9395
1191.58	35.979
1194.47	35.6016
1197.37	6.99951
1200.26	18.6387
1203.15	13.8198
1206.04	26.3223
1208.94	3.56299
1211.83	35.3179
1214.72	29.4297
1217.61	41.188
1220.51	14.1079
1223.4	24.4946
1226.29	9.21777
1229.18	17.0005
1232.08	20.6372
1234.97	27.1753
1237.86	15.77
1240.76	2.07861
1243.65	4.65527
1246.54	3.61523
1249.43	40.1152
1252.33	32.6782
1255.22	27.6714
1258.11	7.06543
1261	8.55957
1263.9	44.8984
1266.79	20.3149
1269.68	7.2207
1272.58	27.5811
1275.47	6.86133
1278.36	9.92627
1281.25	1.49561
1284.15	28.415
1287.04	35.7114
1289.93	37.4326
1292.82	23.4404
1295.72	15.4307
1298.61	8.23877
1301.5	0.282227
1304.39	6.20117
