Measurement: Raman, 532 nm, unoriented, Raman Data Processed
Mineral: Hingganite-(Ce)
Rruff sample: R060857
Ideal chemistry: BeCe^3+^(SiO_4_)(OH)
Locality: Tatyana pegmatite, Haldzan Buregteg massif, Mongolia
Source: Michael Scott
Description: Brown vitreous fragments
Raman shift (cm-1)	intensity
170.217	0
173.109	48.0547
176.002	18.8286
178.895	103.568
181.788	109.617
184.68	175.214
187.573	11.1304
190.466	159.26
193.358	39.793
196.251	68.2485
199.144	61.8042
202.036	70.8096
204.929	104.429
207.822	109.965
210.714	36.7651
213.607	57.3506
216.5	155.367
219.393	42.0039
222.285	124.93
225.178	91.7041
228.071	106.182
230.963	114.122
233.856	62.4502
236.749	60.1504
239.642	67.1494
242.534	90.2559
245.427	115.86
248.32	138.293
251.212	198.798
254.105	164.053
256.998	37.4238
259.89	140.269
262.783	202.122
265.676	173.102
268.568	178.735
271.461	121.049
274.354	56.8223
277.247	196.833
280.139	106.103
283.032	141.247
285.925	34.3887
288.817	82.3555
291.71	97.707
294.603	78.9941
297.495	37.9209
300.388	46.6611
303.281	107.299
306.174	114.228
309.066	144.737
311.959	88.126
314.852	42.8789
317.744	22.6514
320.637	17.8818
323.53	17.9355
326.422	80.0606
329.315	68.7842
332.208	57.3506
335.101	36.8027
337.993	105.951
340.886	17.2051
343.779	52.8496
346.671	22.4248
349.564	28.2246
352.457	115.043
355.349	97.0107
358.242	44.998
361.135	66.0029
364.027	105.435
366.92	49.1016
369.813	85.585
372.706	78.4238
375.598	119.038
378.491	33.3203
381.384	62.3174
384.276	109.758
387.169	134.054
390.062	132.459
392.954	23.4463
395.847	42.7158
398.74	0.878906
401.633	24.3457
404.525	99.8281
407.418	39
410.311	73.7939
413.203	188.897
416.096	152.369
418.989	121.008
421.881	139.277
424.774	186.833
427.667	108.319
430.56	123.115
433.452	110.638
436.345	118.456
439.238	90.0254
442.13	154.424
445.023	61.5039
447.916	108.949
450.808	15.7471
453.701	82.5674
456.594	81.9307
459.486	34.917
462.379	44.1924
465.272	75.6836
468.165	102.85
471.057	100.548
473.95	96.167
476.843	42.7461
479.735	18.0918
482.628	41.3721
485.521	145.515
488.413	78.6582
491.306	68.4189
494.199	139.227
497.092	23.8857
499.984	50.6162
502.877	36.7227
505.77	60.8174
508.662	55.5156
511.555	149.81
514.448	33.2529
517.341	115.089
520.233	118.796
523.126	202.225
526.019	100.66
528.911	36.1191
531.804	38.7315
534.697	26.9678
537.589	45.8291
540.482	61.2666
543.375	62.6143
546.268	130.072
549.16	125.936
552.053	136.603
554.946	50.2617
557.838	99.291
560.731	10.4648
563.624	112.662
566.516	27.3545
569.409	111.054
572.302	102.719
575.194	109.498
578.087	29.5752
580.98	3.12695
583.872	33.8418
586.765	7.78711
589.658	35.2285
592.551	2.67285
595.443	24.5098
598.336	56.2148
601.229	4.14648
604.121	45.3809
607.014	75.1914
609.907	61.4727
612.799	56.1084
615.692	65.9629
618.585	32.0361
621.477	89.0371
624.37	113.54
627.263	98.3975
630.156	45.2148
633.048	67.0654
635.941	61.6055
638.834	10.4902
641.726	46.7002
644.619	16.5254
647.512	84.0752
650.404	109.529
653.297	138.981
656.19	154.113
659.083	97.8301
661.975	207.659
664.868	151.648
667.761	158.648
670.653	136.708
673.546	175.056
676.439	12.96
679.332	89.7529
682.224	103.248
685.117	197.024
688.01	136.024
690.902	110.586
693.795	246.579
696.688	237.328
699.58	131.693
702.473	215.757
705.366	165.575
708.259	178.208
711.151	13.2685
714.044	199.06
716.937	200.356
719.829	171.442
722.722	220.88
725.615	253.159
728.507	225.544
731.4	162.728
734.293	212.727
737.185	251.983
740.078	182.587
742.971	182.738
745.864	277.158
748.756	307.146
751.649	84.2402
754.542	104.59
757.434	268.268
760.327	128.605
763.22	187.596
766.112	143.491
769.005	264.163
771.898	195.282
774.79	165.531
777.683	138.959
780.576	150.673
783.469	131.341
786.361	181.164
789.254	165.567
792.147	247.075
795.039	185.592
797.932	223.188
800.825	209.995
803.717	138.972
806.61	107.964
809.503	141.353
812.396	6.74512
815.288	138.926
818.181	30.9375
821.074	5.90723
823.966	51.458
826.859	140.232
829.752	232.551
832.644	63.4072
835.537	136.921
838.43	8.24219
841.323	86.0674
844.215	109.388
847.108	136.533
850.001	66.6465
852.893	33.335
855.786	125.162
858.679	89.2939
861.571	201.452
864.464	262.89
867.357	187.015
870.25	207.544
873.142	192.149
876.035	168.427
878.928	198.745
881.82	302.698
884.713	406.669
887.606	470.781
890.498	480.896
893.391	562.523
896.284	668.701
899.177	578.214
902.069	461.065
904.962	508.025
907.855	484.449
910.747	197.918
913.64	257.17
916.533	216.701
919.425	220.379
922.318	137.615
925.211	179.947
928.104	142.375
930.996	229.172
933.889	17.5137
936.782	29.8438
939.674	111.066
942.567	42.2578
945.46	86.9961
948.352	10.5879
951.245	55.4375
954.138	50.8887
957.03	77.1348
959.923	75.5195
962.816	25.1191
965.709	131.727
968.601	22.3496
971.494	3.78711
974.387	1.54102
977.279	42.5352
980.172	134.787
983.065	106.635
985.957	65.5606
988.85	24.6211
991.743	68.5664
994.635	29.2148
997.528	34.6348
1000.42	66.6406
1003.31	54.8086
1006.21	34.25
1009.1	70.9043
1011.99	68.1699
1014.88	16.3359
1017.78	18.4961
1020.67	258.32
1023.56	74.8164
1026.45	104.441
1029.35	129.381
1032.24	167.039
1035.13	124.959
1038.03	99.5332
1040.92	196.789
1043.81	122.045
1046.7	40.2168
1049.6	47.0547
1052.49	238.949
1055.38	208.115
1058.28	224.762
1061.17	117.129
1064.06	177.082
1066.95	24.4043
1069.85	3.78516
1072.74	188.42
1075.63	23.6914
1078.52	37.7285
1081.42	9.96875
1084.31	92.5195
1087.2	136.119
1090.09	164.578
1092.99	102.91
1095.88	196.494
1098.77	102.807
1101.66	185.959
1104.56	337.586
1107.45	238.217
1110.34	214.408
1113.24	37.5801
1116.13	120.201
1119.02	17.0469
1121.91	48.1543
1124.81	1.29688
1127.7	183.685
1130.59	245.582
1133.48	219.838
1136.38	53.5312
1139.27	92.1641
1142.16	140.41
1145.06	55.834
1147.95	57.4707
1150.84	32.5449
1153.73	188.078
1156.63	180.836
1159.52	179.863
1162.41	110.617
1165.31	48.5391
1168.2	8.58203
1171.09	24.6543
1173.98	145.266
1176.88	139.705
1179.77	80.7324
1182.66	179.424
1185.55	108.853
1188.45	128.481
1191.34	106.611
1194.23	86.6738
1197.12	117.686
1200.02	159.412
1202.91	87.2383
1205.8	130.59
1208.69	203.291
1211.59	176.24
1214.48	113.234
1217.37	269.441
1220.27	87.541
1223.16	100.777
1226.05	110.008
1228.94	149.541
1231.84	133.719
1234.73	213.053
1237.62	277.832
1240.52	192.672
1243.41	189.043
1246.3	248.816
1249.19	343.565
1252.09	221.6
1254.98	133.809
1257.87	162.65
1260.76	198.572
1263.66	0.164063
1266.55	7.66211
1269.44	71.2266
1272.33	263.574
1275.23	260.131
1278.12	70.207
1281.01	132.051
1283.9	69.3984
1286.8	118.977
1289.69	133.031
1292.58	114.201
1295.48	15.332
1298.37	74.0234
