Measurement: Raman, 532 nm, unoriented, Raman Data Processed
Mineral: Hiortdahlite
Rruff sample: R070514
Ideal chemistry: Na_2_Ca_4_(Ca_0.5_Zr^4+^_0.5_)Zr^4+^(Si_2_O_7_)_2_OF_3_
Locality: Aroy, Langesundsfjord, near Larvik, Vestfold, Norway
Source: James Shigley
Description: Brownish-yellow massive
Measured chemistry: Na_4.00_Ca_8.00_Zr_2.00_(Zr_0.49_Nb^5+^_0.45_Fe^2+^_0.38_Ti_0.33_Mn_0.32_Mg_0.02_Al_0.01_)_Î£=2_(Si_2.00_O_7_)_4_O_3_F_5.00_
Raman shift (cm-1)	intensity
149.673	0
152.566	51.1494
155.459	254.43
158.351	265.806
161.244	323.294
164.137	228.809
167.029	180.751
169.922	203.601
172.815	278.601
175.708	259.766
178.6	241.776
181.493	245.489
184.386	290.797
187.278	225.826
190.171	299.608
193.064	253.665
195.957	257.969
198.849	267.636
201.742	154.414
204.635	196.271
207.527	148.699
210.42	143.341
213.313	165.979
216.205	114.549
219.098	51.4341
221.991	17.2979
224.883	2.68359
227.776	11.3789
230.669	53.9873
233.562	34.2861
236.454	20.7573
239.347	3.64209
242.24	29.481
245.132	25.1753
248.025	24.9053
250.918	41.3584
253.81	109.369
256.703	97.1773
259.596	125.057
262.489	112
265.381	178.05
268.274	151.166
271.167	170.405
274.059	150.425
276.952	196.56
279.845	202.144
282.738	176.862
285.63	143.697
288.523	181.747
291.416	143.104
294.308	107.27
297.201	74.3608
300.094	126.303
302.986	75.0601
305.879	98.4985
308.772	93.4561
311.664	135.009
314.557	148.507
317.45	140.572
320.343	116.611
323.235	107.495
326.128	143.222
329.021	57.082
331.913	0.775391
334.806	45.8315
337.699	55.6152
340.591	41.7895
343.484	2.30957
346.377	45.936
349.27	12.5117
352.162	37.2212
355.055	12.3633
357.948	53.7353
360.84	7.20117
363.733	30.4311
366.626	49.3081
369.519	46.0727
372.411	14.8428
375.304	46.9009
378.197	93.9014
381.089	110.921
383.982	67.3516
386.875	112.719
389.767	87.6284
392.66	36.7017
395.553	115.262
398.446	147.239
401.338	168.366
404.231	193.713
407.124	333.228
410.016	321.623
412.909	371.945
415.802	453.045
418.695	508.956
421.587	585.523
424.48	605.637
427.373	673.293
430.265	717.335
433.158	694.085
436.051	740.088
438.943	769.148
441.836	679.392
444.729	713.03
447.622	660.643
450.514	611.671
453.407	591.37
456.3	702.819
459.192	655.034
462.085	465.308
464.978	440.472
467.87	442.421
470.763	339.522
473.656	283.51
476.548	186.022
479.441	247.37
482.334	308.191
485.227	289.44
488.119	208.415
491.012	176.519
493.905	182.336
496.797	130.839
499.69	106.369
502.583	127.628
505.476	39.0732
508.368	61.375
511.261	16.1914
514.154	115.446
517.046	88.7832
519.939	180.467
522.832	265.495
525.724	238.274
528.617	168.339
531.51	200.148
534.403	191.567
537.295	207.254
540.188	177.067
543.081	209.586
545.973	280.709
548.866	342.736
551.759	325.441
554.651	324.489
557.544	226.087
560.437	164.949
563.33	35.1753
566.222	97.4526
569.115	21.5645
572.008	2.48779
574.9	118.624
577.793	181.111
580.686	332.195
583.578	486.62
586.471	462.303
589.364	505.897
592.256	434.925
595.149	381.817
598.042	327.367
600.935	267.66
603.827	330.33
606.72	229.014
609.613	230.543
612.505	222.574
615.398	195.92
618.291	138.992
621.183	158.692
624.076	56.4937
626.969	74.1079
629.862	37.6685
632.754	9.5376
635.647	7.14258
638.54	40.3857
641.432	36.3345
644.325	151.329
647.218	163.257
650.111	293.877
653.003	368.197
655.896	489.111
658.789	632.43
661.681	706.996
664.574	686.953
667.467	634.39
670.36	456.995
673.252	429.211
676.145	357.105
679.038	314.998
681.93	366.267
684.823	249.619
687.716	301.28
690.608	263.557
693.501	329.181
696.394	279.513
699.287	261.64
702.179	289.514
705.072	252.023
707.965	169.855
710.857	170.296
713.75	154.724
716.643	83.1133
719.535	124.749
722.428	58.9956
725.321	32.4399
728.213	40.6665
731.106	0.283203
733.999	32.7095
736.892	16.0298
739.784	19.249
742.677	33.4448
745.57	0.989258
748.462	65.709
751.355	104.517
754.248	44.2002
757.14	93.6382
760.033	103.982
762.926	100.595
765.819	116.309
768.711	123.039
771.604	185.813
774.497	252.569
777.389	214.854
780.282	315.967
783.175	519.249
786.067	736.721
788.96	787.779
791.853	886.916
794.746	827.649
797.638	810.352
800.531	704.222
803.424	542.571
806.316	499.553
809.209	311.535
812.102	233.233
814.995	193.538
817.887	94.2695
820.78	123.763
823.673	120.316
826.565	72.3731
829.458	117.556
832.351	130.769
835.244	89.209
838.136	125.18
841.029	167.253
843.922	189.224
846.814	139.803
849.707	126.829
852.6	47.206
855.492	59.2764
858.385	68.2842
861.278	4.88965
864.17	33.2197
867.063	6.87109
869.956	38.9258
872.849	16.1973
875.741	86.9336
878.634	138.686
881.527	254.685
884.419	335.429
887.312	403.628
890.205	448.229
893.097	542.886
895.99	585.343
898.883	616.01
901.776	763.394
904.668	754.119
907.561	845.1
910.454	821.739
913.346	657.364
916.239	650.398
919.132	542.379
922.024	510.478
924.917	394.656
927.81	386.627
930.703	369.771
933.595	364.991
936.488	380.967
939.381	366.603
942.273	503.676
945.166	540.307
948.059	539.211
950.952	581.839
953.844	465.153
956.737	461.908
959.63	417.632
962.522	392.375
965.415	270.551
968.308	309.44
971.2	238.481
974.093	196.648
976.986	133.803
979.879	129.498
982.771	109.888
985.664	62.1641
988.557	134.739
991.449	152.719
994.342	170.608
997.235	164.368
1000.13	112.272
1003.02	155.225
1005.91	149.592
1008.81	63.9746
1011.7	146.68
1014.59	97.2168
1017.48	24.9023
1020.38	42.5986
1023.27	21.7451
1026.16	40.4473
1029.05	42.4902
1031.95	48.4248
1034.84	20.5244
1037.73	2.83691
1040.62	10.2334
1043.52	50.7617
1046.41	77.8037
1049.3	119.594
1052.2	59.5088
1055.09	168.843
1057.98	99.2764
1060.87	82.5684
1063.77	105.077
1066.66	142.688
1069.55	197.541
1072.44	144.939
1075.34	79.3823
1078.23	74.5098
1081.12	64.4302
1084.02	66.4927
1086.91	49.2822
1089.8	67.6646
1092.69	44.8882
1095.59	28.3638
1098.48	54.9355
1101.37	37.9639
1104.27	9.32373
1107.16	2.58447
1110.05	2.45606
1112.94	64.3555
1115.84	37.2778
1118.73	0.780273
1121.62	58.6372
1124.51	25.9878
1127.41	43.3935
1130.3	38.6846
1133.19	15.8174
1136.08	37.8506
1138.98	47.25
1141.87	127.881
1144.76	121.937
1147.65	54.8115
1150.55	79.3398
1153.44	128.116
1156.33	43.3291
1159.23	86.8926
1162.12	81.1406
1165.01	25.4072
1167.9	57.6221
1170.8	91.3398
1173.69	138.696
1176.58	41.7178
1179.47	65.8662
1182.37	126.473
1185.26	145.754
1188.15	76.2676
1191.05	98.2549
1193.94	96.0732
1196.83	107.347
1199.72	59.8369
1202.62	46.5371
1205.51	104.159
1208.4	72.7168
1211.3	7.75
1214.19	78.0947
1217.08	98.4639
1219.97	109.134
1222.87	156.587
1225.76	91.041
1228.65	139.257
1231.54	21.3096
1234.44	30.1172
1237.33	52.5605
1240.22	99.7051
1243.11	32.2656
1246.01	30.8545
1248.9	1.66504
1251.79	28.4326
1254.68	54.6982
1257.58	37.0322
1260.47	69.9326
1263.36	106.087
1266.26	35.6152
1269.15	72.6484
1272.04	64.0801
1274.93	37.502
1277.83	27.7949
1280.72	68.1152
1283.61	69.4981
1286.51	44.5947
1289.4	86.2471
1292.29	65.8389
1295.18	19.1201
