Measurement: Raman, 780 nm, unoriented, Raman Data Processed
Mineral: Hocartite
Rruff sample: R130018
Ideal chemistry: Ag^1+^_2_Fe^2+^Sn^4+^S^2-^_4_
Locality: Pirquitas mine, Jujuy Province, Argentina
Source: William W. Pinch
Description: Gray granular crystals
Raman shift (cm-1)	intensity
109.52	0
112.895	1.08997
116.27	0.868683
119.644	1.37729
123.019	3.35638
126.394	2.85361
129.769	2.32404
133.144	3.82101
136.518	3.01642
139.893	4.25775
143.268	4.03064
146.643	4.98688
150.018	3.72418
153.393	4.642
156.767	3.43036
160.142	2.77216
163.517	1.41067
166.892	0.936707
170.267	1.12607
173.642	0.261993
177.016	0.052948
180.391	0.993073
183.766	1.05588
187.141	0.102448
190.516	3.50043
193.89	3.44855
197.265	8.85605
200.64	8.25467
204.015	11.5761
207.39	12.6399
210.764	16.9026
214.139	18.5545
217.514	17.4807
220.889	11.0202
224.264	7.50278
227.638	4.8241
231.013	3.45898
234.388	1.65485
237.763	4.17715
241.138	1.73392
244.513	1.96829
247.887	2.06778
251.262	1.52991
254.637	3.4386
258.012	5.01712
261.387	7.98285
264.762	10.6085
268.136	15.3469
271.511	18.917
274.886	18.6107
278.261	19.8028
281.635	20.2374
285.01	16.5997
288.385	12.2836
291.76	9.73733
295.135	6.27811
298.51	3.18179
301.884	0.784088
305.259	2.31375
308.634	5.16299
312.009	4.6571
315.384	9.67859
318.759	15.1006
322.133	22.0959
325.508	30.9591
328.883	36.7939
332.258	30.0937
335.633	19.8758
339.007	12.7609
342.382	8.8367
345.757	2.78436
349.132	2.48453
352.507	0.401184
355.882	0.427765
359.256	0.495667
362.631	1.13553
366.006	1.11151
369.381	1.84311
372.755	1.72427
376.13	0.85318
379.505	1.74432
382.88	2.92188
386.255	3.39752
389.63	5.17252
393.004	5.47134
396.379	5.18167
399.754	5.17246
403.129	3.52829
406.504	2.22266
409.878	2.7601
413.253	1.0708
416.628	0.76651
420.003	0.260925
423.378	0.125092
426.753	1.73645
430.127	0.774994
433.502	2.09729
436.877	1.93378
440.252	1.94281
443.627	2.38202
447.001	3.78986
450.376	5.52768
453.751	3.60773
457.126	3.1142
460.501	2.70792
463.875	3.88892
467.25	4.49972
470.625	7.11575
474	5.83942
477.375	5.5726
480.75	6.50665
484.124	5.0889
487.499	4.78171
490.874	4.37967
494.249	3.59241
497.624	2.5799
500.998	1.52356
504.373	2.04553
507.748	4.61514
511.123	3.02454
514.498	3.18558
517.873	2.66669
521.247	0.238037
524.622	2.6387
527.997	0.676819
531.372	1.94696
534.747	0.050232
538.121	1.20969
541.496	0.915009
544.871	0.422028
548.246	0.28949
551.621	0.553558
554.995	0.101044
558.37	0.006958
561.745	0.582947
565.12	0.32724
568.495	0.297546
571.87	0.754852
575.244	1.95746
578.619	1.32425
581.994	0.903534
585.369	5.52795
588.744	2.9212
592.119	3.57666
595.493	3.66089
598.868	3.77127
602.243	3.56564
605.618	4.92081
608.993	4.06558
612.367	2.2063
615.742	5.34582
619.117	3.64835
622.492	5.62253
625.867	5.10904
629.241	4.38733
632.616	5.61511
635.991	4.41199
639.366	3.84329
642.741	4.63123
646.115	3.43161
649.49	4.31622
652.865	4.95566
656.24	5.22577
659.615	3.93024
662.99	3.49164
666.364	4.61621
669.739	2.99149
673.114	1.18835
676.489	2.19864
679.864	1.81308
683.239	2.50162
686.613	1.66434
689.988	1.46323
693.363	3.17117
696.738	1.07224
700.112	0.664246
703.487	0.127533
706.862	1.37753
710.237	0.239166
713.612	0.919128
716.987	0.716278
720.361	1.48044
723.736	0.669647
727.111	0.855988
730.486	0.295593
733.861	2.12207
737.236	2.16058
740.61	0.539948
743.985	2.84287
747.36	2.19598
750.735	0.784058
754.11	0.874298
757.484	0.945221
760.859	2.15109
764.234	1.20044
767.609	1.08026
770.984	1.54877
774.359	0.966095
777.733	0.345917
781.108	1.24225
784.483	1.85736
787.858	1.8016
791.232	2.49832
794.607	1.80337
797.982	0.147766
801.357	0.43396
804.732	1.82074
808.107	1.41019
811.481	1.48569
814.856	1.08008
818.231	2.10825
821.606	2.04306
824.981	1.8389
828.356	2.46564
831.73	3.64886
835.105	1.33737
838.48	2.6239
841.855	2.99497
845.23	1.0303
848.604	2.59994
851.979	1.2626
855.354	2.12082
858.729	2.97726
862.104	2.28259
865.479	1.99655
868.853	2.65649
872.228	3.73669
875.603	2.76346
878.978	1.9765
882.352	3.15555
885.727	1.33545
889.102	0.982666
892.477	1.72256
895.852	2.6734
899.227	2.61166
902.601	0.005676
905.976	0.322083
909.351	0.151672
912.726	0.988312
916.101	0.818359
919.476	0.835083
922.85	0.249451
926.225	0.041718
929.6	0.75946
932.975	2.2916
936.35	1.17563
939.724	1.14502
943.099	1.73257
946.474	0.245819
949.849	2.71912
953.224	1.60706
956.598	4.4975
959.973	1.09528
963.348	1.96466
966.723	1.86395
970.098	0.054413
973.472	0.439636
976.847	0.663177
980.222	2.09766
983.597	0.234253
986.972	1.28833
990.347	1.29245
993.721	1.02335
997.096	1.3288
1000.47	2.44376
1003.85	0.793335
1007.22	2.92596
1010.6	1.52084
1013.97	1.134
1017.35	1.08078
1020.72	1.8046
1024.1	2.49619
1027.47	4.0574
1030.84	0.292603
1034.22	1.68921
1037.59	0.15213
1040.97	1.90201
1044.34	2.31125
1047.72	1.90399
1051.09	1.1496
1054.47	1.91305
1057.84	1.51337
1061.22	1.7439
1064.59	1.80499
1067.97	1.77609
1071.34	1.56873
1074.72	1.08789
1078.09	2.76651
1081.47	1.69556
1084.84	1.6145
1088.22	3.2291
1091.59	2.63696
1094.97	1.09427
1098.34	0.670715
1101.71	0.059692
1105.09	0.70343
1108.46	0.072601
1111.84	1.57181
1115.21	0.757538
1118.59	1.23886
1121.96	1.78906
1125.34	1.92804
1128.71	2.1206
1132.09	3.36771
1135.46	4.72031
1138.84	2.54398
1142.21	0.841614
1145.59	1.6517
1148.96	3.04968
1152.34	0.547577
1155.71	2.31458
1159.09	2.32285
1162.46	2.25897
1165.84	2.56503
1169.21	3.44022
1172.59	5.40842
1175.96	4.20862
1179.34	3.40619
1182.71	3.63528
1186.09	4.87668
1189.46	4.45782
1192.84	4.60788
1196.21	2.73837
1199.59	3.17459
1202.96	2.73328
1206.34	3.08508
1209.71	0.771088
1213.08	1.47739
1216.46	2.63837
1219.83	2.80405
1223.21	0.046936
1226.58	0.27887
1229.96	0.195953
1233.33	1.69037
1236.71	2.65103
1240.08	4.26044
1243.46	0.209564
1246.83	0.808502
1250.21	2.58997
1253.58	0.202209
1256.96	2.44443
1260.33	1.80875
1263.71	1.50619
1267.08	1.41891
1270.46	1.44812
1273.83	2.46762
1277.21	2.23642
1280.58	0.053589
1283.95	0
