Measurement: Raman, 532 nm, unoriented, Raman Data Processed
Mineral: Hocartite
Rruff sample: R130018
Ideal chemistry: Ag^1+^_2_Fe^2+^Sn^4+^S^2-^_4_
Locality: Pirquitas mine, Jujuy Province, Argentina
Source: William W. Pinch
Description: Gray granular crystals
Raman shift (cm-1)	intensity
90.3259	0
93.7007	2.43475
97.0755	2.14461
100.45	4.83249
103.825	2.57021
107.2	1.71124
110.575	3.6758
113.95	3.96412
117.324	5.18526
120.699	4.20845
124.074	5.8431
127.449	5.09161
130.824	4.447
134.198	3.46501
137.573	2.4273
140.948	0.276558
144.323	0.402756
147.698	0.120316
151.073	0.353157
154.447	0.041954
157.822	0.547806
161.197	0.838337
164.572	2.15953
167.947	2.49384
171.321	1.66716
174.696	2.30029
178.071	4.18675
181.446	4.51021
184.821	6.70952
188.196	7.18573
191.57	8.14763
194.945	8.15475
198.32	7.75342
201.695	7.9933
205.07	6.55849
208.445	7.48397
211.819	8.12398
215.194	7.10263
218.569	6.91577
221.944	6.28139
225.319	4.63322
228.693	4.2214
232.068	2.4712
235.443	2.2201
238.818	0.243258
242.193	0.095373
245.567	0.002533
248.942	0.917658
252.317	0.834482
255.692	1.33272
259.067	2.23774
262.442	3.54677
265.816	4.4729
269.191	5.29529
272.566	4.97561
275.941	3.9394
279.316	2.69444
282.69	2.45521
286.065	2.37354
289.44	2.88801
292.815	2.43322
296.19	3.33641
299.565	3.21037
302.939	2.52508
306.314	2.02625
309.689	3.23879
313.064	6.46947
316.439	11.59
319.813	17.6463
323.188	30.3277
326.563	44.8754
329.938	58.2776
333.313	58.7783
336.688	50.6963
340.062	40.9961
343.437	32.7931
346.812	25.8305
350.187	18.8971
353.562	12.7087
356.936	8.62769
360.311	7.90197
363.686	7.01892
367.061	5.79231
370.436	3.72329
373.81	0.995275
377.185	0.251736
380.56	0.733299
383.935	0.441906
387.31	0.607698
390.685	0.101767
394.059	0.279247
397.434	0.519709
400.809	0.568326
404.184	0.532245
407.559	0.659333
410.933	0.662085
414.308	0.457362
417.683	0.770861
421.058	0.06157
424.433	0.561657
427.808	0.706967
431.182	1.02397
434.557	1.02849
437.932	0.921742
441.307	0.911561
444.682	0.357397
448.057	1.01022
451.431	0.008934
454.806	0.638238
458.181	0.592581
461.556	0.247058
464.93	1.10252
468.305	1.21199
471.68	1.43976
475.055	1.23836
478.43	1.28521
481.805	1.30508
485.179	1.39303
488.554	0.713985
491.929	0.760595
495.304	0.985562
498.679	1.06533
502.053	0.590949
505.428	0.414459
508.803	0.199886
512.178	0.892529
515.553	0.883673
518.928	0.77446
522.302	0.562353
525.677	0.919235
529.052	0.456697
532.427	0.610561
535.802	0.292435
539.177	0.943053
542.551	0.264688
545.926	0.184554
549.301	0.515955
552.676	0.978861
556.051	0.787486
559.425	0.278452
562.8	1.06937
566.175	0.894247
569.55	0.32674
572.925	0.735255
576.299	0.320368
579.674	0.166039
583.049	0.196743
586.424	0.220087
589.799	0.673444
593.174	0.612586
596.548	0.981236
599.923	0.270184
603.298	0.432961
606.673	0.062488
610.048	0.501847
613.423	0.777507
616.797	0.560158
620.172	0.107148
623.547	0.839007
626.922	0.66738
630.297	0.875524
633.671	0.360041
637.046	0.64092
640.421	0.841869
643.796	0.862302
647.171	1.31851
650.545	1.20832
653.92	0.783354
657.295	2.29556
660.67	2.15998
664.045	2.6514
667.42	3.36275
670.794	3.4668
674.169	3.38374
677.544	3.53696
680.919	3.51438
684.294	2.79766
687.668	2.06644
691.043	1.79746
694.418	1.27837
697.793	1.62348
701.168	0.679705
704.543	0.608867
707.917	0.461134
711.292	0.783448
714.667	0.165564
718.042	0.171276
721.417	0.797494
724.791	0.188233
728.166	0.343932
731.541	0.373156
734.916	0.146358
738.291	0.086091
741.665	0.002995
745.04	0.197011
748.415	0.116808
751.79	0.006628
755.165	0.37809
758.54	0.313119
761.914	0.143901
765.289	0.051711
768.664	0.264132
772.039	0.27681
775.414	0.361673
778.788	0.401557
782.163	0.082604
785.538	0.642829
788.913	0.857319
792.288	0.763404
795.663	0.687358
799.037	0.588635
802.412	0.329257
805.787	0.32451
809.162	0.82494
812.537	1.17417
815.912	1.01864
819.286	1.00479
822.661	1.01914
826.036	0.884631
829.411	1.31932
832.786	1.73852
836.16	1.35205
839.535	1.25173
842.91	1.07401
846.285	1.67223
849.66	1.74179
853.034	1.58506
856.409	1.01016
859.784	1.24679
863.159	1.60409
866.534	1.30859
869.909	1.26545
873.283	0.455195
876.658	1.14901
880.033	1.03147
883.408	0.634775
886.783	0.661819
890.158	0.127685
893.532	0.414412
896.907	0.213825
900.282	0.105072
903.657	0.450045
907.032	0.444536
910.406	0.074577
913.781	0.348793
917.156	0.45511
920.531	0.280248
923.906	0.279554
927.28	0.200835
930.655	0.15099
934.03	0.118843
937.405	0.19769
940.78	0.425295
944.154	0.268435
947.529	0.089688
950.904	0.462486
954.279	0.171813
957.654	0.018668
961.029	0.316724
964.403	0.396381
967.778	0.147676
971.153	0.088999
974.528	0.652642
977.903	0.470442
981.278	0.764601
984.652	0.393667
988.027	0.615234
991.402	0.625405
994.777	0.947453
998.152	0.907052
1001.53	0.597157
1004.9	1.01253
1008.28	0.680855
1011.65	1.27652
1015.03	0.835743
1018.4	1.44809
1021.77	0.928641
1025.15	1.15908
1028.53	0.697693
1031.9	0.726787
1035.28	1.2068
1038.65	1.12575
1042.02	0.309987
1045.4	0.19052
1048.77	0.33559
1052.15	0.317025
1055.52	0.764452
1058.9	1.07665
1062.27	0.688988
1065.65	0.161915
1069.02	0.152202
1072.4	0.400781
1075.77	0.697057
1079.15	0.162506
1082.52	0.459594
1085.9	0.609454
1089.27	0.572057
1092.65	0.692025
1096.02	0.11591
1099.4	0.914996
1102.77	0.967603
1106.15	0.10426
1109.52	0.246047
1112.89	0.339914
1116.27	0.162272
1119.64	1.03092
1123.02	0.612484
1126.39	0.423075
1129.77	0.572507
1133.14	0.558667
1136.52	0.247464
1139.89	0.323248
1143.27	0.405441
1146.64	0.078981
1150.02	0.73982
1153.39	0.423521
1156.77	0.25309
1160.14	0.321343
1163.52	0.094035
1166.89	0.085611
1170.27	0.384489
1173.64	0.292392
1177.02	0.430962
1180.39	0.185889
1183.77	0.506101
1187.14	0.309405
1190.52	0.386594
1193.89	0.397332
1197.27	0.606508
1200.64	0.849665
1204.02	0.620788
1207.39	0.478046
1210.77	0.237454
1214.14	0.786046
1217.52	0.682433
1220.89	0.429808
1224.26	0.063662
1227.64	0.188629
1231.01	0.720577
1234.39	0.651945
1237.76	0.085864
1241.14	1.11116
1244.51	0.425862
1247.89	0.482044
1251.26	0.289593
1254.64	0.665139
1258.01	0.64526
1261.39	0.7463
1264.76	0.658141
1268.14	0.386453
1271.51	0.81081
1274.89	0.756557
1278.26	0.242217
1281.64	0.736638
1285.01	0.114792
1288.39	0.17707
1291.76	0.911574
1295.13	0.419178
1298.51	0.403599
1301.88	0
