Measurement: Raman, 532 nm, unoriented, Raman Data Processed
Mineral: Hollandite
Rruff sample: R070539
Ideal chemistry: Ba(Mn^4+^_6_Mn^3+^_2_)O_16_
Locality: Tangen mine, Hurdalsjoen, Nannestad, Akershus, Norway
Source: James Shigley
Description: Fibrous dark gray submetallic crystals
Measured chemistry: (Ba_0.94_[box]_0.06_)_Σ=1_(Mn^4+^_7.06_Mn^2+^_0.94_)_Σ=8_O_16_; Mn^4+^ and Mn^2+^ splitted by charge balance
Raman shift (cm-1)	intensity
153.53	0
156.423	6.30005
159.316	31.1964
162.208	42.6844
165.101	9.83069
167.994	17.6598
170.886	16.7798
173.779	4.06055
176.672	46.2212
179.565	58.11
182.457	83.3035
185.35	68.4465
188.243	48.5142
191.135	68.8976
194.028	47.3481
196.921	68.2318
199.813	82.9033
202.706	16.9209
205.599	43.9326
208.492	49.0582
211.384	54.0602
214.277	12.459
217.17	46.9117
220.062	6.41223
222.955	36.8195
225.848	33.3395
228.74	20.6798
231.633	29.391
234.526	5.13025
237.418	4.18335
240.311	1.60095
243.204	20.3394
246.097	22.6992
248.989	40.0133
251.882	15.4313
254.775	21.0553
257.667	22.1058
260.56	24.6144
263.453	32.7556
266.346	35.6764
269.238	35.2897
272.131	54.2572
275.024	56.8562
277.916	56.384
280.809	57.8381
283.702	59.0356
286.594	56.5884
289.487	66.8695
292.38	70.4294
295.273	71.6061
298.165	40.5332
301.058	42.7692
303.951	52.5613
306.843	40.6016
309.736	35.5365
312.629	53.2452
315.522	48.09
318.414	32.8955
321.307	50.6211
324.2	33.6807
327.092	50.0142
329.985	8.81726
332.878	21.0601
335.77	10.673
338.663	54.8683
341.556	30.3507
344.449	33.3857
347.341	20.9534
350.234	4.92175
353.127	35.4397
356.019	29.8018
358.912	45.1258
361.805	57.5508
364.697	22.2841
367.59	38.2318
370.483	49.6586
373.375	48.8552
376.268	75.1664
379.161	74.861
382.054	56.7888
384.946	83.9087
387.839	68.5419
390.732	75.5514
393.624	84.9552
396.517	66.7206
399.41	81.3207
402.303	55.1547
405.195	107.632
408.088	62.3679
410.981	47.9724
413.873	63.4922
416.766	35.5482
419.659	33.3729
422.551	43.2982
425.444	25.9992
428.337	5.08484
431.229	11.2238
434.122	9.86084
437.015	4.8584
439.908	14.9601
442.8	1.14966
445.693	6.75354
448.586	12.9481
451.478	24.7218
454.371	16.782
457.264	5.3728
460.156	20.1671
463.049	10.4216
465.942	7.04981
468.835	14.5265
471.727	56.0352
474.62	19.8831
477.513	35.3075
480.405	15.7918
483.298	17.4829
486.191	33.8817
489.084	16.8036
491.976	24.7212
494.869	46.684
497.762	58.2988
500.654	63.0344
503.547	30.4553
506.44	59.0947
509.332	76.5853
512.225	62.3721
515.118	79.5935
518.011	33.7334
520.903	13.2086
523.796	51.6477
526.689	32.1471
529.581	9.45252
532.474	24.4781
535.367	12.6207
538.26	3.24512
541.152	0.776855
544.045	4.19299
546.938	2.87598
549.83	2.03626
552.723	7.85669
555.616	28.559
558.508	7.2196
561.401	16.0021
564.294	56.5148
567.187	38.6128
570.079	50.5321
572.972	71.0593
575.865	98.3301
578.757	97.7675
581.65	125.091
584.543	140.921
587.435	117.698
590.328	132.774
593.221	104.377
596.114	125.234
599.006	68.2986
601.899	120.967
604.792	81.2553
607.684	67.2085
610.577	81.6066
613.47	89.962
616.362	78.5201
619.255	88.4508
622.148	106.298
625.04	102.095
627.933	116.043
630.826	49.7341
633.719	78.5155
636.611	91.4445
639.504	82.14
642.397	91.2408
645.289	93.7553
648.182	72.0339
651.075	58.5632
653.967	35.4656
656.86	73.4977
659.753	46.5636
662.646	52.0016
665.538	20.1676
668.431	16.7379
671.324	29.231
674.216	12.7483
677.109	28.7069
680.002	2.06763
682.894	7.44678
685.787	20.8961
688.68	24.398
691.573	21.5692
694.465	2.54846
697.358	0.092896
700.251	26.0018
703.143	15.76
706.036	25.6455
708.929	3.29394
711.822	20.1129
714.714	14.4169
717.607	3.8822
720.5	21.0422
723.392	40.3369
726.285	29.3883
729.178	17.8584
732.07	40.0022
734.963	27.9601
737.856	20.8252
740.749	38.5981
743.641	50.6913
746.534	43.9978
749.427	56.6868
752.319	33.1173
755.212	37.5691
758.105	25.8487
760.997	25.932
763.89	17.2669
766.783	7.14929
769.676	11.0326
772.568	17.7799
775.461	25.3032
778.354	27.9185
781.246	19.005
784.139	16.1995
787.032	2.10315
789.924	22.9353
792.817	17.0975
795.71	0.210083
798.602	18.2106
801.495	3.19055
804.388	20.2905
807.281	6.69568
810.173	0.730591
813.066	17.0553
815.959	30.7948
818.851	9.88867
821.744	22.6954
824.637	14.7394
827.529	39.7108
830.422	32.1583
833.315	22.6092
836.208	15.3441
839.1	42.0772
841.993	11.9176
844.886	47.3234
847.779	18.6863
850.671	1.43359
853.564	12.7069
856.457	15.1396
859.349	42.873
862.242	38.082
865.135	58.8895
868.027	55.228
870.92	54.2035
873.813	71.4198
876.706	24.2141
879.598	39.3777
882.491	51.0671
885.384	20.1154
888.276	39.2175
891.169	53.8639
894.062	17.3357
896.954	36.3781
899.847	10.8479
902.74	48.007
905.633	17.0033
908.525	49.1248
911.418	39.9966
914.311	4.44287
917.203	11.8064
920.096	37.7648
922.989	24.343
925.881	4.54919
928.774	40.6033
931.667	42.9783
934.559	33.5979
937.452	29.5814
940.345	24.3768
943.238	48.2181
946.13	31.3335
949.023	27.3967
951.916	35.7927
954.808	7.63843
957.701	37.9341
960.594	45.5713
963.486	4.17236
966.379	29.6477
969.272	4.26709
972.165	36.2576
975.057	5.78467
977.95	10.7465
980.843	0.816895
983.735	22.6421
986.628	40.6487
989.521	39.5059
992.413	26.1141
995.306	23.433
998.199	10.8155
1001.09	46.7963
1003.98	42.4557
1006.88	28.3132
1009.77	50.6802
1012.66	15.16
1015.55	26.121
1018.45	26.874
1021.34	26.3184
1024.23	10.3091
1027.13	7.29211
1030.02	34.619
1032.91	4.90332
1035.8	17.6393
1038.7	21.0205
1041.59	13.5188
1044.48	43.2842
1047.38	25.1764
1050.27	16.8208
1053.16	32.9708
1056.05	29.4348
1058.95	29.0354
1061.84	16.0746
1064.73	32.9764
1067.62	45.0837
1070.52	47.1068
1073.41	36.4801
1076.3	20.7152
1079.19	25.434
1082.09	23.1335
1084.98	26.5013
1087.87	33.7087
1090.77	57.0406
1093.66	35.0262
1096.55	18.9617
1099.44	23.415
1102.34	15.5706
1105.23	18.9133
1108.12	14.0684
1111.01	17.3591
1113.91	61.6836
1116.8	19.5973
1119.69	39.2116
1122.59	29.1194
1125.48	19.6644
1128.37	8.50757
1131.26	23.5896
1134.16	14.1502
1137.05	10.8202
1139.94	30.0547
1142.83	39.0026
1145.73	5.77588
1148.62	28.3187
1151.51	2.72009
1154.4	35.9551
1157.3	51.4614
1160.19	4.36975
1163.08	24.3152
1165.98	40.225
1168.87	5.56152
1171.76	7.50647
1174.65	8.26257
1177.55	62.2291
1180.44	22.3831
1183.33	17.4814
1186.22	26.1605
1189.12	26.2029
1192.01	10.0222
1194.9	8.53723
1197.8	50.9993
1200.69	25.5104
1203.58	10.1914
1206.47	3.31116
1209.37	4.58093
1212.26	19.8735
1215.15	30.2398
1218.04	52.4753
1220.94	27.8645
1223.83	47.4194
1226.72	17.218
1229.62	26.5317
1232.51	28.3118
1235.4	14.1636
1238.29	33.0962
1241.19	60.4473
1244.08	19.2644
1246.97	71.394
1249.86	10.2649
1252.76	45.6519
1255.65	34.3572
1258.54	15.6526
1261.43	33.866
1264.33	69.7817
1267.22	37.2571
1270.11	12.9822
1273.01	43.8821
1275.9	32.3076
1278.79	6.86499
