Measurement: Raman, 785 nm, unoriented, Raman Data Processed
Mineral: Hollandite
Rruff sample: R060852
Ideal chemistry: Ba(Mn^4+^_6_Mn^3+^_2_)O_16_
Locality: Ultevis, Sorharas, Sweden
Source: Michael Scott
Description: Black semi-metallic elongated prismatic crystals associated with purple fluorite
Measured chemistry: (Ba_0.71_Pb_0.12_Na_0.11_Sr_0.04_K_0.02_)_Σ=1_(Mn^4+^_5.85_Fe^3+^_1.23_Mn^3+^_0.58_Ti_0.28_Al_0.06_)_Σ=8_O_16_ ; trace amounts of Ca; Mn^4+^ and Mn^3+^ splitted by charge balance
Raman shift (cm-1)	intensity
177.935	0
180.828	26.9697
183.72	47.1187
186.613	73.5801
189.506	105.037
192.399	86.6206
195.291	147.434
198.184	220.79
201.077	212.265
203.969	251.531
206.862	178.954
209.755	167.76
212.648	104.543
215.54	88.5386
218.433	68.8989
221.326	80.0659
224.218	65.5322
227.111	21.8574
230.004	4.57471
232.896	19.6995
235.789	11.5791
238.682	2.03638
241.575	100.443
244.467	121.783
247.36	117.781
250.253	156.532
253.145	208.48
256.038	278.05
258.931	347.637
261.823	360.45
264.716	481.543
267.609	525.392
270.502	611.921
273.394	637.013
276.287	678.403
279.18	722.956
282.072	748.111
284.965	679.471
287.858	648.743
290.75	584.168
293.643	530.413
296.536	416.964
299.428	391.334
302.321	404.965
305.214	320.01
308.107	260.09
310.999	300.71
313.892	267.78
316.785	138.536
319.677	167.647
322.57	138.381
325.463	102.95
328.356	168.638
331.248	118.308
334.141	73.0713
337.034	53.7429
339.926	3.87866
342.819	51.6707
345.712	6.22803
348.604	28.3457
351.497	13.7527
354.39	63.3735
357.283	5.38672
360.175	23.7607
363.068	36.5081
365.961	23.0908
368.853	33.282
371.746	44.0745
374.639	57.4734
377.531	63.5037
380.424	109.241
383.317	76.77
386.209	60.4033
389.102	64.8701
391.995	84.3294
394.888	91.6977
397.78	148.329
400.673	121.287
403.566	82.0422
406.458	119.42
409.351	41.2395
412.244	116.807
415.137	98.6182
418.029	71.188
420.922	58.0244
423.815	33.679
426.707	33.3179
429.6	9.94702
432.493	29.5689
435.385	8.69116
438.278	9.58227
441.171	129.239
444.063	141.1
446.956	173.072
449.849	170.799
452.742	214.651
455.634	215.445
458.527	206.505
461.42	238.578
464.312	250.745
467.205	238.45
470.098	260.262
472.99	250.161
475.883	235.73
478.776	326.308
481.669	292.32
484.561	300.35
487.454	310.275
490.347	377.828
493.239	353.982
496.132	293.832
499.025	312.937
501.918	300.405
504.81	256.312
507.703	224.238
510.596	223.333
513.488	200.409
516.381	114.433
519.274	127.666
522.166	106.579
525.059	36.9648
527.952	4.73682
530.845	7.17481
533.737	69.6704
536.63	53.9746
539.523	0.477051
542.415	47.9346
545.308	127.621
548.201	139.569
551.093	197.808
553.986	277.152
556.879	342.82
559.771	498.808
562.664	679.796
565.557	829.878
568.45	1051.89
571.342	1370.52
574.235	1595.24
577.128	1890.69
580.02	2084.62
582.913	2059.01
585.806	1987.76
588.699	1714.89
591.591	1391.86
594.484	1037.14
597.377	773.564
600.269	587.602
603.162	466.203
606.055	345.478
608.947	259.554
611.84	247.601
614.733	128.725
617.626	112.043
620.518	84.3848
623.411	57.3794
626.304	42.9951
629.196	47.3594
632.089	63.353
634.982	75.1128
637.875	30.7617
640.767	9.14111
643.66	73.7046
646.553	21.0967
649.445	70.0054
652.338	127.971
655.231	162.323
658.123	224.742
661.016	207.333
663.909	220.14
666.802	264.91
669.694	330.987
672.587	314.406
675.48	353.139
678.372	355.929
681.265	399.446
684.158	437.911
687.05	442.927
689.943	418.092
692.836	407.024
695.729	393.312
698.621	438.204
701.514	408.712
704.407	393.015
707.299	310.425
710.192	292.263
713.085	241.185
715.977	264.138
718.87	230.239
721.763	222.047
724.655	137.31
727.548	164.284
730.441	175.797
733.334	145.611
736.226	77.6077
739.119	125.875
742.012	107.374
744.904	20.9753
747.797	25.5881
750.69	36.0762
753.582	22.6455
756.475	14.7529
759.368	11.9729
762.261	9.96313
765.153	4.1709
768.046	78.24
770.939	0.29834
773.831	8.53296
776.724	18.6067
779.617	32.1072
782.51	19.8091
785.402	7.40894
788.295	63.2114
791.188	83.938
794.08	63.7395
796.973	87.1013
799.866	44.9562
802.758	29.6859
805.651	116.717
808.544	120.121
811.437	112.464
814.329	119.399
817.222	115.533
820.115	124.151
823.007	139.994
825.9	142.056
828.793	143.905
831.685	137.68
834.578	128.173
837.471	105.316
840.364	95.2914
843.256	79.931
846.149	121.672
849.042	83.5582
851.934	141.407
854.827	92.9954
857.72	97.3467
860.612	25.2726
863.505	72.9254
866.398	73.651
869.29	44.3331
872.183	2.95825
875.076	81.2399
877.969	59.1826
880.861	52.766
883.754	48.8445
886.647	39.4319
889.539	38.8031
892.432	69.0895
895.325	52.2527
898.217	47.9207
901.11	66.4474
904.003	28.1406
906.896	55.6019
909.788	30.6722
912.681	38.0442
915.574	14.4546
918.466	4.72375
921.359	22.5682
924.252	7.57153
927.145	34.1169
930.037	31.3887
932.93	35.7478
935.823	43.0949
938.715	19.1404
941.608	49.517
944.501	40.8425
947.394	59.3948
950.286	14.0641
953.179	80.4008
956.072	53.5282
958.964	33.3614
961.857	33.9183
964.75	29.1885
967.642	43.4379
970.535	7.45667
973.428	28.9982
976.321	16.7277
979.213	24.5692
982.106	12.015
984.999	23.5215
987.891	39.973
990.784	63.7017
993.677	69.3528
996.569	64.3569
999.462	22.1322
1002.36	81.375
1005.25	13.4062
1008.14	58.8585
1011.03	8.54993
1013.93	22.1328
1016.82	17.6909
1019.71	34.9176
1022.6	18.8341
1025.5	13.6268
1028.39	12.7754
1031.28	14.7986
1034.17	26.9426
1037.07	2.12048
1039.96	37.7261
1042.85	20.1604
1045.74	1.97217
1048.64	26.6954
1051.53	34.89
1054.42	6.49744
1057.32	17.6465
1060.21	11.2028
1063.1	40.7178
1065.99	29.2071
1068.89	27.3312
1071.78	28.6499
1074.67	1.45691
1077.57	23.1419
1080.46	28.2035
1083.35	12.0948
1086.24	20.9439
1089.14	24.861
1092.03	4.82129
1094.92	28.7205
1097.81	60.5074
1100.71	4.47351
1103.6	63.3641
1106.49	69.1504
1109.38	74.2134
1112.28	15.7445
1115.17	48.2203
1118.06	48.5247
1120.96	17.0306
1123.85	6.20142
1126.74	46.7756
1129.63	61.0125
1132.53	29.7769
1135.42	28.8173
1138.31	24.9544
1141.2	56.6686
1144.1	25.963
1146.99	5.15674
1149.88	13.1821
1152.78	31.8503
1155.67	37.9094
1158.56	15.0831
1161.45	53.9701
1164.35	44.3165
1167.24	89.5985
1170.13	39.3397
1173.02	54.648
1175.92	2.70142
1178.81	25.7209
1181.7	26.6376
1184.6	51.5754
1187.49	75.5953
1190.38	91.9206
1193.27	32.2161
1196.17	72.6503
1199.06	91.9751
1201.95	94.221
1204.84	34.5403
1207.74	23.4227
1210.63	49.4644
1213.52	38.4587
1216.41	38.3843
1219.31	75.2094
1222.2	64.7347
1225.09	89.827
1227.98	30.1431
1230.88	61.2045
1233.77	59.8344
1236.66	13.0306
1239.56	12.0184
1242.45	37.55
1245.34	53.3038
1248.23	109.717
1251.13	73.7781
1254.02	98.5769
1256.91	49.5698
1259.81	54.3023
1262.7	21.9083
1265.59	33.8304
1268.48	20.5558
1271.38	12.4876
