Measurement: Raman, 532 nm, unoriented, Raman Data Processed
Mineral: Hollandite
Rruff sample: R060852
Ideal chemistry: Ba(Mn^4+^_6_Mn^3+^_2_)O_16_
Locality: Ultevis, Sorharas, Sweden
Source: Michael Scott
Description: Black semi-metallic elongated prismatic crystals associated with purple fluorite
Measured chemistry: (Ba_0.71_Pb_0.12_Na_0.11_Sr_0.04_K_0.02_)_Σ=1_(Mn^4+^_5.85_Fe^3+^_1.23_Mn^3+^_0.58_Ti_0.28_Al_0.06_)_Σ=8_O_16_ ; trace amounts of Ca; Mn^4+^ and Mn^3+^ splitted by charge balance
Raman shift (cm-1)	intensity
122.005	0
124.898	73.4218
127.79	77.2331
130.683	64.9663
133.576	5.31104
136.469	83.203
139.361	235.851
142.254	239.857
145.147	209.955
148.039	292.303
150.932	224.902
153.825	283.591
156.718	319.089
159.61	380.15
162.503	422.143
165.396	449.668
168.288	445.525
171.181	507.161
174.074	472.866
176.966	498.934
179.859	518.729
182.752	539.423
185.644	556.581
188.537	539.878
191.43	543.239
194.323	494.806
197.215	439.651
200.108	401.607
203.001	327.584
205.893	248.654
208.786	246.267
211.679	159.626
214.571	139.5
217.464	101.416
220.357	74.9972
223.25	54.8546
226.142	1.27502
229.035	4.66443
231.928	2.24658
234.82	19.3263
237.713	2.79358
240.606	2.54553
243.498	12.4839
246.391	64.5576
249.284	75.4093
252.177	113.14
255.069	195.603
257.962	194.457
260.855	286.967
263.747	347.436
266.64	434.425
269.533	472.578
272.425	528.784
275.318	565.356
278.211	590.432
281.103	518.248
283.996	508.567
286.889	473.162
289.782	388.145
292.674	372.061
295.567	289.243
298.46	215.811
301.352	217.852
304.245	174.188
307.138	160.946
310.031	152.69
312.923	104.917
315.816	95.0474
318.709	76.0019
321.601	49.7666
324.494	40.1598
327.387	23.7719
330.279	36.7779
333.172	21.5743
336.065	7.07458
338.957	3.8385
341.85	6.05786
344.743	5.19006
347.635	12.4785
350.528	18.8723
353.421	17.1898
356.314	9.65771
359.206	2.21814
362.099	4.74597
364.992	20.5196
367.884	31.2944
370.777	45.2733
373.67	58.5012
376.562	87.9677
379.455	112.879
382.348	51.8265
385.241	90.059
388.133	71.1653
391.026	87.2157
393.919	75.3851
396.811	65.7515
399.704	53.0725
402.597	76.5104
405.49	68.8049
408.382	47.3886
411.275	15.85
414.168	13.9531
417.06	32.5514
419.953	28.8818
422.846	1.49231
425.738	8.26953
428.631	1.89197
431.524	15.2322
434.416	2.60425
437.309	26.021
440.202	73.7764
443.094	92.1401
445.987	111.675
448.88	111.186
451.773	132.367
454.665	167.727
457.558	155.361
460.451	147.399
463.343	157.215
466.236	143.908
469.129	208.11
472.022	205.345
474.914	231.56
477.807	254.011
480.7	225.409
483.592	271.279
486.485	327.271
489.378	312.512
492.27	391.079
495.163	366.954
498.056	370.179
500.949	358.31
503.841	291.404
506.734	277.476
509.627	255.29
512.519	188.067
515.412	153.577
518.305	130.58
521.197	86.011
524.09	58.6426
526.983	30.2009
529.875	24.3247
532.768	32.113
535.661	14.8008
538.554	36.8457
541.446	13.9834
544.339	46.1741
547.232	38.8931
550.124	149.669
553.017	148.886
555.91	268.007
558.802	282.693
561.695	406.284
564.588	442.246
567.481	614.385
570.373	670.513
573.266	777.106
576.159	822.811
579.051	857.754
581.944	806.57
584.837	759.736
587.729	741.182
590.622	610.025
593.515	486.887
596.408	409.535
599.3	352.42
602.193	344.025
605.086	294.612
607.978	266.024
610.871	298.219
613.764	281.173
616.656	292.879
619.549	274.215
622.442	256.623
625.335	248.219
628.227	209.473
631.12	206.85
634.013	154.7
636.905	118.822
639.798	128.733
642.691	88.8127
645.583	38.9697
648.476	74.4502
651.369	25.3018
654.261	47.1272
657.154	24.9331
660.047	23.9861
662.94	36.4834
665.832	32.1233
668.725	8.94324
671.618	11.5647
674.51	28.0211
677.403	25.6266
680.296	12.7033
683.188	2.43945
686.081	4.00207
688.974	34.5106
691.866	45.667
694.759	28.4442
697.652	11.9307
700.545	24.5851
703.437	18.0689
706.33	14.4122
709.223	0.549072
712.115	6.36841
715.008	2.8446
717.901	40.5039
720.793	22.9193
723.686	44.3235
726.579	9.78198
729.472	61.7989
732.364	39.1061
735.257	39.1487
738.15	20.7555
741.042	31.0969
743.935	26.4811
746.828	26.1537
749.721	54.1521
752.613	51.5008
755.506	49.0804
758.399	26.7307
761.291	23.459
764.184	1.82092
767.077	1.94666
769.969	7.29089
772.862	5.62695
775.755	3.38611
778.648	28.8059
781.54	6.56226
784.433	8.96692
787.326	21.7462
790.218	14.4764
793.111	47.2801
796.004	38.4525
798.896	28.0175
801.789	39.08
804.682	19.5109
807.574	42.4033
810.467	45.058
813.36	46.9427
816.253	34.2935
819.145	38.2375
822.038	24.7954
824.931	44.3198
827.823	18.6959
830.716	43.1794
833.609	36.8458
836.501	19.8849
839.394	41.6113
842.287	27.8541
845.179	16.6791
848.072	24.0463
850.965	32.46
853.858	24.3534
856.75	12.5618
859.643	37.4312
862.536	28.5593
865.428	17.2841
868.321	10.8247
871.214	22.1068
874.106	24.4885
876.999	14.8054
879.892	14.8055
882.784	3.14673
885.677	14.15
888.57	20.751
891.463	2.10547
894.355	20.9072
897.248	30.9797
900.141	17.8893
903.033	26.5247
905.926	18.808
908.819	1.53326
911.712	1.61121
914.604	4.08563
917.497	29.0513
920.39	1.30524
923.282	13.2586
926.175	3.43848
929.068	16.5823
931.96	8.63709
934.853	6.12237
937.746	41.433
940.639	17.9157
943.531	44.6091
946.424	35.9047
949.317	5.81867
952.209	7.4361
955.102	9.70984
957.995	9.44635
960.887	41.7257
963.78	18.5994
966.673	37.3454
969.566	22.3613
972.458	6.77203
975.351	51.3091
978.244	21.0506
981.136	21.3667
984.029	33.3406
986.922	23.0812
989.814	27.5328
992.707	27.249
995.6	17.5849
998.492	1.06488
1001.38	31.1088
1004.28	1.37909
1007.17	9.2973
1010.06	38.8875
1012.96	12.292
1015.85	30.2377
1018.74	30.9692
1021.63	23.9206
1024.53	38.423
1027.42	4.48944
1030.31	17.7733
1033.2	17.5916
1036.1	23.5132
1038.99	15.8868
1041.88	34.9596
1044.78	14.103
1047.67	30.5383
1050.56	32.9277
1053.45	24.9707
1056.35	16.1165
1059.24	29.4874
1062.13	50.1235
1065.03	47.1737
1067.92	26.0206
1070.81	41.2689
1073.7	19.0888
1076.6	33.4309
1079.49	3.40356
1082.38	14.6008
1085.27	36.8555
1088.17	29.5361
1091.06	30.1183
1093.95	22.068
1096.84	61.9139
1099.74	36.7766
1102.63	38.9155
1105.52	54.2701
1108.41	40.2597
1111.31	12.9263
1114.2	31.2986
1117.09	23.6329
1119.99	41.1088
1122.88	21.4952
1125.77	0.507629
1128.66	18.9507
1131.56	10.6635
1134.45	14.7706
1137.34	27.869
1140.23	16.6403
1143.13	1.0553
1146.02	23.6797
1148.91	17.6567
1151.81	4.55249
1154.7	23.4758
1157.59	36.053
1160.48	5.6048
1163.38	21.9051
1166.27	10.2341
1169.16	0.671692
1172.05	9.18176
1174.95	26.3227
1177.84	19.5293
1180.73	46.3711
1183.62	29.1845
1186.52	37.307
1189.41	26.8588
1192.3	28.2672
1195.2	38.1828
1198.09	37.1332
1200.98	33.2847
1203.87	25.1035
1206.77	42.9701
1209.66	35.4443
1212.55	35.3017
1215.44	66.6234
1218.34	0.210632
1221.23	34.6101
1224.12	44.32
1227.02	31.0703
1229.91	31.85
1232.8	22.3899
1235.69	20.5781
1238.59	37.035
1241.48	34.5731
1244.37	30.3284
1247.26	38.4819
1250.16	16.327
1253.05	38.7306
1255.94	12.1938
1258.84	37.3742
1261.73	0.071228
