Measurement: Raman, 785 nm, unoriented, Raman Data Processed
Mineral: Hollandite
Rruff sample: R070539
Ideal chemistry: Ba(Mn^4+^_6_Mn^3+^_2_)O_16_
Locality: Tangen mine, Hurdalsjoen, Nannestad, Akershus, Norway
Source: James Shigley
Description: Fibrous dark gray submetallic crystals
Measured chemistry: (Ba_0.94_[box]_0.06_)_Σ=1_(Mn^4+^_7.06_Mn^2+^_0.94_)_Σ=8_O_16_; Mn^4+^ and Mn^2+^ splitted by charge balance
Raman shift (cm-1)	intensity
156.595	0
159.487	70.9326
162.38	127.201
165.273	110.087
168.165	108.018
171.058	61.9968
173.951	13.0874
176.843	24.1934
179.736	25.6863
182.629	100.02
185.522	89.5254
188.414	88.5598
191.307	42.7197
194.2	53.9534
197.092	39.9187
199.985	60.5386
202.878	0.137695
205.77	51.2222
208.663	18.3279
211.556	6.31177
214.448	1.59302
217.341	10.4094
220.234	13.8342
223.127	20.6799
226.019	28.552
228.912	28.9387
231.805	13.7358
234.697	21.5159
237.59	74.3262
240.483	25.1562
243.375	29.0079
246.268	18.0645
249.161	61.4875
252.054	10.8027
254.946	44.1892
257.839	44.6954
260.732	53.5172
263.625	37.49
266.517	79.2855
269.41	76.2163
272.303	66.7334
275.195	88.8258
278.088	124.267
280.981	86.9756
283.873	100.593
286.766	73.1947
289.659	111.615
292.551	112.715
295.444	76.7812
298.337	99.3267
301.23	68.2675
304.122	52.3887
307.015	41.5985
309.908	45.9794
312.8	51.1567
315.693	42.5704
318.586	6.02295
321.478	25.9194
324.371	20.7972
327.264	20.3207
330.157	4.30298
333.049	17.8065
335.942	3.2511
338.835	16.8784
341.727	5.42407
344.62	0.292603
347.513	16.0804
350.405	27.1025
353.298	19.5248
356.191	12.6821
359.084	37.5558
361.976	43.8617
364.869	26.481
367.762	30.5883
370.654	50.1083
373.547	23.7931
376.44	65.693
379.332	60.7098
382.225	77.6477
385.118	52.9519
388.01	77.32
390.903	91.345
393.796	78.3333
396.689	77.8336
399.581	69.641
402.474	94.9686
405.367	34.0903
408.259	67.3727
411.152	53.3859
414.045	14.3286
416.938	46.9875
419.83	13.5022
422.723	14.5185
425.616	1.98315
428.508	9.85803
431.401	5.4845
434.294	25.3291
437.186	18.5547
440.079	0.919556
442.972	9.39587
445.865	5.27661
448.757	7.48926
451.65	4.94873
454.543	3.42505
457.435	37.3942
460.328	41.5544
463.221	27.2698
466.113	51.7656
469.006	44.5076
471.899	35.7756
474.791	16.6141
477.684	49.2485
480.577	26.0388
483.47	61.2458
486.362	62.0298
489.255	94.1042
492.148	61.6571
495.04	87.1376
497.933	60.6169
500.826	53.6986
503.719	52.4721
506.611	77.5666
509.504	54.1025
512.397	31.7993
515.289	22.0654
518.182	8.51123
521.075	1.42639
523.967	44.2832
526.86	2.32666
529.753	7.20252
532.646	11.4852
535.538	52.7108
538.431	6.88135
541.324	21.3903
544.216	48.4076
547.109	9.84094
550.002	41.8638
552.894	48.2797
555.787	44.5436
558.68	38.8728
561.573	50.2057
564.465	76.7034
567.358	82.5836
570.251	111.091
573.143	170.219
576.036	184.619
578.929	177.785
581.822	190.571
584.714	214.799
587.607	216.675
590.5	218.487
593.392	206.299
596.285	196.191
599.178	176.769
602.07	181.234
604.963	176.956
607.856	191.637
610.748	130.444
613.641	159.632
616.534	170.326
619.427	164.238
622.319	141.952
625.212	166.543
628.105	100.739
630.997	98.7047
633.89	122.395
636.783	112.5
639.675	104.987
642.568	95.5794
645.461	76.2304
648.354	35.5712
651.246	57.0518
654.139	83.8367
657.032	51.0223
659.924	56.1422
662.817	11.8259
665.71	24.2773
668.602	1.13318
671.495	31.403
674.388	31.0377
677.28	38.6054
680.173	10.7561
683.066	8.52954
685.959	15.8369
688.851	32.8159
691.744	9.53552
694.637	11.1199
697.529	3.60205
700.422	6.35681
703.315	26.2904
706.207	24.1068
709.1	3.92993
711.993	11.6759
714.886	13.0912
717.778	28.0367
720.671	21.8628
723.564	16.6427
726.456	20.1199
729.349	25.219
732.242	33.2651
735.135	36.8083
738.027	23.3024
740.92	26.1679
743.813	10.1918
746.705	13.7816
749.598	4.9779
752.491	8.36267
755.383	14.0056
758.276	6.48352
761.169	1.68042
764.062	4.58228
766.954	27.6285
769.847	22.6344
772.74	13.6598
775.632	1.58203
778.525	28.6495
781.418	13.4557
784.31	21.8109
787.203	8.776
790.096	23.1617
792.989	11.5075
795.881	6.52539
798.774	11.6156
801.667	21.9301
804.559	16.9303
807.452	0.442017
810.345	14.1065
813.237	23.0693
816.13	12.1389
819.023	2.67981
821.915	11.0001
824.808	13.6177
827.701	9.86487
830.594	25.0524
833.486	22.746
836.379	29.5088
839.272	7.28638
842.164	12.156
845.057	9.41504
847.95	18.2942
850.842	21.5472
853.735	3.21533
856.628	22.7844
859.521	36.4071
862.413	22.1803
865.306	10.0292
868.199	0.575439
871.091	36.9937
873.984	32.2189
876.877	14.1457
879.769	10.0021
882.662	35.0647
885.555	15.5781
888.448	43.5953
891.34	42.6796
894.233	4.87219
897.126	36.6077
900.018	34.9962
902.911	17.9877
905.804	30.8142
908.697	47.4506
911.589	33.7067
914.482	19.9415
917.375	38.8196
920.267	25.0951
923.16	15.7557
926.053	29.39
928.945	45.0883
931.838	33.4089
934.731	26.0316
937.624	11.0908
940.516	30.5669
943.409	30.3993
946.302	4.50513
949.194	32.8037
952.087	14.3169
954.98	40.6354
957.872	37.993
960.765	2.3147
963.658	23.0273
966.551	19.8953
969.443	27.3628
972.336	31.6959
975.229	21.6242
978.121	57.6685
981.014	25.9614
983.907	20.8281
986.799	35.4789
989.692	5.91382
992.585	13.2354
995.477	13.1216
998.37	15.5281
1001.26	21.6051
1004.16	11.8196
1007.05	29.1589
1009.94	16.4657
1012.83	0.898438
1015.73	34.1061
1018.62	0.106079
1021.51	54.9557
1024.4	23.4614
1027.3	36.4131
1030.19	38.1028
1033.08	26.3353
1035.97	42.8002
1038.87	25.4739
1041.76	17.0935
1044.65	23.0444
1047.55	9.9342
1050.44	4.42932
1053.33	27.4927
1056.22	4.44019
1059.12	52.338
1062.01	30.957
1064.9	35.0832
1067.8	16.8845
1070.69	6.28833
1073.58	22.9651
1076.47	4.14587
1079.37	26.283
1082.26	9.59363
1085.15	16.9552
1088.04	0.784668
1090.94	27.0142
1093.83	13.9753
1096.72	1.1554
1099.62	14.9656
1102.51	24.6456
1105.4	8.59876
1108.29	38.0852
1111.19	22.9395
1114.08	20.3581
1116.97	12.3013
1119.86	6.09631
1122.76	15.989
1125.65	32.7859
1128.54	25.5027
1131.43	43.6372
1134.33	6.07532
1137.22	38.5699
1140.11	23.9811
1143.01	25.2375
1145.9	20.2705
1148.79	55.1877
1151.68	14.1218
1154.58	37.4552
1157.47	34.7078
1160.36	1.49182
1163.25	18.0143
1166.15	10.5325
1169.04	14.0145
1171.93	6.61768
1174.83	23.3926
1177.72	18.1753
1180.61	11.8088
1183.5	19.6658
1186.4	26.3117
1189.29	24.697
1192.18	14.9517
1195.07	46.6165
1197.97	49.9817
1200.86	4.80823
1203.75	25.9901
1206.64	12.8552
1209.54	24.5214
1212.43	47.9145
1215.32	49.1504
1218.21	20.3331
1221.11	20.6422
1224	22.7804
1226.89	50.0241
1229.79	44.0653
1232.68	39.5795
1235.57	27.3702
1238.46	33.0614
1241.36	18.4448
1244.25	11.0453
1247.14	15.1264
1250.04	2.0639
1252.93	20.2838
1255.82	3.63397
1258.71	31.3539
