Measurement: Raman, 532 nm, unoriented, Raman Data Processed
Mineral: Holtedahlite
Rruff sample: R060710
Ideal chemistry: Mg_12_(PO_3_OH,CO_3_)(PO_4_)_5_(OH,O)_6_
Locality: Tingelstadtjern, Modum, Norway
Source: Bob Jenkins
Description: Pale grey crystals embedded in matrix
Raman shift (cm-1)	intensity
136.468	0
139.361	206.348
142.254	156.45
145.146	213.871
148.039	252.039
150.932	302.709
153.824	435.177
156.717	387.027
159.61	533.534
162.503	712.265
165.395	749.589
168.288	652.514
171.181	758.304
174.073	647.359
176.966	687.053
179.859	801.659
182.751	788.573
185.644	828.284
188.537	973.528
191.43	1313.12
194.322	1607.23
197.215	2175.89
200.108	2964.4
203	2995.52
205.893	1748.7
208.786	1147.33
211.678	786.467
214.571	674.495
217.464	704.177
220.357	788.784
223.249	869.903
226.142	873.599
229.035	924.956
231.927	907.042
234.82	708.369
237.713	677.371
240.605	460.35
243.498	445.768
246.391	468.164
249.284	497.447
252.176	396.16
255.069	343.68
257.962	275.916
260.854	304.584
263.747	618.213
266.64	506.75
269.532	482.795
272.425	595.75
275.318	753.234
278.211	805.527
281.103	849.932
283.996	864.525
286.889	820.543
289.781	725.988
292.674	500.131
295.567	442.926
298.459	436.684
301.352	472.277
304.245	591.592
307.138	576.34
310.03	477.156
312.923	319.412
315.816	239.25
318.708	294.662
321.601	292.572
324.494	433.002
327.386	493.9
330.279	438.076
333.172	369.5
336.065	441.066
338.957	617.918
341.85	792.195
344.743	985.279
347.635	1601.98
350.528	2277.34
353.421	2552.28
356.313	2330.64
359.206	1588.52
362.099	1039.79
364.991	660.955
367.884	564.814
370.777	454.314
373.67	826.957
376.562	973.303
379.455	671.873
382.348	851.688
385.24	1165.5
388.133	1320.95
391.026	1477.98
393.918	1340.66
396.811	790.412
399.704	272.994
402.597	169.453
405.489	123.238
408.382	192.301
411.275	307.652
414.167	338.078
417.06	534.482
419.953	693.258
422.845	862.041
425.738	1053.37
428.631	1150.5
431.524	982.586
434.416	1003.78
437.309	892.332
440.202	785.893
443.094	811.869
445.987	650.418
448.88	580.553
451.772	465.842
454.665	468.682
457.558	434.805
460.451	507.984
463.343	399.797
466.236	280.861
469.129	321.227
472.021	379.992
474.914	241.863
477.807	70.871
480.699	116.492
483.592	50.414
486.485	206.615
489.378	42.574
492.27	132.113
495.163	3.705
498.056	19.105
500.948	5.082
503.841	61.027
506.734	87.039
509.626	84.389
512.519	129.762
515.412	296.516
518.305	373.113
521.197	623.99
524.09	765.219
526.983	843.482
529.875	856.979
532.768	1058.06
535.661	1207.1
538.553	1479.13
541.446	1812.34
544.339	2222.22
547.231	2620.34
550.124	2318.41
553.017	1627.68
555.909	881.717
558.802	375.779
561.695	245.088
564.588	281.312
567.48	216.305
570.373	274.084
573.266	268.783
576.158	234.143
579.051	6.066
581.944	134.254
584.836	0.199
587.729	121.922
590.622	159.764
593.515	27.932
596.407	71.293
599.3	151.299
602.193	3.016
605.085	34.656
607.978	223.266
610.871	424.754
613.763	331.18
616.656	386.318
619.549	259.572
622.442	321.236
625.334	262.789
628.227	168.795
631.12	93.531
634.012	156.598
636.905	254.139
639.798	267.863
642.69	406.654
645.583	683.672
648.476	924.838
651.369	1377
654.261	1536.31
657.154	1727.8
660.047	1814.6
662.939	1868.11
665.832	2389.76
668.725	2793
671.617	3270.27
674.51	3555.46
677.403	4057.39
680.296	4283.13
683.188	4588.23
686.081	4305.31
688.974	3973.47
691.866	3456.09
694.759	2858.25
697.652	2111.92
700.544	1682.59
703.437	1367.88
706.33	1224.47
709.222	980.941
712.115	661.457
715.008	638.715
717.901	675.562
720.793	567.262
723.686	563.082
726.579	441.887
729.471	356.32
732.364	57.391
735.257	345.707
738.149	198.082
741.042	129.25
743.935	318.891
746.828	399.637
749.72	447.324
752.613	169.672
755.506	259.527
758.398	204.453
761.291	32.664
764.184	65.367
767.076	80.805
769.969	175.828
772.862	198.582
775.755	55.77
778.647	75.508
781.54	44.438
784.433	27.871
787.325	35.656
790.218	52.102
793.111	57.734
796.003	96.008
798.896	7.406
801.789	10.344
804.682	2.664
807.574	109.621
810.467	10.273
813.36	78.621
816.252	121.012
819.145	193.574
822.038	213.34
824.93	151.77
827.823	107.844
830.716	8.992
833.609	3.645
836.501	75.055
839.394	5.508
842.287	103.453
845.179	10.238
848.072	28.043
850.965	158.965
853.857	132.422
856.75	228.945
859.643	23.148
862.536	41.879
865.428	3.969
868.321	42.062
871.214	269.773
874.106	125.715
876.999	98.133
879.892	6.68
882.784	0.578
885.677	154.941
888.57	112.293
891.463	170.793
894.355	398.039
897.248	518.695
900.141	129.719
903.033	168.727
905.926	56.422
908.819	206.832
911.711	23.941
914.604	56.035
917.497	87.285
920.39	147.969
923.282	385.691
926.175	521.191
929.068	483.203
931.96	482.371
934.853	372.566
937.746	381.742
940.638	386.914
943.531	591.113
946.424	849.465
949.317	1008.56
952.209	1653.83
955.102	2779.18
957.995	4215.72
960.887	4861.91
963.78	3501.89
966.673	1901.64
969.565	1118.07
972.458	683.496
975.351	596.949
978.244	644.469
981.136	695.207
984.029	485.242
986.922	497.023
989.814	366.777
992.707	419.852
995.6	559.684
998.492	502.066
1001.38	613.262
1004.28	633.113
1007.17	654.211
1010.06	541.715
1012.96	697.367
1015.85	747.195
1018.74	603.73
1021.63	602.254
1024.53	802.77
1027.42	956.609
1030.31	769.699
1033.2	708.07
1036.1	930.574
1038.99	1249.21
1041.88	1245.81
1044.78	995.207
1047.67	1026.65
1050.56	1005.66
1053.45	1401.39
1056.35	1584.12
1059.24	1326.61
1062.13	931.496
1065.02	787.863
1067.92	542.098
1070.81	485.66
1073.7	576.449
1076.6	767.348
1079.49	291.191
1082.38	421.848
1085.27	557.379
1088.17	658.785
1091.06	484.121
1093.95	610.348
1096.84	690.785
1099.74	520.461
1102.63	503.035
1105.52	553.031
1108.41	310.184
1111.31	246.723
1114.2	148.996
1117.09	164.711
1119.99	154.953
1122.88	49.445
1125.77	189.793
1128.66	226.242
1131.56	307.66
1134.45	168.203
1137.34	275.312
1140.23	263.895
1143.13	26.484
1146.02	20.199
1148.91	179.191
1151.81	295.906
1154.7	150.957
1157.59	371.531
1160.48	57.172
1163.38	40.082
1166.27	187.527
1169.16	36.328
1172.05	29.031
1174.95	236.117
1177.84	19.047
1180.73	14.777
1183.62	142.02
1186.52	86.258
1189.41	14.996
1192.3	174.918
1195.2	72.52
1198.09	241.473
1200.98	129.746
1203.87	211.797
1206.77	35.578
1209.66	39.066
1212.55	102.027
1215.44	94.605
1218.34	53.934
1221.23	240.598
1224.12	180.172
1227.02	95.691
1229.91	6.215
1232.8	196.965
1235.69	169.176
1238.59	221.773
1241.48	7.344
1244.37	121.898
1247.26	266.246
1250.16	211.254
1253.05	265.965
1255.94	17.164
1258.84	365.129
1261.73	14.754
1264.62	349.613
1267.51	253.223
1270.41	186.84
1273.3	236.586
1276.19	498.309
1279.08	114.113
1281.98	117.715
1284.87	68.793
1287.76	117.133
