Measurement: Raman, 532 nm, unoriented, Raman Data Processed
Mineral: Holtite
Rruff sample: R061049
Ideal chemistry: (Ta_0.6_[box]_0.4_)Al_6_BSi_3_O_18_
Locality: Kola Peninsula, U.S.S.R.
Source: Michael Scott
Description: Blocky crystals; as pseudohexagonal elongated needles, light buff to cream-buff or deep olive-buff in color. Crystals are twinned by a 2-fold rotation around [010].
Raman shift (cm-1)	intensity
196.465	0
199.358	7.59375
202.25	129.305
205.143	165.715
208.036	234.336
210.928	277.414
213.821	403.394
216.714	370.637
219.607	546.738
222.499	269.402
225.392	229.297
228.285	302.598
231.177	43.332
234.07	161.383
236.963	145.156
239.855	275.375
242.748	291.734
245.641	338.188
248.534	358.113
251.426	532.754
254.319	504.699
257.212	556.152
260.104	385.449
262.997	437.332
265.89	605.719
268.782	554.109
271.675	667.012
274.568	825.207
277.461	922.281
280.353	775.414
283.246	904.371
286.139	867.789
289.031	833.078
291.924	793.426
294.817	826.996
297.709	616.156
300.602	613.512
303.495	463.047
306.387	359.41
309.28	120.148
312.173	108.731
315.066	31.6016
317.958	129.547
320.851	51.8867
323.744	69.6289
326.636	26.875
329.529	9.62891
332.422	105.559
335.315	173.113
338.207	272.273
341.1	358.004
343.993	415.852
346.885	502.953
349.778	605.488
352.671	841.988
355.563	809.844
358.456	1168.64
361.349	1188.63
364.242	1102.36
367.134	936.394
370.027	842.996
372.92	779.578
375.812	587.398
378.705	396.738
381.598	330.305
384.49	345.195
387.383	513.172
390.276	463.731
393.169	593.359
396.061	719.348
398.954	907.461
401.847	864.047
404.739	1018.42
407.632	1090.21
410.525	1095.62
413.418	1042.21
416.31	1148
419.203	962.07
422.096	1000.66
424.988	913.484
427.881	734.781
430.774	578.383
433.666	391.582
436.559	483.199
439.452	242.652
442.344	73.5742
445.237	170.242
448.13	48.3281
451.023	7.3125
453.915	35.1797
456.808	113.965
459.701	8.44531
462.593	241.984
465.486	393.238
468.379	327.926
471.272	522.805
474.164	680.641
477.057	777.812
479.95	1046.11
482.842	1103.91
485.735	1050
488.628	931.887
491.52	836.441
494.413	834.992
497.306	922.883
500.199	880.523
503.091	909.965
505.984	887.207
508.877	800.438
511.769	685.797
514.662	239.137
517.555	169.586
520.447	48.3242
523.34	40.7344
526.233	27.2656
529.125	39.8945
532.018	135.887
534.911	197.164
537.804	301.852
540.696	580.938
543.589	706.383
546.482	1054.76
549.375	1305.22
552.267	1442.39
555.16	1648.14
558.053	1677.87
560.945	1676.91
563.838	1733.12
566.731	1694.84
569.623	1555.76
572.516	1514.18
575.409	1438.51
578.302	1223.6
581.194	1007.42
584.087	793.098
586.98	647.977
589.872	652.211
592.765	480.984
595.658	530.344
598.55	240.758
601.443	356.945
604.336	252.168
607.229	188.801
610.121	95.3516
613.014	186.805
615.907	37.9453
618.799	141.789
621.692	147.117
624.585	29.0156
627.477	179.012
630.37	116.359
633.263	94.7461
636.155	86.1992
639.048	55.4102
641.941	190.621
644.834	72.0508
647.726	155.606
650.619	129.07
653.512	225.062
656.404	178.195
659.297	142.285
662.19	0.964844
665.082	9.88672
667.975	69.1328
670.868	101.992
673.761	10.625
676.653	20.9023
679.546	60.2656
682.439	73.6836
685.331	63.5898
688.224	38.1406
691.117	118.789
694.01	120.617
696.902	94.1211
699.795	202.191
702.688	258.648
705.58	219.66
708.473	370.125
711.366	229.82
714.258	276.008
717.151	337.981
720.044	179.879
722.937	170.719
725.829	153.598
728.722	285.305
731.615	381.648
734.507	242.398
737.4	194.949
740.293	316.469
743.186	296.266
746.078	165.148
748.971	395.117
751.864	333.438
754.756	101.461
757.649	135.57
760.542	343.164
763.434	201.672
766.327	98.3867
769.22	4.42969
772.112	33.8086
775.005	86.8086
777.898	109.793
780.791	74.6836
783.683	130.016
786.576	70.2578
789.469	140.84
792.361	362.551
795.254	257.926
798.147	161.574
801.039	410.93
803.932	225.789
806.825	183.379
809.718	306.332
812.61	435.5
815.503	397.828
818.396	305.195
821.288	395.973
824.181	358.863
827.074	261.039
829.966	370.488
832.859	189.219
835.752	165.152
838.645	178.461
841.537	240.738
844.43	180.715
847.323	242.477
850.215	475.293
853.108	385.711
856.001	420.75
858.894	425.734
861.786	306.531
864.679	406.246
867.572	303.219
870.464	294.137
873.357	255.047
876.25	289.336
879.142	307.059
882.035	59.4844
884.928	20.168
887.821	230.234
890.713	83.9648
893.606	18.9727
896.499	19.0078
899.391	59.9648
902.284	300
905.177	64.5391
908.069	252.051
910.962	470.734
913.855	435.379
916.748	622.805
919.64	693.586
922.533	890.027
925.426	1003.8
928.318	1148.4
931.211	1112.71
934.104	1274.15
936.996	1372.77
939.889	1642.89
942.782	1760.91
945.675	1846.02
948.567	1725.23
951.46	1640.81
954.353	1468.36
957.245	1288.4
960.138	1130.67
963.031	817.348
965.923	500.586
968.816	590.871
971.709	378.168
974.602	241.293
977.494	155.805
980.387	18.9688
983.28	292.832
986.172	138.41
989.065	268.672
991.958	108.945
994.851	115.078
997.743	77.4492
1000.64	74.9844
1003.53	59.7305
1006.42	152.359
1009.31	160.117
1012.21	120.863
1015.1	245.551
1017.99	224.191
1020.88	86.668
1023.78	93.4961
1026.67	121.945
1029.56	123.66
1032.46	13.5352
1035.35	8.10547
1038.24	49.4023
1041.13	30.918
1044.03	346.629
1046.92	210.305
1049.81	217.141
1052.7	168.672
1055.6	58.5508
1058.49	152.555
1061.38	225.301
1064.28	327.129
1067.17	200.598
1070.06	95.9023
1072.95	252.231
1075.85	23.0781
1078.74	272.672
1081.63	207.984
1084.52	224.293
1087.42	133.797
1090.31	237.754
1093.2	224.949
1096.1	63.875
1098.99	178.41
1101.88	110.242
1104.77	132.617
1107.67	288.676
1110.56	324.254
1113.45	248.938
1116.34	360.758
1119.24	324.004
1122.13	319.875
1125.02	427.473
1127.91	624.113
1130.81	732.113
1133.7	651.562
1136.59	519.469
1139.49	607.188
1142.38	747.113
1145.27	456.953
1148.16	606.625
1151.06	519.863
1153.95	387.926
1156.84	264.223
1159.73	378.793
1162.63	211.223
1165.52	270.215
1168.41	41.9141
1171.31	186.457
1174.2	59.0469
1177.09	95.8438
1179.98	27.1875
1182.88	4.74609
1185.77	161.926
1188.66	197.102
1191.55	149.188
1194.45	182.176
1197.34	142.547
1200.23	68.2812
1203.12	222.414
1206.02	145.523
1208.91	178.906
1211.8	102.754
1214.7	206.066
1217.59	165.387
1220.48	112.301
1223.37	206.945
1226.27	101.137
1229.16	244.812
1232.05	251.852
1234.94	165.785
1237.84	41.043
1240.73	173.824
1243.62	105.457
1246.52	94.3906
1249.41	54.4414
1252.3	117.051
1255.19	389.723
1258.09	342.012
1260.98	269.203
1263.87	98.0898
1266.76	286.902
1269.66	6.87109
1272.55	365.199
1275.44	311.199
1278.34	83.5781
1281.23	164.207
1284.12	240.074
1287.01	266.098
1289.91	43.668
1292.8	125.133
1295.69	182.754
1298.58	180.113
1301.48	46.9023
