Measurement: Raman, 785 nm, unoriented, Raman Data Processed
Mineral: Holtite
Rruff sample: R061049
Ideal chemistry: (Ta_0.6_[box]_0.4_)Al_6_BSi_3_O_18_
Locality: Kola Peninsula, U.S.S.R.
Source: Michael Scott
Description: Blocky crystals; as pseudohexagonal elongated needles, light buff to cream-buff or deep olive-buff in color. Crystals are twinned by a 2-fold rotation around [010].
Raman shift (cm-1)	intensity
108.993	0
111.885	91.5697
114.778	234.988
117.671	112.12
120.564	38.5299
123.456	18.7858
126.349	235.897
129.242	542.736
132.134	619.779
135.027	327.148
137.92	315.973
140.812	726.67
143.705	1334.89
146.598	1949.63
149.491	2131.76
152.383	1942.32
155.276	1642.18
158.169	1549.52
161.061	1632.09
163.954	1805.29
166.847	1984.11
169.739	1856.86
172.632	1725.24
175.525	1571.25
178.418	1439.22
181.31	1372.38
184.203	1398.87
187.096	1356.11
189.988	1383.57
192.881	1360.64
195.774	1379.87
198.667	1410.69
201.559	1385.6
204.452	1391.55
207.345	1310.36
210.237	1288.63
213.13	1271.41
216.023	1279.08
218.915	1267.57
221.808	1207.1
224.701	940.601
227.594	723.429
230.486	532.663
233.379	431.923
236.272	347.301
239.164	288.381
242.057	293.419
244.95	344.43
247.842	361.144
250.735	422.476
253.628	360.142
256.521	309.725
259.413	356.32
262.306	274.634
265.199	340.281
268.091	378.982
270.984	515.66
273.877	662.296
276.769	730.803
279.662	802.227
282.555	795.938
285.447	878.843
288.34	746.333
291.233	705.639
294.126	652.188
297.018	628.492
299.911	617.648
302.804	515.557
305.696	391.108
308.589	199.035
311.482	66.4243
314.375	48.6938
317.267	121.228
320.16	157.765
323.053	84.1196
325.945	8.32764
328.838	10.0532
331.731	54.1216
334.623	148.707
337.516	133.632
340.409	246.721
343.301	266.384
346.194	373.236
349.087	447.527
351.98	626.634
354.872	752.681
357.765	949.403
360.658	1001.62
363.55	1047.02
366.443	1005.77
369.336	939.349
372.228	820.834
375.121	677.663
378.014	554.541
380.907	420.606
383.799	352.606
386.692	301.048
389.585	365.408
392.477	499.735
395.37	570.688
398.263	724.214
401.156	815.091
404.048	808.962
406.941	901.916
409.834	970.309
412.726	1029.81
415.619	1073.1
418.512	1036.6
421.404	989.565
424.297	853.614
427.19	720.113
430.082	595.592
432.975	458.22
435.868	325.116
438.761	237.667
441.653	144.942
444.546	78.3223
447.439	13.1841
450.331	27.0474
453.224	6.91211
456.117	18.6914
459.01	70.4668
461.902	172.645
464.795	251.703
467.688	360.972
470.58	476.483
473.473	624.445
476.366	721.953
479.258	820.767
482.151	867.638
485.044	909.101
487.937	943.794
490.829	920.685
493.722	937.133
496.615	970.034
499.507	960.101
502.4	1015.34
505.293	982.291
508.185	939.425
511.078	762.593
513.971	530.175
516.864	317.384
519.756	160.257
522.649	22.273
525.542	19.7524
528.434	43.4072
531.327	48.9346
534.22	20.7812
537.112	185.975
540.005	319.491
542.898	482.225
545.79	626.47
548.683	799.561
551.576	1002.14
554.469	1094.91
557.361	1246.42
560.254	1235.02
563.147	1250.98
566.039	1232.39
568.932	1234.27
571.825	1204.17
574.717	1088.46
577.61	1072.32
580.503	1000.44
583.396	906.863
586.288	816.997
589.181	669.826
592.074	522.699
594.966	410.425
597.859	374.624
600.752	299.179
603.644	229.469
606.537	190.768
609.43	151.928
612.323	181.682
615.215	111.266
618.108	181.964
621.001	139.549
623.893	74.6694
626.786	103.669
629.679	140.325
632.572	102.489
635.464	88.7896
638.357	101.484
641.25	44.801
644.142	68.646
647.035	63.2019
649.928	32.502
652.82	21.5129
655.713	35.7878
658.606	19.9263
661.499	32.3286
664.391	3.05273
667.284	27.988
670.177	8.68066
673.069	2.729
675.962	4.51269
678.855	18.2044
681.747	45.0735
684.64	41.6638
687.533	32.2805
690.426	55.7617
693.318	40.6379
696.211	55.1907
699.104	52.8506
701.996	44.5776
704.889	69.6653
707.782	29.0542
710.674	82.708
713.567	69.5335
716.46	78.9802
719.352	93.7532
722.245	139.236
725.138	106.291
728.031	117.112
730.923	126.258
733.816	144.54
736.709	156.056
739.601	152.774
742.494	184.912
745.387	101.347
748.279	170.324
751.172	171.121
754.065	146.627
756.958	106.487
759.85	100.838
762.743	70.417
765.636	3.30981
768.528	14.2925
771.421	17.8098
774.314	63.7004
777.207	21.5288
780.099	18.5317
782.992	44.8628
785.885	54.3694
788.777	73.5437
791.67	62.4727
794.563	116.861
797.455	85.3997
800.348	139.625
803.241	129.439
806.134	130.56
809.026	203.14
811.919	238.62
814.812	229.436
817.704	243.519
820.597	191.979
823.49	213.128
826.382	231.654
829.275	223.711
832.168	194.493
835.061	141.779
837.953	153.025
840.846	136.319
843.739	161.663
846.631	253.128
849.524	299.577
852.417	296.858
855.309	302.096
858.202	354.257
861.095	306.493
863.988	272.715
866.88	260.287
869.773	241.095
872.666	181.517
875.558	203.68
878.451	113.46
881.344	129.16
884.236	84.0102
887.129	46.5403
890.022	6.45044
892.915	17.8784
895.807	4.54541
898.7	25.6584
901.593	12.5796
904.485	3.27832
907.378	109.786
910.271	152.71
913.163	228.44
916.056	300.006
918.949	394.22
921.842	422.692
924.734	581.43
927.627	642.946
930.52	758.37
933.412	874.96
936.305	884.825
939.198	966.035
942.091	929.362
944.983	963.904
947.876	965.278
950.769	974.605
953.661	876.945
956.554	756.037
959.447	612.085
962.339	492.036
965.232	403.105
968.125	318.79
971.018	267.618
973.91	191.345
976.803	210.062
979.696	146.27
982.588	92.6221
985.481	90.0444
988.374	73.2744
991.266	15.3484
994.159	17.1238
997.052	67.7964
999.944	79.4273
1002.84	55.5088
1005.73	79.9954
1008.62	89.5933
1011.51	49.2358
1014.41	67.7517
1017.3	39.3967
1020.19	9.32422
1023.09	36.3055
1025.98	32.9797
1028.87	16.0961
1031.76	6.82239
1034.66	46.2675
1037.55	78.7717
1040.44	119.151
1043.34	93.1915
1046.23	118.982
1049.12	116.984
1052.01	151.819
1054.91	128.439
1057.8	121.685
1060.69	94.596
1063.58	71.4556
1066.48	61.8426
1069.37	60.094
1072.26	73.9575
1075.15	32.6309
1078.05	56.0955
1080.94	36.3978
1083.83	34.9429
1086.73	14.34
1089.62	8.81641
1092.51	28.9426
1095.4	13.9484
1098.3	8.46362
1101.19	85.9271
1104.08	85.2301
1106.97	36.6902
1109.87	83.5938
1112.76	76.9271
1115.65	95.9698
1118.55	154.413
1121.44	126.781
1124.33	186.3
1127.22	199.299
1130.12	198.789
1133.01	200.042
1135.9	227.171
1138.79	235.324
1141.69	258.126
1144.58	230.232
1147.47	220.12
1150.37	180.133
1153.26	164.414
1156.15	89.4708
1159.04	120.117
1161.94	47.4541
1164.83	89.3197
1167.72	61.554
1170.61	54.131
1173.51	1.95142
1176.4	32.1323
1179.29	28.3743
1182.18	0.148193
1185.08	31.1033
1187.97	28.1055
1190.86	39.5392
1193.76	22.8175
1196.65	29.7972
1199.54	30.7861
1202.43	1.9303
1205.33	10.3549
1208.22	15.0006
1211.11	7.41614
1214	38.148
1216.9	40.4252
1219.79	74.2892
1222.68	68.7183
1225.58	40.4624
1228.47	47.5021
1231.36	32.5007
1234.25	41.1451
1237.15	0.217896
